#------------------------------------------------------------------------------
#$Date: 2019-11-24 02:48:55 +0200 (Sun, 24 Nov 2019) $
#$Revision: 236333 $
#$URL: file:///home/coder/svn-repositories/cod/cif/4/03/75/4037556.cif $
#------------------------------------------------------------------------------
#
# This file is available in the Crystallography Open Database (COD),
# http://www.crystallography.net/
#
# All data on this site have been placed in the public domain by the
# contributors.
#
data_4037556
loop_
_publ_author_name
'Chithanna, Sivanna'
'Yang, Ding-Yah'
_publ_section_title
;
 Multicomponent Synthesis of 1,3-Diketone-Linked N-Substituted Pyrroles,
 Pyrrolo[1,2- a]pyrazines, Pyrrolo[1,4]diazepines, and
 Pyrrolo[1,4]diazocines.
;
_journal_issue                   3
_journal_name_full               'The Journal of organic chemistry'
_journal_page_first              1339
_journal_page_last               1347
_journal_paper_doi               10.1021/acs.joc.8b02819
_journal_volume                  84
_journal_year                    2019
_chemical_formula_moiety         'C16 H20 N2 O2'
_chemical_formula_sum            'C16 H20 N2 O2'
_chemical_formula_weight         272.34
_space_group_crystal_system      triclinic
_space_group_IT_number           2
_space_group_name_Hall           '-P 1'
_space_group_name_H-M_alt        'P -1'
_atom_sites_solution_hydrogens   mixed
_audit_creation_method           SHELXL-2014/7
_cell_angle_alpha                102.597(3)
_cell_angle_beta                 109.073(3)
_cell_angle_gamma                105.449(3)
_cell_formula_units_Z            2
_cell_length_a                   8.2655(7)
_cell_length_b                   9.2448(8)
_cell_length_c                   10.7843(9)
_cell_measurement_reflns_used    9268
_cell_measurement_temperature    150(2)
_cell_measurement_theta_max      26.392
_cell_measurement_theta_min      2.960
_cell_volume                     707.31(11)
_computing_cell_refinement       'SAINT V7.34A (Bruker AXS, 2006)'
_computing_data_collection       'APEX2 (Bruker AXS, 2010)'
_computing_data_reduction        'SAINT V7.34A (Bruker AXS, 2006)'
_computing_structure_refinement  'SHELXL-2014/7 (Sheldrick, 2014)'
_computing_structure_solution    'SHELXL-2014/7 (Sheldrick, 2014)'
_diffrn_ambient_temperature      150(2)
_diffrn_measured_fraction_theta_full 0.997
_diffrn_measured_fraction_theta_max 0.995
_diffrn_measurement_device_type  'Bruker APEX-II CCD'
_diffrn_measurement_method       '\f and \w scans'
_diffrn_radiation_probe          x-ray
_diffrn_radiation_type           MoK\a
_diffrn_radiation_wavelength     0.71073
_diffrn_reflns_av_R_equivalents  0.0373
_diffrn_reflns_av_unetI/netI     0.0274
_diffrn_reflns_Laue_measured_fraction_full 0.997
_diffrn_reflns_Laue_measured_fraction_max 0.995
_diffrn_reflns_limit_h_max       10
_diffrn_reflns_limit_h_min       -10
_diffrn_reflns_limit_k_max       11
_diffrn_reflns_limit_k_min       -11
_diffrn_reflns_limit_l_max       13
_diffrn_reflns_limit_l_min       -13
_diffrn_reflns_number            14035
_diffrn_reflns_point_group_measured_fraction_full 0.997
_diffrn_reflns_point_group_measured_fraction_max 0.995
_diffrn_reflns_theta_full        25.242
_diffrn_reflns_theta_max         26.391
_diffrn_reflns_theta_min         3.442
_exptl_absorpt_coefficient_mu    0.085
_exptl_absorpt_correction_T_max  0.9281
_exptl_absorpt_correction_T_min  0.8865
_exptl_absorpt_correction_type   multi-scan
_exptl_absorpt_process_details   'SADABS V2012/1 (Bruker AXS Inc.)'
_exptl_crystal_density_diffrn    1.279
_exptl_crystal_description       parallelepiped
_exptl_crystal_F_000             292
_exptl_crystal_size_max          0.400
_exptl_crystal_size_mid          0.330
_exptl_crystal_size_min          0.250
_refine_diff_density_max         0.314
_refine_diff_density_min         -0.202
_refine_diff_density_rms         0.043
_refine_ls_extinction_coef       0.067(7)
_refine_ls_extinction_expression Fc^*^=kFc[1+0.001xFc^2^\l^3^/sin(2\q)]^-1/4^
_refine_ls_extinction_method     'SHELXL-2014/7 (Sheldrick 2014'
_refine_ls_goodness_of_fit_ref   0.968
_refine_ls_hydrogen_treatment    mixed
_refine_ls_matrix_type           full
_refine_ls_number_parameters     186
_refine_ls_number_reflns         2902
_refine_ls_number_restraints     0
_refine_ls_restrained_S_all      0.968
_refine_ls_R_factor_all          0.0407
_refine_ls_R_factor_gt           0.0362
_refine_ls_shift/su_max          0.000
_refine_ls_shift/su_mean         0.000
_refine_ls_structure_factor_coef Fsqd
_refine_ls_weighting_details
'w=1/[\s^2^(Fo^2^)+(0.0565P)^2^+0.2829P] where P=(Fo^2^+2Fc^2^)/3'
_refine_ls_weighting_scheme      calc
_refine_ls_wR_factor_gt          0.0976
_refine_ls_wR_factor_ref         0.1022
_reflns_Friedel_coverage         0.000
_reflns_number_gt                2616
_reflns_number_total             2902
_reflns_threshold_expression     'I > 2\s(I)'
_cod_data_source_file            jo8b02819_si_002.cif
_cod_data_source_block           cs171
_cod_original_cell_volume        707.32(11)
_cod_database_code               4037556
_shelx_shelxl_version_number     2014/7
_shelx_space_group_comment
;
The symmetry employed for this shelxl refinement is uniquely defined
by the following loop, which should always be used as a source of
symmetry information in preference to the above space-group names.
They are only intended as comments.
;
_shelx_estimated_absorpt_t_min   0.967
_shelx_estimated_absorpt_t_max   0.979
_shelx_res_file
;

    cs171.res created by SHELXL-2014/7

TITL cs171 in P-1
CELL 0.71073   8.26550   9.24480  10.78430 102.5967 109.0728 105.4492
ZERR    2.00   0.00070   0.00080   0.00090   0.0028   0.0026   0.0026
LATT 1
SFAC C  H  N  O
UNIT 32  40  4  4
L.S. 8
ACTA
BOND $H
FMAP 2
PLAN 0
SIZE 0.25 0.33 0.40
TEMP -123.160
OMIT -1 0 1
WGHT    0.056500    0.282900
EXTI    0.066614
FVAR       0.35225
O1    4    0.347823    0.560849   -0.089393    11.00000    0.03245    0.02624 =
         0.02358    0.00049    0.00555    0.01982
O2    4    0.152188    0.856929    0.203277    11.00000    0.02290    0.03701 =
         0.01878    0.00251    0.00911    0.01140
N1    3    0.577251    0.729952    0.173398    11.00000    0.01877    0.01732 =
         0.01778    0.00230    0.00529    0.00835
H1A   2    0.534346    0.636251    0.110014    11.00000    0.03188
N2    3    0.649478    1.001546    0.406102    11.00000    0.01776    0.02275 =
         0.01828    0.00113    0.00562    0.00889
C1    1    0.238625    0.624443   -0.069673    11.00000    0.02365    0.01533 =
         0.01856    0.00586    0.00613    0.00914
C2    1    0.050542    0.570113   -0.187604    11.00000    0.02600    0.01737 =
         0.01793    0.00280    0.00296    0.00955
AFIX  23
H2A   2   -0.025236    0.465106   -0.191183    11.00000   -1.20000
H2B   2    0.065885    0.554721   -0.276267    11.00000   -1.20000
AFIX   0
C3    1   -0.055681    0.682019   -0.178927    11.00000    0.01903    0.01877 =
         0.01618    0.00548    0.00397    0.00779
C4    1   -0.053049    0.724920   -0.033025    11.00000    0.01677    0.02776 =
         0.01977    0.00811    0.00678    0.00763
AFIX  23
H4A   2   -0.107457    0.807701   -0.022263    11.00000   -1.20000
H4B   2   -0.132959    0.629463   -0.025240    11.00000   -1.20000
AFIX   0
C5    1    0.135214    0.785074    0.086323    11.00000    0.01916    0.01871 =
         0.01763    0.00714    0.00749    0.00681
C6    1    0.281196    0.743153    0.059262    11.00000    0.01847    0.01644 =
         0.01610    0.00526    0.00527    0.00743
C7    1    0.463703    0.807904    0.166764    11.00000    0.01905    0.01735 =
         0.01652    0.00613    0.00855    0.00763
C8    1    0.772152    0.796625    0.269287    11.00000    0.01512    0.02016 =
         0.02303    0.00567    0.00817    0.00811
AFIX  23
H8A   2    0.828069    0.905903    0.269963    11.00000   -1.20000
H8B   2    0.836428    0.731328    0.235586    11.00000   -1.20000
AFIX   0
C9    1    0.799302    0.801751    0.416530    11.00000    0.01922    0.02403 =
         0.02316    0.00900    0.00640    0.00998
AFIX  23
H9A   2    0.930493    0.861862    0.479767    11.00000   -1.20000
H9B   2    0.767488    0.691837    0.419506    11.00000   -1.20000
AFIX   0
C10   1    0.680502    0.880262    0.468189    11.00000    0.02367    0.03168 =
         0.01816    0.00892    0.00868    0.01260
AFIX  23
H10A  2    0.560486    0.797522    0.444659    11.00000   -1.20000
H10B  2    0.742206    0.929908    0.570793    11.00000   -1.20000
AFIX   0
C11   1    0.712828    1.161565    0.472398    11.00000    0.01718    0.02416 =
         0.02586   -0.00540    0.00665    0.00609
AFIX  43
H11A  2    0.790829    1.215871    0.568289    11.00000   -1.20000
AFIX   0
C12   1    0.644845    1.231252    0.377129    11.00000    0.02364    0.01753 =
         0.03946    0.00076    0.01471    0.00762
AFIX  43
H12A  2    0.669762    1.341934    0.394920    11.00000   -1.20000
AFIX   0
C13   1    0.531783    1.109147    0.248608    11.00000    0.02222    0.02068 =
         0.02882    0.00697    0.01085    0.01107
AFIX  43
H13A  2    0.464705    1.121724    0.164059    11.00000   -1.20000
AFIX   0
C14   1    0.536656    0.967542    0.268487    11.00000    0.01507    0.01992 =
         0.01904    0.00378    0.00592    0.00768
C15   1   -0.254997    0.596854   -0.287527    11.00000    0.02362    0.03231 =
         0.02391    0.00445    0.00020    0.00911
AFIX  33
H15A  2   -0.312520    0.500091   -0.270648    11.00000   -1.50000
H15B  2   -0.323516    0.667740   -0.280370    11.00000   -1.50000
H15C  2   -0.256335    0.568302   -0.380969    11.00000   -1.50000
AFIX   0
C16   1    0.033791    0.832927   -0.205450    11.00000    0.03014    0.02459 =
         0.02428    0.01350    0.01106    0.01358
AFIX  33
H16A  2    0.161196    0.887482   -0.136109    11.00000   -1.50000
H16B  2    0.032354    0.804294   -0.298919    11.00000   -1.50000
H16C  2   -0.034828    0.903732   -0.198321    11.00000   -1.50000

AFIX   0
HKLF 4

REM  cs171 in P-1
REM R1 =  0.0362 for    2616 Fo > 4sig(Fo)  and  0.0407 for all    2902 data
REM    186 parameters refined using      0 restraints

END

WGHT      0.0398      0.2708

REM Highest difference peak  0.314,  deepest hole -0.202,  1-sigma level  0.043
Q1    1   0.2681  0.6967 -0.0076  11.00000  0.05    0.31
Q2    1  -0.0584  0.7048 -0.1137  11.00000  0.05    0.31
Q3    1   0.0069  0.6327 -0.1835  11.00000  0.05    0.31
Q4    1   0.5029  0.8912  0.2216  11.00000  0.05    0.29
Q5    1   0.1429  0.6003 -0.1271  11.00000  0.05    0.28
Q6    1   0.2147  0.7723  0.0655  11.00000  0.05    0.26
Q7    1   0.7788  0.8062  0.3444  11.00000  0.05    0.25
Q8    1   0.7411  0.8405  0.4367  11.00000  0.05    0.25
Q9    1   0.0480  0.7552  0.0202  11.00000  0.05    0.24
Q10   1  -0.1526  0.6413 -0.2361  11.00000  0.05    0.24
Q11   1   0.3697  0.7768  0.1087  11.00000  0.05    0.24
Q12   1   0.4842  1.0229  0.2593  11.00000  0.05    0.21
Q13   1   0.6711  0.7682  0.2271  11.00000  0.05    0.20
Q14   1  -0.0201  0.7524 -0.1937  11.00000  0.05    0.20
Q15   1   0.7768  1.1645  0.5848  11.00000  0.05    0.20
Q16   1   0.5954  0.9829  0.3288  11.00000  0.05    0.19
Q17   1   0.7128  1.1988  0.4095  11.00000  0.05    0.19
Q18   1   0.6836  1.0771  0.4427  11.00000  0.05    0.19
Q19   1   0.6181  1.1766  0.3008  11.00000  0.05    0.18
Q20   1   0.5490  1.1740  0.3171  11.00000  0.05    0.17
;
_shelx_res_checksum              15087
_shelx_hkl_file
;
  -2   0   0   17.35    0.84
  -2   0   0   16.78    0.85
  -2   0   0   17.24    0.84
  -2   0   0   17.64    0.84
   2   0   0   17.99    0.85
   2   0   0   17.24    0.84
   2   0   0   16.47    0.84
  -3   0   0   17.20    0.87
  -3   0   0   17.86    0.86
  -3   0   0   17.63    0.87
  -3   0   0   16.81    0.87
   3   0   0   17.13    0.86
   3   0   0   17.42    0.86
   3   0   0   18.39    0.87
   3   0   0   18.11    0.87
  -4   0   0   14.41    0.68
  -4   0   0   14.06    0.70
  -4   0   0   14.38    0.71
  -4   0   0   13.54    0.70
   4   0   0   13.63    0.71
   4   0   0   13.13    0.68
   4   0   0   14.16    0.69
  -5   0   0    3.17    0.24
  -5   0   0    2.98    0.20
  -5   0   0    3.15    0.20
   5   0   0    3.13    0.19
   5   0   0    3.04    0.22
  -6   0   0    1.80    0.18
  -6   0   0    2.38    0.22
  -6   0   0    2.02    0.18
   6   0   0    1.65    0.16
   6   0   0    1.70    0.15
   6   0   0    1.42    0.20
  -7   0   0    2.49    0.22
  -7   0   0    1.93    0.26
  -7   0   0    1.84    0.23
   7   0   0    1.75    0.18
   7   0   0    2.15    0.19
  -8   0   0    1.75    0.22
  -8   0   0    1.46    0.19
  -8   0   0    1.54    0.18
   8   0   0    1.85    0.23
   8   0   0    1.45    0.19
   8   0   0    1.46    0.21
  -9   0   0    0.03    0.21
  -9   0   0    0.10    0.17
   9   0   0    0.11    0.12
   9  -1   0    7.67    0.46
  -9   1   0    7.32    0.48
  -9   1   0    7.24    0.54
   8  -1   0    3.86    0.46
   8  -1   0    3.19    0.26
  -8   1   0    3.15    0.36
  -8   1   0    3.04    0.28
  -8   1   0    3.31    0.30
   7  -1   0    0.56    0.11
   7  -1   0    0.49    0.10
  -7   1   0    0.61    0.12
  -7   1   0    0.47    0.13
  -7   1   0    0.36    0.15
   6  -1   0   82.86    4.07
   6  -1   0   78.63    4.06
   6  -1   0   81.96    4.07
   6  -1   0   85.84    4.08
  -6   1   0   88.74    4.08
  -6   1   0   79.28    4.07
  -6   1   0   83.17    4.06
  -6   1   0   87.51    4.09
   5  -1   0   13.14    0.69
   5  -1   0   14.05    0.68
   5  -1   0   13.43    0.67
  -5   1   0   13.03    0.68
  -5   1   0   13.31    0.69
  -5   1   0   13.65    0.67
  -5   1   0   13.54    0.68
   4  -1   0   10.85    0.61
   4  -1   0   12.01    0.60
   4  -1   0   11.56    0.59
   4  -1   0   11.90    0.60
  -4   1   0   11.39    0.60
  -4   1   0   12.77    0.60
  -4   1   0   12.10    0.61
  -4   1   0   12.09    0.59
   3  -1   0   50.58    2.35
   3  -1   0   49.50    2.35
   3  -1   0   49.59    2.35
   3  -1   0   44.02    2.34
  -3   1   0   46.19    2.35
  -3   1   0   47.00    2.35
  -3   1   0   50.75    2.35
   2  -1   0   31.00    1.48
   2  -1   0   30.38    1.48
   2  -1   0   31.31    1.48
   2  -1   0   29.06    1.48
  -2   1   0   32.29    1.48
  -2   1   0   32.15    1.48
  -2   1   0   28.18    1.48
  -2   1   0   28.52    1.48
  -1  -1   0   14.10    0.69
  -1  -1   0   13.73    0.68
  -1  -1   0   14.51    0.68
  -1  -1   0   13.84    0.68
   1   1   0   13.56    0.68
   1   1   0   14.13    0.69
   1   1   0   13.66    0.68
  -2  -1   0    1.05    0.07
  -2  -1   0    1.06    0.07
  -2  -1   0    1.11    0.09
   2   1   0    1.02    0.07
   2   1   0    0.94    0.09
   2   1   0    1.02    0.07
  -3  -1   0   40.88    2.00
  -3  -1   0   40.25    2.00
  -3  -1   0   40.58    2.01
   3   1   0   42.04    2.01
   3   1   0   40.71    1.99
   3   1   0   41.13    1.99
  -4  -1   0    0.84    0.11
  -4  -1   0    0.85    0.10
  -4  -1   0    0.81    0.10
   4   1   0    0.88    0.11
   4   1   0    0.96    0.09
  -5  -1   0   29.87    1.56
  -5  -1   0   30.98    1.56
  -5  -1   0   33.51    1.58
   5   1   0   32.88    1.56
   5   1   0   31.98    1.58
   5   1   0   31.30    1.56
  -6  -1   0    0.26    0.13
  -6  -1   0    0.19    0.10
   6   1   0    0.40    0.07
   6   1   0    0.53    0.08
  -7  -1   0    2.80    0.26
  -7  -1   0    2.90    0.25
  -7  -1   0    2.55    0.31
   7   1   0    2.80    0.20
   7   1   0    2.99    0.20
  -8  -1   0    0.25    0.15
  -8  -1   0    0.55    0.18
  -8  -1   0    0.24    0.14
   8   1   0    0.46    0.10
   8   1   0    0.53    0.10
   9  -2   0    0.32    0.16
   9  -2   0    0.40    0.14
  -9   2   0    0.53    0.20
  -9   2   0    0.17    0.16
  -9   2   0    0.56    0.20
   8  -2   0    4.17    0.30
   8  -2   0    4.39    0.30
   8  -2   0    4.58    0.26
  -8   2   0    4.85    0.39
  -8   2   0    4.17    0.34
  -8   2   0    4.09    0.32
   7  -2   0   10.52    0.57
   7  -2   0   10.95    0.58
   7  -2   0   12.53    0.59
  -7   2   0   11.72    0.60
  -7   2   0   11.06    0.57
  -7   2   0   11.07    0.62
  -7   2   0    9.49    0.59
   6  -2   0   55.67    2.76
   6  -2   0   54.94    2.76
   6  -2   0   56.05    2.75
   6  -2   0   55.57    2.77
  -6   2   0   58.44    2.76
  -6   2   0   56.45    2.75
  -6   2   0   58.53    2.77
  -6   2   0   55.51    2.76
   5  -2   0   14.48    0.76
   5  -2   0   14.52    0.76
   5  -2   0   15.04    0.77
  -5   2   0   16.30    0.78
  -5   2   0   14.84    0.76
  -5   2   0   14.94    0.77
  -5   2   0   16.14    0.77
   4  -2   0    0.08    0.07
   4  -2   0   -0.04    0.08
   4  -2   0    0.07    0.06
   4  -2   0    0.07    0.07
  -4   2   0    0.07    0.06
  -4   2   0    0.08    0.07
  -4   2   0    0.10    0.07
  -4   2   0    0.04    0.08
   3  -2   0    0.28    0.05
   3  -2   0    0.32    0.07
   3  -2   0    0.20    0.05
   3  -2   0    0.25    0.06
  -3   2   0    0.26    0.05
  -3   2   0    0.44    0.07
  -3   2   0    0.28    0.05
  -3   2   0    0.24    0.06
   2  -2   0   15.06    0.83
   2  -2   0   16.95    0.83
   2  -2   0   16.30    0.83
   2  -2   0   17.28    0.83
  -2   2   0   15.74    0.83
  -2   2   0   18.00    0.83
  -2   2   0   18.11    0.83
  -2   2   0   17.53    0.83
   1  -2   0   58.86    3.03
   1  -2   0   65.16    3.03
  -1   2   0   64.37    3.03
  -1   2   0   61.31    3.03
  -1   2   0   62.39    3.03
   0  -2   0  254.94   11.81
   0  -2   0  239.69   11.81
   0   2   0  245.92   11.84
   0   2   0  233.27   11.80
  -1  -2   0   25.69    1.27
  -1  -2   0   26.98    1.28
  -1  -2   0   25.38    1.27
  -1  -2   0   25.98    1.27
   1   2   0   26.33    1.27
  -2  -2   0   35.03    1.72
  -2  -2   0   34.36    1.73
  -2  -2   0   35.11    1.72
  -2  -2   0   35.49    1.71
   2   2   0   35.23    1.71
   2   2   0   36.27    1.73
  -3  -2   0   59.79    2.79
  -3  -2   0   57.48    2.80
  -3  -2   0   55.12    2.78
   3   2   0   56.68    2.78
   3   2   0   57.13    2.80
  -4  -2   0    9.20    0.50
  -4  -2   0    9.19    0.47
  -4  -2   0    9.36    0.48
   4   2   0    9.18    0.46
   4   2   0    9.33    0.46
   4   2   0    9.29    0.50
  -5  -2   0    0.03    0.09
  -5  -2   0   -0.01    0.07
  -5  -2   0    0.05    0.08
   5   2   0   -0.04    0.11
   5   2   0   -0.02    0.04
   5   2   0   -0.07    0.04
  -6  -2   0    0.47    0.12
  -6  -2   0    0.62    0.15
   6   2   0    0.69    0.07
   6   2   0    0.64    0.07
  -7  -2   0    0.47    0.13
  -7  -2   0    0.46    0.13
  -7  -2   0    0.36    0.19
   7   2   0    0.55    0.07
   7   2   0    0.70    0.19
   7   2   0    0.54    0.07
  -8  -2   0   12.09    0.71
  -8  -2   0   11.72    0.68
  -8  -2   0   12.57    0.69
   9  -3   0    0.44    0.17
   9  -3   0    0.30    0.11
   9  -3   0    0.07    0.14
  -9   3   0    0.23    0.18
  -9   3   0    0.28    0.20
  -9   3   0    0.02    0.16
   8  -3   0    0.10    0.09
   8  -3   0   -0.14    0.19
   8  -3   0    0.17    0.12
  -8   3   0    0.14    0.15
  -8   3   0    0.19    0.12
  -8   3   0    0.22    0.09
  -8   3   0    0.20    0.18
   7  -3   0   12.11    0.70
   7  -3   0   13.53    0.70
   7  -3   0   13.45    0.69
  -7   3   0   14.62    0.72
  -7   3   0   12.59    0.70
  -7   3   0   13.47    0.69
  -7   3   0   14.13    0.73
   6  -3   0   85.14    4.19
   6  -3   0   87.73    4.20
   6  -3   0   85.06    4.20
   6  -3   0   86.06    4.21
  -6   3   0   88.93    4.20
  -6   3   0   86.07    4.19
  -6   3   0   85.59    4.20
  -6   3   0   83.96    4.21
   5  -3   0    5.13    0.32
   5  -3   0    5.82    0.33
   5  -3   0    5.73    0.31
  -5   3   0    5.63    0.31
  -5   3   0    5.50    0.32
  -5   3   0    5.80    0.32
  -5   3   0    5.50    0.33
   4  -3   0    3.86    0.25
   4  -3   0    3.64    0.24
   4  -3   0    3.88    0.24
  -4   3   0    4.31    0.24
  -4   3   0    3.81    0.24
  -4   3   0    4.47    0.25
  -4   3   0    3.90    0.23
   3  -3   0    6.47    0.38
   3  -3   0    6.95    0.38
   3  -3   0    7.91    0.37
  -3   3   0    6.45    0.37
  -3   3   0    7.78    0.37
  -3   3   0    6.73    0.38
  -3   3   0    6.96    0.37
   2  -3   0    0.17    0.04
   2  -3   0    0.19    0.05
   2  -3   0    0.17    0.05
  -2   3   0    0.18    0.04
  -2   3   0    0.20    0.05
  -2   3   0    0.15    0.04
   1  -3   0   33.53    1.58
   1  -3   0   31.42    1.57
   1  -3   0   31.89    1.57
  -1   3   0   31.65    1.57
  -1   3   0   31.93    1.57
  -1   3   0   33.44    1.58
   0  -3   0  103.57    5.12
   0  -3   0  114.69    5.14
   0  -3   0   98.53    5.12
   0   3   0  104.19    5.13
   0   3   0  107.19    5.12
  -1  -3   0    3.27    0.17
  -1  -3   0    2.95    0.18
  -1  -3   0    2.99    0.16
   1   3   0    3.14    0.18
  -2  -3   0   25.99    1.29
  -2  -3   0   27.16    1.31
  -2  -3   0   26.67    1.29
  -2  -3   0   26.48    1.30
   2   3   0   26.26    1.29
  -3  -3   0   48.36    2.39
  -3  -3   0   48.17    2.37
  -3  -3   0   49.40    2.37
  -4  -3   0    2.69    0.17
  -4  -3   0    2.46    0.18
  -4  -3   0    2.50    0.21
  -5  -3   0    6.96    0.39
  -5  -3   0    6.71    0.42
  -5  -3   0    7.43    0.39
  -6  -3   0    2.05    0.21
  -6  -3   0    2.00    0.23
  -7  -3   0    0.28    0.12
  -7  -3   0    0.34    0.17
  -7  -3   0    0.37    0.14
   9  -4   0   10.34    0.62
   9  -4   0   10.94    0.64
  -9   4   0   11.31    0.65
  -9   4   0   10.85    0.62
  -9   4   0   10.84    0.63
   8  -4   0    1.84    0.21
   8  -4   0    1.97    0.22
   8  -4   0    1.42    0.18
  -8   4   0    1.69    0.20
  -8   4   0    1.52    0.22
  -8   4   0    1.70    0.21
   7  -4   0   11.85    0.62
   7  -4   0   11.70    0.63
   7  -4   0   10.59    0.62
  -7   4   0   12.40    0.62
  -7   4   0   12.21    0.64
  -7   4   0   11.53    0.65
   6  -4   0    0.94    0.13
   6  -4   0    0.89    0.12
   6  -4   0    1.32    0.16
  -6   4   0    1.36    0.17
  -6   4   0    1.31    0.17
  -6   4   0    0.93    0.12
   5  -4   0    8.08    0.48
   5  -4   0    8.85    0.47
   5  -4   0    8.74    0.47
   5  -4   0    9.07    0.47
  -5   4   0    8.73    0.47
  -5   4   0    9.02    0.48
  -5   4   0    9.93    0.49
  -5   4   0    8.93    0.47
   4  -4   0    4.22    0.25
   4  -4   0    3.96    0.25
   4  -4   0    3.84    0.25
  -4   4   0    4.38    0.25
  -4   4   0    4.14    0.26
  -4   4   0    4.07    0.24
  -4   4   0    3.96    0.25
   3  -4   0  231.92   12.72
   3  -4   0  235.80   12.72
  -3   4   0  280.68   12.77
  -3   4   0  258.88   12.72
  -3   4   0  305.20   12.78
   2  -4   0    1.95    0.15
   2  -4   0    2.07    0.15
   2  -4   0    2.08    0.17
  -2   4   0    1.86    0.14
  -2   4   0    2.17    0.14
  -2   4   0    2.19    0.17
   1  -4   0    3.90    0.21
   1  -4   0    4.24    0.23
   1  -4   0    3.14    0.21
  -1   4   0    3.81    0.23
  -1   4   0    3.75    0.20
  -1   4   0    3.86    0.20
   0  -4   0    0.92    0.09
   0  -4   0    0.96    0.09
   0  -4   0    0.87    0.12
   0   4   0    0.89    0.11
  -1  -4   0   77.95    3.66
  -1  -4   0   73.84    3.67
  -1  -4   0   72.91    3.66
   1   4   0   77.09    3.67
  -2  -4   0    7.69    0.38
  -2  -4   0    7.41    0.38
  -2  -4   0    7.26    0.41
  -2  -4   0    7.60    0.38
   2   4   0    7.64    0.38
  -3  -4   0   29.99    1.50
  -3  -4   0   31.53    1.52
  -3  -4   0   30.59    1.50
  -3  -4   0   30.32    1.49
  -4  -4   0   39.28    1.97
  -4  -4   0   40.08    1.98
  -4  -4   0   41.56    2.00
  -5  -4   0    0.09    0.09
  -5  -4   0    0.17    0.08
  -5  -4   0   -0.19    0.13
  -6  -4   0    0.33    0.12
  -6  -4   0    0.13    0.17
  -6  -4   0    0.10    0.11
  -7  -4   0   14.41    0.77
  -7  -4   0   14.54    0.83
  -7  -4   0   14.32    0.78
   9  -5   0    8.43    0.54
   9  -5   0    9.51    0.55
   9  -5   0    9.22    0.55
  -9   5   0    9.20    0.57
  -9   5   0    9.21    0.58
  -9   5   0    9.42    0.54
   8  -5   0   28.15    1.41
   8  -5   0   27.94    1.42
   8  -5   0   27.61    1.43
   8  -5   0   29.41    1.41
  -8   5   0   29.01    1.42
  -8   5   0   26.20    1.43
  -8   5   0   27.45    1.41
   7  -5   0    5.68    0.35
   7  -5   0    5.54    0.37
  -7   5   0    5.31    0.36
  -7   5   0    4.91    0.37
  -7   5   0    5.26    0.36
   6  -5   0    5.87    0.35
   6  -5   0    5.47    0.35
   6  -5   0    5.44    0.34
   6  -5   0    5.46    0.34
  -6   5   0    5.66    0.34
  -6   5   0    6.28    0.35
  -6   5   0    5.50    0.34
  -6   5   0    5.48    0.35
   5  -5   0   51.18    2.56
   5  -5   0   50.70    2.56
   5  -5   0   52.37    2.57
  -5   5   0   57.18    2.57
  -5   5   0   53.12    2.57
  -5   5   0   49.57    2.57
  -5   5   0   51.84    2.56
   4  -5   0   39.48    1.90
   4  -5   0   39.51    1.90
   4  -5   0   37.58    1.91
   4  -5   0   42.60    1.91
  -4   5   0   37.77    1.91
  -4   5   0   36.78    1.90
  -4   5   0   37.09    1.90
   3  -5   0    0.42    0.08
   3  -5   0    0.47    0.09
   3  -5   0    0.44    0.09
   3  -5   0    0.35    0.07
  -3   5   0    0.33    0.08
  -3   5   0    0.37    0.06
  -3   5   0    0.42    0.07
   2  -5   0    8.06    0.45
   2  -5   0    8.59    0.47
   2  -5   0    9.07    0.45
  -2   5   0    8.73    0.44
  -2   5   0    8.84    0.46
  -2   5   0    8.97    0.44
   1  -5   0    1.28    0.14
   1  -5   0    1.07    0.11
   1  -5   0    1.16    0.11
  -1   5   0    1.34    0.09
  -1   5   0    1.20    0.09
  -1   5   0    1.10    0.14
   0  -5   0   64.18    2.95
   0  -5   0   59.19    2.95
   0  -5   0   58.74    2.96
   0   5   0   60.32    2.96
  -1  -5   0    0.69    0.09
  -1  -5   0    0.74    0.08
  -1  -5   0    0.80    0.11
   1   5   0    0.79    0.11
  -2  -5   0   36.88    1.86
  -2  -5   0   39.28    1.86
  -2  -5   0   37.86    1.86
  -2  -5   0   37.96    1.88
   2   5   0   38.20    1.86
  -3  -5   0    1.04    0.12
  -3  -5   0    1.07    0.10
  -3  -5   0    1.12    0.13
  -4  -5   0   22.20    1.17
  -4  -5   0   22.77    1.13
  -4  -5   0   23.28    1.13
  -5  -5   0    2.60    0.32
  -5  -5   0    2.85    0.24
  -6  -5   0    2.81    0.26
  -6  -5   0    3.12    0.36
  -6  -5   0    2.30    0.27
   9  -6   0    0.68    0.17
   9  -6   0    1.16    0.20
  -9   6   0    1.21    0.18
  -9   6   0    1.11    0.21
  -9   6   0    0.88    0.18
   8  -6   0    4.05    0.33
   8  -6   0    3.77    0.33
   8  -6   0    4.27    0.36
   8  -6   0    4.39    0.35
  -8   6   0    3.56    0.32
  -8   6   0    3.98    0.31
  -8   6   0    3.95    0.35
  -8   6   0    4.19    0.38
   7  -6   0    0.83    0.16
   7  -6   0    0.50    0.14
   7  -6   0    0.53    0.15
  -7   6   0    0.69    0.14
  -7   6   0    0.72    0.14
  -7   6   0    0.44    0.15
   6  -6   0    3.89    0.27
   6  -6   0    3.47    0.26
   6  -6   0    2.95    0.27
  -6   6   0    3.21    0.25
  -6   6   0    3.29    0.27
  -6   6   0    3.66    0.25
   5  -6   0   -0.06    0.14
   5  -6   0    0.01    0.09
   5  -6   0    0.17    0.09
  -5   6   0   -0.09    0.12
  -5   6   0   -0.01    0.08
  -5   6   0    0.05    0.08
   4  -6   0    7.13    0.38
   4  -6   0    6.70    0.38
   4  -6   0    6.46    0.39
   4  -6   0    6.90    0.39
  -4   6   0    6.76    0.39
  -4   6   0    7.12    0.37
  -4   6   0    6.33    0.37
   3  -6   0   16.83    0.85
   3  -6   0   16.76    0.84
   3  -6   0   17.82    0.86
   3  -6   0   16.70    0.84
  -3   6   0   16.04    0.85
  -3   6   0   16.31    0.83
  -3   6   0   16.71    0.84
   2  -6   0    2.73    0.18
   2  -6   0    3.14    0.20
   2  -6   0    2.75    0.18
  -2   6   0    2.88    0.22
  -2   6   0    2.91    0.17
  -2   6   0    2.77    0.17
   1  -6   0    7.89    0.41
   1  -6   0    7.59    0.39
   1  -6   0    7.40    0.39
  -1   6   0    7.18    0.37
  -1   6   0    7.06    0.37
  -1   6   0    7.63    0.41
   0  -6   0    0.50    0.07
   0  -6   0    0.51    0.06
   0  -6   0    0.41    0.09
   0   6   0    0.34    0.08
  -1  -6   0    0.78    0.10
  -1  -6   0    0.98    0.14
  -1  -6   0    0.79    0.10
   1   6   0    0.94    0.13
  -2  -6   0    0.03    0.06
  -2  -6   0    0.07    0.07
  -2  -6   0    0.08    0.06
  -2  -6   0    0.45    0.10
   2   6   0    0.05    0.07
  -3  -6   0    1.11    0.12
  -3  -6   0    1.03    0.16
  -3  -6   0    0.95    0.10
  -3  -6   0    1.05    0.10
  -4  -6   0    4.00    0.35
  -4  -6   0    3.76    0.25
  -4  -6   0    3.68    0.26
  -5  -6   0    0.02    0.16
  -5  -6   0    0.01    0.11
   9  -7   0    3.73    0.38
   9  -7   0    3.15    0.33
  -9   7   0    3.13    0.36
  -9   7   0    3.13    0.34
   8  -7   0   19.28    1.09
   8  -7   0   22.01    1.09
   8  -7   0   21.88    1.09
   8  -7   0   21.58    1.10
  -8   7   0   20.97    1.08
  -8   7   0   18.34    1.08
  -8   7   0   22.01    1.10
   7  -7   0    0.09    0.15
   7  -7   0    0.05    0.15
   7  -7   0    0.19    0.14
  -7   7   0    0.16    0.15
  -7   7   0    0.03    0.13
   6  -7   0    2.09    0.24
   6  -7   0    1.82    0.23
   6  -7   0    1.64    0.17
   6  -7   0    1.16    0.16
  -6   7   0    1.96    0.20
  -6   7   0    1.70    0.21
  -6   7   0    1.89    0.24
   5  -7   0    0.19    0.12
   5  -7   0    0.05    0.10
   5  -7   0    0.06    0.11
   5  -7   0    0.16    0.13
  -5   7   0    0.01    0.10
  -5   7   0    0.01    0.08
  -5   7   0    0.04    0.11
   4  -7   0   20.21    1.03
   4  -7   0   23.09    1.05
   4  -7   0   22.45    1.04
   4  -7   0   21.11    1.05
  -4   7   0   17.20    1.05
  -4   7   0   19.70    1.03
  -4   7   0   20.42    1.03
   3  -7   0   18.18    0.93
   3  -7   0   18.67    0.93
  -3   7   0   17.62    0.92
  -3   7   0   18.72    0.95
  -3   7   0   19.01    0.92
   2  -7   0   15.16    0.77
   2  -7   0   16.05    0.78
  -2   7   0   14.47    0.76
  -2   7   0   15.82    0.80
  -2   7   0   15.25    0.76
   1  -7   0    0.66    0.08
   1  -7   0    0.44    0.08
   1  -7   0    0.53    0.12
  -1   7   0    0.44    0.11
   0  -7   0   15.45    0.78
   0  -7   0   15.24    0.80
   0  -7   0   15.22    0.78
   0   7   0   16.34    0.80
  -1  -7   0    0.18    0.09
  -1  -7   0    0.15    0.07
  -1  -7   0    0.02    0.07
   1   7   0    0.02    0.09
  -2  -7   0    0.74    0.09
  -2  -7   0    0.81    0.10
  -2  -7   0    0.67    0.10
  -2  -7   0    0.58    0.14
   2   7   0    0.63    0.11
  -3  -7   0   17.22    0.85
  -3  -7   0   16.51    0.85
  -3  -7   0   16.71    0.84
  -3  -7   0   16.77    0.90
  -4  -7   0    0.39    0.11
  -4  -7   0    0.08    0.16
   8  -8   0    0.28    0.17
   8  -8   0    0.16    0.16
   8  -8   0    0.28    0.19
  -8   8   0    0.24    0.17
  -8   8   0    0.05    0.16
  -8   8   0    0.06    0.15
   7  -8   0    4.87    0.36
   7  -8   0    4.77    0.38
   7  -8   0    4.61    0.35
   7  -8   0    4.90    0.40
  -7   8   0    5.12    0.34
  -7   8   0    4.74    0.35
  -7   8   0    4.73    0.39
   6  -8   0    1.95    0.26
   6  -8   0    1.87    0.25
   6  -8   0    2.09    0.24
   6  -8   0    2.34    0.26
  -6   8   0    2.13    0.24
  -6   8   0    2.02    0.22
  -6   8   0    2.35    0.25
   5  -8   0    0.34    0.12
   5  -8   0    0.17    0.14
   5  -8   0    0.06    0.12
   5  -8   0    0.45    0.14
  -5   8   0    0.25    0.10
   4  -8   0   11.60    0.59
   4  -8   0   10.56    0.61
   4  -8   0   10.61    0.58
   4  -8   0   12.01    0.61
  -4   8   0   10.74    0.57
  -4   8   0   10.46    0.57
   3  -8   0   15.91    0.76
   3  -8   0   13.98    0.76
   3  -8   0   16.02    0.79
  -3   8   0   14.01    0.74
  -3   8   0   14.65    0.78
  -3   8   0   13.94    0.74
   2  -8   0   22.52    1.21
   2  -8   0   24.07    1.19
   2  -8   0   24.96    1.19
  -2   8   0   23.07    1.17
  -2   8   0   23.97    1.17
  -2   8   0   24.77    1.22
   1  -8   0    9.19    0.48
   1  -8   0    8.59    0.50
   1  -8   0    8.81    0.47
  -1   8   0    8.91    0.50
   0  -8   0    0.12    0.08
   0  -8   0    0.08    0.08
   0   8   0    0.04    0.13
  -1  -8   0    5.75    0.33
  -1  -8   0    5.86    0.40
  -1  -8   0    5.92    0.33
  -1  -8   0    5.83    0.36
   1   8   0    5.84    0.37
  -2  -8   0    0.23    0.10
  -2  -8   0    0.28    0.10
  -2  -8   0    0.20    0.10
  -2  -8   0    0.29    0.16
   2   8   0    0.29    0.11
  -3  -8   0    3.30    0.26
  -3  -8   0    3.48    0.33
  -3  -8   0    3.18    0.25
   8  -9   0    0.36    0.19
   8  -9   0    0.26    0.19
  -8   9   0    0.59    0.17
  -8   9   0    0.24    0.18
   7  -9   0    1.78    0.23
   7  -9   0    2.19    0.27
   7  -9   0    2.39    0.24
   7  -9   0    1.77    0.21
  -7   9   0    2.06    0.25
  -7   9   0    1.60    0.18
  -7   9   0    1.92    0.21
   6  -9   0    3.54    0.34
   6  -9   0    3.86    0.38
   6  -9   0    3.20    0.31
   6  -9   0    3.28    0.33
  -6   9   0    3.33    0.29
  -6   9   0    4.12    0.37
   5  -9   0    0.68    0.17
   5  -9   0    0.69    0.14
   5  -9   0    0.88    0.15
   5  -9   0    0.32    0.16
  -5   9   0    0.81    0.12
   4  -9   0   18.55    1.00
   4  -9   0   19.16    0.98
   4  -9   0   17.99    1.01
   4  -9   0   20.19    0.98
  -4   9   0   18.63    0.96
  -4   9   0   20.64    1.02
  -4   9   0   18.91    0.96
   3  -9   0   31.72    1.57
   3  -9   0   29.52    1.60
   3  -9   0   32.14    1.57
  -3   9   0   30.72    1.55
  -3   9   0   33.74    1.55
   2  -9   0    3.19    0.23
   2  -9   0    3.78    0.27
   2  -9   0    2.94    0.29
   1  -9   0   15.90    0.87
   1  -9   0   15.95    0.84
   1  -9   0   17.32    0.83
   0  -9   0    1.69    0.20
   0  -9   0    1.81    0.24
   0   9   0    1.86    0.24
  -1  -9   0    2.74    0.32
  -1  -9   0    2.54    0.23
   1   9   0    2.82    0.27
  -2  -9   0    3.10    0.24
  -2  -9   0    2.41    0.28
   7 -10   0    3.69    0.41
   7 -10   0    3.94    0.36
  -7  10   0    3.81    0.36
  -7  10   0    3.93    0.32
   6 -10   0    1.75    0.26
   6 -10   0    3.07    0.31
   6 -10   0    2.59    0.36
   6 -10   0    2.93    0.29
  -6  10   0    2.40    0.26
   5 -10   0   15.81    0.86
   5 -10   0   17.50    0.89
   5 -10   0   16.01    0.88
   5 -10   0   16.10    0.86
  -5  10   0   16.61    0.83
  -5  10   0   14.04    0.88
  -5  10   0   16.37    0.83
   4 -10   0    3.52    0.30
   4 -10   0    3.70    0.30
   4 -10   0    3.47    0.34
   4 -10   0    3.87    0.35
  -4  10   0    3.49    0.23
  -4  10   0    3.67    0.34
  -4  10   0    3.29    0.24
   3 -10   0   28.65    1.56
   3 -10   0   32.43    1.53
   3 -10   0   30.09    1.52
  -3  10   0   30.60    1.56
   2 -10   0   -0.13    0.11
   2 -10   0    0.00    0.12
   2 -10   0   -0.03    0.17
  -2  10   0    0.00    0.15
   1 -10   0    0.10    0.12
   1 -10   0    0.12    0.12
   1 -10   0   -0.31    0.16
  -1  10   0   -0.13    0.15
   0 -10   0    0.94    0.14
   0 -10   0    0.88    0.17
   0 -10   0    0.83    0.15
   0  10   0    0.59    0.20
  -1 -10   0    0.45    0.14
  -1 -10   0    0.57    0.17
  -1 -10   0    0.55    0.20
   5 -11   0    2.10    0.28
   5 -11   0    2.40    0.30
   5 -11   0    1.84    0.26
  -5  11   0    2.61    0.30
   4 -11   0   15.21    0.81
   4 -11   0   13.57    0.76
   4 -11   0   13.41    0.77
   3 -11   0   -0.08    0.15
   3 -11   0   -0.10    0.20
   3 -11   0   -0.16    0.16
   2 -11   0    0.07    0.16
   2 -11   0   -0.22    0.14
   2 -11   0   -0.02    0.16
  -1  11  -1    1.48    0.23
   1 -11   1    1.63    0.20
   1 -11   1    1.49    0.19
   1 -11   1    2.10    0.24
  -2  11  -1   -0.05    0.18
   2 -11   1   -0.20    0.14
   2 -11   1   -0.11    0.15
   2 -11   1    0.25    0.16
   3 -11   1    2.09    0.22
   3 -11   1    2.27    0.30
   3 -11   1    2.37    0.34
  -4  11  -1    4.86    0.30
  -4  11  -1    4.91    0.31
   4 -11   1    5.11    0.36
   4 -11   1    4.96    0.39
   4 -11   1    4.90    0.43
  -5  11  -1    0.54    0.12
   5 -11   1    0.46    0.17
   5 -11   1    0.33    0.21
  -1 -10   1    0.22    0.13
  -1 -10   1    0.29    0.16
  -1 -10   1    0.13    0.17
  -1 -10   1    0.59    0.14
   0 -10   1    0.04    0.12
   0 -10   1    0.07    0.12
   0 -10   1    0.07    0.15
  -1  10  -1    0.31    0.15
   1 -10   1    0.49    0.17
   1 -10   1    0.41    0.13
   1 -10   1    0.47    0.13
  -2  10  -1   11.80    0.66
   2 -10   1   11.39    0.67
   2 -10   1   10.45    0.62
   2 -10   1   12.12    0.63
  -3  10  -1   10.42    0.62
  -3  10  -1   10.36    0.55
  -3  10  -1   10.68    0.54
   3 -10   1   10.92    0.58
   3 -10   1    9.91    0.63
   3 -10   1   10.85    0.59
  -4  10  -1    7.51    0.50
  -4  10  -1    7.59    0.43
  -4  10  -1    7.10    0.42
   4 -10   1    7.84    0.50
   4 -10   1    7.51    0.50
   4 -10   1    7.59    0.46
   4 -10   1    7.43    0.46
  -5  10  -1    1.09    0.14
  -5  10  -1    0.80    0.20
   5 -10   1    1.41    0.18
   5 -10   1    1.28    0.23
   5 -10   1    0.84    0.18
   5 -10   1    0.83    0.17
  -6  10  -1   -0.08    0.14
  -6  10  -1    0.16    0.13
   6 -10   1    0.00    0.18
   6 -10   1    0.33    0.15
   6 -10   1   -0.12    0.16
  -7  10  -1    1.37    0.19
  -7  10  -1    2.10    0.21
   7 -10   1    1.38    0.26
   7 -10   1    1.43    0.21
  -3  -9   1    1.87    0.26
  -3  -9   1    2.22    0.25
  -3  -9   1    2.20    0.24
  -3  -9   1    2.35    0.26
   2   9  -1   -0.01    0.14
  -2  -9   1   -0.16    0.11
  -2  -9   1    0.15    0.16
  -2  -9   1   -0.05    0.11
   1   9  -1    1.55    0.23
  -1  -9   1    1.47    0.16
   0   9  -1    7.68    0.47
   0  -9   1    7.53    0.46
   0  -9   1    7.86    0.43
   0  -9   1    7.73    0.45
   1  -9   1    1.98    0.25
   1  -9   1    2.12    0.23
   1  -9   1    2.65    0.20
  -2   9  -1   10.01    0.51
  -2   9  -1    9.88    0.51
   2  -9   1   10.96    0.55
   2  -9   1   10.54    0.58
   2  -9   1    9.68    0.55
  -3   9  -1    2.39    0.19
  -3   9  -1    2.66    0.20
   3  -9   1    2.71    0.29
   3  -9   1    2.44    0.23
   3  -9   1    2.52    0.23
  -4   9  -1    0.61    0.11
  -4   9  -1    0.49    0.19
  -4   9  -1    0.55    0.10
   4  -9   1    0.61    0.16
   4  -9   1    0.64    0.13
   4  -9   1    0.51    0.13
   4  -9   1    0.73    0.17
  -5   9  -1    4.80    0.30
  -5   9  -1    3.97    0.29
   5  -9   1    4.14    0.33
   5  -9   1    4.80    0.35
   5  -9   1    3.63    0.37
   5  -9   1    4.07    0.32
  -6   9  -1    3.06    0.33
  -6   9  -1    3.01    0.28
   6  -9   1    3.12    0.29
   6  -9   1    2.64    0.30
   6  -9   1    3.00    0.33
   6  -9   1    2.86    0.33
  -7   9  -1    1.24    0.20
  -7   9  -1    1.06    0.21
  -7   9  -1    1.19    0.17
   7  -9   1    1.36    0.20
   7  -9   1    1.23    0.23
   7  -9   1    1.22    0.20
  -8   9  -1    4.21    0.38
   8  -9   1    4.71    0.41
   8  -9   1    3.34    0.39
  -4  -8   1   13.49    0.70
  -4  -8   1   13.07    0.75
  -4  -8   1   12.44    0.69
   3   8  -1    7.61    0.44
  -3  -8   1    8.59    0.44
  -3  -8   1    8.20    0.47
  -3  -8   1    7.82    0.44
  -3  -8   1    7.55    0.51
   2   8  -1    5.44    0.34
  -2  -8   1    5.38    0.33
  -2  -8   1    5.56    0.39
  -2  -8   1    4.62    0.33
  -2  -8   1    5.82    0.32
   1   8  -1   11.56    0.62
  -1  -8   1   11.61    0.62
  -1  -8   1   11.54    0.60
  -1  -8   1   11.68    0.61
   0   8  -1    0.82    0.16
   0  -8   1    1.05    0.12
   0  -8   1    1.09    0.12
  -1   8  -1   26.97    1.36
  -1   8  -1   26.80    1.32
  -1   8  -1   27.07    1.32
   1  -8   1   27.12    1.34
   1  -8   1   27.64    1.36
   1  -8   1   26.16    1.34
  -2   8  -1   35.94    1.75
  -2   8  -1   37.05    1.75
  -2   8  -1   35.72    1.79
   2  -8   1   34.44    1.79
   2  -8   1   36.12    1.77
   2  -8   1   35.53    1.77
  -3   8  -1    0.15    0.13
  -3   8  -1    0.07    0.08
  -3   8  -1   -0.09    0.07
   3  -8   1    0.09    0.09
   3  -8   1    0.20    0.12
   3  -8   1    0.07    0.11
   3  -8   1    0.09    0.10
  -4   8  -1   17.23    0.90
  -4   8  -1   18.09    0.90
   4  -8   1   19.11    0.91
   4  -8   1   17.70    0.92
   4  -8   1   17.25    0.93
   4  -8   1   16.85    0.91
  -5   8  -1    8.90    0.48
  -5   8  -1    9.19    0.48
   5  -8   1    8.80    0.49
   5  -8   1    8.49    0.51
   5  -8   1    8.42    0.49
   5  -8   1    8.21    0.51
  -6   8  -1   44.19    2.17
  -6   8  -1   44.83    2.15
   6  -8   1   43.95    2.15
   6  -8   1   39.36    2.16
   6  -8   1   47.26    2.16
   6  -8   1   40.54    2.16
  -7   8  -1    3.62    0.34
  -7   8  -1    3.73    0.36
  -7   8  -1    3.95    0.31
   7  -8   1    4.08    0.32
   7  -8   1    3.74    0.32
   7  -8   1    3.24    0.34
   7  -8   1    4.04    0.38
  -8   8  -1    0.30    0.17
  -8   8  -1    0.07    0.18
   8  -8   1    0.13    0.17
   8  -8   1   -0.33    0.17
  -5  -7   1    0.25    0.13
  -5  -7   1    0.50    0.21
  -5  -7   1    0.37    0.14
  -4  -7   1   18.18    0.90
  -4  -7   1   17.26    0.95
  -4  -7   1   17.50    0.91
   3   7  -1    8.82    0.46
  -3  -7   1    9.09    0.47
  -3  -7   1    8.57    0.47
  -3  -7   1    8.29    0.51
  -3  -7   1    8.40    0.46
   2   7  -1   11.06    0.57
  -2  -7   1   10.95    0.56
  -2  -7   1   10.23    0.57
  -2  -7   1   11.02    0.56
  -2  -7   1   10.66    0.60
   1   7  -1   10.55    0.55
  -1  -7   1   10.35    0.53
  -1  -7   1   10.23    0.53
  -1  -7   1    9.97    0.54
   0   7  -1    0.67    0.11
   0  -7   1    0.83    0.11
   0  -7   1    0.73    0.09
   0  -7   1    0.83    0.10
  -1   7  -1   27.56    1.32
  -1   7  -1   27.46    1.32
  -1   7  -1   27.79    1.35
   1  -7   1   28.20    1.35
   1  -7   1   23.06    1.33
   1  -7   1   27.85    1.33
  -2   7  -1    0.23    0.06
  -2   7  -1    0.37    0.11
  -2   7  -1    0.26    0.07
   2  -7   1    0.28    0.10
   2  -7   1    0.22    0.08
   2  -7   1    0.17    0.08
  -3   7  -1   42.28    2.27
  -3   7  -1   48.23    2.30
  -3   7  -1   43.88    2.28
   3  -7   1   50.30    2.30
   3  -7   1   45.64    2.29
   3  -7   1   44.04    2.28
   3  -7   1   51.03    2.29
  -4   7  -1    1.84    0.18
  -4   7  -1    1.72    0.19
  -4   7  -1    1.77    0.18
   4  -7   1    1.54    0.18
   4  -7   1    2.00    0.18
   4  -7   1    1.67    0.20
  -5   7  -1   15.77    0.82
  -5   7  -1   16.42    0.82
  -5   7  -1   17.43    0.84
   5  -7   1   15.37    0.84
   5  -7   1   15.42    0.83
   5  -7   1   15.85    0.84
   5  -7   1   15.19    0.82
  -6   7  -1    8.31    0.48
  -6   7  -1    7.33    0.46
   6  -7   1    8.39    0.48
   6  -7   1    7.63    0.46
   6  -7   1    7.74    0.47
  -7   7  -1   -0.14    0.12
  -7   7  -1   -0.06    0.14
  -7   7  -1    0.00    0.15
   7  -7   1   -0.08    0.14
   7  -7   1    0.02    0.14
   7  -7   1    0.03    0.15
  -8   7  -1    2.30    0.28
  -8   7  -1    2.79    0.31
  -8   7  -1    2.51    0.29
   8  -7   1    2.66    0.33
   8  -7   1    2.47    0.29
   8  -7   1    2.59    0.33
   8  -7   1    2.55    0.28
  -9   7  -1    9.54    0.62
  -9   7  -1   10.79    0.64
  -9   7  -1    9.74    0.64
   9  -7   1   10.76    0.62
   9  -7   1   11.01    0.64
  -6  -6   1    0.25    0.14
  -6  -6   1    0.19    0.20
  -6  -6   1   -0.07    0.15
  -5  -6   1   13.51    0.69
  -5  -6   1   12.78    0.74
  -5  -6   1   12.90    0.69
  -4  -6   1   22.43    1.19
  -4  -6   1   23.19    1.15
  -4  -6   1   23.33    1.15
   3   6  -1    9.88    0.50
  -3  -6   1    9.80    0.51
  -3  -6   1    9.74    0.50
  -3  -6   1    9.85    0.51
  -3  -6   1    9.41    0.55
   2   6  -1    4.55    0.26
  -2  -6   1    4.61    0.26
  -2  -6   1    4.28    0.29
  -2  -6   1    4.37    0.26
  -2  -6   1    4.53    0.26
   1   6  -1    8.89    0.47
  -1  -6   1    9.02    0.46
  -1  -6   1    9.00    0.46
  -1  -6   1    8.98    0.47
   0   6  -1   68.48    3.31
   0   6  -1   67.07    3.29
   0   6  -1   66.05    3.29
   0  -6   1   64.97    3.30
   0  -6   1   72.27    3.30
   0  -6   1   67.48    3.31
  -1   6  -1    2.78    0.20
  -1   6  -1    2.51    0.16
  -1   6  -1    2.54    0.16
   1  -6   1    2.80    0.20
   1  -6   1    2.61    0.17
   1  -6   1    2.64    0.17
  -2   6  -1   29.62    1.45
  -2   6  -1   29.83    1.43
  -2   6  -1   28.37    1.43
   2  -6   1   29.38    1.44
   2  -6   1   31.81    1.45
   2  -6   1   26.02    1.44
  -3   6  -1   36.53    1.78
  -3   6  -1   38.39    1.77
  -3   6  -1   34.30    1.77
   3  -6   1   34.08    1.77
   3  -6   1   39.89    1.79
   3  -6   1   35.00    1.77
   3  -6   1   33.72    1.78
  -4   6  -1    6.66    0.39
  -4   6  -1    6.88    0.37
  -4   6  -1    6.64    0.37
   4  -6   1    6.37    0.37
   4  -6   1    6.78    0.39
   4  -6   1    6.97    0.40
  -5   6  -1    1.63    0.18
  -5   6  -1    1.64    0.21
   5  -6   1    1.07    0.15
   5  -6   1    1.57    0.17
   5  -6   1    1.10    0.13
  -6   6  -1    0.24    0.11
  -6   6  -1    0.39    0.12
  -6   6  -1    0.24    0.12
   6  -6   1    0.26    0.13
   6  -6   1    0.08    0.11
  -7   6  -1    3.00    0.33
  -7   6  -1    3.28    0.28
  -7   6  -1    2.62    0.27
  -7   6  -1    3.75    0.40
   7  -6   1    3.33    0.36
   7  -6   1    3.29    0.29
   7  -6   1    2.77    0.27
  -8   6  -1    2.11    0.27
  -8   6  -1    2.28    0.28
  -8   6  -1    2.29    0.24
  -8   6  -1    1.72    0.24
   8  -6   1    2.41    0.27
   8  -6   1    2.33    0.30
   8  -6   1    2.21    0.27
   8  -6   1    2.66    0.25
  -9   6  -1    0.27    0.23
  -9   6  -1    0.05    0.16
  -9   6  -1    0.14    0.17
   9  -6   1   -0.17    0.16
   9  -6   1    0.08    0.15
  -6  -5   1   10.97    0.65
  -6  -5   1   11.40    0.61
  -6  -5   1   11.11    0.61
  -5  -5   1    1.60    0.21
  -5  -5   1    1.31    0.20
  -4  -5   1   14.43    0.72
  -4  -5   1   13.99    0.75
  -4  -5   1   13.91    0.72
   3   5  -1    3.81    0.22
  -3  -5   1    4.12    0.24
  -3  -5   1    3.80    0.28
  -3  -5   1    4.47    0.22
  -3  -5   1    3.73    0.24
   2   5  -1   17.25    0.87
  -2  -5   1   17.31    0.89
  -2  -5   1   17.79    0.87
  -2  -5   1   17.58    0.87
  -2  -5   1   17.73    0.87
   1   5  -1    0.34    0.07
   1   5  -1    0.35    0.03
  -1  -5   1    0.33    0.06
  -1  -5   1    0.36    0.07
  -1  -5   1    0.33    0.06
   0   5  -1   11.63    0.56
   0   5  -1   11.71    0.58
   0   5  -1   11.41    0.56
   0  -5   1   11.10    0.58
   0  -5   1   11.07    0.57
   0  -5   1   11.32    0.57
  -1   5  -1   11.64    0.64
  -1   5  -1   12.61    0.63
  -1   5  -1   12.26    0.63
   1  -5   1   13.57    0.65
   1  -5   1   13.28    0.63
   1  -5   1   12.07    0.63
  -2   5  -1    0.09    0.06
  -2   5  -1    0.06    0.06
  -2   5  -1    0.17    0.08
   2  -5   1    0.07    0.06
   2  -5   1    0.05    0.08
   2  -5   1    0.03    0.06
  -3   5  -1    1.31    0.16
  -3   5  -1    1.52    0.14
  -3   5  -1    1.53    0.13
   3  -5   1    1.08    0.14
   3  -5   1    1.38    0.14
   3  -5   1    1.58    0.16
   3  -5   1    1.58    0.16
  -4   5  -1    5.76    0.34
  -4   5  -1    5.98    0.35
  -4   5  -1    6.20    0.34
   4  -5   1    5.96    0.34
   4  -5   1    5.78    0.35
   4  -5   1    6.24    0.34
   4  -5   1    6.47    0.36
  -5   5  -1    4.21    0.26
  -5   5  -1    3.56    0.25
  -5   5  -1    3.78    0.25
  -5   5  -1    3.49    0.26
   5  -5   1    3.84    0.26
   5  -5   1    3.53    0.25
   5  -5   1    3.95    0.25
   5  -5   1    3.92    0.27
  -6   5  -1  125.21    5.86
  -6   5  -1  121.21    5.86
  -6   5  -1  119.83    5.87
  -6   5  -1  118.30    5.86
   6  -5   1  120.39    5.86
   6  -5   1  123.33    5.86
   6  -5   1  113.57    5.86
  -7   5  -1    1.87    0.25
  -7   5  -1    2.06    0.23
  -7   5  -1    1.53    0.17
   7  -5   1    1.88    0.22
  -8   5  -1    0.25    0.20
  -8   5  -1    0.27    0.15
  -8   5  -1    0.16    0.12
  -8   5  -1    0.12    0.16
   8  -5   1    0.25    0.14
   8  -5   1   -0.03    0.17
   8  -5   1    0.21    0.13
  -9   5  -1    0.57    0.16
  -9   5  -1    0.35    0.19
  -9   5  -1    0.51    0.17
   9  -5   1    0.73    0.16
   9  -5   1    0.38    0.17
   9  -5   1    0.49    0.16
  -7  -4   1    1.81    0.19
  -7  -4   1    1.77    0.20
  -7  -4   1    1.52    0.23
  -6  -4   1    7.73    0.44
  -6  -4   1    7.59    0.44
  -6  -4   1    7.74    0.50
  -5  -4   1    2.57    0.20
  -5  -4   1    2.35    0.25
  -5  -4   1    2.27    0.20
  -4  -4   1   14.82    0.77
  -4  -4   1   14.84    0.75
  -4  -4   1   14.78    0.75
   3   4  -1   56.36    2.79
   3   4  -1   55.57    2.80
  -3  -4   1   59.61    2.82
  -3  -4   1   57.66    2.80
  -3  -4   1   58.60    2.81
   2   4  -1    1.98    0.11
   2   4  -1    2.01    0.13
   2   4  -1    1.87    0.11
  -2  -4   1    1.99    0.13
  -2  -4   1    1.98    0.13
  -2  -4   1    1.91    0.17
  -2  -4   1    1.85    0.13
   1   4  -1   30.53    1.47
   1   4  -1   28.78    1.47
   1   4  -1   30.06    1.48
  -1  -4   1   30.04    1.48
  -1  -4   1   29.95    1.48
  -1  -4   1   31.95    1.48
   0   4  -1    0.72    0.08
   0   4  -1    0.65    0.08
   0   4  -1    0.70    0.08
   0  -4   1    0.61    0.08
   0  -4   1    0.70    0.07
   0  -4   1    0.69    0.09
  -1   4  -1  121.01    6.12
  -1   4  -1  131.82    6.11
   1  -4   1  126.76    6.11
   1  -4   1  120.05    6.11
   1  -4   1  130.48    6.12
  -2   4  -1    3.19    0.21
  -2   4  -1    3.18    0.19
  -2   4  -1    2.79    0.19
   2  -4   1    3.23    0.21
   2  -4   1    2.86    0.21
   2  -4   1    3.31    0.19
  -3   4  -1    6.13    0.34
  -3   4  -1    6.05    0.33
  -3   4  -1    6.54    0.35
   3  -4   1    5.84    0.35
   3  -4   1    6.10    0.35
   3  -4   1    6.38    0.34
   3  -4   1    6.42    0.34
  -4   4  -1    2.65    0.20
  -4   4  -1    2.63    0.18
  -4   4  -1    2.24    0.18
  -4   4  -1    2.48    0.19
   4  -4   1    2.65    0.18
   4  -4   1    2.59    0.18
   4  -4   1    2.50    0.19
   4  -4   1    3.00    0.20
  -5   4  -1   30.41    1.53
  -5   4  -1   31.39    1.53
  -5   4  -1   27.57    1.52
  -5   4  -1   31.94    1.54
   5  -4   1   32.45    1.53
   5  -4   1   28.35    1.53
   5  -4   1   33.57    1.53
   5  -4   1   31.31    1.53
  -6   4  -1    5.68    0.35
  -6   4  -1    5.89    0.35
  -6   4  -1    5.78    0.35
  -6   4  -1    5.72    0.37
   6  -4   1    6.53    0.36
   6  -4   1    6.61    0.35
   6  -4   1    5.98    0.36
  -7   4  -1   16.55    0.87
  -7   4  -1   16.88    0.84
  -7   4  -1   15.40    0.85
   7  -4   1   16.33    0.85
   7  -4   1   16.50    0.85
   7  -4   1   16.74    0.85
  -8   4  -1   11.21    0.64
  -8   4  -1   10.83    0.67
  -8   4  -1   11.52    0.62
  -8   4  -1   11.16    0.60
   8  -4   1   10.92    0.62
   8  -4   1   11.67    0.66
   8  -4   1   10.86    0.60
   8  -4   1   11.12    0.65
  -9   4  -1    0.05    0.15
  -9   4  -1   -0.12    0.22
  -9   4  -1   -0.10    0.16
   9  -4   1    0.24    0.16
   9  -4   1    0.09    0.19
  -8  -3   1    1.47    0.25
  -8  -3   1    2.36    0.30
  -8  -3   1    2.53    0.24
   7   3  -1    1.00    0.10
   7   3  -1    0.96    0.11
  -7  -3   1    0.87    0.19
  -7  -3   1    0.96    0.15
  -7  -3   1    1.04    0.16
   6   3  -1    3.80    0.21
   6   3  -1    3.87    0.21
  -6  -3   1    3.00    0.32
  -6  -3   1    3.93    0.26
   5   3  -1   10.70    0.53
  -5  -3   1   10.35    0.55
  -5  -3   1   10.61    0.55
  -5  -3   1   10.61    0.58
   4   3  -1  173.49    8.46
   4   3  -1  173.79    8.46
  -4  -3   1  165.81    8.47
  -4  -3   1  182.49    8.48
  -4  -3   1  176.87    8.47
   3   3  -1    0.31    0.03
   3   3  -1    0.33    0.04
   3   3  -1    0.36    0.05
  -3  -3   1    0.27    0.06
  -3  -3   1    0.30    0.06
  -3  -3   1    0.28    0.08
   2   3  -1   40.93    2.01
   2   3  -1   42.52    2.01
   2   3  -1   41.59    2.01
  -2  -3   1   41.71    2.01
  -2  -3   1   40.14    2.01
  -2  -3   1   42.95    2.03
  -2  -3   1   39.55    2.01
   1   3  -1   16.25    0.77
   1   3  -1   16.00    0.78
   1   3  -1   15.32    0.77
  -1  -3   1   15.88    0.78
  -1  -3   1   15.40    0.78
  -1  -3   1   15.87    0.78
   0   3  -1  247.65   12.28
   0   3  -1  261.57   12.28
   0   3  -1  263.07   12.28
   0  -3   1  249.51   12.27
   0  -3   1  235.86   12.28
   0  -3   1  259.67   12.32
  -1   3  -1   41.61    2.00
  -1   3  -1   43.78    2.00
  -1   3  -1   42.29    2.01
   1  -3   1   37.26    2.00
   1  -3   1   42.68    2.01
   1  -3   1   38.97    2.00
  -2   3  -1   15.60    0.79
  -2   3  -1   16.46    0.79
  -2   3  -1   15.29    0.79
   2  -3   1   17.09    0.79
   2  -3   1   14.90    0.79
   2  -3   1   16.03    0.79
   2  -3   1   16.09    0.79
  -3   3  -1    2.65    0.18
  -3   3  -1    2.98    0.20
  -3   3  -1    3.17    0.19
  -3   3  -1    2.94    0.18
   3  -3   1    2.68    0.19
   3  -3   1    3.08    0.19
   3  -3   1    2.63    0.19
   3  -3   1    2.97    0.19
  -4   3  -1    1.65    0.15
  -4   3  -1    1.97    0.16
  -4   3  -1    1.93    0.15
  -4   3  -1    1.86    0.16
   4  -3   1    1.71    0.16
   4  -3   1    1.69    0.15
   4  -3   1    1.82    0.16
   4  -3   1    1.97    0.15
  -5   3  -1    9.04    0.47
  -5   3  -1    8.67    0.48
  -5   3  -1    8.54    0.46
  -5   3  -1    8.30    0.47
   5  -3   1    9.34    0.47
   5  -3   1    8.57    0.48
   5  -3   1    9.28    0.47
   5  -3   1    8.74    0.47
  -6   3  -1  185.78    8.95
  -6   3  -1  191.13    8.96
  -6   3  -1  193.32    8.95
  -6   3  -1  170.62    8.95
   6  -3   1  181.35    8.96
   6  -3   1  187.34    8.95
   6  -3   1  182.01    8.95
   6  -3   1  182.47    8.95
  -7   3  -1    0.78    0.16
  -7   3  -1    0.93    0.14
  -7   3  -1    0.98    0.11
  -7   3  -1    0.63    0.14
   7  -3   1    0.80    0.11
   7  -3   1    0.85    0.12
  -8   3  -1    0.71    0.15
  -8   3  -1    0.88    0.18
  -8   3  -1    0.52    0.22
  -8   3  -1    0.80    0.12
   8  -3   1    0.72    0.14
   8  -3   1    0.62    0.10
   8  -3   1    0.71    0.20
  -9   3  -1   -0.04    0.17
  -9   3  -1   -0.11    0.19
   9  -3   1    0.15    0.15
   9  -3   1   -0.27    0.14
   8   2  -1    0.32    0.11
   8   2  -1    0.24    0.09
  -8  -2   1    0.28    0.20
  -8  -2   1    0.54    0.18
  -8  -2   1    0.47    0.15
   7   2  -1    1.78    0.16
   7   2  -1    1.76    0.17
  -7  -2   1    1.90    0.18
  -7  -2   1    1.76    0.23
  -7  -2   1    2.06    0.23
   6   2  -1   11.84    0.62
  -6  -2   1   11.80    0.67
  -6  -2   1   13.12    0.64
  -6  -2   1   11.91    0.64
   5   2  -1    1.78    0.22
   5   2  -1    1.83    0.14
   5   2  -1    1.81    0.14
  -5  -2   1    1.95    0.16
  -5  -2   1    1.83    0.17
   4   2  -1   11.59    0.59
   4   2  -1   12.16    0.62
   4   2  -1   11.59    0.59
  -4  -2   1   11.67    0.60
  -4  -2   1   11.85    0.60
  -4  -2   1   12.01    0.61
   3   2  -1    5.66    0.30
   3   2  -1    5.67    0.30
   3   2  -1    5.86    0.32
  -3  -2   1    5.78    0.31
  -3  -2   1    5.69    0.31
  -3  -2   1    5.94    0.33
   2   2  -1   35.14    1.75
   2   2  -1   36.57    1.75
   2   2  -1   35.51    1.74
  -2  -2   1   36.55    1.75
  -2  -2   1   35.56    1.75
  -2  -2   1   36.19    1.76
   1   2  -1   51.59    2.45
   1   2  -1   53.31    2.45
   1   2  -1   47.97    2.45
  -1  -2   1   50.25    2.45
  -1  -2   1   49.87    2.45
  -1  -2   1   49.71    2.45
   0   2  -1  370.75   18.36
   0   2  -1  392.80   18.37
   0   2  -1  378.55   18.38
   0  -2   1  384.44   18.37
   0  -2   1  359.12   18.36
   0  -2   1  385.52   18.39
  -1   2  -1   43.88    2.12
  -1   2  -1   41.92    2.13
  -1   2  -1   46.75    2.12
   1  -2   1   41.07    2.12
   1  -2   1   42.40    2.12
   1  -2   1   43.19    2.13
   1  -2   1   46.38    2.13
  -2   2  -1    0.20    0.04
  -2   2  -1    0.16    0.05
   2  -2   1    0.26    0.04
   2  -2   1    0.23    0.04
   2  -2   1    0.18    0.05
  -3   2  -1   12.28    0.61
  -3   2  -1   12.04    0.62
  -3   2  -1   11.78    0.61
  -3   2  -1   12.52    0.62
   3  -2   1   11.36    0.61
   3  -2   1   12.42    0.62
   3  -2   1   12.24    0.61
   3  -2   1   13.24    0.62
  -4   2  -1   29.55    1.43
  -4   2  -1   29.94    1.43
  -4   2  -1   28.24    1.42
  -4   2  -1   28.43    1.43
   4  -2   1   28.07    1.42
   4  -2   1   30.00    1.43
   4  -2   1   28.83    1.42
   4  -2   1   28.67    1.42
  -5   2  -1    6.76    0.38
  -5   2  -1    6.89    0.36
  -5   2  -1    6.23    0.35
  -5   2  -1    6.69    0.36
   5  -2   1    6.36    0.36
   5  -2   1    6.63    0.35
   5  -2   1    6.39    0.37
   5  -2   1    6.56    0.36
  -6   2  -1    0.02    0.11
  -6   2  -1   -0.08    0.07
  -6   2  -1    0.15    0.11
   6  -2   1    0.07    0.08
   6  -2   1   -0.01    0.07
   6  -2   1    0.12    0.11
   6  -2   1    0.13    0.09
  -7   2  -1    0.08    0.11
  -7   2  -1    0.38    0.15
  -7   2  -1    0.31    0.08
  -7   2  -1    0.28    0.12
   7  -2   1    0.28    0.10
   7  -2   1    0.22    0.08
  -8   2  -1    0.55    0.15
  -8   2  -1    0.44    0.18
  -8   2  -1    0.54    0.17
  -8   2  -1    0.65    0.09
   8  -2   1    0.75    0.13
   8  -2   1    0.52    0.13
   8  -2   1    0.70    0.19
  -9   2  -1   15.48    0.88
  -9   2  -1   16.49    0.91
   9  -2   1   16.75    0.86
   9   1  -1    5.23    0.34
  -9  -1   1    4.09    0.38
   8   1  -1    2.53    0.32
   8   1  -1    2.47    0.24
   8   1  -1    2.48    0.22
  -8  -1   1    2.65    0.34
  -8  -1   1    3.21    0.28
  -8  -1   1    2.77    0.31
   7   1  -1    2.42    0.19
   7   1  -1    2.23    0.18
  -7  -1   1    2.40    0.24
  -7  -1   1    2.14    0.30
  -7  -1   1    2.14    0.23
   6   1  -1    4.30    0.27
  -6  -1   1    4.33    0.29
  -6  -1   1    4.69    0.32
  -6  -1   1    5.30    0.29
   5   1  -1   26.74    1.33
   5   1  -1   26.26    1.35
   5   1  -1   27.28    1.33
  -5  -1   1   25.94    1.34
  -5  -1   1   27.28    1.35
  -5  -1   1   28.68    1.34
   4   1  -1    0.37    0.06
   4   1  -1    0.40    0.09
   4   1  -1    0.29    0.06
  -4  -1   1    0.29    0.09
  -4  -1   1    0.32    0.06
  -4  -1   1    0.42    0.07
   3   1  -1    0.06    0.05
   3   1  -1    0.01    0.05
   3   1  -1    0.00    0.01
   3   1  -1    0.01    0.07
  -3  -1   1   -0.01    0.07
  -3  -1   1    0.04    0.05
  -3  -1   1    0.03    0.05
   2   1  -1  306.76   14.63
   2   1  -1  291.18   14.61
   2   1  -1  301.03   14.61
  -2  -1   1  308.59   14.61
  -2  -1   1  301.49   14.63
  -2  -1   1  295.56   14.61
   1   1  -1  245.92   11.34
   1   1  -1  239.71   11.34
   1   1  -1  224.64   11.33
  -1  -1   1  212.60   11.34
  -1  -1   1  242.06   11.34
  -1  -1   1  236.24   11.34
  -1   1  -1   22.98    1.08
  -1   1  -1   22.81    1.08
  -1   1  -1   19.84    1.08
  -1   1  -1   20.29    1.08
   1  -1   1   22.78    1.08
   1  -1   1   22.15    1.08
   1  -1   1   22.12    1.08
   1  -1   1   23.90    1.08
  -2   1  -1   12.48    0.67
  -2   1  -1   14.17    0.67
  -2   1  -1   12.57    0.66
   2  -1   1   14.07    0.67
   2  -1   1   13.25    0.66
   2  -1   1   13.28    0.66
   2  -1   1   14.64    0.67
  -3   1  -1   61.36    3.02
  -3   1  -1   56.50    3.01
  -3   1  -1   63.47    3.02
  -3   1  -1   66.85    3.01
   3  -1   1   61.56    3.01
   3  -1   1   63.39    3.02
   3  -1   1   61.66    3.01
   3  -1   1   60.79    3.01
  -4   1  -1   29.49    1.47
  -4   1  -1   30.80    1.47
  -4   1  -1   28.89    1.47
  -4   1  -1   30.68    1.46
   4  -1   1   30.94    1.46
   4  -1   1   29.76    1.46
   4  -1   1   28.45    1.47
   4  -1   1   29.47    1.46
  -5   1  -1   11.48    0.58
  -5   1  -1   11.59    0.58
  -5   1  -1   10.22    0.60
  -5   1  -1   11.07    0.56
   5  -1   1   11.83    0.58
   5  -1   1   11.26    0.60
   5  -1   1   11.86    0.58
   5  -1   1   10.98    0.56
  -6   1  -1    0.04    0.05
  -6   1  -1    0.08    0.10
   6  -1   1    0.19    0.08
   6  -1   1    0.11    0.08
   6  -1   1    0.10    0.11
  -7   1  -1    0.01    0.11
  -7   1  -1    0.05    0.15
  -7   1  -1    0.08    0.10
   7  -1   1    0.10    0.09
   7  -1   1   -0.04    0.10
  -8   1  -1    0.19    0.14
  -8   1  -1   -0.03    0.17
  -8   1  -1    0.06    0.14
   8  -1   1    0.04    0.10
   8  -1   1   -0.05    0.17
  -9   1  -1    2.88    0.39
  -9   1  -1    4.48    0.38
   9  -1   1    4.09    0.29
   9   0  -1    2.24    0.25
   9   0  -1    2.50    0.27
  -9   0   1    2.26    0.29
  -9   0   1    2.21    0.27
  -9   0   1    1.54    0.21
   8   0  -1   16.95    0.83
   8   0  -1   16.47    0.83
   8   0  -1   16.15    0.88
  -8   0   1   15.75    0.89
  -8   0   1   15.30    0.85
  -8   0   1   16.37    0.86
   7   0  -1    0.20    0.09
  -7   0   1    0.39    0.11
  -7   0   1    0.31    0.15
  -7   0   1    0.20    0.11
   6   0  -1   38.32    1.91
   6   0  -1   39.56    1.92
   6   0  -1   40.63    1.93
   6   0  -1   35.81    1.89
  -6   0   1   41.46    1.92
  -6   0   1   40.23    1.93
  -6   0   1   36.94    1.92
   5   0  -1    7.80    0.40
   5   0  -1    8.34    0.44
   5   0  -1    8.76    0.42
   5   0  -1    8.01    0.42
  -5   0   1    7.95    0.43
  -5   0   1    7.84    0.44
  -5   0   1    7.53    0.42
   4   0  -1    2.26    0.16
   4   0  -1    2.59    0.16
   4   0  -1    2.28    0.18
   4   0  -1    2.45    0.13
  -4   0   1    2.24    0.18
  -4   0   1    2.37    0.16
  -4   0   1    2.10    0.16
   3   0  -1   71.18    3.40
   3   0  -1   69.48    3.40
   3   0  -1   70.56    3.40
   3   0  -1   66.41    3.41
  -3   0   1   69.07    3.41
  -3   0   1   72.33    3.40
  -3   0   1   71.05    3.40
   2   0  -1  494.84   22.69
   2   0  -1  467.62   22.70
   2   0  -1  476.95   22.71
   2   0  -1  475.95   22.71
  -2   0   1  454.69   22.71
  -2   0   1  411.27   22.69
  -2   0   1  493.67   22.70
  -1   0   1    0.01    0.01
  -1   0  -1  227.99   11.06
  -1   0  -1  230.51   11.04
  -1   0  -1  223.72   11.04
   1   0   1  230.28   11.04
   1   0   1  232.53   11.07
   1   0   1  220.63   11.04
  -2   0  -1    1.48    0.09
  -2   0  -1    1.54    0.09
  -2   0  -1    1.32    0.10
  -2   0  -1    1.44    0.08
   2   0   1    1.43    0.09
   2   0   1    1.38    0.11
   2   0   1    1.59    0.09
  -3   0  -1    0.20    0.06
  -3   0  -1    0.25    0.08
  -3   0  -1    0.24    0.04
  -3   0  -1    0.28    0.06
   3   0   1    0.25    0.05
   3   0   1    0.17    0.08
   3   0   1    0.26    0.05
  -4   0  -1    1.50    0.16
  -4   0  -1    1.65    0.10
  -4   0  -1    1.73    0.13
  -4   0  -1    1.59    0.13
   4   0   1    1.57    0.16
   4   0   1    1.64    0.12
   4   0   1    1.75    0.12
  -5   0  -1    4.09    0.28
  -5   0  -1    4.23    0.26
  -5   0  -1    4.37    0.22
  -5   0  -1    4.20    0.26
   5   0   1    4.30    0.24
   5   0   1    4.27    0.28
   5   0   1    4.35    0.24
  -6   0  -1    1.12    0.16
  -6   0  -1    1.44    0.18
   6   0   1    1.18    0.16
   6   0   1    1.10    0.14
   6   0   1    1.21    0.14
  -7   0  -1    9.58    0.55
  -7   0  -1    9.77    0.58
  -7   0  -1    9.98    0.55
   7   0   1    9.64    0.52
   7   0   1   10.44    0.58
   7   0   1    9.96    0.52
  -8   0  -1    7.99    0.48
  -8   0  -1    7.68    0.51
  -8   0  -1    7.96    0.50
   8   0   1    8.26    0.43
   8   0   1    7.90    0.43
   8   0   1    6.13    0.60
   9  -1  -1    0.85    0.15
  -9   1   1    1.28    0.25
  -9   1   1    0.97    0.17
  -9   1   1    0.63    0.17
   8  -1  -1   10.42    0.56
   8  -1  -1   10.38    0.52
   8  -1  -1    9.68    0.60
   8  -1  -1   10.55    0.56
  -8   1   1   10.42    0.57
  -8   1   1   10.01    0.58
  -8   1   1   10.53    0.62
   7  -1  -1   20.24    1.07
   7  -1  -1   21.52    1.05
  -7   1   1   21.04    1.08
  -7   1   1   21.01    1.10
  -7   1   1   22.38    1.08
   6  -1  -1    1.51    0.15
   6  -1  -1    1.32    0.15
   6  -1  -1    1.20    0.11
   6  -1  -1    1.53    0.20
  -6   1   1    1.44    0.17
  -6   1   1    1.21    0.13
  -6   1   1    1.38    0.16
   5  -1  -1    0.25    0.05
   5  -1  -1    0.45    0.09
   5  -1  -1    0.30    0.08
   5  -1  -1    0.37    0.08
  -5   1   1    0.27    0.07
  -5   1   1    0.42    0.09
  -5   1   1    0.37    0.07
  -5   1   1    0.32    0.06
   4  -1  -1    7.77    0.40
   4  -1  -1    7.91    0.41
   4  -1  -1    8.53    0.41
   4  -1  -1    7.26    0.39
  -4   1   1    7.76    0.41
  -4   1   1    7.78    0.40
  -4   1   1    7.23    0.40
  -4   1   1    7.64    0.41
   3  -1  -1  190.23    9.04
   3  -1  -1  186.76    9.03
   3  -1  -1  176.24    9.03
   3  -1  -1  181.82    9.02
  -3   1   1  187.65    9.04
  -3   1   1  189.98    9.03
  -3   1   1  176.15    9.00
  -3   1   1  196.56    9.05
   2  -1  -1    0.86    0.07
   2  -1  -1    0.94    0.08
   2  -1  -1    0.79    0.07
   2  -1  -1    0.92    0.08
  -2   1   1    0.87    0.07
  -2   1   1    0.86    0.08
  -2   1   1    0.91    0.08
  -2   1   1    0.97    0.08
   1  -1  -1  183.18    8.74
   1  -1  -1  177.11    8.73
   1  -1  -1  156.84    8.73
  -1   1   1  195.07    8.75
  -1   1   1  186.36    8.73
   0  -1  -1  170.43    8.28
  -1  -1  -1   70.80    3.37
  -1  -1  -1   73.04    3.37
  -1  -1  -1   62.75    3.37
   1   1   1   71.33    3.37
  -2  -1  -1    6.59    0.35
  -2  -1  -1    6.62    0.34
  -2  -1  -1    6.76    0.34
   2   1   1    6.82    0.33
   2   1   1    6.88    0.35
  -3  -1  -1  464.14   22.66
  -3  -1  -1  461.07   22.65
  -3  -1  -1  471.45   22.71
   3   1   1  466.51   22.69
   3   1   1  468.26   22.64
   3   1   1  470.07   22.64
  -4  -1  -1   13.88    0.70
  -4  -1  -1   14.01    0.70
  -4  -1  -1   13.72    0.72
   4   1   1   13.95    0.72
   4   1   1   14.06    0.69
   4   1   1   14.30    0.69
  -5  -1  -1   14.42    0.72
  -5  -1  -1   14.88    0.74
  -5  -1  -1   13.71    0.71
   5   1   1   13.91    0.70
   5   1   1   14.02    0.74
   5   1   1   13.71    0.70
  -6  -1  -1    9.22    0.56
  -6  -1  -1    9.63    0.53
  -6  -1  -1   11.44    0.53
   6   1   1    9.47    0.50
   6   1   1    9.42    0.50
  -7  -1  -1   21.92    1.15
  -7  -1  -1   21.31    1.11
  -7  -1  -1   22.72    1.11
   7   1   1   21.60    1.08
   7   1   1   22.36    1.14
   7   1   1   21.47    1.08
  -8  -1  -1    2.83    0.29
  -8  -1  -1    2.70    0.35
  -8  -1  -1    2.84    0.32
   9  -2  -1    0.08    0.19
   9  -2  -1    0.16    0.13
   9  -2  -1    0.24    0.13
   9  -2  -1    0.27    0.10
  -9   2   1    0.20    0.17
  -9   2   1    0.20    0.15
  -9   2   1    0.45    0.15
   8  -2  -1    0.96    0.17
   8  -2  -1    1.32    0.16
   8  -2  -1    1.20    0.16
  -8   2   1    1.31    0.17
  -8   2   1    1.41    0.20
  -8   2   1    1.30    0.16
   7  -2  -1   76.31    3.83
   7  -2  -1   78.62    3.85
   7  -2  -1   77.43    3.84
  -7   2   1   79.68    3.84
  -7   2   1   76.91    3.85
  -7   2   1   82.46    3.85
   6  -2  -1   17.84    0.99
   6  -2  -1   21.27    1.00
   6  -2  -1   17.85    1.00
   6  -2  -1   20.67    1.01
  -6   2   1   19.97    1.00
  -6   2   1   20.23    0.99
  -6   2   1   20.80    1.01
  -6   2   1   20.97    1.01
   5  -2  -1   16.85    0.87
   5  -2  -1   17.57    0.88
   5  -2  -1   17.84    0.88
   5  -2  -1   17.73    0.88
  -5   2   1   17.64    0.88
  -5   2   1   17.33    0.88
  -5   2   1   17.48    0.88
  -5   2   1   17.56    0.87
   4  -2  -1    5.02    0.29
   4  -2  -1    4.92    0.29
   4  -2  -1    5.24    0.29
   4  -2  -1    5.21    0.28
  -4   2   1    5.68    0.29
  -4   2   1    5.16    0.29
  -4   2   1    5.10    0.30
  -4   2   1    4.84    0.28
   3  -2  -1  193.99    9.13
   3  -2  -1  182.47    9.12
   3  -2  -1  182.35    9.10
   3  -2  -1  171.57    9.10
  -3   2   1  202.95    9.13
  -3   2   1  202.63    9.13
  -3   2   1  173.29    9.10
  -3   2   1  192.29    9.12
   2  -2  -1  354.18   17.40
   2  -2  -1  367.21   17.42
   2  -2  -1  367.05   17.42
  -2   2   1  367.51   17.41
  -2   2   1  369.72   17.44
  -2   2   1  337.13   17.40
  -2   2   1  346.38   17.40
   1  -2  -1   19.08    0.94
   1  -2  -1   17.89    0.94
   1  -2  -1   20.37    0.94
  -1   2   1   18.32    0.93
  -1   2   1   19.96    0.94
  -1   2   1   19.61    0.93
   0  -2  -1   42.30    2.12
   0   2   1   44.86    2.12
  -1  -2  -1    1.08    0.09
  -1  -2  -1    1.10    0.08
  -2  -2  -1   19.14    0.93
  -2  -2  -1   19.34    0.95
  -2  -2  -1   18.35    0.93
  -2  -2  -1   18.78    0.93
   2   2   1   19.35    0.95
  -3  -2  -1   33.34    1.62
  -3  -2  -1   32.46    1.62
  -3  -2  -1   32.76    1.63
   3   2   1   33.80    1.63
  -4  -2  -1    0.28    0.10
  -4  -2  -1    0.31    0.07
  -4  -2  -1    0.22    0.06
   4   2   1    0.22    0.10
  -5  -2  -1    0.39    0.08
  -5  -2  -1    0.29    0.08
  -5  -2  -1    0.26    0.13
   5   2   1    0.18    0.12
  -6  -2  -1    2.34    0.24
  -6  -2  -1    3.00    0.21
  -6  -2  -1    2.40    0.28
  -7  -2  -1    4.04    0.37
  -7  -2  -1    4.16    0.33
  -7  -2  -1    4.57    0.31
   7   2   1    4.40    0.37
   9  -3  -1   12.21    0.63
   9  -3  -1   12.91    0.66
   9  -3  -1   11.40    0.68
   9  -3  -1   12.00    0.66
  -9   3   1   11.51    0.66
  -9   3   1   11.34    0.66
  -9   3   1   11.54    0.69
   8  -3  -1    0.87    0.16
   8  -3  -1    0.47    0.10
   8  -3  -1    0.49    0.12
  -8   3   1    0.74    0.12
  -8   3   1    0.43    0.18
  -8   3   1    0.44    0.15
  -8   3   1    0.54    0.16
   7  -3  -1    1.44    0.19
   7  -3  -1    1.69    0.17
   7  -3  -1    1.27    0.16
  -7   3   1    1.90    0.21
  -7   3   1    1.65    0.18
  -7   3   1    1.53    0.18
   6  -3  -1    3.75    0.24
   6  -3  -1    3.69    0.26
   6  -3  -1    3.52    0.24
   6  -3  -1    3.30    0.24
  -6   3   1    3.82    0.26
  -6   3   1    3.62    0.25
  -6   3   1    3.70    0.24
  -6   3   1    3.88    0.25
   5  -3  -1   13.68    0.71
   5  -3  -1   14.14    0.71
   5  -3  -1   13.46    0.71
   5  -3  -1   14.59    0.72
  -5   3   1   14.11    0.72
  -5   3   1   13.10    0.71
  -5   3   1   13.67    0.71
  -5   3   1   15.27    0.71
   4  -3  -1   11.55    0.56
   4  -3  -1   10.62    0.56
   4  -3  -1   11.35    0.56
   4  -3  -1   10.18    0.55
  -4   3   1   10.50    0.56
  -4   3   1   10.52    0.56
  -4   3   1   11.35    0.56
   3  -3  -1   17.71    0.90
   3  -3  -1   18.38    0.91
   3  -3  -1   17.57    0.91
   3  -3  -1   18.63    0.91
  -3   3   1   19.64    0.91
  -3   3   1   17.85    0.91
  -3   3   1   18.09    0.90
  -3   3   1   18.23    0.90
   2  -3  -1   22.85    1.16
   2  -3  -1   23.87    1.17
   2  -3  -1   23.94    1.17
   2  -3  -1   23.62    1.16
  -2   3   1   22.84    1.16
  -2   3   1   25.12    1.16
  -2   3   1   23.97    1.17
   1  -3  -1    0.11    0.03
   1  -3  -1    0.14    0.03
   1  -3  -1    0.13    0.05
  -1   3   1    0.09    0.02
  -1   3   1    0.22    0.05
   0  -3  -1   78.44    3.89
   0  -3  -1   81.61    3.90
   0  -3  -1   82.32    3.90
   0   3   1   78.85    3.90
  -1  -3  -1   61.43    2.97
  -1  -3  -1   61.74    2.96
  -1  -3  -1   60.56    2.96
  -1  -3  -1   61.37    2.98
   1   3   1   60.69    2.97
  -2  -3  -1   37.34    1.87
  -2  -3  -1   39.12    1.87
  -2  -3  -1   39.28    1.89
  -2  -3  -1   37.91    1.87
  -3  -3  -1   29.54    1.44
  -3  -3  -1   29.65    1.47
  -3  -3  -1   29.76    1.45
  -3  -3  -1   29.36    1.45
  -4  -3  -1    0.74    0.09
  -4  -3  -1    0.83    0.08
  -5  -3  -1    6.79    0.38
  -5  -3  -1    6.68    0.38
  -5  -3  -1    6.99    0.44
  -6  -3  -1    0.67    0.12
  -6  -3  -1    0.67    0.20
  -7  -3  -1    0.33    0.14
  -7  -3  -1    0.49    0.14
  -7  -3  -1    0.06    0.19
   9  -4  -1    2.12    0.28
   9  -4  -1    2.30    0.30
   9  -4  -1    2.33    0.30
  -9   4   1    1.92    0.22
  -9   4   1    1.59    0.21
  -9   4   1    2.22    0.30
   8  -4  -1    8.61    0.51
   8  -4  -1    8.62    0.48
   8  -4  -1    8.45    0.50
  -8   4   1    8.56    0.48
  -8   4   1    8.98    0.52
  -8   4   1    8.14    0.51
   7  -4  -1   53.97    2.48
   7  -4  -1   49.14    2.47
   7  -4  -1   45.55    2.47
  -7   4   1   50.30    2.47
  -7   4   1   52.23    2.47
  -7   4   1   49.94    2.48
   6  -4  -1    0.12    0.10
   6  -4  -1    0.15    0.09
   6  -4  -1    0.18    0.10
  -6   4   1    0.03    0.10
  -6   4   1    0.11    0.09
  -6   4   1    0.11    0.11
   5  -4  -1    0.76    0.10
   5  -4  -1    1.00    0.13
   5  -4  -1    0.84    0.10
   5  -4  -1    1.16    0.12
  -5   4   1    0.94    0.10
  -5   4   1    1.09    0.14
  -5   4   1    1.05    0.14
  -5   4   1    1.05    0.13
   4  -4  -1   16.49    0.78
   4  -4  -1   14.16    0.77
   4  -4  -1   14.80    0.77
   4  -4  -1   13.14    0.77
  -4   4   1   15.17    0.78
  -4   4   1   16.26    0.77
  -4   4   1   16.65    0.78
  -4   4   1   16.18    0.77
   3  -4  -1  130.65    6.95
   3  -4  -1  144.20    6.95
   3  -4  -1  147.14    6.96
  -3   4   1  149.06    6.95
  -3   4   1  144.66    6.96
  -3   4   1  143.64    6.95
   2  -4  -1   37.66    1.79
   2  -4  -1   37.39    1.78
   2  -4  -1   36.76    1.78
  -2   4   1   33.92    1.77
  -2   4   1   36.65    1.77
  -2   4   1   36.07    1.79
   1  -4  -1    0.89    0.12
   1  -4  -1    0.82    0.08
   1  -4  -1    0.79    0.08
  -1   4   1    0.85    0.12
   0  -4  -1    3.51    0.22
   0  -4  -1    3.58    0.19
   0  -4  -1    3.49    0.19
   0   4   1    3.66    0.22
  -1  -4  -1    0.03    0.05
  -1  -4  -1    0.04    0.03
  -1  -4  -1    0.06    0.03
  -1  -4  -1    0.04    0.07
   1   4   1    0.04    0.05
  -2  -4  -1    3.51    0.19
  -2  -4  -1    3.48    0.20
  -2  -4  -1    3.43    0.23
  -2  -4  -1    3.50    0.19
  -3  -4  -1    9.60    0.49
  -3  -4  -1    9.91    0.48
  -3  -4  -1    9.53    0.52
  -3  -4  -1    9.40    0.49
  -4  -4  -1    0.09    0.12
  -4  -4  -1    0.09    0.07
  -4  -4  -1    0.17    0.07
  -5  -4  -1   15.42    0.77
  -5  -4  -1   15.10    0.77
  -5  -4  -1   14.54    0.81
  -6  -4  -1    4.43    0.29
  -6  -4  -1    4.12    0.31
  -6  -4  -1    4.16    0.38
   9  -5  -1    2.67    0.34
   9  -5  -1    3.43    0.31
   9  -5  -1    3.10    0.31
   9  -5  -1    3.78    0.30
  -9   5   1    3.16    0.33
  -9   5   1    3.21    0.33
  -9   5   1    2.55    0.30
  -9   5   1    3.37    0.30
   8  -5  -1   -0.04    0.15
   8  -5  -1    0.01    0.13
   8  -5  -1    0.08    0.13
   8  -5  -1    0.06    0.13
  -8   5   1   -0.04    0.15
  -8   5   1   -0.12    0.14
  -8   5   1    0.10    0.12
  -8   5   1    0.05    0.13
   7  -5  -1    7.17    0.39
   7  -5  -1    6.96    0.41
  -7   5   1    5.97    0.39
  -7   5   1    6.08    0.40
  -7   5   1    6.44    0.40
  -7   5   1    6.91    0.42
   6  -5  -1   34.39    1.75
   6  -5  -1   33.96    1.75
   6  -5  -1   35.42    1.75
  -6   5   1   37.87    1.75
  -6   5   1   34.50    1.75
  -6   5   1   34.24    1.74
  -6   5   1   36.35    1.75
   5  -5  -1    0.58    0.09
   5  -5  -1    0.56    0.11
   5  -5  -1    0.71    0.11
   5  -5  -1    0.64    0.10
  -5   5   1    0.66    0.10
  -5   5   1    0.45    0.08
  -5   5   1    0.51    0.10
   4  -5  -1   10.75    0.55
   4  -5  -1    9.81    0.55
   4  -5  -1   12.00    0.56
   4  -5  -1   11.00    0.56
  -4   5   1   10.83    0.56
  -4   5   1   10.92    0.54
  -4   5   1    8.91    0.54
   3  -5  -1    0.39    0.07
   3  -5  -1    0.39    0.08
   3  -5  -1    0.37    0.08
   3  -5  -1    0.34    0.07
  -3   5   1    0.40    0.06
  -3   5   1    0.29    0.09
  -3   5   1    0.27    0.06
   2  -5  -1   10.10    0.52
   2  -5  -1    9.90    0.50
  -2   5   1    9.12    0.49
  -2   5   1   10.42    0.49
  -2   5   1   10.05    0.52
   1  -5  -1   39.18    1.85
   1  -5  -1   37.43    1.86
   1  -5  -1   37.07    1.85
  -1   5   1   37.78    1.86
   0  -5  -1    0.83    0.12
   0  -5  -1    0.57    0.07
   0  -5  -1    0.63    0.07
   0   5   1    0.64    0.08
  -1  -5  -1    4.77    0.27
  -1  -5  -1    4.68    0.29
  -1  -5  -1    4.78    0.25
  -1  -5  -1    4.72    0.25
   1   5   1    4.67    0.27
  -2  -5  -1    5.20    0.33
  -2  -5  -1    5.39    0.28
  -2  -5  -1    5.63    0.30
  -2  -5  -1    5.42    0.28
  -3  -5  -1    9.17    0.47
  -3  -5  -1    9.40    0.52
  -3  -5  -1    9.18    0.47
  -3  -5  -1    9.05    0.47
  -4  -5  -1   32.53    1.62
  -4  -5  -1   31.58    1.58
  -4  -5  -1   32.46    1.59
  -5  -5  -1    1.33    0.22
  -5  -5  -1    0.95    0.14
  -6  -5  -1    0.45    0.21
  -6  -5  -1    0.48    0.14
  -6  -5  -1    0.35    0.15
   9  -6  -1    1.84    0.21
   9  -6  -1    1.83    0.25
   9  -6  -1    1.50    0.20
  -9   6   1    1.68    0.21
  -9   6   1    1.24    0.18
  -9   6   1    2.01    0.24
   8  -6  -1    1.60    0.21
   8  -6  -1    1.57    0.20
   8  -6  -1    1.40    0.18
   8  -6  -1    1.28    0.18
  -8   6   1    1.80    0.22
  -8   6   1    1.59    0.19
  -8   6   1    1.61    0.19
  -8   6   1    1.64    0.18
   7  -6  -1    0.11    0.14
   7  -6  -1    0.32    0.14
   7  -6  -1    0.22    0.14
  -7   6   1    0.38    0.15
  -7   6   1    0.22    0.13
  -7   6   1    0.06    0.10
  -7   6   1    0.33    0.12
   6  -6  -1    0.18    0.11
   6  -6  -1    0.01    0.11
  -6   6   1    0.00    0.09
  -6   6   1   -0.10    0.11
  -6   6   1    0.10    0.09
   5  -6  -1   38.29    1.78
   5  -6  -1   35.12    1.78
   5  -6  -1   35.21    1.77
  -5   6   1   37.14    1.77
  -5   6   1   34.65    1.76
  -5   6   1   34.57    1.78
   4  -6  -1   31.21    1.55
   4  -6  -1   29.36    1.56
  -4   6   1   32.29    1.57
  -4   6   1   32.61    1.55
  -4   6   1   31.52    1.55
   3  -6  -1    0.35    0.09
   3  -6  -1    0.37    0.10
   3  -6  -1    0.44    0.08
  -3   6   1    0.44    0.10
  -3   6   1    0.28    0.06
  -3   6   1    0.43    0.06
   2  -6  -1    4.98    0.30
   2  -6  -1    4.78    0.28
   2  -6  -1    5.22    0.28
  -2   6   1    4.93    0.25
  -2   6   1    5.36    0.31
  -2   6   1    4.94    0.26
   1  -6  -1    0.09    0.08
   1  -6  -1    0.06    0.05
   1  -6  -1    0.02    0.05
  -1   6   1    0.10    0.08
   0  -6  -1    1.77    0.12
   0  -6  -1    1.56    0.17
   0  -6  -1    1.99    0.13
   0   6   1    1.86    0.17
  -1  -6  -1    0.16    0.05
  -1  -6  -1    0.20    0.05
  -1  -6  -1    0.09    0.08
   1   6   1    0.18    0.08
  -2  -6  -1   43.00    2.10
  -2  -6  -1   42.74    2.09
  -2  -6  -1   43.25    2.13
  -2  -6  -1   42.66    2.10
  -3  -6  -1   33.76    1.66
  -3  -6  -1   33.74    1.66
  -3  -6  -1   33.70    1.70
  -3  -6  -1   34.04    1.66
  -4  -6  -1    0.17    0.09
  -4  -6  -1    0.30    0.18
  -4  -6  -1    0.17    0.09
  -5  -6  -1    5.78    0.34
  -5  -6  -1    5.07    0.36
  -5  -6  -1    5.02    0.43
   9  -7  -1   -0.06    0.16
   9  -7  -1    0.36    0.17
  -9   7   1   -0.02    0.16
  -9   7   1    0.07    0.16
   8  -7  -1    2.43    0.28
   8  -7  -1    1.93    0.22
   8  -7  -1    1.22    0.19
   8  -7  -1    1.66    0.21
  -8   7   1    2.23    0.29
  -8   7   1    1.71    0.19
  -8   7   1    1.86    0.24
   7  -7  -1   34.44    1.66
   7  -7  -1   31.48    1.67
   7  -7  -1   32.03    1.66
   7  -7  -1   32.51    1.67
  -7   7   1   36.28    1.66
  -7   7   1   31.92    1.67
   6  -7  -1    1.65    0.24
   6  -7  -1    2.03    0.24
   6  -7  -1    1.87    0.21
   6  -7  -1    1.61    0.22
  -6   7   1    1.86    0.19
  -6   7   1    2.30    0.20
  -6   7   1    1.98    0.25
   5  -7  -1    3.82    0.26
   5  -7  -1    3.92    0.27
   5  -7  -1    3.70    0.30
   5  -7  -1    3.84    0.29
  -5   7   1    3.58    0.25
  -5   7   1    3.88    0.26
   4  -7  -1    9.04    0.51
   4  -7  -1    8.60    0.48
   4  -7  -1    8.80    0.48
   4  -7  -1    9.14    0.50
  -4   7   1    8.96    0.51
  -4   7   1    8.97    0.47
  -4   7   1    8.57    0.46
   3  -7  -1  113.46    5.34
   3  -7  -1  106.05    5.36
   3  -7  -1  113.41    5.34
  -3   7   1  104.62    5.33
  -3   7   1  110.68    5.36
  -3   7   1  110.42    5.33
   2  -7  -1   14.16    0.73
   2  -7  -1   14.29    0.73
   2  -7  -1   14.97    0.76
  -2   7   1   14.88    0.77
   1  -7  -1    0.21    0.07
   1  -7  -1    0.11    0.06
   1  -7  -1    0.12    0.09
  -1   7   1    0.22    0.10
   0  -7  -1    4.93    0.28
   0  -7  -1    4.68    0.27
   0  -7  -1    4.96    0.32
   0   7   1    5.42    0.32
  -1  -7  -1   17.76    0.88
  -1  -7  -1   17.47    0.88
  -1  -7  -1   17.34    0.90
  -1  -7  -1   17.61    0.91
   1   7   1   17.93    0.90
  -2  -7  -1    0.30    0.08
  -2  -7  -1    0.37    0.10
  -2  -7  -1    0.30    0.13
  -2  -7  -1    0.35    0.08
  -3  -7  -1    7.49    0.41
  -3  -7  -1    7.90    0.41
  -3  -7  -1    7.78    0.50
  -3  -7  -1    7.46    0.41
  -4  -7  -1    0.42    0.12
  -4  -7  -1    0.60    0.20
   9  -8  -1    5.79    0.46
  -9   8   1    5.29    0.43
   8  -8  -1    3.10    0.33
   8  -8  -1    3.01    0.31
   8  -8  -1    2.51    0.32
  -8   8   1    2.64    0.34
  -8   8   1    2.68    0.28
  -8   8   1    3.20    0.35
   7  -8  -1   10.68    0.62
   7  -8  -1   12.69    0.66
   7  -8  -1   10.72    0.63
   7  -8  -1   10.83    0.63
  -7   8   1   10.83    0.64
  -7   8   1   10.34    0.61
   6  -8  -1    1.79    0.23
   6  -8  -1    1.53    0.17
   6  -8  -1    1.31    0.20
   6  -8  -1    1.09    0.18
  -6   8   1    1.00    0.13
  -6   8   1    1.30    0.18
   5  -8  -1    0.10    0.11
   5  -8  -1    0.13    0.15
   5  -8  -1    0.04    0.14
   5  -8  -1    0.07    0.11
  -5   8   1    0.13    0.09
  -5   8   1    0.01    0.09
   4  -8  -1    7.62    0.41
   4  -8  -1    6.86    0.45
   4  -8  -1    7.09    0.44
   4  -8  -1    7.65    0.42
  -4   8   1    7.31    0.39
  -4   8   1    6.93    0.39
   3  -8  -1   34.16    1.84
   3  -8  -1   38.28    1.82
  -3   8   1   38.00    1.79
  -3   8   1   35.91    1.79
  -3   8   1   37.89    1.84
   2  -8  -1    7.69    0.42
   2  -8  -1    7.77    0.46
   2  -8  -1    7.76    0.41
  -2   8   1    7.49    0.46
   1  -8  -1    0.07    0.07
   1  -8  -1    0.06    0.08
  -1   8   1    0.07    0.11
   0  -8  -1    0.14    0.08
   0  -8  -1    0.02    0.07
   0   8   1    0.06    0.11
  -1  -8  -1    9.62    0.50
  -1  -8  -1    9.75    0.56
  -1  -8  -1    9.53    0.53
  -1  -8  -1    9.81    0.51
  -2  -8  -1    4.99    0.41
  -2  -8  -1    5.19    0.30
  -2  -8  -1    4.94    0.30
  -2  -8  -1    5.05    0.32
  -3  -8  -1    2.24    0.21
  -3  -8  -1    1.89    0.21
  -3  -8  -1    2.14    0.20
  -3  -8  -1    1.96    0.24
   8  -9  -1    1.36    0.22
   8  -9  -1    1.44    0.20
  -8   9   1    1.46    0.19
  -8   9   1    1.48    0.21
   7  -9  -1    7.21    0.48
   7  -9  -1    6.80    0.50
   7  -9  -1    8.46    0.51
   7  -9  -1    7.61    0.47
  -7   9   1    7.28    0.46
   6  -9  -1    0.76    0.19
   6  -9  -1    0.45    0.19
   6  -9  -1    0.54    0.13
   6  -9  -1    0.70    0.16
  -6   9   1    0.67    0.12
  -6   9   1    0.40    0.18
   5  -9  -1    2.01    0.25
   5  -9  -1    1.98    0.24
   5  -9  -1    2.23    0.25
   5  -9  -1    2.22    0.29
  -5   9   1    2.43    0.19
  -5   9   1    2.21    0.31
  -5   9   1    2.34    0.19
   4  -9  -1    8.43    0.47
   4  -9  -1    6.98    0.52
   4  -9  -1    8.39    0.48
   4  -9  -1    9.34    0.51
  -4   9   1    8.30    0.43
  -4   9   1    8.06    0.43
  -4   9   1    8.77    0.52
   3  -9  -1    2.35    0.31
   3  -9  -1    4.07    0.24
   3  -9  -1    3.07    0.25
  -3   9   1    3.45    0.44
   2  -9  -1    9.27    0.52
   2  -9  -1    8.64    0.55
   2  -9  -1   10.48    0.51
   1  -9  -1   -0.05    0.08
   1  -9  -1    0.10    0.09
   1  -9  -1   -0.18    0.13
  -1   9   1   -0.10    0.10
   0  -9  -1    0.11    0.09
   0  -9  -1    0.08    0.13
   0  -9  -1   -0.06    0.09
   0   9   1    0.09    0.13
  -1  -9  -1    4.59    0.30
  -1  -9  -1    5.06    0.35
  -1  -9  -1    4.34    0.37
  -1  -9  -1    4.72    0.30
  -2  -9  -1    0.00    0.19
  -2  -9  -1    0.00    0.17
   7 -10  -1    2.35    0.34
   7 -10  -1    2.60    0.31
  -7  10   1    2.49    0.31
  -7  10   1    2.95    0.31
   6 -10  -1    0.26    0.15
   6 -10  -1    0.54    0.15
   6 -10  -1    0.33    0.20
   6 -10  -1    0.38    0.20
  -6  10   1    0.34    0.12
   5 -10  -1    1.30    0.22
   5 -10  -1    1.43    0.19
   5 -10  -1    1.01    0.20
   5 -10  -1    1.42    0.19
  -5  10   1    1.37    0.18
  -5  10   1    1.36    0.16
   4 -10  -1    1.97    0.20
   4 -10  -1    1.32    0.21
   4 -10  -1    1.83    0.19
   4 -10  -1    2.13    0.24
  -4  10   1    1.94    0.24
   3 -10  -1    5.32    0.40
   3 -10  -1    4.96    0.34
   3 -10  -1    4.44    0.33
  -3  10   1    4.46    0.39
   2 -10  -1    0.37    0.20
   2 -10  -1    0.25    0.12
   2 -10  -1    0.24    0.12
  -2  10   1    0.21    0.17
   1 -10  -1    0.19    0.12
   1 -10  -1    0.05    0.12
   1 -10  -1    0.15    0.18
  -1  10   1    0.12    0.17
   0 -10  -1    5.57    0.43
   0 -10  -1    4.94    0.43
   0 -10  -1    5.55    0.38
   0 -10  -1    6.59    0.36
   0  10   1    6.18    0.43
   4 -11  -1    5.13    0.45
   4 -11  -1    5.33    0.40
   4 -11  -1    5.49    0.40
   3 -11  -1    2.76    0.32
   3 -11  -1    3.64    0.37
  -1  11  -2    1.27    0.23
   1 -11   2    1.93    0.22
   1 -11   2    1.61    0.23
   1 -11   2    1.50    0.19
  -2  11  -2   23.84    1.23
   2 -11   2   24.66    1.20
   2 -11   2   19.86    1.19
   2 -11   2   24.48    1.22
  -3  11  -2    0.50    0.10
  -3  11  -2    0.66    0.12
   3 -11   2    0.52    0.16
   3 -11   2    0.63    0.20
   3 -11   2    0.27    0.15
  -4  11  -2    6.16    0.34
  -4  11  -2    5.09    0.33
   4 -11   2    4.42    0.42
   4 -11   2    4.03    0.40
   4 -11   2    5.14    0.39
  -5  11  -2    2.40    0.28
   5 -11   2    1.68    0.24
   5 -11   2    1.99    0.22
  -2 -10   2    7.96    0.55
  -1 -10   2   -0.07    0.13
  -1 -10   2    0.18    0.15
  -1 -10   2    0.36    0.13
   0 -10   2    0.20    0.13
   0 -10   2    0.20    0.16
   0 -10   2    0.18    0.12
  -1  10  -2    0.08    0.14
   1 -10   2    0.09    0.15
   1 -10   2   -0.02    0.12
   1 -10   2   -0.11    0.11
  -2  10  -2    3.87    0.25
  -2  10  -2    3.94    0.24
  -2  10  -2    3.50    0.34
   2 -10   2    4.05    0.30
   2 -10   2    4.34    0.36
   2 -10   2    3.80    0.30
  -3  10  -2    8.96    0.49
  -3  10  -2    9.24    0.49
  -3  10  -2    8.85    0.56
   3 -10   2    9.19    0.57
   3 -10   2    8.72    0.52
   3 -10   2    8.30    0.52
   3 -10   2    9.46    0.56
  -4  10  -2    3.83    0.27
  -4  10  -2    3.52    0.36
   4 -10   2    3.86    0.34
   4 -10   2    3.60    0.32
   4 -10   2    3.20    0.34
   4 -10   2    3.80    0.33
  -5  10  -2    0.34    0.13
  -5  10  -2    0.41    0.18
   5 -10   2    0.43    0.18
   5 -10   2    0.24    0.15
   5 -10   2    0.31    0.16
   5 -10   2    0.11    0.19
  -6  10  -2    3.78    0.35
  -6  10  -2    4.14    0.33
   6 -10   2    3.60    0.34
   6 -10   2    3.75    0.39
  -7  10  -2    3.95    0.35
   7 -10   2    3.16    0.39
   3   9  -2    0.05    0.13
  -3  -9   2    0.25    0.13
  -3  -9   2   -0.37    0.18
  -3  -9   2    0.32    0.14
   2   9  -2    1.31    0.16
  -2  -9   2    1.65    0.17
  -2  -9   2    1.47    0.20
  -2  -9   2    1.18    0.16
   1   9  -2   -0.16    0.11
  -1  -9   2   -0.07    0.10
  -1  -9   2    0.11    0.10
   0   9  -2    4.21    0.31
   0  -9   2    3.58    0.31
   0  -9   2    4.26    0.28
   0  -9   2    4.05    0.28
  -1   9  -2   13.98    0.70
  -1   9  -2   14.76    0.70
   1  -9   2   15.26    0.74
   1  -9   2   13.06    0.73
   1  -9   2   13.21    0.75
  -2   9  -2    5.19    0.30
  -2   9  -2    5.41    0.30
   2  -9   2    5.17    0.33
   2  -9   2    4.92    0.36
   2  -9   2    5.02    0.33
  -3   9  -2    3.88    0.27
  -3   9  -2    4.14    0.27
   3  -9   2    3.55    0.29
   3  -9   2    3.94    0.29
   3  -9   2    3.99    0.32
   3  -9   2    4.43    0.33
  -4   9  -2    0.11    0.09
  -4   9  -2   -0.03    0.10
   4  -9   2    0.01    0.14
   4  -9   2   -0.02    0.12
   4  -9   2    0.04    0.15
   4  -9   2    0.04    0.11
  -5   9  -2    4.19    0.40
  -5   9  -2    4.30    0.30
   5  -9   2    3.58    0.32
   5  -9   2    4.17    0.31
   5  -9   2    3.94    0.35
   5  -9   2    2.93    0.36
  -6   9  -2    4.80    0.36
  -6   9  -2    4.45    0.33
  -6   9  -2    4.29    0.39
   6  -9   2    5.15    0.36
   6  -9   2    4.73    0.35
   6  -9   2    3.89    0.37
   6  -9   2    4.66    0.39
  -7   9  -2    1.05    0.23
  -7   9  -2    1.46    0.19
  -7   9  -2    1.88    0.21
   7  -9   2    1.65    0.21
   7  -9   2    1.82    0.23
  -4  -8   2    3.96    0.31
  -4  -8   2    4.08    0.31
  -4  -8   2    4.22    0.38
   3   8  -2    3.14    0.24
  -3  -8   2    3.11    0.31
  -3  -8   2    2.83    0.25
  -3  -8   2    3.08    0.25
   2   8  -2   13.58    0.73
  -2  -8   2   13.66    0.73
  -2  -8   2   14.57    0.72
  -2  -8   2   14.62    0.73
  -2  -8   2   13.07    0.76
   1   8  -2   12.01    0.66
  -1  -8   2   12.57    0.65
  -1  -8   2   11.38    0.66
  -1  -8   2   13.97    0.65
   0   8  -2    6.20    0.38
   0   8  -2    5.98    0.31
   0   8  -2    5.87    0.31
   0  -8   2    5.89    0.35
   0  -8   2    5.99    0.34
  -1   8  -2    1.46    0.14
  -1   8  -2    1.47    0.14
  -1   8  -2    1.42    0.21
   1  -8   2    1.49    0.18
   1  -8   2    1.63    0.20
  -2   8  -2   67.36    3.43
  -2   8  -2   71.24    3.43
  -2   8  -2   72.00    3.46
   2  -8   2   68.82    3.46
   2  -8   2   69.65    3.44
   2  -8   2   73.54    3.45
  -3   8  -2   13.35    0.80
  -3   8  -2   16.43    0.83
  -3   8  -2   15.48    0.80
   3  -8   2   15.94    0.81
   3  -8   2   16.25    0.81
   3  -8   2   16.91    0.83
  -4   8  -2    1.29    0.13
   4  -8   2    0.88    0.14
   4  -8   2    1.11    0.15
   4  -8   2    1.00    0.16
  -5   8  -2    0.86    0.14
  -5   8  -2    0.78    0.13
  -5   8  -2    0.73    0.16
   5  -8   2    0.92    0.17
   5  -8   2    0.72    0.13
   5  -8   2    0.89    0.14
   5  -8   2    0.44    0.25
  -6   8  -2    7.16    0.42
  -6   8  -2    6.27    0.43
   6  -8   2    6.38    0.42
   6  -8   2    6.21    0.44
   6  -8   2    6.62    0.45
  -7   8  -2    9.25    0.53
  -7   8  -2    7.55    0.51
  -7   8  -2    8.12    0.52
   7  -8   2    8.86    0.52
   7  -8   2    9.13    0.55
   7  -8   2    7.55    0.50
   7  -8   2    8.21    0.55
  -8   8  -2    1.22    0.21
  -8   8  -2    1.21    0.20
   8  -8   2    0.62    0.17
   8  -8   2    1.12    0.19
  -5  -7   2    0.12    0.14
  -5  -7   2    0.22    0.13
  -5  -7   2    0.08    0.18
   4   7  -2    2.26    0.17
  -4  -7   2    2.48    0.22
  -4  -7   2    2.52    0.23
  -4  -7   2    2.39    0.31
   3   7  -2    9.34    0.49
  -3  -7   2    9.11    0.49
  -3  -7   2    9.24    0.54
  -3  -7   2    9.40    0.50
   2   7  -2    3.75    0.25
  -2  -7   2    3.85    0.26
  -2  -7   2    3.70    0.25
  -2  -7   2    3.68    0.29
  -2  -7   2    3.89    0.26
   1   7  -2    7.96    0.44
   1   7  -2    7.49    0.39
   1   7  -2    7.43    0.39
  -1  -7   2    8.38    0.43
  -1  -7   2    8.17    0.44
  -1  -7   2    7.57    0.42
   0   7  -2    4.37    0.25
   0   7  -2    4.45    0.25
   0   7  -2    4.69    0.29
   0  -7   2    4.79    0.29
   0  -7   2    4.66    0.28
   0  -7   2    4.79    0.28
  -1   7  -2    0.14    0.10
  -1   7  -2    0.00    0.06
  -1   7  -2   -0.03    0.06
   1  -7   2    0.12    0.10
   1  -7   2   -0.05    0.07
   1  -7   2    0.00    0.08
  -2   7  -2    1.02    0.14
  -2   7  -2    1.15    0.14
  -2   7  -2    1.18    0.14
   2  -7   2    1.46    0.16
   2  -7   2    1.00    0.13
   2  -7   2    1.20    0.12
  -3   7  -2   38.31    1.96
  -3   7  -2   38.19    1.94
  -3   7  -2   42.81    1.94
   3  -7   2   41.19    1.95
   3  -7   2   38.12    1.95
   3  -7   2   37.46    1.94
   3  -7   2   39.74    1.96
  -4   7  -2    3.03    0.22
  -4   7  -2    2.52    0.24
  -4   7  -2    2.97    0.24
   4  -7   2    3.40    0.25
   4  -7   2    2.61    0.23
   4  -7   2    2.19    0.24
  -5   7  -2   -0.04    0.11
  -5   7  -2    0.07    0.10
  -5   7  -2    0.00    0.12
   5  -7   2   -0.09    0.10
   5  -7   2   -0.02    0.13
  -6   7  -2    4.61    0.33
  -6   7  -2    4.37    0.34
   6  -7   2    4.60    0.33
   6  -7   2    4.40    0.34
  -7   7  -2   15.36    0.92
  -7   7  -2   17.64    0.91
  -7   7  -2   17.71    0.92
   7  -7   2   18.08    0.92
   7  -7   2   17.72    0.93
   7  -7   2   17.56    0.92
   7  -7   2   16.90    0.91
  -8   7  -2    0.62    0.17
  -8   7  -2    0.32    0.17
   8  -7   2    0.08    0.14
   8  -7   2    0.35    0.19
   8  -7   2    0.38    0.14
  -6  -6   2    3.82    0.33
  -6  -6   2    3.50    0.31
  -6  -6   2    2.81    0.36
  -5  -6   2   13.57    0.73
  -5  -6   2   13.93    0.73
  -5  -6   2   13.99    0.77
   4   6  -2    0.99    0.11
  -4  -6   2    1.34    0.18
  -4  -6   2    1.06    0.12
   3   6  -2    1.81    0.15
  -3  -6   2    1.71    0.18
  -3  -6   2    1.86    0.23
  -3  -6   2    1.99    0.17
   2   6  -2    7.64    0.41
   2   6  -2    7.62    0.38
   2   6  -2    7.49    0.38
  -2  -6   2    7.57    0.41
  -2  -6   2    7.59    0.40
  -2  -6   2    7.27    0.43
  -2  -6   2    7.84    0.41
   1   6  -2   19.43    0.98
   1   6  -2   19.49    0.98
   1   6  -2   20.16    1.00
  -1  -6   2   20.77    1.00
  -1  -6   2   18.85    1.00
  -1  -6   2   21.45    1.00
   0   6  -2    9.70    0.50
   0   6  -2    9.49    0.48
   0   6  -2    9.42    0.48
   0  -6   2    8.42    0.49
   0  -6   2    9.60    0.50
   0  -6   2   10.06    0.49
  -1   6  -2   92.60    4.45
  -1   6  -2   96.77    4.46
   1  -6   2   92.93    4.46
   1  -6   2   90.88    4.45
   1  -6   2   84.22    4.45
  -2   6  -2   23.19    1.11
  -2   6  -2   21.74    1.10
  -2   6  -2   22.97    1.10
   2  -6   2   21.44    1.10
   2  -6   2   21.33    1.10
   2  -6   2   21.84    1.11
  -3   6  -2   35.41    1.73
  -3   6  -2   35.51    1.72
  -3   6  -2   36.58    1.72
   3  -6   2   32.97    1.72
   3  -6   2   32.90    1.73
   3  -6   2   34.96    1.73
   3  -6   2   36.13    1.72
  -4   6  -2   17.41    0.82
  -4   6  -2   17.09    0.83
  -4   6  -2   15.65    0.82
   4  -6   2   15.84    0.83
   4  -6   2   15.15    0.83
   4  -6   2   15.02    0.83
   4  -6   2   16.46    0.82
  -5   6  -2    0.76    0.13
  -5   6  -2    0.64    0.11
   5  -6   2    0.86    0.11
  -6   6  -2   12.31    0.69
  -6   6  -2   13.71    0.69
   6  -6   2   11.98    0.68
   6  -6   2   13.09    0.69
  -7   6  -2    0.42    0.16
  -7   6  -2    0.38    0.13
  -7   6  -2    0.45    0.18
   7  -6   2    0.23    0.13
   7  -6   2    0.14    0.13
   7  -6   2    0.30    0.13
  -8   6  -2    6.15    0.45
  -8   6  -2    5.53    0.42
  -8   6  -2    6.36    0.42
  -8   6  -2    6.97    0.43
   8  -6   2    6.04    0.45
   8  -6   2    6.24    0.41
   8  -6   2    5.73    0.41
   8  -6   2    6.24    0.42
  -9   6  -2    4.17    0.37
   9  -6   2    4.12    0.40
   9  -6   2    3.69    0.36
  -7  -5   2    1.79    0.21
  -7  -5   2    1.86    0.27
  -7  -5   2    2.02    0.23
  -6  -5   2    0.90    0.15
  -6  -5   2    0.77    0.15
  -6  -5   2    1.19    0.21
  -5  -5   2   13.97    0.75
  -5  -5   2   13.31    0.72
  -5  -5   2   14.15    0.72
   4   5  -2   71.15    3.46
   4   5  -2   69.39    3.46
   4   5  -2   69.48    3.47
  -4  -5   2   71.00    3.48
  -4  -5   2   72.17    3.50
  -4  -5   2   75.06    3.48
   3   5  -2    0.28    0.05
   3   5  -2    0.29    0.06
   3   5  -2    0.20    0.05
  -3  -5   2    0.19    0.07
  -3  -5   2    0.30    0.08
   2   5  -2    6.75    0.36
   2   5  -2    6.62    0.34
   2   5  -2    6.66    0.34
  -2  -5   2    6.68    0.36
  -2  -5   2    6.87    0.36
  -2  -5   2    6.57    0.36
   1   5  -2   14.51    0.74
   1   5  -2   15.36    0.75
   1   5  -2   14.74    0.74
  -1  -5   2   14.44    0.75
  -1  -5   2   14.98    0.75
  -1  -5   2   15.72    0.75
   0   5  -2    2.77    0.16
   0   5  -2    2.74    0.16
   0   5  -2    2.49    0.19
   0  -5   2    2.80    0.19
   0  -5   2    2.46    0.17
   0  -5   2    2.37    0.17
  -1   5  -2   54.94    2.48
  -1   5  -2   50.67    2.49
  -1   5  -2   48.41    2.48
   1  -5   2   52.85    2.48
   1  -5   2   54.07    2.49
   1  -5   2   44.42    2.48
  -2   5  -2   38.06    1.83
  -2   5  -2   38.62    1.84
   2  -5   2   34.93    1.83
   2  -5   2   38.59    1.83
   2  -5   2   36.36    1.84
  -3   5  -2   46.40    2.47
  -3   5  -2   52.24    2.48
  -3   5  -2   51.56    2.47
   3  -5   2   53.32    2.47
   3  -5   2   47.87    2.47
   3  -5   2   47.07    2.48
   3  -5   2   54.96    2.48
  -4   5  -2    7.76    0.45
  -4   5  -2    8.51    0.44
  -4   5  -2    8.72    0.45
   4  -5   2    8.09    0.45
   4  -5   2    7.83    0.44
   4  -5   2    8.43    0.46
   4  -5   2    8.60    0.45
  -5   5  -2   24.55    1.24
  -5   5  -2   26.02    1.24
  -5   5  -2   25.58    1.24
  -5   5  -2   24.40    1.24
   5  -5   2   24.20    1.24
   5  -5   2   21.29    1.24
   5  -5   2   25.75    1.24
   5  -5   2   26.01    1.24
  -6   5  -2   62.76    2.95
  -6   5  -2   58.27    2.96
  -6   5  -2   65.16    2.95
   6  -5   2   57.70    2.95
   6  -5   2   56.40    2.94
   6  -5   2   59.77    2.95
  -7   5  -2    5.70    0.41
  -7   5  -2    5.68    0.39
  -7   5  -2    6.77    0.38
   7  -5   2    5.74    0.37
   7  -5   2    5.46    0.37
  -8   5  -2    4.15    0.32
  -8   5  -2    4.23    0.34
  -8   5  -2    3.61    0.33
  -8   5  -2    3.54    0.33
   8  -5   2    4.12    0.33
   8  -5   2    4.16    0.34
   8  -5   2    4.17    0.33
   8  -5   2    4.24    0.37
  -9   5  -2    2.13    0.26
  -9   5  -2    2.63    0.30
  -9   5  -2    2.54    0.29
   9  -5   2    2.16    0.28
   9  -5   2    2.71    0.32
   9  -5   2    2.41    0.30
   7   4  -2    7.03    0.37
   7   4  -2    7.29    0.37
  -7  -4   2    7.47    0.45
  -7  -4   2    6.97    0.50
  -7  -4   2    7.11    0.46
   6   4  -2    7.80    0.39
  -6  -4   2    7.28    0.44
  -6  -4   2    7.67    0.44
  -6  -4   2    7.10    0.49
   5   4  -2    1.52    0.12
   5   4  -2    1.52    0.12
  -5  -4   2    1.32    0.17
  -5  -4   2    1.41    0.18
  -5  -4   2    1.50    0.17
   4   4  -2    0.31    0.06
   4   4  -2    0.38    0.06
   4   4  -2    0.33    0.04
  -4  -4   2    0.42    0.08
  -4  -4   2    0.31    0.08
   3   4  -2    0.20    0.05
   3   4  -2    0.30    0.05
   3   4  -2    0.16    0.05
  -3  -4   2    0.07    0.06
  -3  -4   2    0.16    0.09
  -3  -4   2    0.16    0.06
   2   4  -2   24.13    1.19
   2   4  -2   24.70    1.20
   2   4  -2   25.02    1.20
  -2  -4   2   24.03    1.20
  -2  -4   2   24.08    1.20
  -2  -4   2   24.16    1.20
  -2  -4   2   24.61    1.21
   1   4  -2   68.99    3.46
   1   4  -2   74.28    3.47
   1   4  -2   69.41    3.46
  -1  -4   2   68.76    3.47
  -1  -4   2   74.05    3.47
  -1  -4   2   72.18    3.47
   0   4  -2   13.23    0.62
   0   4  -2   11.95    0.61
   0   4  -2   12.43    0.63
   0  -4   2   12.40    0.63
   0  -4   2   12.36    0.62
   0  -4   2   11.43    0.62
  -1   4  -2    4.94    0.27
  -1   4  -2    4.90    0.28
  -1   4  -2    4.92    0.27
   1  -4   2    4.67    0.27
   1  -4   2    4.80    0.27
   1  -4   2    4.68    0.28
  -2   4  -2    6.45    0.35
  -2   4  -2    5.76    0.35
  -2   4  -2    6.49    0.34
   2  -4   2    6.79    0.36
   2  -4   2    6.14    0.35
   2  -4   2    7.03    0.34
   2  -4   2    6.00    0.34
  -3   4  -2   80.29    4.30
  -3   4  -2   88.68    4.31
  -3   4  -2   92.88    4.31
   3  -4   2   89.16    4.31
   3  -4   2   95.14    4.31
   3  -4   2   89.37    4.31
   3  -4   2   83.86    4.31
  -4   4  -2    3.16    0.21
  -4   4  -2    3.10    0.21
  -4   4  -2    3.37    0.21
  -4   4  -2    3.10    0.22
   4  -4   2    2.87    0.21
   4  -4   2    3.33    0.21
   4  -4   2    2.86    0.21
   4  -4   2    3.18    0.21
  -5   4  -2   25.72    1.36
  -5   4  -2   29.88    1.35
  -5   4  -2   26.40    1.35
  -5   4  -2   26.41    1.35
   5  -4   2   27.51    1.35
   5  -4   2   26.63    1.35
   5  -4   2   27.57    1.36
   5  -4   2   26.83    1.35
  -6   4  -2    3.06    0.24
  -6   4  -2    2.67    0.26
  -6   4  -2    3.08    0.24
  -6   4  -2    2.83    0.23
   6  -4   2    3.21    0.24
   6  -4   2    3.26    0.23
   6  -4   2    2.79    0.22
  -7   4  -2    0.46    0.12
  -7   4  -2    0.58    0.16
  -7   4  -2    0.45    0.13
  -7   4  -2    0.76    0.12
   7  -4   2    0.58    0.12
   7  -4   2    0.62    0.13
   7  -4   2    0.54    0.13
  -8   4  -2    5.95    0.41
  -8   4  -2    5.74    0.39
  -8   4  -2    5.87    0.43
  -8   4  -2    6.28    0.41
   8  -4   2    6.62    0.40
   8  -4   2    5.32    0.44
   8  -4   2    6.57    0.40
   8  -4   2    6.17    0.37
  -9   4  -2   28.55    1.54
  -9   4  -2   29.12    1.52
  -9   4  -2   30.82    1.50
   9  -4   2   29.29    1.51
   9  -4   2   30.55    1.51
   8   3  -2    0.57    0.10
   8   3  -2    0.55    0.12
  -8  -3   2    0.56    0.20
  -8  -3   2    0.51    0.16
  -8  -3   2    0.57    0.17
   7   3  -2    0.11    0.09
  -7  -3   2    0.33    0.13
  -7  -3   2    0.18    0.13
  -7  -3   2   -0.06    0.19
   6   3  -2   25.06    1.26
   6   3  -2   26.06    1.26
  -6  -3   2   23.59    1.27
  -6  -3   2   25.20    1.30
  -6  -3   2   27.16    1.28
   5   3  -2    2.17    0.16
   5   3  -2    2.20    0.16
  -5  -3   2    2.28    0.22
  -5  -3   2    2.48    0.20
  -5  -3   2    2.39    0.19
   4   3  -2   12.77    0.65
   4   3  -2   12.86    0.63
   4   3  -2   13.30    0.65
  -4  -3   2   12.58    0.68
  -4  -3   2   13.16    0.66
  -4  -3   2   13.06    0.66
   3   3  -2    5.02    0.27
   3   3  -2    4.99    0.27
   3   3  -2    5.31    0.26
  -3  -3   2    5.23    0.30
  -3  -3   2    4.65    0.28
  -3  -3   2    5.32    0.28
   2   3  -2    0.46    0.06
   2   3  -2    0.45    0.06
   2   3  -2    0.52    0.06
  -2  -3   2    0.35    0.09
  -2  -3   2    0.52    0.07
  -2  -3   2    0.47    0.07
   1   3  -2   55.78    2.62
   1   3  -2   53.61    2.62
   1   3  -2   52.78    2.62
  -1  -3   2   50.49    2.62
  -1  -3   2   55.88    2.62
  -1  -3   2   54.52    2.62
   0   3  -2  186.42    9.24
   0   3  -2  190.45    9.26
   0   3  -2  197.56    9.26
   0  -3   2  191.30    9.25
   0  -3   2  183.02    9.26
   0  -3   2  192.71    9.26
  -1   3  -2   23.38    1.12
  -1   3  -2   23.19    1.12
  -1   3  -2   21.50    1.12
   1  -3   2   23.38    1.12
   1  -3   2   23.91    1.12
   1  -3   2   20.99    1.12
  -2   3  -2   45.85    2.21
  -2   3  -2   43.19    2.21
  -2   3  -2   45.78    2.21
   2  -3   2   40.50    2.21
   2  -3   2   47.96    2.21
   2  -3   2   47.96    2.22
   2  -3   2   45.78    2.21
  -3   3  -2    1.41    0.14
  -3   3  -2    1.56    0.15
  -3   3  -2    1.61    0.16
   3  -3   2    1.58    0.14
   3  -3   2    1.55    0.14
   3  -3   2    1.40    0.15
   3  -3   2    1.60    0.15
  -4   3  -2   84.15    4.09
  -4   3  -2   83.16    4.09
  -4   3  -2   83.63    4.09
  -4   3  -2   84.11    4.09
   4  -3   2   86.19    4.09
   4  -3   2   86.55    4.09
   4  -3   2   79.70    4.09
   4  -3   2   83.73    4.08
  -5   3  -2    1.41    0.14
  -5   3  -2    1.55    0.16
  -5   3  -2    1.41    0.18
  -5   3  -2    1.22    0.16
   5  -3   2    1.39    0.15
   5  -3   2    1.40    0.15
   5  -3   2    1.49    0.18
   5  -3   2    1.61    0.15
  -6   3  -2   12.24    0.61
  -6   3  -2   11.50    0.63
  -6   3  -2   10.81    0.61
  -6   3  -2   11.62    0.60
   6  -3   2   11.28    0.61
   6  -3   2   11.48    0.60
   6  -3   2   12.10    0.63
   6  -3   2   11.18    0.60
  -7   3  -2    0.44    0.14
  -7   3  -2    0.45    0.10
  -7   3  -2    0.21    0.11
  -7   3  -2    0.23    0.14
   7  -3   2    0.37    0.11
   7  -3   2    0.40    0.09
  -8   3  -2    9.17    0.49
  -8   3  -2    9.28    0.53
  -8   3  -2    9.14    0.56
  -8   3  -2    8.26    0.54
   8  -3   2    9.03    0.51
   8  -3   2    8.92    0.56
  -9   3  -2    0.28    0.17
  -9   3  -2   -0.15    0.19
   9  -3   2    0.22    0.15
   9  -3   2   -0.11    0.14
   8   2  -2    0.25    0.20
   8   2  -2    0.35    0.12
   8   2  -2    0.40    0.11
  -8  -2   2    0.21    0.19
  -8  -2   2    0.10    0.16
  -8  -2   2    0.54    0.17
   7   2  -2    7.96    0.43
  -7  -2   2    7.32    0.46
  -7  -2   2    7.88    0.45
  -7  -2   2    8.04    0.50
   6   2  -2   -0.14    0.09
   6   2  -2    0.06    0.07
   6   2  -2    0.02    0.07
  -6  -2   2   -0.02    0.12
  -6  -2   2    0.08    0.11
  -6  -2   2    0.14    0.09
   5   2  -2   15.46    0.80
   5   2  -2   15.49    0.78
   5   2  -2   16.31    0.78
  -5  -2   2   16.01    0.80
  -5  -2   2   15.24    0.79
  -5  -2   2   15.02    0.79
   4   2  -2    4.27    0.25
   4   2  -2    4.50    0.27
   4   2  -2    4.39    0.25
   4   2  -2    4.66    0.23
  -4  -2   2    4.21    0.27
  -4  -2   2    4.35    0.25
  -4  -2   2    4.55    0.25
   3   2  -2    0.71    0.07
   3   2  -2    0.66    0.07
   3   2  -2    0.65    0.07
  -3  -2   2    0.60    0.08
  -3  -2   2    0.83    0.08
  -3  -2   2    0.57    0.09
   2   2  -2   15.85    0.79
   2   2  -2   17.11    0.79
   2   2  -2   16.43    0.79
  -2  -2   2   15.10    0.79
  -2  -2   2   15.30    0.79
  -2  -2   2   16.07    0.79
   1   2  -2  486.78   22.62
   1   2  -2  480.41   22.63
   1   2  -2  409.78   22.62
  -1  -2   2  475.84   22.63
  -1  -2   2  477.95   22.63
   0   2  -2  106.94    4.56
   0   2  -2   89.17    4.54
   0   2  -2   98.11    4.54
   0  -2   2   93.69    4.54
   0  -2   2   92.58    4.54
   0  -2   2   81.43    4.54
  -1   2  -2  197.36    8.71
  -1   2  -2  194.31    8.71
  -1   2  -2  180.26    8.72
   1  -2   2  177.78    8.71
   1  -2   2  183.12    8.71
   1  -2   2  160.30    8.67
   1  -2   2  159.60    8.70
  -2   2  -2    3.33    0.19
  -2   2  -2    3.29    0.19
  -2   2  -2    3.43    0.19
  -2   2  -2    3.21    0.19
   2  -2   2    3.36    0.19
   2  -2   2    3.25    0.18
   2  -2   2    3.19    0.19
   2  -2   2    3.11    0.18
  -3   2  -2    0.05    0.07
  -3   2  -2    0.05    0.06
  -3   2  -2   -0.05    0.08
   3  -2   2    0.10    0.06
   3  -2   2    0.03    0.07
   3  -2   2    0.16    0.06
  -4   2  -2    1.25    0.13
  -4   2  -2    1.04    0.12
  -4   2  -2    1.07    0.13
  -4   2  -2    1.36    0.14
   4  -2   2    1.20    0.14
   4  -2   2    1.42    0.12
   4  -2   2    1.15    0.13
   4  -2   2    1.08    0.12
  -5   2  -2   18.61    0.92
  -5   2  -2   16.91    0.94
  -5   2  -2   18.83    0.93
  -5   2  -2   18.30    0.93
   5  -2   2   18.92    0.92
   5  -2   2   18.83    0.94
   5  -2   2   18.91    0.92
   5  -2   2   18.42    0.92
  -6   2  -2   -0.04    0.10
  -6   2  -2    0.05    0.12
  -6   2  -2   -0.02    0.07
  -6   2  -2    0.05    0.10
   6  -2   2   -0.04    0.11
   6  -2   2    0.03    0.09
   6  -2   2    0.00    0.08
  -7   2  -2    3.32    0.26
  -7   2  -2    3.03    0.27
  -7   2  -2    3.05    0.21
  -7   2  -2    3.19    0.28
   7  -2   2    3.06    0.30
   7  -2   2    2.93    0.23
   7  -2   2    3.07    0.25
  -8   2  -2    0.26    0.17
  -8   2  -2    0.25    0.15
  -8   2  -2    0.17    0.08
  -8   2  -2    0.16    0.17
   8  -2   2    0.18    0.12
   8  -2   2    0.07    0.19
   9   1  -2   -0.10    0.13
   9   1  -2   -0.02    0.13
  -9  -1   2    0.01    0.23
  -9  -1   2   -0.05    0.15
   8   1  -2   11.94    0.64
   8   1  -2   12.46    0.69
  -8  -1   2   12.30    0.66
  -8  -1   2   11.57    0.67
  -8  -1   2   11.88    0.72
   7   1  -2   53.13    2.56
   7   1  -2   51.78    2.56
  -7  -1   2   52.76    2.57
  -7  -1   2   51.28    2.58
  -7  -1   2   51.94    2.57
   6   1  -2    7.55    0.45
   6   1  -2    7.14    0.41
   6   1  -2    7.49    0.42
  -6  -1   2    8.57    0.43
  -6  -1   2    7.62    0.43
  -6  -1   2    7.58    0.45
   5   1  -2    0.61    0.06
   5   1  -2    0.56    0.08
   5   1  -2    0.64    0.11
   5   1  -2    0.75    0.09
  -5  -1   2    0.66    0.09
  -5  -1   2    0.51    0.08
  -5  -1   2    0.40    0.10
   4   1  -2   15.45    0.72
   4   1  -2   13.70    0.72
   4   1  -2   14.11    0.70
   4   1  -2   14.09    0.72
  -4  -1   2   14.72    0.73
  -4  -1   2   13.95    0.72
  -4  -1   2   14.23    0.72
   3   1  -2   10.58    0.52
   3   1  -2   10.57    0.52
   3   1  -2   10.54    0.53
  -3  -1   2   10.00    0.53
  -3  -1   2   10.00    0.52
  -3  -1   2   10.28    0.52
   2   1  -2  295.10   13.84
   2   1  -2  279.74   13.82
   2   1  -2  276.88   13.81
  -2  -1   2  281.41   13.82
  -2  -1   2  286.34   13.82
  -2  -1   2  287.09   13.83
  -1  -1   2 1000.00   48.46
   0   1  -2   35.07    1.73
   0   1  -2   33.91    1.73
   0  -1   2   37.64    1.73
   0  -1   2   35.52    1.73
  -1   1  -2   22.30    1.10
  -1   1  -2   21.51    1.10
  -1   1  -2   24.23    1.10
  -1   1  -2   22.30    1.10
   1  -1   2   22.92    1.10
   1  -1   2   23.01    1.10
   1  -1   2   20.89    1.10
  -2   1  -2   37.93    1.82
  -2   1  -2   38.36    1.82
  -2   1  -2   37.45    1.82
  -2   1  -2   35.77    1.82
   2  -1   2   37.88    1.82
   2  -1   2   37.80    1.82
   2  -1   2   36.13    1.82
  -3   1  -2  241.99   11.47
  -3   1  -2  247.76   11.47
  -3   1  -2  216.72   11.43
   3  -1   2  243.46   11.48
   3  -1   2  224.82   11.44
   3  -1   2  241.05   11.45
  -4   1  -2    4.93    0.29
  -4   1  -2    5.21    0.30
  -4   1  -2    5.41    0.29
  -4   1  -2    5.14    0.28
   4  -1   2    5.10    0.28
   4  -1   2    5.21    0.30
   4  -1   2    5.28    0.28
  -5   1  -2    2.61    0.19
  -5   1  -2    2.54    0.19
  -5   1  -2    2.44    0.21
  -5   1  -2    2.47    0.16
   5  -1   2    2.43    0.17
   5  -1   2    2.43    0.22
   5  -1   2    2.41    0.17
  -6   1  -2    1.02    0.13
  -6   1  -2    0.87    0.16
  -6   1  -2    1.21    0.11
  -6   1  -2    1.23    0.13
   6  -1   2    1.05    0.14
   6  -1   2    1.10    0.15
   6  -1   2    1.07    0.14
  -7   1  -2    0.51    0.12
  -7   1  -2    0.48    0.13
  -7   1  -2    0.85    0.19
  -7   1  -2    0.66    0.07
   7  -1   2    0.80    0.10
   7  -1   2    0.67    0.11
   7  -1   2    0.52    0.17
  -8   1  -2    1.23    0.22
  -8   1  -2    1.40    0.20
  -8   1  -2    1.37    0.19
   8  -1   2    1.36    0.15
   8  -1   2    1.43    0.15
   9   0  -2    0.55    0.13
  -9   0   2    0.21    0.16
  -9   0   2    0.62    0.20
  -9   0   2    0.64    0.17
   8   0  -2    1.85    0.21
   8   0  -2    2.28    0.23
  -8   0   2    2.03    0.23
  -8   0   2    2.15    0.24
  -8   0   2    2.13    0.21
   7   0  -2    5.66    0.31
   7   0  -2    6.53    0.36
   7   0  -2    6.02    0.37
   7   0  -2    5.70    0.39
  -7   0   2    6.55    0.40
  -7   0   2    6.28    0.37
  -7   0   2    6.31    0.38
   6   0  -2    0.90    0.09
   6   0  -2    0.87    0.14
   6   0  -2    0.72    0.10
   6   0  -2    0.86    0.10
  -6   0   2    0.94    0.12
  -6   0   2    0.77    0.11
  -6   0   2    0.87    0.12
   5   0  -2   48.66    2.36
   5   0  -2   48.70    2.37
   5   0  -2   46.31    2.36
   5   0  -2   46.11    2.35
  -5   0   2   48.33    2.37
  -5   0   2   49.95    2.37
  -5   0   2   50.16    2.37
   4   0  -2   12.82    0.67
   4   0  -2   13.81    0.69
   4   0  -2   13.74    0.68
   4   0  -2   13.56    0.68
  -4   0   2   13.40    0.69
  -4   0   2   13.53    0.69
  -4   0   2   14.37    0.69
   3   0  -2  169.80    7.80
   3   0  -2  143.50    7.77
   3   0  -2  176.64    7.78
   3   0  -2  154.55    7.76
  -3   0   2  155.37    7.77
  -3   0   2  161.55    7.77
  -3   0   2  159.82    7.77
   2   0  -2  127.11    7.18
   2   0  -2  153.76    7.19
   2   0  -2  161.78    7.22
  -2   0   2  149.76    7.21
  -2   0   2  132.74    7.18
  -2   0   2  163.93    7.21
   1   0  -2   74.24    3.72
   1   0  -2   75.19    3.72
  -1   0   2   81.80    3.72
  -1   0   2   75.32    3.72
   0   0  -2   74.49    3.42
   0   0  -2   69.77    3.42
   0   0  -2   70.27    3.42
   0   0   2   68.47    3.41
   0   0   2   69.76    3.42
   0   0   2   68.87    3.42
  -1   0  -2   74.56    3.54
  -1   0  -2   70.70    3.53
  -1   0  -2   72.49    3.53
   1   0   2   73.17    3.53
   1   0   2   75.14    3.53
   1   0   2   70.61    3.53
  -2   0  -2  226.66   10.82
  -2   0  -2  223.64   10.82
  -2   0  -2  225.51   10.84
  -2   0  -2  220.59   10.82
   2   0   2  226.32   10.84
   2   0   2  215.36   10.81
   2   0   2  220.84   10.81
  -3   0  -2   39.93    1.98
  -3   0  -2   42.50    2.00
  -3   0  -2   39.77    1.98
  -3   0  -2   40.60    1.99
   3   0   2   40.75    1.98
   3   0   2   40.94    2.00
   3   0   2   40.29    1.98
  -4   0  -2   15.97    0.80
  -4   0  -2   15.07    0.79
  -4   0  -2   17.35    0.78
  -4   0  -2   15.07    0.79
   4   0   2   15.34    0.78
   4   0   2   15.99    0.80
   4   0   2   15.47    0.78
  -5   0  -2    0.04    0.08
  -5   0  -2    0.13    0.08
  -5   0  -2    0.08    0.04
   5   0   2    0.11    0.05
   5   0   2    0.12    0.05
   5   0   2    0.04    0.11
  -6   0  -2    3.43    0.27
  -6   0  -2    3.34    0.25
  -6   0  -2    3.72    0.28
   6   0   2    3.59    0.21
   6   0   2    3.41    0.21
  -7   0  -2    4.97    0.33
  -7   0  -2    4.83    0.33
  -7   0  -2    4.37    0.40
   7   0   2    4.99    0.28
   7   0   2    4.95    0.28
   7   0   2    5.07    0.38
  -8   0  -2    0.27    0.15
  -8   0  -2    0.33    0.22
  -8   0  -2    0.30    0.15
   8   0   2    0.38    0.10
   8   0   2    0.43    0.11
   9  -1  -2    1.87    0.15
   9  -1  -2    1.92    0.25
   9  -1  -2    2.03    0.24
  -9   1   2    2.13    0.28
  -9   1   2    2.29    0.28
  -9   1   2    2.64    0.26
   8  -1  -2    2.30    0.24
   8  -1  -2    1.99    0.26
   8  -1  -2    2.07    0.16
   8  -1  -2    2.07    0.22
  -8   1   2    2.20    0.27
  -8   1   2    1.87    0.25
  -8   1   2    2.04    0.24
   7  -1  -2   99.22    5.16
   7  -1  -2  108.94    5.16
   7  -1  -2   97.52    5.14
   7  -1  -2  109.71    5.17
  -7   1   2  106.87    5.17
  -7   1   2  111.26    5.17
  -7   1   2  107.94    5.16
   6  -1  -2    0.38    0.07
   6  -1  -2    0.42    0.08
   6  -1  -2    0.42    0.11
   6  -1  -2    0.49    0.09
  -6   1   2    0.52    0.10
  -6   1   2    0.43    0.10
  -6   1   2    0.42    0.10
   5  -1  -2   61.05    3.10
   5  -1  -2   60.97    3.09
   5  -1  -2   63.31    3.11
   5  -1  -2   62.81    3.10
  -5   1   2   64.10    3.11
  -5   1   2   64.17    3.10
  -5   1   2   68.61    3.11
   4  -1  -2   16.83    0.83
   4  -1  -2   15.84    0.82
   4  -1  -2   15.69    0.83
   4  -1  -2   17.53    0.83
  -4   1   2   17.00    0.83
  -4   1   2   17.35    0.83
  -4   1   2   16.19    0.83
   3  -1  -2  267.43   13.26
   3  -1  -2  278.42   13.27
   3  -1  -2  304.01   13.28
   3  -1  -2  236.06   13.22
  -3   1   2  266.60   13.25
  -3   1   2  285.22   13.26
  -3   1   2  271.78   13.26
   2  -1  -2   58.54    2.80
   2  -1  -2   60.51    2.80
   2  -1  -2   58.65    2.80
   2  -1  -2   57.12    2.80
  -2   1   2   54.39    2.80
  -2   1   2   56.63    2.80
   1  -1  -2    2.20    0.12
   1  -1  -2    2.39    0.12
  -1   1   2    2.43    0.12
  -1   1   2    2.21    0.12
   0  -1  -2    1.42    0.08
  -1  -1  -2  122.73    5.87
  -1  -1  -2  130.61    5.87
  -1  -1  -2  112.85    5.87
   1   1   2  117.60    5.87
  -2  -1  -2   17.36    0.85
  -2  -1  -2   16.20    0.86
  -2  -1  -2   17.91    0.85
   2   1   2   17.61    0.86
  -3  -1  -2    5.25    0.27
  -3  -1  -2    5.21    0.30
  -3  -1  -2    5.26    0.28
  -3  -1  -2    5.40    0.28
   3   1   2    5.33    0.30
  -4  -1  -2   20.23    0.97
  -4  -1  -2   20.22    1.00
  -4  -1  -2   19.62    0.99
  -4  -1  -2   20.31    0.98
   4   1   2   19.20    0.97
   4   1   2   19.64    1.00
  -5  -1  -2    0.02    0.08
  -5  -1  -2    0.45    0.12
  -5  -1  -2    0.07    0.08
   5   1   2    0.12    0.03
   5   1   2    0.13    0.12
   5   1   2    0.10    0.03
  -6  -1  -2    3.44    0.24
  -6  -1  -2    3.15    0.29
  -6  -1  -2    3.32    0.26
  -7  -1  -2    0.17    0.12
  -7  -1  -2    0.12    0.12
  -7  -1  -2    0.06    0.16
   7   1   2    0.35    0.17
  10  -2  -2    0.65    0.18
  10  -2  -2    0.93    0.18
 -10   2   2    0.56    0.18
 -10   2   2    1.01    0.24
   9  -2  -2    2.40    0.31
   9  -2  -2    1.78    0.20
   9  -2  -2    2.03    0.20
  -9   2   2    1.78    0.22
  -9   2   2    1.95    0.21
  -9   2   2    1.96    0.21
   8  -2  -2    1.19    0.16
   8  -2  -2    1.00    0.14
   8  -2  -2    1.37    0.18
  -8   2   2    0.79    0.14
  -8   2   2    1.12    0.15
  -8   2   2    1.19    0.18
   7  -2  -2    1.29    0.15
   7  -2  -2    1.07    0.15
   7  -2  -2    1.53    0.18
   7  -2  -2    1.25    0.14
  -7   2   2    0.99    0.14
   6  -2  -2    0.05    0.09
   6  -2  -2    0.15    0.08
   6  -2  -2    0.22    0.09
   6  -2  -2    0.08    0.06
  -6   2   2    0.13    0.08
  -6   2   2    0.12    0.09
  -6   2   2    0.11    0.10
   5  -2  -2    2.66    0.18
   5  -2  -2    2.64    0.19
   5  -2  -2    2.81    0.19
   5  -2  -2    2.63    0.18
  -5   2   2    2.42    0.19
  -5   2   2    3.00    0.18
  -5   2   2    2.79    0.19
  -5   2   2    2.56    0.18
   4  -2  -2  107.53    5.40
   4  -2  -2  110.51    5.40
   4  -2  -2  106.52    5.40
   4  -2  -2  123.02    5.40
  -4   2   2  105.62    5.40
  -4   2   2  117.36    5.40
  -4   2   2  105.91    5.40
  -4   2   2  112.53    5.40
   3  -2  -2   21.60    1.03
   3  -2  -2   18.13    1.03
   3  -2  -2   21.34    1.03
   3  -2  -2   21.29    1.03
  -3   2   2   19.56    1.02
  -3   2   2   20.82    1.03
  -3   2   2   22.45    1.03
  -3   2   2   21.59    1.03
   2  -2  -2   27.89    1.33
   2  -2  -2   26.54    1.32
   2  -2  -2   25.39    1.32
   2  -2  -2   26.50    1.32
  -2   2   2   27.61    1.33
  -2   2   2   28.28    1.32
   1  -2  -2    5.65    0.32
   1  -2  -2    6.29    0.31
   1  -2  -2    6.98    0.31
   0  -2  -2    6.17    0.31
   0  -2  -2    5.89    0.31
  -1  -2  -2    0.99    0.10
  -1  -2  -2    0.99    0.11
  -2  -2  -2   12.14    0.60
  -2  -2  -2   12.07    0.60
  -2  -2  -2   12.07    0.62
   2   2   2   12.41    0.62
  -3  -2  -2    0.08    0.03
  -3  -2  -2    0.14    0.04
  -3  -2  -2    0.18    0.08
  -3  -2  -2    0.16    0.05
   3   2   2    0.07    0.07
  -4  -2  -2    0.63    0.08
  -4  -2  -2    0.52    0.11
  -4  -2  -2    0.62    0.08
   4   2   2    0.71    0.12
  -5  -2  -2    2.65    0.19
  -5  -2  -2    2.35    0.19
  -5  -2  -2    2.16    0.26
   5   2   2    3.02    0.25
  -6  -2  -2    1.57    0.21
  -6  -2  -2    1.87    0.21
   6   2   2    2.21    0.27
  -7  -2  -2    1.70    0.23
  -7  -2  -2    2.06    0.25
  -7  -2  -2    1.90    0.19
  10  -3  -2    0.20    0.15
  10  -3  -2    0.19    0.15
 -10   3   2   -0.07    0.20
 -10   3   2    0.03    0.17
   9  -3  -2    1.45    0.21
   9  -3  -2    1.65    0.22
   9  -3  -2    2.02    0.20
  -9   3   2    1.45    0.23
  -9   3   2    1.61    0.20
  -9   3   2    1.31    0.19
   8  -3  -2    5.36    0.33
   8  -3  -2    5.19    0.36
   8  -3  -2    5.46    0.36
  -8   3   2    5.06    0.37
  -8   3   2    5.68    0.38
   7  -3  -2   -0.02    0.11
   7  -3  -2    0.01    0.08
   7  -3  -2   -0.02    0.11
   7  -3  -2    0.09    0.11
  -7   3   2   -0.07    0.10
  -7   3   2    0.02    0.09
   6  -3  -2    1.20    0.16
   6  -3  -2    0.91    0.11
   6  -3  -2    1.23    0.16
   6  -3  -2    1.30    0.14
  -6   3   2    1.45    0.16
  -6   3   2    1.36    0.15
  -6   3   2    1.39    0.14
  -6   3   2    0.93    0.11
   5  -3  -2    5.74    0.35
   5  -3  -2    6.11    0.35
   5  -3  -2    6.24    0.35
   5  -3  -2    6.73    0.35
  -5   3   2    6.14    0.35
  -5   3   2    6.98    0.35
  -5   3   2    6.05    0.35
  -5   3   2    7.04    0.35
   4  -3  -2  142.40    6.97
   4  -3  -2  146.03    6.97
   4  -3  -2  142.44    6.97
   4  -3  -2  133.72    6.97
  -4   3   2  147.37    6.97
  -4   3   2  150.00    6.97
  -4   3   2  144.64    6.97
  -4   3   2  141.73    6.97
   3  -3  -2    5.53    0.32
   3  -3  -2    5.62    0.31
   3  -3  -2    5.98    0.31
   3  -3  -2    6.40    0.31
  -3   3   2    5.64    0.31
  -3   3   2    5.77    0.33
  -3   3   2    5.87    0.31
   2  -3  -2    1.67    0.15
   2  -3  -2    1.83    0.12
   2  -3  -2    1.72    0.12
  -2   3   2    1.84    0.11
  -2   3   2    1.90    0.11
  -2   3   2    1.88    0.15
   1  -3  -2   76.84    3.87
   1  -3  -2   79.29    3.88
   1  -3  -2   80.16    3.87
  -1   3   2   82.44    3.88
   0  -3  -2   50.35    2.46
  -1  -3  -2   67.57    3.25
  -1  -3  -2   65.62    3.24
  -2  -3  -2    4.06    0.25
  -2  -3  -2    3.95    0.20
  -2  -3  -2    3.84    0.21
  -2  -3  -2    3.98    0.20
  -3  -3  -2   40.76    1.98
  -3  -3  -2   40.08    1.96
  -3  -3  -2   40.36    1.96
  -3  -3  -2   39.57    1.96
  -4  -3  -2    2.27    0.17
  -4  -3  -2    2.33    0.16
  -5  -3  -2    8.50    0.51
  -5  -3  -2    8.40    0.46
  -5  -3  -2    8.91    0.46
  -6  -3  -2    1.24    0.21
  -6  -3  -2    1.58    0.20
  -7  -3  -2    6.14    0.49
  10  -4  -2   -0.02    0.17
  10  -4  -2    0.03    0.16
 -10   4   2    0.13    0.18
 -10   4   2   -0.08    0.19
   9  -4  -2    1.74    0.22
   9  -4  -2    2.04    0.27
  -9   4   2    2.15    0.28
  -9   4   2    2.06    0.24
  -9   4   2    2.08    0.27
   8  -4  -2    9.13    0.52
   8  -4  -2    8.42    0.52
  -8   4   2    9.02    0.53
  -8   4   2    9.03    0.52
  -8   4   2    8.92    0.52
   7  -4  -2   29.99    1.51
   7  -4  -2   31.67    1.52
   7  -4  -2   30.93    1.51
  -7   4   2   31.22    1.51
  -7   4   2   26.46    1.51
  -7   4   2   32.19    1.51
  -7   4   2   29.60    1.51
   6  -4  -2   12.15    0.73
   6  -4  -2   14.60    0.73
   6  -4  -2   13.96    0.73
   6  -4  -2   15.83    0.73
  -6   4   2   14.18    0.73
  -6   4   2   14.30    0.73
  -6   4   2   14.09    0.73
  -6   4   2   13.71    0.72
   5  -4  -2    0.58    0.09
   5  -4  -2    0.50    0.08
   5  -4  -2    0.76    0.10
   5  -4  -2    0.49    0.09
  -5   4   2    0.42    0.08
  -5   4   2    0.72    0.09
  -5   4   2    0.64    0.09
  -5   4   2    0.59    0.09
   4  -4  -2    8.71    0.47
   4  -4  -2    9.32    0.48
   4  -4  -2    9.14    0.48
   4  -4  -2    9.45    0.49
  -4   4   2    8.81    0.49
  -4   4   2    9.76    0.47
  -4   4   2    8.90    0.47
   3  -4  -2   47.64    2.27
   3  -4  -2   43.23    2.26
   3  -4  -2   44.61    2.26
   3  -4  -2   46.89    2.28
  -3   4   2   45.20    2.26
  -3   4   2   51.03    2.26
  -3   4   2   45.84    2.27
   2  -4  -2   25.77    1.20
   2  -4  -2   22.14    1.22
   2  -4  -2   26.09    1.20
  -2   4   2   24.22    1.19
  -2   4   2   24.27    1.22
  -2   4   2   24.60    1.19
   1  -4  -2   92.60    4.60
   1  -4  -2  103.50    4.62
   1  -4  -2   87.50    4.60
  -1   4   2   96.26    4.62
   0  -4  -2    7.19    0.35
   0  -4  -2    6.78    0.34
   0  -4  -2    7.14    0.38
  -1  -4  -2    7.26    0.40
  -1  -4  -2    7.44    0.39
  -1  -4  -2    7.58    0.36
  -1  -4  -2    7.20    0.36
  -2  -4  -2    4.87    0.26
  -2  -4  -2    4.75    0.25
  -2  -4  -2    4.88    0.25
  -2  -4  -2    4.78    0.29
  -3  -4  -2   31.72    1.62
  -3  -4  -2   32.74    1.61
  -3  -4  -2   35.00    1.65
  -3  -4  -2   32.86    1.62
  -4  -4  -2    7.77    0.47
  -4  -4  -2    7.75    0.41
  -4  -4  -2    7.57    0.41
  -5  -4  -2    5.92    0.35
  -5  -4  -2    5.90    0.34
  -5  -4  -2    5.85    0.43
  -6  -4  -2   -0.02    0.13
  -6  -4  -2   -0.08    0.11
  -6  -4  -2    0.06    0.20
  10  -5  -2    0.78    0.20
  10  -5  -2    1.05    0.21
 -10   5   2    0.78    0.20
 -10   5   2    1.13    0.22
   9  -5  -2    1.29    0.21
   9  -5  -2    0.94    0.17
   9  -5  -2    1.18    0.17
  -9   5   2    1.17    0.19
  -9   5   2    1.40    0.21
  -9   5   2    1.15    0.19
   8  -5  -2    0.81    0.16
   8  -5  -2    0.69    0.14
  -8   5   2    0.78    0.14
  -8   5   2    0.78    0.14
  -8   5   2    0.75    0.18
  -8   5   2    1.06    0.15
   7  -5  -2   -0.02    0.11
   7  -5  -2   -0.03    0.10
   7  -5  -2    0.15    0.12
  -7   5   2    0.02    0.11
  -7   5   2    0.10    0.11
  -7   5   2    0.07    0.12
  -7   5   2   -0.03    0.10
   6  -5  -2    0.18    0.10
   6  -5  -2    0.27    0.10
  -6   5   2    0.08    0.12
  -6   5   2   -0.06    0.09
  -6   5   2   -0.02    0.08
  -6   5   2    0.11    0.10
   5  -5  -2    0.23    0.09
   5  -5  -2    0.19    0.09
   5  -5  -2    0.06    0.09
   5  -5  -2    0.23    0.08
  -5   5   2    0.19    0.08
  -5   5   2    0.11    0.10
  -5   5   2    0.08    0.07
   4  -5  -2   11.05    0.54
   4  -5  -2   11.27    0.53
   4  -5  -2    9.38    0.54
   4  -5  -2   10.53    0.54
  -4   5   2   10.82    0.55
  -4   5   2   10.02    0.53
  -4   5   2    9.33    0.53
   3  -5  -2    4.38    0.26
   3  -5  -2    4.50    0.27
   3  -5  -2    4.44    0.24
   3  -5  -2    4.29    0.24
  -3   5   2    4.13    0.23
  -3   5   2    4.19    0.27
  -3   5   2    4.44    0.23
   2  -5  -2    2.97    0.21
   2  -5  -2    2.81    0.17
   2  -5  -2    2.88    0.17
  -2   5   2    3.19    0.21
   1  -5  -2    7.00    0.38
   1  -5  -2    6.83    0.35
   1  -5  -2    6.77    0.34
  -1   5   2    6.66    0.38
   0  -5  -2    1.99    0.11
   0  -5  -2    2.02    0.16
   0  -5  -2    1.95    0.11
   0   5   2    1.79    0.16
  -1  -5  -2    0.15    0.07
  -1  -5  -2    0.16    0.08
  -1  -5  -2    0.21    0.04
  -1  -5  -2    0.19    0.04
  -2  -5  -2    0.06    0.04
  -2  -5  -2    0.12    0.05
  -2  -5  -2   -0.09    0.07
  -3  -5  -2    0.53    0.07
  -3  -5  -2    0.41    0.07
  -3  -5  -2    0.53    0.14
  -3  -5  -2    0.54    0.07
  -4  -5  -2    1.14    0.14
  -4  -5  -2    1.28    0.19
  -4  -5  -2    0.99    0.11
  -5  -5  -2    2.18    0.22
  -5  -5  -2    2.39    0.25
   9  -6  -2    4.40    0.38
   9  -6  -2    4.23    0.37
   9  -6  -2    4.15    0.35
  -9   6   2    4.56    0.34
  -9   6   2    4.32    0.34
  -9   6   2    3.98    0.37
  -9   6   2    4.13    0.36
   8  -6  -2    0.66    0.16
   8  -6  -2    0.46    0.14
  -8   6   2    0.62    0.14
  -8   6   2    0.62    0.15
  -8   6   2    0.74    0.17
  -8   6   2    0.49    0.13
   7  -6  -2    1.74    0.18
   7  -6  -2    1.46    0.17
   7  -6  -2    1.66    0.24
  -7   6   2    1.49    0.17
  -7   6   2    1.45    0.20
  -7   6   2    1.60    0.19
   6  -6  -2    7.29    0.42
   6  -6  -2    7.10    0.40
   6  -6  -2    6.70    0.41
   6  -6  -2    6.97    0.41
  -6   6   2    7.14    0.42
  -6   6   2    6.59    0.40
   5  -6  -2   25.07    1.12
   5  -6  -2   22.23    1.12
   5  -6  -2   20.86    1.13
   5  -6  -2   20.06    1.12
  -5   6   2   23.78    1.11
  -5   6   2   20.75    1.11
  -5   6   2   23.01    1.13
   4  -6  -2    3.65    0.27
   4  -6  -2    4.22    0.25
   4  -6  -2    4.21    0.26
  -4   6   2    3.79    0.24
  -4   6   2    4.54    0.24
  -4   6   2    4.58    0.30
   3  -6  -2   32.41    1.65
   3  -6  -2   34.24    1.65
   3  -6  -2   32.62    1.67
  -3   6   2   34.70    1.67
  -3   6   2   33.31    1.63
  -3   6   2   33.79    1.63
   2  -6  -2    4.96    0.27
   2  -6  -2    4.66    0.30
  -2   6   2    5.06    0.31
   1  -6  -2    7.48    0.38
   1  -6  -2    7.21    0.38
   1  -6  -2    7.49    0.42
  -1   6   2    7.60    0.42
   0  -6  -2    1.01    0.09
   0  -6  -2    1.00    0.09
   0  -6  -2    0.89    0.11
   0   6   2    0.95    0.11
  -1  -6  -2    1.79    0.18
  -1  -6  -2    1.81    0.12
  -1  -6  -2    1.96    0.13
  -2  -6  -2    7.09    0.36
  -2  -6  -2    6.87    0.38
  -2  -6  -2    7.00    0.36
  -2  -6  -2    6.73    0.42
  -3  -6  -2   -0.05    0.06
  -3  -6  -2   -0.01    0.07
  -3  -6  -2   -0.05    0.07
  -3  -6  -2    0.07    0.15
  -4  -6  -2    0.97    0.12
  -4  -6  -2    0.98    0.11
  -4  -6  -2    0.94    0.19
   9  -7  -2    0.42    0.20
   9  -7  -2    0.91    0.21
   9  -7  -2    0.81    0.17
  -9   7   2    1.16    0.20
  -9   7   2    0.84    0.17
   8  -7  -2    9.50    0.57
   8  -7  -2    9.40    0.56
   8  -7  -2    9.98    0.56
   8  -7  -2    9.78    0.58
  -8   7   2    9.78    0.58
  -8   7   2    9.69    0.54
  -8   7   2    8.65    0.55
   7  -7  -2   17.10    0.93
   7  -7  -2   17.37    0.92
   7  -7  -2   18.75    0.92
  -7   7   2   16.76    0.93
  -7   7   2   17.47    0.91
   6  -7  -2    2.04    0.23
   6  -7  -2    2.03    0.24
   6  -7  -2    1.87    0.22
  -6   7   2    1.91    0.25
  -6   7   2    1.96    0.20
   5  -7  -2    4.77    0.33
   5  -7  -2    5.05    0.36
   5  -7  -2    5.03    0.32
  -5   7   2    5.10    0.29
  -5   7   2    4.98    0.30
   4  -7  -2    2.71    0.24
   4  -7  -2    2.73    0.23
   4  -7  -2    2.88    0.23
  -4   7   2    3.24    0.19
  -4   7   2    2.77    0.18
  -4   7   2    2.72    0.26
   3  -7  -2    5.94    0.32
   3  -7  -2    5.79    0.35
  -3   7   2    5.14    0.36
   2  -7  -2    0.23    0.07
   2  -7  -2    0.34    0.07
  -2   7   2    0.27    0.11
   1  -7  -2    9.89    0.50
   1  -7  -2    9.59    0.53
   1  -7  -2    9.22    0.49
  -1   7   2   10.04    0.54
   0  -7  -2    9.08    0.47
   0  -7  -2    9.12    0.47
   0  -7  -2    9.34    0.51
   0  -7  -2    9.26    0.51
  -1  -7  -2    0.76    0.11
  -1  -7  -2    0.79    0.08
  -1  -7  -2    0.83    0.15
  -1  -7  -2    0.63    0.08
  -2  -7  -2    2.60    0.18
  -2  -7  -2    2.93    0.18
  -2  -7  -2    2.63    0.29
  -2  -7  -2    2.62    0.21
  -3  -7  -2   10.39    0.53
  -3  -7  -2    9.62    0.53
  -3  -7  -2   10.83    0.62
  -3  -7  -2   10.08    0.53
   9  -8  -2    1.48    0.24
   9  -8  -2    2.57    0.27
  -9   8   2    2.00    0.22
   8  -8  -2    0.22    0.16
   8  -8  -2    0.15    0.22
   8  -8  -2   -0.09    0.15
   8  -8  -2    0.24    0.17
  -8   8   2    0.07    0.17
  -8   8   2    0.33    0.14
  -8   8   2    0.44    0.17
   7  -8  -2    0.13    0.14
   7  -8  -2    0.10    0.17
   7  -8  -2    0.26    0.18
   7  -8  -2    0.05    0.16
  -7   8   2    0.06    0.15
  -7   8   2    0.20    0.13
  -7   8   2    0.04    0.10
   6  -8  -2    3.43    0.32
   6  -8  -2    4.22    0.30
   6  -8  -2    3.55    0.36
   6  -8  -2    4.14    0.29
  -6   8   2    4.11    0.26
  -6   8   2    3.02    0.35
  -6   8   2    3.88    0.27
   5  -8  -2   34.90    1.79
   5  -8  -2   39.55    1.81
   5  -8  -2   34.86    1.82
   5  -8  -2   35.99    1.79
  -5   8   2   35.82    1.77
  -5   8   2   35.64    1.78
   4  -8  -2   70.78    3.67
   4  -8  -2   79.45    3.67
   4  -8  -2   74.37    3.66
   4  -8  -2   78.11    3.69
  -4   8   2   72.58    3.64
  -4   8   2   74.47    3.64
   3  -8  -2   13.08    0.63
   3  -8  -2   11.31    0.62
   3  -8  -2   11.63    0.66
   2  -8  -2    0.35    0.09
   2  -8  -2    0.46    0.08
   2  -8  -2    0.35    0.14
  -2   8   2    0.52    0.14
   1  -8  -2    1.49    0.15
   1  -8  -2    1.26    0.16
   1  -8  -2    1.41    0.14
  -1   8   2    1.83    0.22
   0  -8  -2    3.68    0.23
   0  -8  -2    4.34    0.28
   0  -8  -2    3.61    0.30
   0  -8  -2    3.33    0.22
  -1  -8  -2    0.29    0.15
  -1  -8  -2    0.13    0.08
  -1  -8  -2    0.12    0.07
  -2  -8  -2    5.52    0.32
  -2  -8  -2    5.34    0.41
  -2  -8  -2    5.74    0.36
  -2  -8  -2    5.35    0.31
   8  -9  -2    0.18    0.17
   8  -9  -2    0.17    0.19
   8  -9  -2    0.14    0.28
  -8   9   2    0.18    0.18
  -8   9   2    0.54    0.15
   7  -9  -2    3.81    0.33
   7  -9  -2    3.59    0.36
   7  -9  -2    3.38    0.32
   7  -9  -2    3.78    0.35
  -7   9   2    3.78    0.30
   6  -9  -2   16.75    0.92
   6  -9  -2   18.51    0.93
   6  -9  -2   16.95    0.93
   6  -9  -2   18.02    0.95
  -6   9   2   17.86    0.90
  -6   9   2   18.17    0.89
  -6   9   2   16.33    0.95
   5  -9  -2   -0.03    0.12
   5  -9  -2    0.09    0.11
   5  -9  -2    0.07    0.17
   5  -9  -2    0.16    0.15
  -5   9   2    0.17    0.08
  -5   9   2    0.14    0.18
  -5   9   2    0.16    0.08
   4  -9  -2   10.98    0.70
   4  -9  -2   12.59    0.68
   4  -9  -2   13.47    0.68
   4  -9  -2   13.12    0.73
  -4   9   2   13.77    0.73
   3  -9  -2    5.18    0.34
   3  -9  -2    5.07    0.31
   3  -9  -2    5.40    0.40
  -3   9   2    4.97    0.38
   2  -9  -2    0.04    0.10
   2  -9  -2    0.03    0.08
   2  -9  -2    0.15    0.15
   1  -9  -2    4.78    0.36
   1  -9  -2    4.26    0.28
   1  -9  -2    4.59    0.29
   0  -9  -2    1.16    0.13
   0  -9  -2    1.45    0.20
   0  -9  -2    1.06    0.18
   0  -9  -2    1.22    0.12
  -1  -9  -2    1.47    0.20
  -1  -9  -2    1.70    0.19
  -1  -9  -2    1.92    0.20
  -1  -9  -2    1.30    0.19
  -7  10   2    0.25    0.13
  -7  10   2    0.24    0.15
   6 -10  -2    5.67    0.42
   6 -10  -2    6.39    0.41
   6 -10  -2    6.04    0.45
  -6  10   2    6.07    0.35
  -6  10   2    6.03    0.36
   5 -10  -2    0.90    0.21
   5 -10  -2    1.08    0.20
   5 -10  -2    1.13    0.18
   5 -10  -2    1.03    0.17
   4 -10  -2   10.27    0.59
   4 -10  -2    9.64    0.55
   4 -10  -2    9.40    0.59
   4 -10  -2   10.17    0.55
  -4  10   2    9.14    0.61
   3 -10  -2    0.83    0.13
   3 -10  -2    0.85    0.21
   3 -10  -2    0.78    0.15
  -3  10   2    0.26    0.17
   2 -10  -2    2.89    0.24
   2 -10  -2    2.50    0.35
   2 -10  -2    2.82    0.25
  -2  10   2    3.38    0.36
   1 -10  -2   13.05    0.76
   1 -10  -2   13.93    0.81
   1 -10  -2   15.78    0.74
   0  11  -3    0.19    0.18
   0 -11   3    0.53    0.18
   0 -11   3    0.35    0.16
   0 -11   3   -0.02    0.17
  -1  11  -3   10.75    0.63
   1 -11   3   10.67    0.63
   1 -11   3    9.98    0.59
   1 -11   3    9.92    0.60
  -2  11  -3    2.21    0.19
  -2  11  -3    2.14    0.21
  -2  11  -3    1.19    0.23
   2 -11   3    1.63    0.19
   2 -11   3    1.63    0.20
   2 -11   3    2.05    0.24
  -3  11  -3    0.38    0.12
   3 -11   3    0.49    0.16
   3 -11   3    0.11    0.16
   3 -11   3    0.02    0.17
  -4  11  -3    0.62    0.16
   4 -11   3    0.52    0.18
   4 -11   3    0.60    0.20
  -5  11  -3    1.75    0.20
  -5  11  -3    1.31    0.21
   5 -11   3    1.15    0.22
   5 -11   3    1.10    0.24
   2  10  -3   -0.17    0.12
  -2 -10   3   -0.05    0.19
  -2 -10   3    0.07    0.14
  -2 -10   3    0.21    0.16
  -2 -10   3   -0.16    0.16
  -1 -10   3    0.22    0.13
  -1 -10   3   -0.05    0.14
  -1 -10   3   -0.16    0.14
   0  10  -3    0.07    0.16
   0  10  -3    0.08    0.06
   0  10  -3    0.14    0.05
   0 -10   3    0.02    0.13
   0 -10   3    0.21    0.14
   0 -10   3    0.07    0.13
  -1  10  -3   -0.01    0.08
  -1  10  -3    0.00    0.14
  -1  10  -3    0.14    0.09
   1 -10   3   -0.16    0.16
   1 -10   3    0.08    0.13
   1 -10   3    0.10    0.12
  -2  10  -3    1.43    0.19
  -2  10  -3    1.57    0.21
  -2  10  -3    1.53    0.19
   2 -10   3    1.45    0.18
   2 -10   3    1.34    0.17
   2 -10   3    1.08    0.20
  -3  10  -3   -0.14    0.16
  -3  10  -3   -0.02    0.11
  -3  10  -3    0.14    0.10
   3 -10   3    0.11    0.17
   3 -10   3   -0.06    0.18
   3 -10   3   -0.08    0.13
   3 -10   3   -0.07    0.14
  -4  10  -3    6.00    0.47
  -4  10  -3    6.46    0.40
   4 -10   3    5.87    0.42
   4 -10   3    6.23    0.46
   4 -10   3    6.99    0.44
   4 -10   3    6.82    0.45
  -5  10  -3    7.78    0.45
  -5  10  -3    6.88    0.45
   5 -10   3    6.75    0.45
   5 -10   3    6.74    0.46
   5 -10   3    7.56    0.51
  -6  10  -3    1.11    0.17
  -6  10  -3    1.38    0.19
   6 -10   3    1.51    0.20
   6 -10   3    0.96    0.21
   3   9  -3    9.14    0.51
  -3  -9   3    9.04    0.52
  -3  -9   3    8.00    0.51
  -3  -9   3    8.23    0.55
   2   9  -3    1.11    0.15
  -2  -9   3    1.25    0.16
  -2  -9   3    1.38    0.20
  -2  -9   3    1.36    0.16
   1   9  -3    0.19    0.05
   1   9  -3    0.19    0.12
   1   9  -3    0.21    0.05
  -1  -9   3    0.29    0.12
  -1  -9   3    0.01    0.11
  -1  -9   3    0.23    0.14
   0   9  -3    5.37    0.29
   0   9  -3    5.16    0.37
   0   9  -3    5.29    0.29
   0  -9   3    5.59    0.34
   0  -9   3    5.37    0.37
   0  -9   3    4.76    0.34
  -1   9  -3    4.59    0.30
  -1   9  -3    4.66    0.29
   1  -9   3    4.84    0.33
   1  -9   3    5.70    0.33
   1  -9   3    5.37    0.36
  -2   9  -3    0.32    0.11
  -2   9  -3    0.46    0.10
   2  -9   3    0.49    0.12
   2  -9   3    0.24    0.15
   2  -9   3    0.42    0.12
  -3   9  -3    0.20    0.10
  -3   9  -3    0.04    0.10
   3  -9   3    0.19    0.15
   3  -9   3   -0.15    0.11
   3  -9   3   -0.03    0.11
  -4   9  -3    6.14    0.39
  -4   9  -3    6.08    0.38
   4  -9   3    7.33    0.41
   4  -9   3    6.07    0.40
   4  -9   3    6.04    0.44
  -5   9  -3    2.75    0.28
  -5   9  -3    2.83    0.29
  -5   9  -3    2.60    0.32
   5  -9   3    2.62    0.29
   5  -9   3    2.75    0.29
   5  -9   3    2.59    0.33
   5  -9   3    3.29    0.31
  -6   9  -3   11.61    0.62
  -6   9  -3   10.58    0.64
  -6   9  -3   12.66    0.64
   6  -9   3    9.82    0.63
   6  -9   3   10.12    0.65
   6  -9   3   10.98    0.62
   6  -9   3   10.37    0.63
  -7   9  -3   10.19    0.59
   7  -9   3    9.18    0.60
   7  -9   3    9.50    0.60
   4   8  -3    3.32    0.24
  -4  -8   3    3.29    0.30
  -4  -8   3    3.67    0.30
  -4  -8   3    3.40    0.34
   3   8  -3    1.62    0.20
  -3  -8   3    1.40    0.16
  -3  -8   3    1.64    0.22
  -3  -8   3    1.70    0.22
   2   8  -3    2.97    0.17
   2   8  -3    3.06    0.17
   2   8  -3    2.57    0.26
  -2  -8   3    3.20    0.26
  -2  -8   3    3.05    0.25
  -2  -8   3    3.89    0.25
   1   8  -3    3.42    0.28
   1   8  -3    3.27    0.20
  -1  -8   3    3.04    0.24
  -1  -8   3    2.95    0.26
  -1  -8   3    4.00    0.26
   0   8  -3   20.26    0.99
   0   8  -3   18.52    0.96
   0  -8   3   17.45    0.98
   0  -8   3   19.47    0.97
   0  -8   3   20.30    0.99
  -1   8  -3   10.91    0.61
  -1   8  -3   11.93    0.59
  -1   8  -3   11.09    0.58
   1  -8   3   10.47    0.61
   1  -8   3   11.50    0.60
   1  -8   3   11.80    0.60
  -2   8  -3   37.45    1.85
  -2   8  -3   36.87    1.88
  -2   8  -3   36.24    1.85
   2  -8   3   38.13    1.88
   2  -8   3   40.94    1.86
   2  -8   3   35.87    1.86
  -3   8  -3    3.42    0.25
   3  -8   3    3.14    0.26
   3  -8   3    3.14    0.26
   3  -8   3    3.46    0.27
  -4   8  -3   13.73    0.80
  -4   8  -3   16.68    0.80
   4  -8   3   15.90    0.81
   4  -8   3   15.77    0.81
   4  -8   3   15.28    0.83
  -5   8  -3    1.58    0.17
  -5   8  -3    1.36    0.18
   5  -8   3    1.80    0.23
   5  -8   3    1.90    0.21
  -6   8  -3    6.40    0.43
  -6   8  -3    6.79    0.47
  -6   8  -3    7.04    0.45
   6  -8   3    6.86    0.49
   6  -8   3    7.60    0.56
   6  -8   3    7.54    0.46
   6  -8   3    6.57    0.47
  -7   8  -3    0.05    0.14
  -7   8  -3   -0.05    0.15
  -7   8  -3   -0.08    0.16
   7  -8   3   -0.20    0.14
   7  -8   3   -0.10    0.15
   7  -8   3    0.20    0.22
   7  -8   3   -0.16    0.15
  -8   8  -3    0.78    0.21
  -8   8  -3    0.67    0.20
   8  -8   3    0.88    0.20
   8  -8   3    0.71    0.19
  -5  -7   3    0.17    0.17
  -5  -7   3    0.46    0.14
  -5  -7   3    0.19    0.13
   4   7  -3    6.67    0.37
  -4  -7   3    6.87    0.41
  -4  -7   3    6.90    0.47
  -4  -7   3    6.70    0.40
   3   7  -3    1.12    0.13
   3   7  -3    1.13    0.10
   3   7  -3    1.17    0.10
  -3  -7   3    1.26    0.14
  -3  -7   3    1.09    0.12
  -3  -7   3    1.45    0.18
   2   7  -3   12.83    0.67
   2   7  -3   12.83    0.69
   2   7  -3   12.77    0.67
  -2  -7   3   13.45    0.69
  -2  -7   3   14.93    0.70
  -2  -7   3   13.59    0.69
   1   7  -3   69.96    3.43
   1   7  -3   72.22    3.45
   1   7  -3   72.85    3.43
  -1  -7   3   65.18    3.45
  -1  -7   3   70.61    3.44
  -1  -7   3   72.28    3.45
   0   7  -3    3.04    0.24
   0   7  -3    3.03    0.20
   0   7  -3    2.90    0.20
   0  -7   3    3.06    0.22
   0  -7   3    3.13    0.24
   0  -7   3    3.48    0.22
  -1   7  -3    0.05    0.10
  -1   7  -3    0.07    0.07
  -1   7  -3    0.05    0.07
   1  -7   3    0.09    0.10
   1  -7   3    0.02    0.08
   1  -7   3    0.02    0.09
  -2   7  -3   15.96    0.88
  -2   7  -3   16.83    0.86
   2  -7   3   15.98    0.86
   2  -7   3   17.18    0.86
   2  -7   3   18.75    0.88
  -3   7  -3    0.08    0.10
  -3   7  -3    0.14    0.09
  -3   7  -3    0.26    0.10
   3  -7   3    0.11    0.09
   3  -7   3    0.09    0.09
   3  -7   3    0.18    0.11
   3  -7   3    0.16    0.11
  -4   7  -3    5.16    0.31
  -4   7  -3    4.44    0.32
  -4   7  -3    4.69    0.30
   4  -7   3    5.18    0.34
   4  -7   3    4.28    0.31
  -5   7  -3   63.54    3.08
  -5   7  -3   57.62    3.07
  -5   7  -3   64.35    3.08
   5  -7   3   64.21    3.09
   5  -7   3   63.15    3.07
  -6   7  -3    8.76    0.52
  -6   7  -3    9.29    0.51
  -6   7  -3    8.63    0.50
   6  -7   3    8.73    0.50
   6  -7   3    8.43    0.50
   6  -7   3    8.08    0.51
  -7   7  -3    1.12    0.19
  -7   7  -3    1.21    0.19
  -7   7  -3    2.00    0.21
   7  -7   3    1.22    0.19
   7  -7   3    1.51    0.21
   7  -7   3    1.31    0.18
   7  -7   3    1.60    0.21
  -8   7  -3   -0.02    0.17
  -8   7  -3    0.12    0.19
   8  -7   3    0.17    0.21
   8  -7   3    0.14    0.15
  -6  -6   3    0.96    0.22
  -6  -6   3    0.88    0.16
  -6  -6   3    1.01    0.18
   5   6  -3    0.85    0.09
   5   6  -3    0.98    0.09
  -5  -6   3    0.79    0.20
  -5  -6   3    0.97    0.14
  -5  -6   3    1.05    0.14
   4   6  -3    7.11    0.36
   4   6  -3    6.57    0.37
   4   6  -3    6.84    0.36
  -4  -6   3    7.04    0.44
  -4  -6   3    6.89    0.40
  -4  -6   3    6.90    0.39
   3   6  -3    0.45    0.07
   3   6  -3    0.39    0.07
   3   6  -3    0.43    0.08
  -3  -6   3    0.31    0.13
  -3  -6   3    0.48    0.10
  -3  -6   3    0.51    0.10
   2   6  -3    7.13    0.38
   2   6  -3    6.58    0.36
   2   6  -3    6.65    0.36
  -2  -6   3    8.01    0.39
  -2  -6   3    6.37    0.38
  -2  -6   3    6.93    0.38
   1   6  -3   72.08    3.22
   1   6  -3   63.86    3.20
   1   6  -3   65.28    3.21
  -1  -6   3   61.55    3.22
  -1  -6   3   63.62    3.21
  -1  -6   3   68.57    3.21
   0   6  -3    9.03    0.48
   0   6  -3    9.37    0.50
   0   6  -3    9.74    0.48
   0  -6   3    9.13    0.49
   0  -6   3    9.21    0.49
   0  -6   3    9.31    0.49
  -1   6  -3    4.13    0.28
  -1   6  -3    3.98    0.25
  -1   6  -3    4.04    0.25
   1  -6   3    4.44    0.25
   1  -6   3    4.43    0.26
   1  -6   3    4.57    0.27
  -2   6  -3    0.13    0.09
  -2   6  -3    0.11    0.07
  -2   6  -3    0.11    0.08
   2  -6   3   -0.08    0.08
   2  -6   3    0.04    0.09
   2  -6   3    0.08    0.07
  -3   6  -3    0.19    0.10
  -3   6  -3    0.14    0.10
   3  -6   3    0.17    0.10
   3  -6   3    0.06    0.09
   3  -6   3    0.28    0.10
   3  -6   3    0.10    0.08
  -4   6  -3    1.04    0.13
  -4   6  -3    1.50    0.18
   4  -6   3    1.42    0.18
   4  -6   3    1.66    0.17
   4  -6   3    1.30    0.17
  -5   6  -3    6.80    0.43
  -5   6  -3    7.05    0.42
  -5   6  -3    7.70    0.43
   5  -6   3    7.47    0.43
   5  -6   3    6.96    0.42
   5  -6   3    7.99    0.42
  -6   6  -3   31.32    1.44
  -6   6  -3   27.90    1.44
   6  -6   3   27.26    1.44
   6  -6   3   27.45    1.43
  -7   6  -3    0.09    0.15
  -7   6  -3    0.24    0.18
  -7   6  -3    0.00    0.14
  -7   6  -3    0.23    0.20
   7  -6   3    0.18    0.16
   7  -6   3    0.10    0.14
   7  -6   3   -0.13    0.14
   7  -6   3   -0.05    0.14
  -8   6  -3    0.13    0.15
  -8   6  -3    0.06    0.16
  -8   6  -3    0.02    0.20
   8  -6   3   -0.18    0.12
   8  -6   3    0.10    0.15
   8  -6   3   -0.05    0.15
   7   5  -3   10.14    0.53
  -7  -5   3   10.06    0.64
  -7  -5   3   10.22    0.59
  -7  -5   3    9.84    0.60
   6   5  -3    4.13    0.23
   6   5  -3    3.85    0.24
  -6  -5   3    4.17    0.38
  -6  -5   3    4.16    0.31
  -6  -5   3    4.07    0.30
   5   5  -3   -0.02    0.06
   5   5  -3    0.03    0.06
   5   5  -3    0.03    0.04
  -5  -5   3    0.14    0.16
  -5  -5   3   -0.05    0.10
   4   5  -3   12.28    0.59
   4   5  -3   11.59    0.59
   4   5  -3   11.57    0.58
  -4  -5   3   11.69    0.60
  -4  -5   3   10.41    0.60
  -4  -5   3   11.73    0.63
   3   5  -3   12.88    0.66
   3   5  -3   13.42    0.67
   3   5  -3   12.48    0.66
  -3  -5   3   14.22    0.70
  -3  -5   3   13.38    0.68
  -3  -5   3   13.26    0.68
   2   5  -3   12.60    0.63
   2   5  -3   13.29    0.63
   2   5  -3   13.18    0.64
  -2  -5   3   11.25    0.64
  -2  -5   3   12.24    0.64
  -2  -5   3   12.73    0.64
   1   5  -3   22.10    1.05
   1   5  -3   22.41    1.05
   1   5  -3   19.30    1.06
  -1  -5   3   21.87    1.06
  -1  -5   3   21.27    1.05
  -1  -5   3   20.54    1.06
   0   5  -3   34.82    1.57
   0   5  -3   31.17    1.56
   0   5  -3   31.11    1.56
   0  -5   3   29.18    1.56
   0  -5   3   32.49    1.56
   0  -5   3   31.87    1.57
  -1   5  -3   16.77    0.76
  -1   5  -3   13.28    0.76
  -1   5  -3   14.90    0.75
   1  -5   3   14.75    0.75
   1  -5   3   15.58    0.76
   1  -5   3   14.77    0.76
  -2   5  -3    2.62    0.19
  -2   5  -3    3.21    0.21
  -2   5  -3    2.98    0.19
   2  -5   3    3.02    0.21
   2  -5   3    2.44    0.19
   2  -5   3    3.12    0.20
   2  -5   3    2.59    0.20
  -3   5  -3    9.40    0.51
  -3   5  -3    9.44    0.51
  -3   5  -3    9.98    0.52
   3  -5   3    8.19    0.51
   3  -5   3    9.92    0.52
   3  -5   3    9.92    0.51
   3  -5   3   10.86    0.51
  -4   5  -3    0.00    0.09
  -4   5  -3    0.07    0.09
  -4   5  -3    0.09    0.08
   4  -5   3   -0.06    0.08
   4  -5   3    0.09    0.09
   4  -5   3    0.11    0.09
   4  -5   3    0.09    0.09
  -5   5  -3   10.72    0.58
  -5   5  -3    9.96    0.57
  -5   5  -3   11.21    0.59
  -5   5  -3    9.34    0.57
   5  -5   3   10.84    0.57
   5  -5   3   10.81    0.59
   5  -5   3   11.67    0.58
   5  -5   3   11.41    0.58
  -6   5  -3   22.30    1.24
  -6   5  -3   24.85    1.24
  -6   5  -3   24.67    1.25
   6  -5   3   25.46    1.24
   6  -5   3   24.26    1.23
   6  -5   3   25.31    1.24
  -7   5  -3    5.21    0.38
  -7   5  -3    4.77    0.35
  -7   5  -3    5.39    0.37
  -7   5  -3    5.22    0.39
   7  -5   3    5.54    0.40
   7  -5   3    6.03    0.36
   7  -5   3    5.25    0.35
  -8   5  -3   15.26    0.84
  -8   5  -3   15.37    0.85
  -8   5  -3   16.20    0.83
   8  -5   3   15.22    0.83
   8  -5   3   14.78    0.83
   8  -5   3   15.95    0.83
  -8  -4   3    1.77    0.28
  -8  -4   3    2.14    0.24
  -8  -4   3    3.00    0.31
   7   4  -3   -0.12    0.09
  -7  -4   3    0.26    0.14
  -7  -4   3    0.15    0.18
  -7  -4   3    0.15    0.15
   6   4  -3    0.37    0.09
  -6  -4   3    0.52    0.12
  -6  -4   3    0.43    0.12
  -6  -4   3    0.19    0.16
   5   4  -3   21.01    1.04
   5   4  -3   20.14    1.02
   5   4  -3   20.67    1.04
  -5  -4   3   20.06    1.07
  -5  -4   3   21.91    1.06
  -5  -4   3   21.76    1.05
   4   4  -3    1.17    0.11
   4   4  -3    1.18    0.12
   4   4  -3    1.14    0.12
  -4  -4   3    1.27    0.15
  -4  -4   3    1.17    0.15
   3   4  -3    4.73    0.25
   3   4  -3    4.27    0.25
   3   4  -3    4.30    0.24
  -3  -4   3    4.24    0.26
  -3  -4   3    4.53    0.26
  -3  -4   3    4.30    0.26
   2   4  -3   62.68    2.91
   2   4  -3   57.27    2.91
   2   4  -3   60.94    2.91
  -2  -4   3   56.94    2.91
  -2  -4   3   61.05    2.91
   1   4  -3  333.73   16.59
   1   4  -3  330.68   16.61
   1   4  -3  324.77   16.60
  -1  -4   3  345.66   16.61
  -1  -4   3  389.32   16.64
  -1  -4   3  325.54   16.58
   0   4  -3   60.26    3.00
   0   4  -3   58.79    3.01
   0   4  -3   62.13    3.00
   0  -4   3   64.30    3.00
   0  -4   3   62.30    3.01
   0  -4   3   61.79    3.00
  -1   4  -3   20.04    0.96
  -1   4  -3   17.63    0.96
  -1   4  -3   18.43    0.96
   1  -4   3   19.63    0.96
   1  -4   3   17.77    0.96
   1  -4   3   22.28    0.97
  -2   4  -3    9.66    0.53
  -2   4  -3   10.80    0.52
  -2   4  -3   10.31    0.52
   2  -4   3    9.92    0.53
   2  -4   3   10.23    0.53
   2  -4   3    9.59    0.52
   2  -4   3   10.39    0.52
  -3   4  -3    0.43    0.09
  -3   4  -3    0.82    0.09
  -3   4  -3    0.48    0.09
   3  -4   3    0.80    0.09
   3  -4   3    0.54    0.09
   3  -4   3    0.79    0.11
   3  -4   3    0.65    0.09
  -4   4  -3    0.12    0.08
  -4   4  -3    0.09    0.08
  -4   4  -3    0.11    0.08
  -4   4  -3    0.08    0.09
   4  -4   3    0.09    0.08
   4  -4   3    0.02    0.07
   4  -4   3    0.03    0.09
   4  -4   3    0.11    0.08
  -5   4  -3   67.35    3.23
  -5   4  -3   65.43    3.22
  -5   4  -3   64.68    3.22
  -5   4  -3   58.88    3.22
   5  -4   3   66.28    3.22
   5  -4   3   68.16    3.23
   5  -4   3   67.64    3.22
   5  -4   3   68.20    3.22
  -6   4  -3   21.31    1.08
  -6   4  -3   20.62    1.08
  -6   4  -3   20.50    1.08
  -6   4  -3   21.11    1.09
   6  -4   3   21.52    1.08
   6  -4   3   21.66    1.08
   6  -4   3   22.49    1.08
  -7   4  -3    0.20    0.17
  -7   4  -3    0.09    0.11
  -7   4  -3    0.07    0.12
  -7   4  -3    0.02    0.14
   7  -4   3    0.13    0.10
   7  -4   3    0.08    0.11
   7  -4   3    0.34    0.15
   7  -4   3    0.17    0.11
  -8   4  -3   25.01    1.27
  -8   4  -3   24.84    1.31
  -8   4  -3   24.85    1.29
  -8   4  -3   24.47    1.29
   8  -4   3   25.88    1.27
   8  -4   3   25.30    1.27
   8   3  -3   -0.07    0.14
  -8  -3   3    0.06    0.20
  -8  -3   3   -0.10    0.14
  -8  -3   3    0.06    0.16
   7   3  -3   25.27    1.32
   7   3  -3   26.54    1.32
  -7  -3   3   27.14    1.34
  -7  -3   3   27.09    1.37
  -7  -3   3   26.77    1.34
   6   3  -3    1.13    0.12
   6   3  -3    1.11    0.12
  -6  -3   3    1.15    0.14
  -6  -3   3    1.76    0.19
  -6  -3   3    1.09    0.18
   5   3  -3   14.28    0.68
   5   3  -3   13.74    0.70
   5   3  -3   13.52    0.70
  -5  -3   3   13.92    0.71
  -5  -3   3   13.30    0.71
  -5  -3   3   13.83    0.72
   4   3  -3    0.60    0.08
   4   3  -3    0.59    0.08
   4   3  -3    0.62    0.08
  -4  -3   3    0.48    0.10
  -4  -3   3    0.66    0.09
  -4  -3   3    0.61    0.08
   3   3  -3   13.07    0.67
   3   3  -3   13.43    0.67
   3   3  -3   13.56    0.67
  -3  -3   3   14.15    0.68
  -3  -3   3   13.03    0.68
  -3  -3   3   13.31    0.68
   2   3  -3   23.35    1.16
   2   3  -3   22.95    1.16
   2   3  -3   25.00    1.16
  -2  -3   3   23.72    1.16
  -2  -3   3   22.93    1.16
   1   3  -3   28.93    1.33
   1   3  -3   28.51    1.33
   1   3  -3   26.22    1.32
  -1  -3   3   26.60    1.33
  -1  -3   3   24.79    1.32
   0   3  -3  158.83    7.87
   0   3  -3  169.35    7.87
   0   3  -3  169.96    7.89
   0  -3   3  159.50    7.87
   0  -3   3  153.45    7.87
  -1   3  -3   18.39    0.95
  -1   3  -3   20.69    0.95
  -1   3  -3   19.30    0.95
   1  -3   3   19.19    0.96
   1  -3   3   18.72    0.95
   1  -3   3   19.34    0.95
   1  -3   3   18.93    0.95
  -2   3  -3   40.96    2.10
  -2   3  -3   42.98    2.11
  -2   3  -3   41.76    2.10
  -2   3  -3   40.71    2.11
   2  -3   3   42.28    2.10
   2  -3   3   42.42    2.10
   2  -3   3   43.23    2.11
   2  -3   3   49.66    2.11
  -3   3  -3    0.04    0.07
  -3   3  -3   -0.01    0.08
  -3   3  -3   -0.02    0.07
  -3   3  -3   -0.03    0.06
   3  -3   3    0.00    0.08
   3  -3   3   -0.03    0.07
   3  -3   3   -0.02    0.07
   3  -3   3    0.02    0.06
  -4   3  -3   -0.05    0.07
  -4   3  -3   -0.05    0.07
  -4   3  -3    0.08    0.09
  -4   3  -3    0.05    0.07
   4  -3   3    0.08    0.07
   4  -3   3    0.07    0.07
   4  -3   3    0.06    0.08
   4  -3   3   -0.06    0.07
  -5   3  -3   -0.03    0.09
   5  -3   3    0.00    0.11
   5  -3   3   -0.06    0.08
   5  -3   3    0.01    0.07
  -6   3  -3   27.19    1.40
  -6   3  -3   26.84    1.39
  -6   3  -3   28.16    1.38
  -6   3  -3   28.99    1.38
   6  -3   3   25.70    1.40
   6  -3   3   28.52    1.38
   6  -3   3   28.14    1.38
  -7   3  -3    0.08    0.14
  -7   3  -3    0.22    0.17
  -7   3  -3    0.27    0.10
  -7   3  -3    0.39    0.13
   7  -3   3    0.19    0.16
   7  -3   3    0.38    0.11
  -8   3  -3    2.61    0.25
  -8   3  -3    3.11    0.31
  -8   3  -3    2.97    0.33
  -8   3  -3    2.57    0.30
   8  -3   3    2.91    0.27
   9   2  -3    3.49    0.31
  -9  -2   3    5.28    0.39
  -9  -2   3    4.28    0.41
   8   2  -3    4.12    0.29
   8   2  -3    4.57    0.30
   8   2  -3    4.01    0.37
  -8  -2   3    4.24    0.34
  -8  -2   3    4.46    0.36
  -8  -2   3    3.66    0.36
   7   2  -3   17.35    0.86
   7   2  -3   17.17    0.89
   7   2  -3   15.72    0.86
  -7  -2   3   17.17    0.87
  -7  -2   3   16.77    0.89
  -7  -2   3   16.53    0.87
   6   2  -3    1.48    0.16
   6   2  -3    1.32    0.16
   6   2  -3    1.60    0.17
  -6  -2   3    1.38    0.19
  -6  -2   3    1.38    0.18
   5   2  -3    0.85    0.09
   5   2  -3    0.80    0.08
   5   2  -3    0.79    0.09
   5   2  -3    0.64    0.12
   5   2  -3    0.67    0.07
  -5  -2   3    0.83    0.10
  -5  -2   3    0.89    0.12
  -5  -2   3    0.65    0.10
   4   2  -3    0.72    0.08
   4   2  -3    0.73    0.08
   4   2  -3    0.47    0.09
  -4  -2   3    0.60    0.09
  -4  -2   3    0.50    0.08
  -4  -2   3    0.69    0.08
   3   2  -3   43.19    2.23
   3   2  -3   46.46    2.23
  -3  -2   3   43.43    2.23
  -3  -2   3   50.44    2.24
  -3  -2   3   45.05    2.24
   2   2  -3    0.57    0.06
   2   2  -3    0.51    0.06
  -2  -2   3    0.70    0.07
  -2  -2   3    0.69    0.09
  -2  -2   3    0.52    0.07
   1   2  -3  152.14    8.01
   1   2  -3  178.91    8.03
   1   2  -3  162.69    8.01
  -1  -2   3  151.88    7.99
  -1  -2   3  179.29    8.03
   0   2  -3    0.32    0.05
   0   2  -3    0.30    0.05
   0   2  -3    0.42    0.06
   0  -2   3    0.34    0.05
   0  -2   3    0.34    0.05
  -1   2  -3   32.34    1.58
  -1   2  -3   32.98    1.59
  -1   2  -3   32.00    1.58
   1  -2   3   30.56    1.58
   1  -2   3   33.13    1.58
   1  -2   3   33.45    1.59
  -2   2  -3    7.50    0.37
  -2   2  -3    6.81    0.37
  -2   2  -3    6.94    0.37
  -2   2  -3    7.25    0.37
   2  -2   3    6.56    0.37
   2  -2   3    7.16    0.37
   2  -2   3    6.84    0.36
  -3   2  -3   21.31    1.04
  -3   2  -3   20.39    1.04
  -3   2  -3   20.18    1.04
  -3   2  -3   20.95    1.05
   3  -2   3   22.45    1.04
   3  -2   3   21.55    1.05
   3  -2   3   20.13    1.04
  -4   2  -3    2.11    0.16
  -4   2  -3    1.98    0.17
  -4   2  -3    1.81    0.16
  -4   2  -3    2.13    0.16
   4  -2   3    1.91    0.18
   4  -2   3    1.97    0.15
   4  -2   3    1.97    0.15
  -5   2  -3    1.36    0.16
  -5   2  -3    1.25    0.16
  -5   2  -3    1.28    0.14
   5  -2   3    1.39    0.14
   5  -2   3    1.19    0.15
   5  -2   3    1.38    0.14
  -6   2  -3    5.80    0.37
  -6   2  -3    5.22    0.33
  -6   2  -3    5.02    0.34
  -6   2  -3    5.00    0.30
   6  -2   3    5.41    0.31
   6  -2   3    5.46    0.32
  -7   2  -3    7.02    0.40
  -7   2  -3    7.54    0.44
  -7   2  -3    6.93    0.47
  -7   2  -3    7.37    0.45
   7  -2   3    7.38    0.41
   7  -2   3    7.64    0.47
   7  -2   3    7.16    0.42
  -8   2  -3    1.54    0.16
  -8   2  -3    1.85    0.21
  -8   2  -3    1.12    0.19
  -8   2  -3    1.36    0.23
   8  -2   3    1.70    0.16
  -9  -1   3    0.26    0.15
  -9  -1   3    0.13    0.18
  -9  -1   3    0.06    0.19
   8   1  -3    3.12    0.32
   8   1  -3    3.64    0.27
   8   1  -3    3.55    0.27
  -8  -1   3    3.34    0.30
  -8  -1   3    2.90    0.34
  -8  -1   3    3.25    0.31
   7   1  -3   28.70    1.41
   7   1  -3   29.23    1.41
   7   1  -3   29.29    1.43
   7   1  -3   28.04    1.38
  -7  -1   3   28.03    1.43
  -7  -1   3   27.55    1.42
  -7  -1   3   27.59    1.42
   6   1  -3    2.35    0.14
   6   1  -3    2.45    0.23
   6   1  -3    2.47    0.19
   6   1  -3    2.37    0.19
  -6  -1   3    2.26    0.22
   5   1  -3   40.50    1.88
   5   1  -3   38.19    1.87
   5   1  -3   37.33    1.86
   5   1  -3   37.17    1.87
  -5  -1   3   38.29    1.87
  -5  -1   3   38.26    1.87
  -5  -1   3   36.92    1.88
   4   1  -3   32.57    1.51
   4   1  -3   32.99    1.51
   4   1  -3   27.68    1.51
  -4  -1   3   29.56    1.51
  -4  -1   3   30.57    1.51
  -4  -1   3   30.86    1.51
   3   1  -3   12.51    0.61
   3   1  -3   11.02    0.61
   3   1  -3   12.73    0.61
  -3  -1   3   12.12    0.61
  -3  -1   3   11.59    0.61
  -3  -1   3   13.01    0.61
   2   1  -3   61.72    2.98
   2   1  -3   61.14    2.98
  -2  -1   3   60.03    2.98
  -2  -1   3   62.77    2.98
  -2  -1   3   60.46    2.97
   1   1  -3    0.15    0.04
   1   1  -3    0.14    0.04
  -1  -1   3    0.09    0.04
  -1  -1   3    0.14    0.04
   0   1  -3   38.88    1.85
   0   1  -3   37.45    1.85
   0  -1   3   35.57    1.85
   0  -1   3   38.18    1.85
   0  -1   3   40.04    1.85
  -1   1  -3    4.98    0.25
  -1   1  -3    4.71    0.25
  -1   1  -3    4.78    0.25
   1  -1   3    4.80    0.25
   1  -1   3    4.79    0.25
   1  -1   3    4.76    0.25
  -2   1  -3  115.35    5.81
  -2   1  -3  121.64    5.81
  -2   1  -3  118.52    5.81
  -2   1  -3  121.38    5.81
   2  -1   3  120.51    5.81
   2  -1   3  122.04    5.81
   2  -1   3  118.44    5.81
  -3   1  -3    3.33    0.20
  -3   1  -3    3.40    0.20
  -3   1  -3    3.41    0.20
  -3   1  -3    3.08    0.21
   3  -1   3    3.17    0.21
   3  -1   3    3.11    0.18
   3  -1   3    3.27    0.19
  -4   1  -3    0.32    0.09
  -4   1  -3    0.48    0.07
  -4   1  -3    0.40    0.08
  -4   1  -3    0.50    0.08
   4  -1   3    0.54    0.07
   4  -1   3    0.38    0.09
   4  -1   3    0.55    0.07
  -5   1  -3    0.12    0.08
  -5   1  -3    0.01    0.09
  -5   1  -3    0.00    0.06
  -5   1  -3    0.16    0.10
   5  -1   3   -0.05    0.06
   5  -1   3   -0.09    0.10
   5  -1   3   -0.01    0.06
  -6   1  -3    0.12    0.11
  -6   1  -3    0.19    0.06
  -6   1  -3    0.15    0.14
  -6   1  -3    0.06    0.10
   6  -1   3    0.08    0.07
   6  -1   3    0.14    0.07
   6  -1   3    0.05    0.11
  -7   1  -3    3.89    0.37
  -7   1  -3    3.40    0.30
  -7   1  -3    3.57    0.21
  -7   1  -3    3.70    0.29
   7  -1   3    3.52    0.23
   7  -1   3    3.50    0.23
   7  -1   3    3.47    0.34
  -8   1  -3    2.23    0.23
  -8   1  -3    2.33    0.28
  -8   1  -3    1.86    0.25
   8  -1   3    1.93    0.23
   9   0  -3    2.56    0.32
   9   0  -3    2.57    0.26
   9   0  -3    2.62    0.28
  -9   0   3    2.50    0.29
  -9   0   3    2.14    0.23
  -9   0   3    2.61    0.30
   8   0  -3   20.89    1.09
   8   0  -3   22.81    1.15
   8   0  -3   21.62    1.13
   8   0  -3   23.71    1.13
  -8   0   3   22.71    1.14
  -8   0   3   21.54    1.14
  -8   0   3   22.61    1.15
   7   0  -3    5.02    0.32
   7   0  -3    5.55    0.34
   7   0  -3    4.90    0.28
   7   0  -3    5.80    0.32
  -7   0   3    5.19    0.33
  -7   0   3    4.75    0.33
  -7   0   3    5.11    0.35
   6   0  -3   23.62    1.25
   6   0  -3   24.20    1.25
   6   0  -3   24.27    1.23
   6   0  -3   26.42    1.26
  -6   0   3   26.71    1.25
  -6   0   3   25.35    1.25
  -6   0   3   25.11    1.26
   5   0  -3   88.55    4.22
   5   0  -3   90.13    4.23
   5   0  -3   84.73    4.22
   5   0  -3   83.42    4.21
  -5   0   3   83.70    4.22
  -5   0   3   90.97    4.22
  -5   0   3   85.37    4.22
   4   0  -3    8.66    0.46
   4   0  -3    8.52    0.45
   4   0  -3    8.68    0.46
   4   0  -3    8.98    0.46
  -4   0   3    9.37    0.46
  -4   0   3    8.66    0.46
  -4   0   3    8.57    0.46
   3   0  -3   40.02    2.02
   3   0  -3   40.56    2.02
   3   0  -3   40.37    2.02
  -3   0   3   40.74    2.02
  -3   0   3   44.82    2.02
  -3   0   3   41.46    2.02
   2   0  -3    0.67    0.06
   2   0  -3    0.77    0.07
   2   0  -3    0.62    0.07
  -2   0   3    0.68    0.07
  -2   0   3    0.70    0.06
  -2   0   3    0.73    0.07
   1   0  -3  150.27    7.37
   1   0  -3  157.04    7.37
  -1   0   3  142.57    7.35
  -1   0   3  155.85    7.35
   0   0  -3  141.43    7.11
   0   0  -3  145.95    7.12
   0   0  -3  147.54    7.12
   0   0   3  148.84    7.11
   0   0   3  148.35    7.11
   0   0   3  146.46    7.11
  -1   0  -3   55.79    2.72
  -1   0  -3   54.15    2.71
  -1   0  -3   57.21    2.71
   1   0   3   57.02    2.72
   1   0   3   55.00    2.71
   1   0   3   55.86    2.71
  -2   0  -3  197.21    9.13
  -2   0  -3  195.19    9.14
  -2   0  -3  176.05    9.11
   2   0   3  188.14    9.11
   2   0   3  191.18    9.12
   2   0   3  179.66    9.11
  -3   0  -3   10.83    0.54
  -3   0  -3   11.13    0.54
  -3   0  -3   10.35    0.55
  -3   0  -3   10.18    0.54
   3   0   3   10.66    0.55
   3   0   3   10.82    0.53
   3   0   3   10.74    0.53
  -4   0  -3    8.98    0.48
  -4   0  -3    9.10    0.50
  -4   0  -3    9.20    0.47
  -4   0  -3    9.01    0.48
   4   0   3    9.39    0.46
   4   0   3    9.50    0.46
   4   0   3    9.87    0.50
  -5   0  -3   31.24    1.55
  -5   0  -3   31.25    1.55
  -5   0  -3   31.20    1.57
  -5   0  -3   32.27    1.53
   5   0   3   30.49    1.53
   5   0   3   30.90    1.53
   5   0   3   32.08    1.57
  -6   0  -3    2.68    0.15
  -6   0  -3    2.71    0.28
  -6   0  -3    2.68    0.22
   6   0   3    2.57    0.15
   6   0   3    2.54    0.16
  -7   0  -3    7.92    0.52
  -7   0  -3    8.39    0.47
  -7   0  -3    8.30    0.48
   7   0   3    7.46    0.51
  10  -1  -3    0.00    0.16
 -10   1   3    0.32    0.22
 -10   1   3   -0.10    0.17
   9  -1  -3   12.44    0.66
   9  -1  -3   13.29    0.72
   9  -1  -3   12.86    0.71
   9  -1  -3   13.89    0.75
  -9   1   3   10.62    0.73
  -9   1   3   14.64    0.72
  -9   1   3   13.65    0.72
   8  -1  -3    7.80    0.46
   8  -1  -3    8.00    0.47
   8  -1  -3    7.28    0.42
  -8   1   3    7.73    0.48
  -8   1   3    7.90    0.46
  -8   1   3    8.31    0.47
   7  -1  -3    1.66    0.19
   7  -1  -3    1.68    0.19
   7  -1  -3    1.66    0.21
   7  -1  -3    1.58    0.15
  -7   1   3    1.44    0.19
   6  -1  -3   10.98    0.55
   6  -1  -3   11.03    0.55
   6  -1  -3    9.83    0.53
  -6   1   3    9.63    0.55
  -6   1   3   10.66    0.55
  -6   1   3   10.43    0.55
   5  -1  -3   38.57    1.80
   5  -1  -3   34.71    1.79
   5  -1  -3   37.38    1.79
   5  -1  -3   34.66    1.79
  -5   1   3   35.57    1.80
  -5   1   3   37.71    1.80
  -5   1   3   37.01    1.79
   4  -1  -3    2.89    0.19
   4  -1  -3    2.75    0.18
   4  -1  -3    2.75    0.18
   4  -1  -3    2.52    0.19
  -4   1   3    2.78    0.18
  -4   1   3    3.00    0.19
  -4   1   3    2.71    0.18
   3  -1  -3    7.59    0.41
   3  -1  -3    8.00    0.42
   3  -1  -3    8.04    0.41
  -3   1   3    8.01    0.41
  -3   1   3    8.51    0.41
  -3   1   3    8.19    0.41
   2  -1  -3  192.34    8.61
   2  -1  -3  183.89    8.62
   2  -1  -3  164.85    8.60
  -2   1   3  185.33    8.62
  -2   1   3  165.84    8.60
  -2   1   3  171.43    8.60
   1  -1  -3   48.35    2.31
   1  -1  -3   47.41    2.31
   1  -1  -3   47.92    2.31
  -1   1   3   46.23    2.31
  -1   1   3   47.98    2.31
   0  -1  -3    8.57    0.40
   0  -1  -3    7.99    0.41
   0  -1  -3    8.11    0.40
   0   1   3    8.24    0.41
  -1  -1  -3    1.07    0.07
  -1  -1  -3    1.03    0.07
  -1  -1  -3    1.01    0.11
   1   1   3    1.10    0.11
  -2  -1  -3    5.07    0.29
  -2  -1  -3    5.24    0.26
  -2  -1  -3    4.90    0.26
   2   1   3    5.11    0.28
  -3  -1  -3    2.32    0.18
  -3  -1  -3    2.37    0.15
  -3  -1  -3    2.36    0.15
   3   1   3    2.52    0.18
  -4  -1  -3    7.13    0.38
  -4  -1  -3    7.25    0.42
  -4  -1  -3    7.08    0.37
  -4  -1  -3    7.60    0.39
   4   1   3    7.33    0.42
  -5  -1  -3   14.61    0.76
  -5  -1  -3   14.75    0.76
  -5  -1  -3   14.39    0.79
   5   1   3   15.96    0.79
  -6  -1  -3    2.40    0.22
  -6  -1  -3    2.67    0.29
   6   1   3    2.57    0.28
  -7  -1  -3    0.34    0.14
  -7  -1  -3    0.19    0.18
  -7  -1  -3    0.50    0.14
   7   1   3    0.26    0.25
  10  -2  -3    3.08    0.26
 -10   2   3    3.22    0.36
 -10   2   3    2.80    0.33
   9  -2  -3    3.07    0.23
   9  -2  -3    3.29    0.31
   9  -2  -3    3.27    0.29
   9  -2  -3    3.60    0.34
  -9   2   3    3.09    0.36
  -9   2   3    2.82    0.30
  -9   2   3    3.45    0.31
   8  -2  -3    0.47    0.14
   8  -2  -3    0.48    0.09
   8  -2  -3    0.27    0.12
  -8   2   3    0.71    0.16
  -8   2   3    0.53    0.15
   7  -2  -3    7.92    0.46
   7  -2  -3    8.40    0.46
   7  -2  -3    8.56    0.46
   7  -2  -3    8.20    0.44
  -7   2   3    8.49    0.46
  -7   2   3    7.74    0.47
   6  -2  -3    5.00    0.29
   6  -2  -3    4.94    0.30
   6  -2  -3    5.17    0.30
   6  -2  -3    5.14    0.30
  -6   2   3    4.97    0.30
  -6   2   3    4.65    0.30
  -6   2   3    4.91    0.30
   5  -2  -3   22.03    1.08
   5  -2  -3   22.52    1.08
   5  -2  -3   21.35    1.08
   5  -2  -3   20.40    1.08
  -5   2   3   20.74    1.08
  -5   2   3   24.03    1.08
  -5   2   3   20.71    1.08
   4  -2  -3   81.42    4.02
   4  -2  -3   84.25    4.02
   4  -2  -3   82.53    4.02
   4  -2  -3   88.57    4.02
  -4   2   3   74.54    4.02
  -4   2   3   85.90    4.02
  -4   2   3   81.02    4.02
   3  -2  -3    0.66    0.09
   3  -2  -3    0.70    0.09
   3  -2  -3    0.60    0.07
   3  -2  -3    0.62    0.07
  -3   2   3    0.65    0.09
  -3   2   3    0.77    0.09
  -3   2   3    0.66    0.07
   2  -2  -3  102.35    4.78
   2  -2  -3   96.88    4.76
   2  -2  -3   94.56    4.77
   2  -2  -3   87.78    4.76
  -2   2   3  111.47    4.76
  -2   2   3   96.10    4.76
   1  -2  -3  121.31    6.27
   1  -2  -3  137.39    6.26
   1  -2  -3  128.55    6.27
   0  -2  -3   38.06    1.82
   0  -2  -3   36.59    1.83
  -1  -2  -3    6.46    0.34
  -2  -2  -3    0.20    0.04
  -2  -2  -3    0.17    0.04
  -2  -2  -3    0.20    0.05
  -2  -2  -3    0.19    0.07
   2   2   3    0.26    0.07
  -3  -2  -3    6.22    0.33
  -3  -2  -3    6.05    0.32
  -3  -2  -3    6.23    0.33
  -3  -2  -3    6.46    0.36
   3   2   3    6.49    0.36
  -4  -2  -3   23.75    1.18
  -4  -2  -3   23.71    1.16
  -4  -2  -3   21.95    1.14
  -4  -2  -3   24.07    1.16
  -4  -2  -3   23.02    1.14
   4   2   3   24.26    1.18
  -5  -2  -3    1.93    0.20
  -5  -2  -3    1.75    0.18
  -5  -2  -3    1.75    0.18
  -6  -2  -3    3.44    0.37
  -6  -2  -3    3.71    0.27
  -6  -2  -3    4.09    0.28
   6   2   3    3.34    0.34
  -7  -2  -3    1.72    0.19
  -7  -2  -3    1.37    0.22
  -7  -2  -3    1.48    0.19
  10  -3  -3   13.07    0.63
 -10   3   3    9.90    0.67
 -10   3   3   10.61    0.68
   9  -3  -3    5.76    0.39
   9  -3  -3    5.53    0.41
   9  -3  -3    5.77    0.41
   9  -3  -3    6.03    0.35
  -9   3   3    5.50    0.43
  -9   3   3    6.29    0.41
  -9   3   3    5.72    0.39
   8  -3  -3    4.38    0.30
   8  -3  -3    4.72    0.32
   8  -3  -3    4.27    0.32
  -8   3   3    4.36    0.33
  -8   3   3    4.23    0.33
   7  -3  -3    2.67    0.23
   7  -3  -3    2.18    0.23
   7  -3  -3    2.48    0.21
   7  -3  -3    2.72    0.23
  -7   3   3    2.63    0.22
  -7   3   3    2.72    0.23
   6  -3  -3    1.37    0.17
   6  -3  -3    1.12    0.15
   6  -3  -3    1.23    0.15
   6  -3  -3    1.30    0.13
  -6   3   3    1.23    0.16
  -6   3   3    1.34    0.16
  -6   3   3    1.23    0.15
   5  -3  -3   18.01    0.82
   5  -3  -3   14.97    0.81
   5  -3  -3   15.16    0.82
   5  -3  -3   16.38    0.82
  -5   3   3   16.13    0.82
  -5   3   3   15.84    0.81
  -5   3   3   16.86    0.81
   4  -3  -3    1.67    0.15
   4  -3  -3    1.73    0.17
   4  -3  -3    2.05    0.14
   4  -3  -3    1.84    0.15
  -4   3   3    2.23    0.15
  -4   3   3    1.83    0.17
  -4   3   3    1.81    0.14
  -4   3   3    1.76    0.15
   3  -3  -3   13.76    0.72
   3  -3  -3   14.23    0.72
   3  -3  -3   15.18    0.72
   3  -3  -3   14.06    0.73
  -3   3   3   14.29    0.71
  -3   3   3   14.63    0.71
   2  -3  -3    8.25    0.41
   2  -3  -3    8.32    0.43
   2  -3  -3    8.12    0.41
  -2   3   3    8.46    0.40
  -2   3   3    7.67    0.40
   1  -3  -3    7.69    0.42
   1  -3  -3    7.72    0.39
   1  -3  -3    8.02    0.39
   0  -3  -3   16.00    0.82
   0  -3  -3   16.71    0.81
  -1  -3  -3   10.12    0.52
  -1  -3  -3    9.98    0.51
  -2  -3  -3   12.53    0.61
  -2  -3  -3   12.19    0.64
  -2  -3  -3   12.52    0.62
  -3  -3  -3    0.53    0.06
  -3  -3  -3    0.43    0.06
  -3  -3  -3    0.48    0.06
  -3  -3  -3    0.43    0.11
  -4  -3  -3    9.35    0.45
  -4  -3  -3    8.80    0.47
  -4  -3  -3    9.11    0.52
  -4  -3  -3    8.95    0.47
  -5  -3  -3    1.12    0.12
  -5  -3  -3    1.03    0.18
  -5  -3  -3    1.29    0.13
  -6  -3  -3    2.91    0.26
  -6  -3  -3    2.77    0.26
  -6  -3  -3    2.97    0.34
  10  -4  -3    0.37    0.17
 -10   4   3    0.81    0.22
 -10   4   3    0.13    0.18
   9  -4  -3    1.97    0.25
   9  -4  -3    2.32    0.27
   9  -4  -3    2.43    0.28
   9  -4  -3    2.10    0.27
  -9   4   3    2.37    0.28
  -9   4   3    2.33    0.24
  -9   4   3    1.71    0.20
   8  -4  -3    2.46    0.27
   8  -4  -3    2.56    0.26
   8  -4  -3    2.28    0.23
  -8   4   3    2.15    0.26
  -8   4   3    2.73    0.27
   7  -4  -3   28.90    1.40
   7  -4  -3   27.26    1.40
   7  -4  -3   28.54    1.40
  -7   4   3   28.55    1.40
  -7   4   3   28.48    1.40
  -7   4   3   25.60    1.39
   6  -4  -3    3.72    0.26
   6  -4  -3    3.27    0.25
   6  -4  -3    3.58    0.24
  -6   4   3    3.84    0.24
  -6   4   3    2.79    0.25
  -6   4   3    3.49    0.23
  -6   4   3    3.33    0.24
   5  -4  -3   27.69    1.39
   5  -4  -3   29.35    1.39
   5  -4  -3   28.26    1.39
  -5   4   3   29.96    1.38
  -5   4   3   25.23    1.38
  -5   4   3   27.08    1.38
  -5   4   3   28.16    1.39
   4  -4  -3   20.01    1.00
   4  -4  -3   19.53    1.00
   4  -4  -3   19.50    1.02
   4  -4  -3   21.16    1.00
  -4   4   3   20.67    1.00
  -4   4   3   20.07    1.00
  -4   4   3   20.35    1.02
   3  -4  -3    0.64    0.08
   3  -4  -3    0.78    0.10
   3  -4  -3    0.87    0.10
   3  -4  -3    0.90    0.10
  -3   4   3    0.85    0.08
  -3   4   3    0.83    0.08
  -3   4   3    0.91    0.11
   2  -4  -3    0.99    0.11
   2  -4  -3    1.13    0.09
   2  -4  -3    1.04    0.09
   1  -4  -3    0.89    0.13
   1  -4  -3    1.11    0.07
   1  -4  -3    1.07    0.07
   0  -4  -3   23.20    1.14
   0  -4  -3   22.55    1.13
  -1  -4  -3    1.32    0.14
  -1  -4  -3    1.17    0.13
  -2  -4  -3   22.08    1.09
  -2  -4  -3   21.66    1.07
  -2  -4  -3   21.74    1.07
  -2  -4  -3   22.64    1.11
  -3  -4  -3   48.50    2.37
  -3  -4  -3   47.71    2.38
  -3  -4  -3   48.35    2.37
  -3  -4  -3   50.40    2.40
  -4  -4  -3    0.02    0.08
  -4  -4  -3    0.01    0.07
  -4  -4  -3    0.11    0.14
  -5  -4  -3    1.68    0.18
  -5  -4  -3    1.99    0.24
  -5  -4  -3    1.63    0.19
  10  -5  -3    9.61    0.58
 -10   5   3    9.49    0.59
 -10   5   3    8.81    0.60
   9  -5  -3    1.67    0.21
   9  -5  -3    2.20    0.27
   9  -5  -3    1.66    0.22
   9  -5  -3    1.92    0.26
  -9   5   3    1.97    0.20
  -9   5   3    2.03    0.26
  -9   5   3    1.82    0.23
   8  -5  -3    1.05    0.18
   8  -5  -3    1.44    0.17
   8  -5  -3    1.51    0.18
  -8   5   3    1.34    0.17
  -8   5   3    1.26    0.17
   7  -5  -3   13.86    0.74
   7  -5  -3   13.41    0.74
   7  -5  -3   14.27    0.74
  -7   5   3   14.51    0.73
  -7   5   3   13.53    0.74
  -7   5   3   14.27    0.75
  -7   5   3   14.10    0.74
   6  -5  -3    4.18    0.27
   6  -5  -3    4.55    0.29
   6  -5  -3    3.89    0.28
   6  -5  -3    4.22    0.29
  -6   5   3    4.50    0.30
  -6   5   3    4.39    0.28
  -6   5   3    4.27    0.27
   5  -5  -3    5.16    0.32
   5  -5  -3    5.24    0.34
   5  -5  -3    6.32    0.32
   5  -5  -3    6.05    0.32
  -5   5   3    5.27    0.31
  -5   5   3    5.24    0.35
  -5   5   3    4.86    0.30
   4  -5  -3    7.50    0.37
   4  -5  -3    7.20    0.37
   4  -5  -3    6.44    0.39
   4  -5  -3    7.67    0.37
  -4   5   3    5.89    0.36
  -4   5   3    6.98    0.36
  -4   5   3    5.83    0.39
   3  -5  -3    1.04    0.11
   3  -5  -3    1.13    0.11
   3  -5  -3    1.07    0.13
   3  -5  -3    1.15    0.16
  -3   5   3    1.06    0.08
  -3   5   3    1.06    0.15
  -3   5   3    1.00    0.08
   2  -5  -3    0.58    0.08
   2  -5  -3    0.50    0.10
   2  -5  -3    0.47    0.06
  -2   5   3    0.42    0.10
   1  -5  -3    7.42    0.39
   1  -5  -3    6.86    0.35
   1  -5  -3    6.93    0.35
   0  -5  -3    0.54    0.05
   0  -5  -3    0.67    0.09
   0  -5  -3    0.56    0.05
   0  -5  -3    0.59    0.09
  -1  -5  -3   30.44    1.52
  -1  -5  -3   31.99    1.55
  -1  -5  -3   31.58    1.56
  -2  -5  -3   68.58    3.36
  -2  -5  -3   68.09    3.35
  -2  -5  -3   71.18    3.38
  -2  -5  -3   68.12    3.35
  -3  -5  -3    5.37    0.30
  -3  -5  -3    5.34    0.30
  -3  -5  -3    5.66    0.37
  -3  -5  -3    5.50    0.29
  -4  -5  -3    1.06    0.21
  -4  -5  -3    1.00    0.11
  -4  -5  -3    1.19    0.14
  -5  -5  -3    0.85    0.22
  -5  -5  -3    0.48    0.13
   9  -6  -3    0.05    0.17
   9  -6  -3   -0.05    0.17
  -9   6   3    0.27    0.14
  -9   6   3    0.04    0.19
  -9   6   3    0.03    0.13
   8  -6  -3    9.93    0.58
   8  -6  -3    9.46    0.57
   8  -6  -3    9.85    0.57
   8  -6  -3   10.17    0.58
  -8   6   3   10.37    0.59
  -8   6   3    9.88    0.56
  -8   6   3    9.96    0.56
   7  -6  -3    0.10    0.11
   7  -6  -3    0.22    0.12
   7  -6  -3    0.43    0.13
   7  -6  -3    0.27    0.14
  -7   6   3    0.38    0.14
  -7   6   3    0.33    0.11
  -7   6   3    0.22    0.11
   6  -6  -3    2.02    0.21
   6  -6  -3    2.27    0.21
   6  -6  -3    2.17    0.23
   6  -6  -3    1.94    0.24
  -6   6   3    1.75    0.19
  -6   6   3    2.40    0.24
  -6   6   3    1.86    0.18
   5  -6  -3   26.16    1.30
   5  -6  -3   24.62    1.30
   5  -6  -3   29.12    1.30
   5  -6  -3   24.57    1.32
  -5   6   3   25.45    1.29
  -5   6   3   26.76    1.29
   4  -6  -3   64.26    3.12
   4  -6  -3   63.91    3.11
   4  -6  -3   66.71    3.11
   4  -6  -3   64.06    3.11
  -4   6   3   63.37    3.12
  -4   6   3   60.07    3.09
  -4   6   3   62.81    3.09
   3  -6  -3    0.32    0.07
   3  -6  -3    0.34    0.07
  -3   6   3    0.35    0.14
   2  -6  -3    7.78    0.39
   2  -6  -3    7.50    0.43
   2  -6  -3    7.37    0.39
  -2   6   3    7.31    0.43
   1  -6  -3    0.21    0.11
   1  -6  -3    0.11    0.05
   1  -6  -3    0.18    0.04
   0  -6  -3    9.32    0.48
   0  -6  -3    9.49    0.52
   0  -6  -3    9.79    0.52
   0  -6  -3    9.84    0.48
  -1  -6  -3    4.47    0.23
  -1  -6  -3    4.44    0.30
  -1  -6  -3    4.48    0.28
  -1  -6  -3    4.45    0.23
  -2  -6  -3    5.95    0.30
  -2  -6  -3    5.66    0.39
  -2  -6  -3    5.56    0.34
  -2  -6  -3    5.97    0.30
  -3  -6  -3    0.79    0.10
  -3  -6  -3    0.83    0.18
  -3  -6  -3    0.91    0.09
  -3  -6  -3    0.93    0.09
  -4  -6  -3    3.96    0.26
  -4  -6  -3    4.27    0.36
  -4  -6  -3    4.04    0.30
   9  -7  -3    2.63    0.32
   9  -7  -3    2.63    0.27
  -9   7   3    2.61    0.31
  -9   7   3    2.97    0.35
   8  -7  -3    0.76    0.16
   8  -7  -3    0.58    0.17
   8  -7  -3    0.78    0.21
  -8   7   3    0.52    0.13
  -8   7   3    0.67    0.17
  -8   7   3    0.87    0.16
   7  -7  -3    0.21    0.15
   7  -7  -3    0.05    0.13
   7  -7  -3   -0.06    0.12
   7  -7  -3   -0.02    0.12
  -7   7   3   -0.01    0.11
  -7   7   3    0.12    0.11
  -7   7   3    0.05    0.14
   6  -7  -3    2.39    0.23
   6  -7  -3    2.00    0.27
   6  -7  -3    1.95    0.22
   6  -7  -3    1.99    0.23
  -6   7   3    2.36    0.19
  -6   7   3    2.30    0.21
  -6   7   3    1.58    0.24
   5  -7  -3   57.97    2.79
   5  -7  -3   55.81    2.81
   5  -7  -3   56.38    2.79
   5  -7  -3   58.11    2.80
  -5   7   3   56.24    2.77
  -5   7   3   56.52    2.77
   4  -7  -3    3.23    0.23
   4  -7  -3    2.77    0.21
   4  -7  -3    2.46    0.26
   4  -7  -3    2.53    0.21
  -4   7   3    2.61    0.16
  -4   7   3    2.75    0.16
  -4   7   3    3.04    0.27
   3  -7  -3    0.33    0.13
   3  -7  -3    0.34    0.08
   3  -7  -3    0.23    0.07
  -3   7   3    0.24    0.12
   2  -7  -3    2.03    0.20
   2  -7  -3    1.46    0.13
  -2   7   3    1.50    0.17
   1  -7  -3    4.62    0.31
   1  -7  -3    4.56    0.26
   1  -7  -3    4.92    0.26
   0  -7  -3   21.53    1.07
   0  -7  -3   21.78    1.07
   0  -7  -3   20.34    1.10
   0  -7  -3   23.13    1.10
  -1  -7  -3    4.33    0.23
  -1  -7  -3    4.07    0.29
  -1  -7  -3    4.23    0.23
  -1  -7  -3    4.04    0.32
  -2  -7  -3    5.05    0.28
  -2  -7  -3    5.26    0.32
  -2  -7  -3    5.20    0.39
  -2  -7  -3    5.06    0.28
  -3  -7  -3    0.26    0.11
  -3  -7  -3    0.14    0.18
  -3  -7  -3    0.28    0.09
   9  -8  -3    1.33    0.23
   8  -8  -3    3.22    0.33
   8  -8  -3    2.35    0.31
   8  -8  -3    3.44    0.35
  -8   8   3    3.87    0.29
  -8   8   3    3.14    0.39
  -8   8   3    3.97    0.32
   7  -8  -3   -0.11    0.13
   7  -8  -3    0.09    0.15
   7  -8  -3    0.30    0.15
  -7   8   3    0.23    0.11
  -7   8   3    0.19    0.16
   6  -8  -3    6.71    0.47
   6  -8  -3    6.23    0.42
   6  -8  -3    6.45    0.41
  -6   8   3    6.65    0.38
  -6   8   3    7.68    0.64
  -6   8   3    7.27    0.39
   5  -8  -3    1.11    0.16
   5  -8  -3    1.13    0.14
   5  -8  -3    1.08    0.18
  -5   8   3    0.90    0.12
  -5   8   3    1.06    0.12
   4  -8  -3   22.46    1.17
   4  -8  -3   21.81    1.15
   4  -8  -3   23.41    1.14
   3  -8  -3   21.48    1.18
   3  -8  -3   23.80    1.15
   3  -8  -3   23.76    1.15
   2  -8  -3    0.15    0.12
   2  -8  -3    0.12    0.08
   2  -8  -3    0.10    0.07
   1  -8  -3    5.06    0.28
   1  -8  -3    4.98    0.28
   1  -8  -3    4.66    0.35
   0  -8  -3    0.73    0.09
   0  -8  -3    0.78    0.14
   0  -8  -3    0.62    0.14
   0  -8  -3    0.74    0.09
  -1  -8  -3   -0.09    0.16
  -1  -8  -3    0.32    0.08
  -1  -8  -3    0.39    0.08
  -2  -8  -3    0.30    0.12
  -2  -8  -3   -0.10    0.16
   8  -9  -3    7.52    0.54
   8  -9  -3    8.50    0.56
   8  -9  -3    8.03    0.53
  -8   9   3    7.96    0.49
  -8   9   3    8.88    0.52
   7  -9  -3   -0.19    0.16
   7  -9  -3   -0.12    0.21
   7  -9  -3    0.01    0.15
   7  -9  -3   -0.18    0.15
  -7   9   3    0.09    0.11
  -7   9   3    0.10    0.11
   6  -9  -3    8.53    0.49
   6  -9  -3    7.06    0.50
   6  -9  -3    8.56    0.47
   6  -9  -3    8.07    0.48
  -6   9   3    6.54    0.51
  -6   9   3    7.61    0.42
  -6   9   3    7.65    0.42
   5  -9  -3    3.07    0.30
   5  -9  -3    2.93    0.26
   5  -9  -3    2.91    0.26
   5  -9  -3    2.47    0.32
  -5   9   3    2.90    0.34
   4  -9  -3   11.39    0.70
   4  -9  -3   12.32    0.63
   4  -9  -3   12.35    0.66
   4  -9  -3   11.27    0.63
  -4   9   3   11.99    0.69
   3  -9  -3   -0.01    0.11
   3  -9  -3   -0.18    0.16
  -3   9   3    0.20    0.16
   2  -9  -3    8.52    0.55
   2  -9  -3    9.25    0.48
   2  -9  -3    8.76    0.48
   1  -9  -3   10.56    0.61
   1  -9  -3   10.31    0.60
   1  -9  -3   10.22    0.54
   1  -9  -3   10.36    0.55
   0  -9  -3    3.60    0.36
   0  -9  -3    3.38    0.33
   0  -9  -3    3.02    0.22
   0  -9  -3    3.06    0.24
   6 -10  -3    9.70    0.55
   6 -10  -3    8.67    0.57
   6 -10  -3    8.55    0.54
   6 -10  -3    9.00    0.58
   5 -10  -3    0.25    0.14
   5 -10  -3    0.54    0.19
   5 -10  -3    0.32    0.21
   5 -10  -3    0.37    0.17
   4 -10  -3    5.23    0.34
   4 -10  -3    4.81    0.40
   4 -10  -3    4.79    0.35
   4 -10  -3    4.70    0.42
   3 -10  -3    0.13    0.16
   3 -10  -3    0.04    0.12
   3 -10  -3   -0.04    0.12
   2 -10  -3    1.00    0.19
   2 -10  -3    0.83    0.16
   0  11  -4    2.72    0.35
   0 -11   4    2.83    0.33
   0 -11   4    3.00    0.36
   0 -11   4    2.53    0.30
  -1  11  -4    8.59    0.48
  -1  11  -4    9.14    0.49
  -1  11  -4    7.96    0.56
   1 -11   4    8.17    0.55
   1 -11   4    8.89    0.52
   1 -11   4    8.79    0.54
  -2  11  -4    0.22    0.12
   2 -11   4    0.24    0.18
   2 -11   4    0.19    0.15
   2 -11   4    0.08    0.16
  -3  11  -4    0.43    0.15
   3 -11   4    0.66    0.20
   3 -11   4    0.74    0.18
  -4  11  -4    4.36    0.33
  -4  11  -4    3.97    0.36
   4 -11   4    3.55    0.38
   4 -11   4    3.91    0.36
  -2 -10   4    0.21    0.16
  -2 -10   4   -0.16    0.17
  -2 -10   4    0.27    0.15
   1  10  -4    3.76    0.24
   1  10  -4    3.81    0.23
  -1 -10   4    3.97    0.36
  -1 -10   4    3.51    0.34
  -1 -10   4    4.18    0.32
   0  10  -4    7.18    0.47
   0  10  -4    7.05    0.39
   0  10  -4    6.90    0.39
   0 -10   4    7.36    0.44
   0 -10   4    7.02    0.47
   0 -10   4    6.72    0.45
  -1  10  -4    0.31    0.16
  -1  10  -4    0.29    0.14
  -1  10  -4   -0.01    0.10
   1 -10   4    0.30    0.18
   1 -10   4   -0.13    0.14
   1 -10   4    0.09    0.14
  -2  10  -4   19.69    0.94
  -2  10  -4   18.37    0.98
  -2  10  -4   18.76    0.94
   2 -10   4   17.96    0.97
   2 -10   4   16.59    0.99
   2 -10   4   18.48    0.96
  -3  10  -4    5.44    0.42
  -3  10  -4    5.30    0.35
   3 -10   4    5.19    0.38
   3 -10   4    4.93    0.40
   3 -10   4    5.17    0.41
   3 -10   4    4.60    0.37
  -4  10  -4    2.13    0.26
  -4  10  -4    1.73    0.25
  -4  10  -4    2.04    0.20
   4 -10   4    2.55    0.31
   4 -10   4    1.96    0.21
   4 -10   4    2.16    0.27
   4 -10   4    1.51    0.23
  -5  10  -4    2.63    0.33
  -5  10  -4    2.69    0.29
   5 -10   4    2.79    0.35
   5 -10   4    2.45    0.30
  -6  10  -4    0.81    0.18
   6 -10   4    0.67    0.21
   6 -10   4    0.64    0.20
   3   9  -4    6.60    0.41
  -3  -9   4    6.74    0.48
  -3  -9   4    6.81    0.43
  -3  -9   4    6.48    0.44
   2   9  -4    4.51    0.33
   2   9  -4    4.20    0.25
  -2  -9   4    4.30    0.32
  -2  -9   4    4.37    0.33
   1   9  -4    3.06    0.28
   1   9  -4    2.46    0.20
  -1  -9   4    2.47    0.25
  -1  -9   4    2.27    0.25
  -1  -9   4    2.46    0.28
   0   9  -4    2.82    0.21
   0  -9   4    2.69    0.26
   0  -9   4    3.03    0.29
   0  -9   4    2.97    0.25
  -1   9  -4    1.93    0.20
   1  -9   4    2.69    0.24
   1  -9   4    2.23    0.26
   1  -9   4    2.17    0.23
  -2   9  -4    0.07    0.10
  -2   9  -4    0.01    0.09
   2  -9   4   -0.22    0.12
   2  -9   4    0.07    0.13
   2  -9   4   -0.05    0.11
  -3   9  -4    0.26    0.17
  -3   9  -4   -0.03    0.12
  -3   9  -4   -0.02    0.11
   3  -9   4    0.06    0.12
   3  -9   4    0.05    0.14
   3  -9   4    0.11    0.13
  -4   9  -4    3.99    0.30
   4  -9   4    3.69    0.32
   4  -9   4    3.61    0.36
   4  -9   4    3.59    0.32
  -5   9  -4    9.07    0.50
  -5   9  -4    7.97    0.51
  -5   9  -4    9.63    0.55
   5  -9   4    7.18    0.52
   5  -9   4    9.35    0.52
   5  -9   4    8.28    0.54
   5  -9   4    7.45    0.51
  -6   9  -4    0.06    0.16
  -6   9  -4   -0.05    0.19
  -6   9  -4   -0.08    0.14
   6  -9   4    0.24    0.17
   6  -9   4    0.03    0.18
  -7   9  -4    3.55    0.35
   7  -9   4    2.62    0.34
   7  -9   4    3.09    0.37
  -5  -8   4    2.55    0.33
  -5  -8   4    3.26    0.33
  -5  -8   4    3.56    0.33
   4   8  -4    0.57    0.12
  -4  -8   4    0.62    0.20
  -4  -8   4    0.82    0.16
  -4  -8   4    0.67    0.15
   3   8  -4    2.64    0.19
   3   8  -4    3.08    0.26
   3   8  -4    2.94    0.19
  -3  -8   4    2.69    0.32
  -3  -8   4    2.84    0.26
  -3  -8   4    2.86    0.26
   2   8  -4    7.69    0.47
   2   8  -4    8.06    0.43
   2   8  -4    8.00    0.43
  -2  -8   4    8.06    0.46
  -2  -8   4    8.25    0.47
  -2  -8   4    8.13    0.46
   1   8  -4    8.86    0.49
   1   8  -4    9.08    0.49
   1   8  -4    9.38    0.52
  -1  -8   4    9.11    0.52
  -1  -8   4    9.59    0.52
  -1  -8   4   10.23    0.53
   0   8  -4    4.84    0.29
   0   8  -4    4.61    0.30
   0   8  -4    4.70    0.33
   0  -8   4    5.74    0.34
   0  -8   4    5.47    0.32
   0  -8   4    4.28    0.31
  -1   8  -4    6.47    0.43
  -1   8  -4    7.06    0.40
  -1   8  -4    7.19    0.39
   1  -8   4    7.23    0.43
   1  -8   4    6.73    0.41
   1  -8   4    7.09    0.41
  -2   8  -4   21.81    1.02
  -2   8  -4   19.94    1.05
   2  -8   4   19.13    1.04
   2  -8   4   20.48    1.03
   2  -8   4   19.71    1.03
  -3   8  -4   13.41    0.68
  -3   8  -4   13.63    0.68
   3  -8   4   12.80    0.71
   3  -8   4   12.56    0.69
   3  -8   4   12.29    0.69
  -4   8  -4   18.81    1.02
   4  -8   4   20.19    1.02
   4  -8   4   20.50    1.04
  -5   8  -4    4.57    0.33
  -5   8  -4    4.02    0.34
  -5   8  -4    4.37    0.31
   5  -8   4    3.68    0.33
   5  -8   4    3.89    0.35
  -6   8  -4    0.58    0.16
  -6   8  -4    0.60    0.16
  -6   8  -4    0.95    0.19
   6  -8   4    0.70    0.20
   6  -8   4    0.90    0.20
   6  -8   4    0.54    0.16
   6  -8   4    0.67    0.15
  -7   8  -4    1.50    0.23
  -7   8  -4    1.30    0.22
   7  -8   4    1.54    0.22
   7  -8   4    1.41    0.19
  -6  -7   4   15.45    0.86
  -6  -7   4   16.44    0.86
   5   7  -4    1.27    0.13
   5   7  -4    1.38    0.14
   5   7  -4    1.54    0.14
  -5  -7   4    1.32    0.18
  -5  -7   4    1.85    0.24
  -5  -7   4    1.29    0.21
   4   7  -4   12.84    0.67
   4   7  -4   13.28    0.68
   4   7  -4   13.69    0.67
  -4  -7   4   13.33    0.70
  -4  -7   4   13.11    0.70
  -4  -7   4   12.90    0.74
   3   7  -4    9.78    0.52
   3   7  -4   10.21    0.52
   3   7  -4   10.10    0.54
  -3  -7   4    9.91    0.55
  -3  -7   4    9.60    0.55
  -3  -7   4   10.44    0.57
   2   7  -4    1.12    0.15
   2   7  -4    1.70    0.19
   2   7  -4    1.21    0.15
  -2  -7   4    1.30    0.14
  -2  -7   4    0.99    0.12
   1   7  -4    5.94    0.35
   1   7  -4    5.66    0.32
   1   7  -4    5.46    0.32
  -1  -7   4    5.61    0.36
  -1  -7   4    6.25    0.35
   0   7  -4    0.55    0.09
   0   7  -4    0.42    0.11
   0   7  -4    0.49    0.09
   0  -7   4    0.51    0.11
   0  -7   4    0.63    0.11
  -1   7  -4    8.81    0.50
  -1   7  -4    9.50    0.50
  -1   7  -4    8.71    0.53
   1  -7   4   10.26    0.51
   1  -7   4   10.37    0.52
   1  -7   4    8.98    0.51
  -2   7  -4    0.14    0.09
  -2   7  -4    0.13    0.09
  -2   7  -4    0.14    0.12
   2  -7   4   -0.06    0.08
   2  -7   4   -0.03    0.09
   2  -7   4    0.16    0.11
   2  -7   4    0.18    0.10
  -3   7  -4    0.89    0.12
   3  -7   4    1.32    0.16
   3  -7   4    0.49    0.12
  -4   7  -4   37.56    1.83
  -4   7  -4   36.70    1.84
  -4   7  -4   38.74    1.83
   4  -7   4   36.82    1.84
   4  -7   4   35.33    1.83
   4  -7   4   35.92    1.84
  -5   7  -4   35.64    1.80
  -5   7  -4   37.68    1.81
   5  -7   4   35.64    1.80
   5  -7   4   35.45    1.81
  -6   7  -4    1.09    0.17
  -6   7  -4    1.63    0.21
  -6   7  -4    1.45    0.27
   6  -7   4    1.61    0.19
   6  -7   4    1.22    0.19
   6  -7   4    1.21    0.17
   6  -7   4    1.32    0.19
  -7   7  -4    5.29    0.39
  -7   7  -4    4.06    0.39
  -7   7  -4    5.40    0.40
   7  -7   4    5.71    0.38
   7  -7   4    4.82    0.40
   7  -7   4    4.21    0.41
   7  -7   4    5.59    0.38
  -8   7  -4    4.80    0.43
   8  -7   4    5.64    0.42
   8  -7   4    5.08    0.41
   6   6  -4    2.61    0.19
   6   6  -4    2.67    0.21
  -6  -6   4    2.81    0.28
  -6  -6   4    2.35    0.30
  -6  -6   4    2.68    0.34
   5   6  -4   12.86    0.63
   5   6  -4   12.09    0.63
   5   6  -4   12.77    0.63
  -5  -6   4   11.80    0.70
  -5  -6   4   11.78    0.66
  -5  -6   4   12.78    0.67
   4   6  -4   29.44    1.45
   4   6  -4   28.68    1.45
   4   6  -4   28.87    1.45
  -4  -6   4   30.25    1.47
  -4  -6   4   29.24    1.49
  -4  -6   4   29.90    1.47
   3   6  -4    3.47    0.23
   3   6  -4    3.87    0.23
   3   6  -4    3.88    0.25
  -3  -6   4    3.78    0.27
  -3  -6   4    3.65    0.29
   2   6  -4    8.99    0.47
   2   6  -4    9.21    0.48
   2   6  -4    9.01    0.47
  -2  -6   4    8.91    0.48
  -2  -6   4    8.33    0.48
   1   6  -4    8.92    0.48
   1   6  -4    8.83    0.48
   1   6  -4    9.20    0.49
  -1  -6   4    9.85    0.49
  -1  -6   4    8.76    0.48
  -1  -6   4    8.97    0.48
   0   6  -4    0.95    0.12
   0   6  -4    0.82    0.09
   0   6  -4    0.93    0.10
   0  -6   4    0.78    0.11
   0  -6   4    0.80    0.10
   0  -6   4    0.85    0.10
  -1   6  -4   20.49    1.03
  -1   6  -4   20.94    1.03
  -1   6  -4   20.90    1.05
   1  -6   4   21.34    1.04
   1  -6   4   22.62    1.04
   1  -6   4   17.67    1.04
  -2   6  -4    1.11    0.15
  -2   6  -4    0.91    0.11
  -2   6  -4    0.71    0.12
   2  -6   4    1.32    0.17
   2  -6   4    0.84    0.10
   2  -6   4    1.09    0.14
   2  -6   4    0.91    0.12
  -3   6  -4   10.05    0.51
  -3   6  -4    9.03    0.49
  -3   6  -4    7.83    0.48
   3  -6   4    8.69    0.49
   3  -6   4    9.91    0.49
   3  -6   4    9.72    0.50
   3  -6   4    7.86    0.50
  -4   6  -4    0.69    0.13
   4  -6   4    0.59    0.12
   4  -6   4    0.96    0.11
   4  -6   4    0.67    0.12
   4  -6   4    0.53    0.13
  -5   6  -4   50.63    2.38
  -5   6  -4   46.92    2.37
   5  -6   4   45.12    2.37
   5  -6   4   47.08    2.38
   5  -6   4   50.56    2.37
  -6   6  -4   30.69    1.54
  -6   6  -4   32.23    1.54
   6  -6   4   31.32    1.53
   6  -6   4   27.93    1.53
   6  -6   4   30.02    1.54
  -7   6  -4    0.93    0.17
  -7   6  -4    0.61    0.18
  -7   6  -4    0.94    0.19
  -7   6  -4    0.84    0.18
   7  -6   4    0.74    0.16
   7  -6   4    0.79    0.16
   7  -6   4    0.68    0.18
   7  -6   4    1.00    0.16
  -8   6  -4    1.32    0.20
  -8   6  -4    1.03    0.20
  -8   6  -4    1.02    0.23
   8  -6   4    1.50    0.20
   8  -6   4    1.16    0.20
   7   5  -4    1.07    0.12
   7   5  -4    1.14    0.14
  -7  -5   4    1.16    0.18
  -7  -5   4    1.07    0.23
  -7  -5   4    0.98    0.18
   6   5  -4    2.41    0.20
   6   5  -4    2.85    0.20
  -6  -5   4    2.31    0.27
  -6  -5   4    2.39    0.25
  -6  -5   4    2.43    0.33
   5   5  -4    0.52    0.07
   5   5  -4    0.67    0.10
   5   5  -4    0.68    0.09
  -5  -5   4    0.58    0.12
  -5  -5   4    0.50    0.11
  -5  -5   4    0.33    0.13
   4   5  -4    8.16    0.43
   4   5  -4    8.00    0.43
   4   5  -4    7.99    0.43
  -4  -5   4    8.52    0.47
  -4  -5   4    8.01    0.45
   3   5  -4    4.48    0.25
   3   5  -4    4.08    0.25
   3   5  -4    4.15    0.25
  -3  -5   4    4.24    0.27
  -3  -5   4    4.16    0.28
  -3  -5   4    4.32    0.27
   2   5  -4   48.13    2.36
   2   5  -4   46.77    2.36
   2   5  -4   49.68    2.36
  -2  -5   4   47.41    2.36
  -2  -5   4   49.05    2.36
   1   5  -4    0.84    0.10
   1   5  -4    0.69    0.09
   1   5  -4    0.69    0.09
  -1  -5   4    0.56    0.08
  -1  -5   4    0.86    0.10
  -1  -5   4    0.87    0.10
   0   5  -4   30.70    1.51
   0   5  -4   31.20    1.52
   0   5  -4   31.72    1.51
   0  -5   4   29.60    1.51
   0  -5   4   28.40    1.52
   0  -5   4   32.41    1.51
  -1   5  -4   12.49    0.67
  -1   5  -4   13.01    0.68
  -1   5  -4   12.88    0.67
   1  -5   4   15.07    0.68
   1  -5   4   12.59    0.67
   1  -5   4   12.51    0.66
  -2   5  -4    3.56    0.25
  -2   5  -4    3.92    0.24
  -2   5  -4    3.76    0.24
   2  -5   4    3.99    0.24
   2  -5   4    3.83    0.26
   2  -5   4    3.70    0.24
   2  -5   4    3.85    0.25
  -3   5  -4   15.97    0.82
  -3   5  -4   16.67    0.83
  -3   5  -4   15.43    0.82
   3  -5   4   15.74    0.83
   3  -5   4   16.18    0.82
   3  -5   4   16.34    0.82
   3  -5   4   16.74    0.83
  -4   5  -4    0.17    0.10
   4  -5   4    0.28    0.13
   4  -5   4    0.38    0.11
   4  -5   4    0.24    0.12
   4  -5   4    0.38    0.10
  -5   5  -4   14.23    0.76
  -5   5  -4   13.56    0.76
  -5   5  -4   14.64    0.76
   5  -5   4   14.30    0.76
   5  -5   4   15.06    0.76
   5  -5   4   15.45    0.75
   5  -5   4   13.48    0.75
  -6   5  -4   28.20    1.49
  -6   5  -4   31.93    1.48
  -6   5  -4   27.45    1.47
  -6   5  -4   29.93    1.48
   6  -5   4   27.86    1.47
   6  -5   4   30.66    1.47
  -7   5  -4    1.24    0.20
  -7   5  -4    1.52    0.18
  -7   5  -4    1.57    0.19
  -7   5  -4    1.48    0.20
   7  -5   4    1.52    0.19
   7  -5   4    1.45    0.18
   7  -5   4    1.50    0.21
  -8   5  -4    4.92    0.43
  -8   5  -4    5.45    0.40
  -8   5  -4    6.16    0.45
   8  -5   4    6.26    0.44
   8  -5   4    6.05    0.41
   8   4  -4    0.28    0.12
  -8  -4   4    0.17    0.16
  -8  -4   4    0.36    0.21
  -8  -4   4    0.21    0.16
   7   4  -4    0.84    0.16
   7   4  -4    1.10    0.12
  -7  -4   4    0.68    0.16
  -7  -4   4    0.75    0.16
  -7  -4   4    0.94    0.20
   6   4  -4    7.03    0.36
   6   4  -4    7.42    0.36
   6   4  -4    7.20    0.41
  -6  -4   4    7.18    0.46
  -6  -4   4    7.45    0.43
  -6  -4   4    7.58    0.43
   5   4  -4    0.19    0.08
   5   4  -4    0.09    0.06
   5   4  -4   -0.02    0.07
  -5  -4   4    0.03    0.09
  -5  -4   4    0.13    0.12
  -5  -4   4    0.11    0.09
   4   4  -4    0.10    0.06
   4   4  -4    0.22    0.07
   4   4  -4    0.27    0.08
  -4  -4   4    0.12    0.09
  -4  -4   4    0.11    0.09
  -4  -4   4    0.10    0.08
   3   4  -4    3.89    0.23
   3   4  -4    3.72    0.23
   3   4  -4    3.80    0.23
  -3  -4   4    3.62    0.24
  -3  -4   4    3.92    0.24
  -3  -4   4    3.92    0.24
   2   4  -4    4.48    0.25
   2   4  -4    4.30    0.25
   2   4  -4    4.38    0.25
  -2  -4   4    4.08    0.26
  -2  -4   4    4.31    0.25
   1   4  -4  172.53    8.01
   1   4  -4  160.82    8.02
   1   4  -4  160.15    8.01
  -1  -4   4  162.38    8.01
  -1  -4   4  169.68    8.01
   0   4  -4  102.78    4.81
   0   4  -4   96.74    4.81
   0   4  -4  100.67    4.81
   0  -4   4  104.04    4.81
   0  -4   4   97.62    4.81
   0  -4   4   91.25    4.80
  -1   4  -4    0.54    0.09
  -1   4  -4    0.76    0.10
  -1   4  -4    0.81    0.09
   1  -4   4    0.68    0.09
   1  -4   4    0.61    0.10
   1  -4   4    0.59    0.08
   1  -4   4    0.59    0.09
  -2   4  -4   20.20    1.00
  -2   4  -4   21.89    1.01
  -2   4  -4   20.06    1.00
   2  -4   4   21.40    1.00
   2  -4   4   18.85    0.99
   2  -4   4   18.42    1.00
   2  -4   4   19.08    1.00
  -3   4  -4    3.98    0.25
  -3   4  -4    4.13    0.25
  -3   4  -4    4.11    0.26
   3  -4   4    3.95    0.25
   3  -4   4    4.20    0.26
   3  -4   4    4.20    0.25
   3  -4   4    4.26    0.26
  -4   4  -4   24.77    1.26
  -4   4  -4   25.13    1.27
   4  -4   4   26.98    1.26
   4  -4   4   26.59    1.27
   4  -4   4   22.09    1.26
   4  -4   4   25.80    1.26
  -5   4  -4    7.65    0.40
  -5   4  -4    6.54    0.40
  -5   4  -4    6.75    0.41
  -5   4  -4    7.24    0.40
   5  -4   4    6.81    0.41
   5  -4   4    6.39    0.40
   5  -4   4    6.67    0.40
   5  -4   4    6.98    0.39
  -6   4  -4   11.79    0.66
  -6   4  -4   13.09    0.66
  -6   4  -4   11.99    0.65
  -6   4  -4   11.92    0.68
   6  -4   4   12.07    0.65
   6  -4   4   12.30    0.64
  -7   4  -4   10.25    0.57
  -7   4  -4   10.16    0.58
  -7   4  -4    9.83    0.59
  -7   4  -4    9.48    0.61
   7  -4   4    9.94    0.60
   7  -4   4   10.37    0.56
  -8   4  -4    0.07    0.16
  -8   4  -4   -0.22    0.19
  -8   4  -4   -0.05    0.13
   8  -4   4   -0.01    0.15
   8  -4   4    0.08    0.15
   8   3  -4    1.11    0.15
  -8  -3   4    1.33    0.20
  -8  -3   4    1.50    0.20
  -8  -3   4    1.40    0.20
   7   3  -4    0.45    0.11
  -7  -3   4    0.36    0.17
  -7  -3   4    0.33    0.13
  -7  -3   4    0.32    0.13
   6   3  -4    0.03    0.04
   6   3  -4    0.06    0.05
   6   3  -4    0.11    0.10
   6   3  -4   -0.02    0.08
  -6  -3   4   -0.03    0.10
  -6  -3   4    0.10    0.11
  -6  -3   4    0.11    0.13
   5   3  -4   24.05    1.18
   5   3  -4   24.38    1.16
   5   3  -4   22.64    1.17
  -5  -3   4   24.89    1.19
  -5  -3   4   22.22    1.18
  -5  -3   4   23.55    1.18
   4   3  -4   18.06    0.91
   4   3  -4   18.64    0.91
   4   3  -4   18.90    0.92
  -4  -3   4   18.23    0.92
  -4  -3   4   18.11    0.93
  -4  -3   4   17.94    0.92
   3   3  -4    3.60    0.21
   3   3  -4    3.49    0.22
   3   3  -4    3.53    0.21
  -3  -3   4    3.38    0.22
  -3  -3   4    3.62    0.22
  -3  -3   4    3.47    0.22
   2   3  -4   61.71    3.13
   2   3  -4   67.86    3.13
   2   3  -4   63.39    3.13
  -2  -3   4   66.42    3.13
  -2  -3   4   61.81    3.13
   1   3  -4    1.44    0.14
   1   3  -4    1.16    0.13
   1   3  -4    1.37    0.14
  -1  -3   4    1.33    0.13
  -1  -3   4    1.23    0.13
   0   3  -4    1.49    0.13
   0   3  -4    1.34    0.14
   0   3  -4    1.37    0.15
   0  -3   4    1.50    0.13
   0  -3   4    1.15    0.13
  -1   3  -4    0.41    0.08
  -1   3  -4    0.37    0.09
  -1   3  -4    0.27    0.07
   1  -3   4    0.40    0.08
   1  -3   4    0.49    0.08
   1  -3   4    0.40    0.07
  -2   3  -4   37.99    1.86
  -2   3  -4   36.76    1.85
  -2   3  -4   35.35    1.86
  -2   3  -4   38.90    1.86
   2  -3   4   38.31    1.86
   2  -3   4   38.01    1.85
   2  -3   4   39.43    1.85
  -3   3  -4   14.95    0.77
  -3   3  -4   14.98    0.77
  -3   3  -4   15.77    0.77
  -3   3  -4   14.78    0.76
   3  -3   4   14.57    0.76
   3  -3   4   15.37    0.76
   3  -3   4   15.62    0.77
  -4   3  -4    5.63    0.31
  -4   3  -4    5.16    0.33
  -4   3  -4    4.98    0.32
  -4   3  -4    5.46    0.32
   4  -3   4    5.61    0.31
   4  -3   4    5.64    0.31
   4  -3   4    5.51    0.33
  -5   3  -4    0.43    0.10
  -5   3  -4    0.56    0.10
  -5   3  -4    0.42    0.11
   5  -3   4    0.46    0.10
   5  -3   4    0.49    0.09
   5  -3   4    0.47    0.12
  -6   3  -4    3.67    0.30
  -6   3  -4    3.75    0.28
  -6   3  -4    3.13    0.27
  -6   3  -4    3.25    0.25
   6  -3   4    3.19    0.26
   6  -3   4    3.50    0.24
  -7   3  -4    1.09    0.17
  -7   3  -4    0.93    0.17
  -7   3  -4    1.16    0.22
  -7   3  -4    0.67    0.12
   7  -3   4    0.94    0.19
   7  -3   4    0.82    0.14
  -8   3  -4   15.29    0.84
  -8   3  -4   15.35    0.80
  -8   3  -4   14.99    0.86
   8  -3   4   15.36    0.80
   8  -3   4   15.51    0.81
   9   2  -4    1.55    0.20
   9   2  -4    2.18    0.29
  -9  -2   4    1.76    0.22
  -9  -2   4    1.48    0.25
   8   2  -4   10.90    0.64
   8   2  -4   11.09    0.59
   8   2  -4    9.59    0.59
  -8  -2   4   10.83    0.65
  -8  -2   4   10.97    0.63
  -8  -2   4   11.88    0.62
   7   2  -4    1.47    0.19
   7   2  -4    1.83    0.19
   7   2  -4    1.53    0.12
   7   2  -4    1.56    0.10
   7   2  -4    1.35    0.18
  -7  -2   4    1.42    0.16
  -7  -2   4    1.14    0.16
  -7  -2   4    1.85    0.19
   6   2  -4   16.66    0.81
   6   2  -4   16.49    0.82
   6   2  -4   15.76    0.79
   6   2  -4   15.02    0.81
  -6  -2   4   16.83    0.82
  -6  -2   4   15.28    0.82
  -6  -2   4   14.98    0.81
   5   2  -4    1.24    0.14
   5   2  -4    1.19    0.15
  -5  -2   4    1.17    0.15
  -5  -2   4    1.22    0.15
  -5  -2   4    1.01    0.12
   4   2  -4    4.51    0.26
   4   2  -4    4.54    0.26
  -4  -2   4    4.52    0.26
  -4  -2   4    4.52    0.27
  -4  -2   4    4.49    0.26
   3   2  -4   82.51    3.99
   3   2  -4   83.88    3.99
  -3  -2   4   82.69    3.99
  -3  -2   4   80.80    3.99
  -3  -2   4   79.90    3.99
   2   2  -4   77.07    3.89
   2   2  -4   80.05    3.89
  -2  -2   4   82.05    3.89
  -2  -2   4   80.92    3.89
   1   2  -4   22.60    1.12
   1   2  -4   21.73    1.12
  -1  -2   4   23.98    1.12
  -1  -2   4   22.40    1.12
   0   2  -4    1.40    0.13
   0   2  -4    1.43    0.11
   0   2  -4    1.33    0.12
   0  -2   4    1.27    0.11
   0  -2   4    1.29    0.11
   0  -2   4    1.39    0.11
  -1   2  -4    1.51    0.13
  -1   2  -4    1.37    0.14
  -1   2  -4    1.52    0.13
   1  -2   4    1.39    0.12
   1  -2   4    1.57    0.13
   1  -2   4    1.33    0.12
  -2   2  -4   32.47    1.54
  -2   2  -4   33.21    1.54
  -2   2  -4   31.66    1.54
  -2   2  -4   30.91    1.54
   2  -2   4   29.82    1.53
   2  -2   4   31.69    1.53
   2  -2   4   29.27    1.54
  -3   2  -4   27.69    1.43
  -3   2  -4   28.61    1.43
  -3   2  -4   30.43    1.43
  -3   2  -4   29.18    1.43
   3  -2   4   27.77    1.42
   3  -2   4   29.56    1.43
   3  -2   4   29.44    1.42
  -4   2  -4   11.20    0.59
  -4   2  -4   11.46    0.58
  -4   2  -4   11.33    0.60
   4  -2   4   11.63    0.60
   4  -2   4   11.00    0.58
   4  -2   4   11.28    0.58
  -5   2  -4    0.70    0.10
  -5   2  -4    0.61    0.12
   5  -2   4    0.67    0.12
   5  -2   4    0.43    0.09
   5  -2   4    0.56    0.09
  -6   2  -4    0.98    0.14
  -6   2  -4    0.86    0.17
  -6   2  -4    0.75    0.11
  -6   2  -4    0.86    0.14
   6  -2   4    0.83    0.11
   6  -2   4    0.86    0.10
  -7   2  -4    0.39    0.16
  -7   2  -4    0.33    0.17
  -7   2  -4    0.42    0.10
  -7   2  -4    0.43    0.15
   7  -2   4    0.47    0.10
   7  -2   4    0.45    0.11
   7  -2   4    0.23    0.16
  -8   2  -4    2.40    0.31
  -8   2  -4    2.73    0.37
   9   1  -4   -0.19    0.25
   9   1  -4   -0.33    0.13
   9   1  -4   -0.07    0.14
  -9  -1   4   -0.12    0.17
  -9  -1   4    0.02    0.18
  -9  -1   4    0.21    0.16
   8   1  -4    0.83    0.18
   8   1  -4    1.04    0.15
   8   1  -4    0.94    0.10
  -8  -1   4    1.37    0.18
  -8  -1   4    0.99    0.17
  -8  -1   4    0.78    0.19
   7   1  -4    0.25    0.06
   7   1  -4    0.07    0.09
   7   1  -4    0.18    0.10
   7   1  -4    0.15    0.12
  -7  -1   4    0.17    0.14
  -7  -1   4    0.20    0.13
  -7  -1   4    0.15    0.12
   6   1  -4    2.95    0.22
   6   1  -4    3.05    0.23
   6   1  -4    2.89    0.22
   6   1  -4    2.67    0.18
  -6  -1   4    2.79    0.24
  -6  -1   4    3.53    0.22
  -6  -1   4    2.79    0.23
   5   1  -4    0.38    0.08
   5   1  -4    0.31    0.09
   5   1  -4    0.19    0.07
  -5  -1   4    0.41    0.09
  -5  -1   4    0.27    0.08
  -5  -1   4    0.33    0.08
   4   1  -4    5.90    0.32
   4   1  -4    5.75    0.32
   4   1  -4    5.79    0.31
  -4  -1   4    5.83    0.31
  -4  -1   4    5.35    0.32
  -4  -1   4    5.34    0.31
   3   1  -4   69.41    3.42
   3   1  -4   67.75    3.42
  -3  -1   4   77.22    3.42
  -3  -1   4   71.83    3.42
  -3  -1   4   64.62    3.41
   2   1  -4   13.58    0.68
   2   1  -4   13.37    0.68
  -2  -1   4   13.58    0.68
  -2  -1   4   13.24    0.68
  -2  -1   4   14.75    0.68
   1   1  -4  117.51    5.83
   1   1  -4  126.95    5.83
  -1  -1   4  115.76    5.82
  -1  -1   4  120.07    5.82
   0   1  -4  126.74    5.71
   0   1  -4  112.77    5.71
   0  -1   4  118.48    5.71
   0  -1   4  112.14    5.71
   0  -1   4  118.49    5.71
  -1   1  -4   44.97    2.27
  -1   1  -4   47.35    2.27
  -1   1  -4   45.57    2.27
   1  -1   4   48.11    2.27
   1  -1   4   45.99    2.27
   1  -1   4   47.32    2.27
  -2   1  -4   21.76    1.10
  -2   1  -4   23.04    1.09
  -2   1  -4   21.39    1.10
  -2   1  -4   21.83    1.09
   2  -1   4   22.17    1.10
   2  -1   4   22.43    1.09
   2  -1   4   22.37    1.09
  -3   1  -4   14.85    0.76
  -3   1  -4   14.95    0.77
  -3   1  -4   15.36    0.77
  -3   1  -4   15.54    0.77
   3  -1   4   15.47    0.76
   3  -1   4   15.17    0.78
   3  -1   4   15.63    0.76
  -4   1  -4    2.01    0.19
  -4   1  -4    2.01    0.16
  -4   1  -4    1.81    0.15
   4  -1   4    1.84    0.13
   4  -1   4    1.72    0.13
   4  -1   4    1.83    0.19
  -5   1  -4    5.66    0.31
  -5   1  -4    5.88    0.34
  -5   1  -4    4.88    0.29
  -5   1  -4    4.76    0.31
   5  -1   4    4.86    0.33
   5  -1   4    4.91    0.28
   5  -1   4    4.81    0.28
  -6   1  -4    0.09    0.11
  -6   1  -4    0.22    0.12
  -6   1  -4   -0.02    0.15
  -6   1  -4    0.17    0.08
   6  -1   4    0.14    0.07
   6  -1   4    0.19    0.07
  -7   1  -4    0.57    0.08
  -7   1  -4    1.10    0.20
  -7   1  -4    0.66    0.16
  -7   1  -4    0.52    0.14
   7  -1   4    0.52    0.08
   7  -1   4    0.60    0.19
   7  -1   4    0.65    0.09
   9   0  -4   10.89    0.62
   9   0  -4   10.79    0.59
   9   0  -4   10.61    0.60
   9   0  -4   10.06    0.54
  -9   0   4    9.94    0.61
  -9   0   4   10.25    0.60
  -9   0   4   10.62    0.61
   8   0  -4    4.52    0.32
   8   0  -4    4.93    0.35
   8   0  -4    4.68    0.27
  -8   0   4    4.36    0.34
  -8   0   4    4.40    0.33
  -8   0   4    4.44    0.33
   7   0  -4    5.21    0.33
   7   0  -4    5.18    0.33
   7   0  -4    5.41    0.30
   7   0  -4    5.39    0.35
  -7   0   4    4.97    0.34
  -7   0   4    5.89    0.34
   6   0  -4    2.71    0.21
   6   0  -4    2.53    0.20
   6   0  -4    2.47    0.20
   6   0  -4    2.43    0.18
  -6   0   4    2.60    0.22
  -6   0   4    2.61    0.21
   5   0  -4    1.67    0.15
   5   0  -4    1.58    0.14
   5   0  -4    1.60    0.16
   5   0  -4    1.58    0.15
  -5   0   4    1.60    0.16
  -5   0   4    1.66    0.15
  -5   0   4    1.64    0.15
   4   0  -4  189.13    9.00
   4   0  -4  186.06    9.00
   4   0  -4  173.61    9.00
  -4   0   4  186.49    9.00
  -4   0   4  197.76    9.00
  -4   0   4  180.40    9.00
   3   0  -4   12.64    0.69
   3   0  -4   13.89    0.69
   3   0  -4   15.08    0.68
  -3   0   4   14.25    0.69
  -3   0   4   14.07    0.68
  -3   0   4   12.64    0.69
   2   0  -4    1.93    0.14
   2   0  -4    1.98    0.14
  -2   0   4    2.22    0.12
  -2   0   4    2.48    0.14
  -2   0   4    2.26    0.14
   1   0  -4   97.35    4.68
   1   0  -4   92.29    4.68
  -1   0   4   99.18    4.68
  -1   0   4   96.78    4.68
   0   0  -4   16.57    0.82
   0   0  -4   16.49    0.82
   0   0  -4   16.15    0.82
   0   0   4   16.57    0.81
   0   0   4   17.14    0.82
   0   0   4   17.14    0.82
  -1   0  -4    2.11    0.13
  -1   0  -4    1.91    0.14
  -1   0  -4    2.08    0.13
   1   0   4    2.15    0.11
   1   0   4    2.17    0.14
  -2   0  -4    8.82    0.44
  -2   0  -4    8.82    0.44
  -2   0  -4    8.20    0.45
   2   0   4    8.78    0.45
  -3   0  -4    5.53    0.30
  -3   0  -4    6.02    0.32
  -3   0  -4    5.88    0.31
  -3   0  -4    5.36    0.30
   3   0   4    5.56    0.32
  -4   0  -4    2.24    0.15
  -4   0  -4    2.05    0.17
  -4   0  -4    2.09    0.20
  -4   0  -4    1.94    0.17
   4   0   4    2.09    0.21
  -5   0  -4    9.42    0.49
  -5   0  -4    9.52    0.54
  -5   0  -4    9.47    0.51
  -5   0  -4    9.19    0.51
   5   0   4   10.19    0.54
  -6   0  -4    1.97    0.23
  -6   0  -4    1.67    0.22
  -6   0  -4    2.06    0.22
  -6   0  -4    2.02    0.14
   6   0   4    2.35    0.27
  -7   0  -4    1.74    0.21
  -7   0  -4    1.38    0.18
  -7   0  -4    1.35    0.21
   7   0   4    0.57    0.25
  10  -1  -4    5.37    0.38
 -10   1   4    4.27    0.37
 -10   1   4    4.65    0.43
   9  -1  -4   -0.01    0.16
   9  -1  -4   -0.02    0.13
   9  -1  -4   -0.15    0.10
   9  -1  -4   -0.02    0.17
  -9   1   4   -0.12    0.20
  -9   1   4   -0.12    0.14
  -9   1   4    0.16    0.15
   8  -1  -4   14.72    0.80
   8  -1  -4   15.42    0.78
   8  -1  -4   16.61    0.82
  -8   1   4   15.18    0.81
  -8   1   4   14.40    0.81
   7  -1  -4    0.73    0.12
   7  -1  -4    0.73    0.10
   7  -1  -4    0.82    0.14
  -7   1   4    0.56    0.12
   6  -1  -4   24.41    1.20
   6  -1  -4   22.97    1.19
   6  -1  -4   25.19    1.20
  -6   1   4   24.40    1.20
  -6   1   4   23.88    1.20
  -6   1   4   23.08    1.20
   5  -1  -4  118.33    5.53
   5  -1  -4  108.84    5.52
   5  -1  -4  112.33    5.52
   5  -1  -4  108.48    5.52
  -5   1   4  115.35    5.52
  -5   1   4  109.60    5.52
  -5   1   4  122.48    5.53
   4  -1  -4  115.83    5.73
   4  -1  -4  115.52    5.73
   4  -1  -4  111.42    5.73
   4  -1  -4  115.33    5.72
  -4   1   4  124.04    5.73
  -4   1   4  123.63    5.72
  -4   1   4  119.42    5.73
   3  -1  -4   12.86    0.61
   3  -1  -4   12.19    0.62
   3  -1  -4   12.02    0.62
  -3   1   4   11.80    0.62
  -3   1   4   12.72    0.61
  -3   1   4   12.64    0.62
   2  -1  -4   10.77    0.54
   2  -1  -4   10.84    0.54
   2  -1  -4   10.81    0.52
  -2   1   4   10.56    0.53
  -2   1   4   10.78    0.54
   1  -1  -4   91.71    4.73
   1  -1  -4  101.03    4.73
   1  -1  -4   97.75    4.73
  -1   1   4   99.87    4.73
   0  -1  -4    0.33    0.04
   0  -1  -4    0.32    0.05
   0  -1  -4    0.28    0.04
   0   1   4    0.40    0.05
  -1  -1  -4   12.14    0.61
  -1  -1  -4   12.54    0.61
  -1  -1  -4   12.43    0.62
   1   1   4   12.71    0.62
  -2  -1  -4   40.07    1.98
  -2  -1  -4   40.50    1.98
  -2  -1  -4   40.97    2.00
   2   1   4   41.35    2.00
  -3  -1  -4    8.08    0.43
  -3  -1  -4    8.45    0.43
  -3  -1  -4    8.44    0.45
   3   1   4    8.24    0.45
  -4  -1  -4    1.50    0.14
  -4  -1  -4    1.52    0.12
  -4  -1  -4    1.31    0.14
   4   1   4    1.67    0.22
  -5  -1  -4    0.01    0.05
  -5  -1  -4    0.02    0.09
  -5  -1  -4    0.06    0.09
  -5  -1  -4    0.10    0.13
   5   1   4    0.18    0.11
  -6  -1  -4    2.28    0.24
  -6  -1  -4    2.56    0.33
  -6  -1  -4    1.85    0.22
   6   1   4    2.46    0.30
  -7  -1  -4    2.30    0.27
  10  -2  -4    0.28    0.14
  10  -2  -4    0.34    0.16
 -10   2   4    0.15    0.19
 -10   2   4    0.68    0.20
   9  -2  -4    4.58    0.32
   9  -2  -4    4.51    0.35
   9  -2  -4    4.73    0.38
   9  -2  -4    4.97    0.37
  -9   2   4    5.36    0.37
  -9   2   4    5.27    0.38
  -9   2   4    4.61    0.39
   8  -2  -4    0.31    0.10
   8  -2  -4    0.29    0.12
   8  -2  -4    0.11    0.14
  -8   2   4    0.26    0.13
  -8   2   4    0.45    0.14
   7  -2  -4    0.86    0.14
   7  -2  -4    0.97    0.13
   7  -2  -4    0.81    0.11
   7  -2  -4    0.91    0.13
  -7   2   4    0.81    0.12
  -7   2   4    0.75    0.13
  -7   2   4    0.69    0.12
   6  -2  -4    0.38    0.09
   6  -2  -4    0.34    0.09
   6  -2  -4    0.36    0.08
   6  -2  -4    0.28    0.09
  -6   2   4    0.42    0.09
  -6   2   4    0.22    0.08
  -6   2   4    0.26    0.09
   5  -2  -4    0.15    0.08
   5  -2  -4    0.20    0.07
   5  -2  -4    0.21    0.08
   5  -2  -4    0.26    0.07
  -5   2   4    0.12    0.07
  -5   2   4    0.27    0.08
  -5   2   4    0.16    0.07
   4  -2  -4   16.58    0.85
   4  -2  -4   17.44    0.85
   4  -2  -4   17.31    0.86
   4  -2  -4   16.58    0.86
  -4   2   4   16.68    0.85
  -4   2   4   18.93    0.85
  -4   2   4   16.18    0.85
   3  -2  -4    0.99    0.11
   3  -2  -4    1.00    0.11
   3  -2  -4    0.90    0.08
   3  -2  -4    0.73    0.10
  -3   2   4    0.80    0.10
  -3   2   4    0.86    0.10
   2  -2  -4    1.98    0.13
   2  -2  -4    1.94    0.17
   2  -2  -4    1.90    0.11
   2  -2  -4    2.01    0.13
  -2   2   4    1.83    0.11
  -2   2   4    1.84    0.11
   1  -2  -4  158.18    7.67
   1  -2  -4  158.69    7.67
   1  -2  -4  157.22    7.67
   0  -2  -4    2.13    0.11
   0  -2  -4    2.12    0.11
   0  -2  -4    2.09    0.14
  -1  -2  -4    0.04    0.02
  -1  -2  -4    0.01    0.06
  -1  -2  -4    0.02    0.02
  -2  -2  -4    1.81    0.16
  -2  -2  -4    1.58    0.10
  -2  -2  -4    1.69    0.11
   2   2   4    1.57    0.15
  -3  -2  -4    1.69    0.13
  -3  -2  -4    1.70    0.14
  -3  -2  -4    1.74    0.19
   3   2   4    1.94    0.18
  -4  -2  -4    1.72    0.13
  -4  -2  -4    1.90    0.15
  -4  -2  -4    1.67    0.16
  -4  -2  -4    1.80    0.13
  -4  -2  -4    2.56    0.22
   4   2   4    1.80    0.22
  -5  -2  -4    0.46    0.17
  -5  -2  -4    0.54    0.10
  -5  -2  -4    0.50    0.10
  -6  -2  -4    7.45    0.45
  -6  -2  -4    7.59    0.44
  -6  -2  -4    7.40    0.49
   6   2   4    7.85    0.51
  10  -3  -4   -0.04    0.24
  10  -3  -4    0.13    0.16
 -10   3   4    0.02    0.18
 -10   3   4    0.11    0.19
   9  -3  -4    0.30    0.11
   9  -3  -4    0.33    0.14
   9  -3  -4    0.50    0.16
   9  -3  -4    0.64    0.18
  -9   3   4    0.67    0.16
  -9   3   4    0.37    0.14
  -9   3   4    0.40    0.18
   8  -3  -4   16.13    0.84
   8  -3  -4   14.54    0.84
   8  -3  -4   17.62    0.83
  -8   3   4   15.54    0.85
  -8   3   4   16.53    0.84
   7  -3  -4    3.34    0.26
   7  -3  -4    3.02    0.25
   7  -3  -4    3.15    0.25
  -7   3   4    2.97    0.24
  -7   3   4    3.16    0.24
  -7   3   4    3.47    0.24
   6  -3  -4    9.02    0.49
   6  -3  -4    9.06    0.48
   6  -3  -4    8.70    0.47
   6  -3  -4    9.55    0.48
  -6   3   4    8.64    0.47
  -6   3   4    8.53    0.47
  -6   3   4    8.43    0.47
   5  -3  -4    1.25    0.14
   5  -3  -4    1.17    0.12
   5  -3  -4    1.42    0.15
   5  -3  -4    1.49    0.16
  -5   3   4    1.41    0.14
  -5   3   4    1.23    0.13
  -5   3   4    1.49    0.14
   4  -3  -4    3.53    0.23
   4  -3  -4    3.75    0.22
   4  -3  -4    4.06    0.23
   4  -3  -4    3.76    0.24
  -4   3   4    3.73    0.22
  -4   3   4    4.05    0.22
   3  -3  -4   32.61    1.57
   3  -3  -4   33.42    1.57
   3  -3  -4   31.18    1.57
   3  -3  -4   30.95    1.59
  -3   3   4   32.71    1.57
  -3   3   4   31.66    1.57
   2  -3  -4   40.91    2.05
   2  -3  -4   43.17    2.04
   2  -3  -4   41.34    2.04
   1  -3  -4    0.29    0.03
   1  -3  -4    0.20    0.07
   1  -3  -4    0.30    0.03
   1  -3  -4    0.28    0.05
   0  -3  -4   24.07    1.18
   0  -3  -4   23.32    1.17
  -1  -3  -4    1.93    0.16
  -1  -3  -4    1.84    0.15
  -2  -3  -4  109.53    5.33
  -2  -3  -4  106.80    5.33
  -2  -3  -4  114.93    5.36
  -2  -3  -4  108.77    5.35
  -3  -3  -4    6.06    0.32
  -3  -3  -4    5.98    0.32
  -3  -3  -4    5.92    0.31
  -4  -3  -4    1.38    0.14
  -4  -3  -4    1.41    0.12
  -4  -3  -4    1.63    0.18
  -4  -3  -4    1.46    0.15
  -4  -3  -4    1.32    0.11
  -5  -3  -4   11.28    0.58
  -5  -3  -4   11.18    0.65
  -5  -3  -4   10.66    0.58
  10  -4  -4    0.17    0.22
  10  -4  -4    0.21    0.16
  10  -4  -4    0.52    0.18
 -10   4   4    0.53    0.19
 -10   4   4    0.02    0.17
   9  -4  -4    0.78    0.17
   9  -4  -4    0.68    0.17
   9  -4  -4    0.51    0.15
   9  -4  -4    0.67    0.15
  -9   4   4    0.56    0.18
  -9   4   4    0.56    0.17
  -9   4   4    0.93    0.16
   8  -4  -4    9.04    0.53
   8  -4  -4    8.91    0.53
   8  -4  -4   10.18    0.53
  -8   4   4    8.63    0.53
  -8   4   4    9.58    0.54
   7  -4  -4    2.66    0.23
   7  -4  -4    2.21    0.23
   7  -4  -4    2.63    0.24
  -7   4   4    3.02    0.23
  -7   4   4    2.29    0.22
  -7   4   4    2.46    0.22
   6  -4  -4    1.16    0.15
   6  -4  -4    1.16    0.17
   6  -4  -4    1.10    0.12
   6  -4  -4    1.02    0.12
  -6   4   4    1.29    0.16
  -6   4   4    1.56    0.16
  -6   4   4    1.25    0.16
   5  -4  -4    0.16    0.07
   5  -4  -4    0.15    0.07
   5  -4  -4    0.00    0.07
   5  -4  -4    0.17    0.09
  -5   4   4    0.07    0.07
  -5   4   4    0.15    0.07
   4  -4  -4    0.57    0.10
   4  -4  -4    0.49    0.07
   4  -4  -4    0.64    0.08
   4  -4  -4    0.60    0.08
  -4   4   4    0.43    0.06
  -4   4   4    0.47    0.06
   3  -4  -4    8.33    0.46
   3  -4  -4    8.70    0.44
   3  -4  -4    8.44    0.44
   3  -4  -4    8.62    0.44
  -3   4   4    8.57    0.42
  -3   4   4    8.58    0.42
   2  -4  -4   12.77    0.64
   2  -4  -4   13.12    0.64
   2  -4  -4   12.62    0.66
   1  -4  -4    5.34    0.26
   1  -4  -4    5.04    0.28
   1  -4  -4    4.89    0.26
   1  -4  -4    5.20    0.30
   0  -4  -4    7.94    0.42
   0  -4  -4    8.20    0.44
  -1  -4  -4    6.26    0.35
  -1  -4  -4    6.01    0.35
  -2  -4  -4    2.11    0.21
  -2  -4  -4    2.10    0.12
  -2  -4  -4    2.05    0.12
  -2  -4  -4    2.16    0.17
  -3  -4  -4    8.64    0.46
  -3  -4  -4    8.10    0.50
  -3  -4  -4    8.77    0.44
  -3  -4  -4    9.15    0.44
  -4  -4  -4    3.68    0.21
  -4  -4  -4    3.50    0.32
  -4  -4  -4    3.83    0.24
  -4  -4  -4    3.72    0.23
  -4  -4  -4    3.74    0.21
  -5  -4  -4    0.32    0.12
  -5  -4  -4   -0.09    0.18
  10  -5  -4    0.87    0.21
  10  -5  -4    0.60    0.30
  10  -5  -4    0.77    0.20
 -10   5   4    1.56    0.22
 -10   5   4    1.59    0.22
   9  -5  -4    4.63    0.37
   9  -5  -4    4.43    0.37
   9  -5  -4    4.51    0.37
   9  -5  -4    5.23    0.38
  -9   5   4    5.26    0.36
  -9   5   4    5.92    0.41
  -9   5   4    4.49    0.38
   8  -5  -4    8.59    0.50
   8  -5  -4    8.78    0.51
   8  -5  -4    7.18    0.49
   8  -5  -4    8.28    0.51
  -8   5   4    9.08    0.50
  -8   5   4    9.60    0.51
   7  -5  -4   27.01    1.30
   7  -5  -4   26.36    1.30
   7  -5  -4   25.84    1.31
   7  -5  -4   26.23    1.30
  -7   5   4   23.71    1.29
  -7   5   4   25.27    1.29
   6  -5  -4    0.94    0.12
   6  -5  -4    1.68    0.21
   6  -5  -4    1.30    0.17
  -6   5   4    1.22    0.16
  -6   5   4    1.32    0.17
   5  -5  -4   10.59    0.52
   5  -5  -4    9.79    0.52
   5  -5  -4    9.36    0.52
  -5   5   4    9.75    0.51
  -5   5   4    9.63    0.51
   4  -5  -4   46.26    2.31
   4  -5  -4   45.81    2.31
   4  -5  -4   49.99    2.33
   4  -5  -4   46.72    2.31
  -4   5   4   45.93    2.30
  -4   5   4   48.51    2.30
   3  -5  -4    6.49    0.35
   3  -5  -4    6.54    0.36
   3  -5  -4    7.24    0.35
   3  -5  -4    6.15    0.38
   2  -5  -4    0.97    0.09
   2  -5  -4    1.09    0.13
   2  -5  -4    1.11    0.10
   1  -5  -4   41.08    2.00
   1  -5  -4   42.44    2.03
   1  -5  -4   41.66    2.02
   1  -5  -4   39.40    2.00
   0  -5  -4    3.16    0.23
   0  -5  -4    3.20    0.22
  -1  -5  -4    0.90    0.11
  -1  -5  -4    1.04    0.14
  -2  -5  -4   18.96    0.94
  -2  -5  -4   20.05    0.99
  -2  -5  -4   19.12    0.94
  -2  -5  -4   19.19    0.97
  -3  -5  -4   11.30    0.58
  -3  -5  -4   11.71    0.64
  -3  -5  -4   11.33    0.58
  -3  -5  -4   11.72    0.59
  -4  -5  -4    0.09    0.09
  -4  -5  -4    0.10    0.21
  -4  -5  -4   -0.13    0.06
  -4  -5  -4   -0.02    0.08
   9  -6  -4   13.72    0.78
   9  -6  -4   13.30    0.75
   9  -6  -4   13.92    0.76
  -9   6   4   13.89    0.76
  -9   6   4   13.37    0.75
  -9   6   4   13.20    0.74
   8  -6  -4    7.95    0.48
   8  -6  -4    7.46    0.50
   8  -6  -4    8.13    0.49
   8  -6  -4    7.59    0.50
  -8   6   4    8.71    0.48
   7  -6  -4    5.97    0.39
   7  -6  -4    6.31    0.39
   7  -6  -4    6.58    0.42
   7  -6  -4    6.17    0.39
  -7   6   4    6.99    0.37
  -7   6   4    5.92    0.37
   6  -6  -4    3.42    0.26
   6  -6  -4    3.78    0.27
   6  -6  -4    3.53    0.30
   6  -6  -4    4.00    0.27
  -6   6   4    3.81    0.25
  -6   6   4    4.14    0.25
   5  -6  -4    3.07    0.28
   5  -6  -4    3.61    0.25
   5  -6  -4    3.46    0.24
  -5   6   4    3.61    0.21
  -5   6   4    3.37    0.21
   4  -6  -4   62.87    2.85
   4  -6  -4   58.42    2.87
   4  -6  -4   61.55    2.85
   4  -6  -4   55.13    2.85
  -4   6   4   55.31    2.82
  -4   6   4   56.12    2.83
   3  -6  -4    0.25    0.07
   3  -6  -4    0.31    0.07
   3  -6  -4    0.29    0.10
   2  -6  -4    8.01    0.42
   2  -6  -4    7.31    0.37
   2  -6  -4    6.41    0.37
   1  -6  -4    0.06    0.08
   1  -6  -4    0.09    0.05
   1  -6  -4    0.04    0.04
   0  -6  -4    2.53    0.23
   0  -6  -4    2.81    0.15
   0  -6  -4    2.68    0.22
  -1  -6  -4    0.80    0.07
  -1  -6  -4    0.75    0.07
  -1  -6  -4    0.72    0.12
  -2  -6  -4    1.84    0.12
  -2  -6  -4    2.04    0.19
  -2  -6  -4    1.82    0.12
  -2  -6  -4    1.86    0.20
  -3  -6  -4    1.28    0.18
  -3  -6  -4    1.20    0.14
  -3  -6  -4    1.21    0.13
  -3  -6  -4    1.49    0.21
   9  -7  -4    0.51    0.17
   9  -7  -4    0.56    0.18
   9  -7  -4    0.18    0.19
  -9   7   4    0.37    0.16
  -9   7   4    0.69    0.17
   8  -7  -4   10.33    0.59
   8  -7  -4    9.69    0.58
   8  -7  -4   11.87    0.59
   8  -7  -4    9.76    0.61
  -8   7   4    8.93    0.57
   7  -7  -4    5.37    0.37
   7  -7  -4    5.27    0.40
   7  -7  -4    5.51    0.37
   7  -7  -4    5.62    0.38
  -7   7   4    5.80    0.34
  -7   7   4    5.60    0.34
   6  -7  -4    6.01    0.37
   6  -7  -4    5.06    0.37
   6  -7  -4    6.23    0.42
   6  -7  -4    6.34    0.37
  -6   7   4    6.56    0.35
  -6   7   4    6.07    0.35
   5  -7  -4   42.42    2.15
   5  -7  -4   44.90    2.12
   5  -7  -4   45.23    2.12
   5  -7  -4   43.49    2.13
  -5   7   4   41.64    2.10
  -5   7   4   40.60    2.10
   4  -7  -4    0.17    0.13
   4  -7  -4    0.26    0.09
   4  -7  -4    0.08    0.08
   4  -7  -4    0.18    0.11
   3  -7  -4    3.02    0.20
   3  -7  -4    3.01    0.28
   3  -7  -4    3.02    0.21
   2  -7  -4    2.34    0.16
   2  -7  -4    2.24    0.25
   2  -7  -4    2.15    0.16
   1  -7  -4    5.07    0.33
   1  -7  -4    4.28    0.25
   0  -7  -4   13.44    0.69
   0  -7  -4   12.36    0.64
   0  -7  -4   13.52    0.69
   0  -7  -4   12.24    0.64
  -1  -7  -4    3.19    0.18
  -1  -7  -4    3.25    0.18
  -1  -7  -4    3.02    0.30
  -2  -7  -4    6.67    0.35
  -2  -7  -4    6.73    0.41
  -2  -7  -4    6.85    0.48
   8  -8  -4   22.47    1.22
   8  -8  -4   22.07    1.20
   8  -8  -4   23.95    1.20
  -8   8   4   24.13    1.18
   7  -8  -4    2.73    0.31
   7  -8  -4    3.10    0.30
   7  -8  -4    3.06    0.30
   7  -8  -4    3.03    0.32
  -7   8   4    2.99    0.24
  -7   8   4    3.76    0.36
   6  -8  -4    0.29    0.14
   6  -8  -4    0.31    0.13
   6  -8  -4    0.18    0.13
   6  -8  -4    0.33    0.17
  -6   8   4    0.41    0.09
  -6   8   4    0.71    0.19
  -6   8   4    0.33    0.09
   5  -8  -4   -0.05    0.10
   5  -8  -4    0.14    0.16
   5  -8  -4    0.04    0.11
   5  -8  -4    0.03    0.12
  -5   8   4    0.09    0.16
   4  -8  -4    9.53    0.46
   4  -8  -4    8.60    0.47
   4  -8  -4    7.71    0.48
   4  -8  -4    7.35    0.52
   3  -8  -4    5.75    0.34
   3  -8  -4    5.98    0.41
   2  -8  -4    3.47    0.32
   2  -8  -4    3.82    0.23
   2  -8  -4    3.75    0.24
   1  -8  -4    1.36    0.14
   1  -8  -4    1.48    0.18
   1  -8  -4    1.52    0.14
   1  -8  -4    1.78    0.25
   0  -8  -4    0.16    0.07
   0  -8  -4    0.11    0.07
   0  -8  -4   -0.02    0.15
   0  -8  -4    0.15    0.14
  -1  -8  -4    0.32    0.14
  -1  -8  -4    0.08    0.18
   7  -9  -4    4.83    0.37
   7  -9  -4    5.13    0.39
   7  -9  -4    4.63    0.41
  -7   9   4    4.44    0.31
  -7   9   4    4.82    0.32
   6  -9  -4    0.55    0.20
   6  -9  -4    0.68    0.17
   6  -9  -4    0.55    0.15
  -6   9   4    0.50    0.07
  -6   9   4    0.56    0.06
   5  -9  -4    7.03    0.49
   5  -9  -4    7.68    0.44
   5  -9  -4    7.01    0.47
   4  -9  -4    5.29    0.34
   4  -9  -4    5.53    0.35
   4  -9  -4    5.58    0.39
   4  -9  -4    5.55    0.41
   3  -9  -4    6.42    0.47
   3  -9  -4    6.81    0.40
   2  -9  -4    0.48    0.11
   2  -9  -4    0.60    0.20
   2  -9  -4    0.29    0.11
   1  -9  -4   11.21    0.64
   1  -9  -4   11.17    0.67
   1  -9  -4   10.91    0.58
   1  -9  -4   11.44    0.62
   5 -10  -4   10.16    0.64
   4 -10  -4    0.63    0.20
   4 -10  -4    0.53    0.19
   0  11  -5    2.12    0.24
   0  11  -5    1.25    0.24
   0  11  -5    1.33    0.16
   0 -11   5    1.63    0.23
   0 -11   5    1.11    0.19
  -1  11  -5    0.57    0.16
  -1  11  -5    0.55    0.14
   1 -11   5    0.58    0.20
   1 -11   5    0.47    0.17
  -2  11  -5   15.75    0.81
   2 -11   5   15.43    0.83
   2 -11   5   14.24    0.85
  -3  11  -5    0.37    0.16
  -3  11  -5    0.56    0.18
   3 -11   5    0.38    0.17
   3 -11   5    0.12    0.18
  -4  11  -5    0.17    0.16
  -4  11  -5    0.03    0.16
   4 -11   5   -0.28    0.28
   4 -11   5    0.19    0.19
   2  10  -5    1.43    0.19
  -2 -10   5    1.07    0.19
  -2 -10   5    1.25    0.19
   1  10  -5    3.67    0.35
   1  10  -5    3.68    0.28
  -1 -10   5    3.56    0.37
  -1 -10   5    4.40    0.34
  -1 -10   5    3.74    0.33
   0  10  -5   10.76    0.65
   0 -10   5   11.20    0.64
   0 -10   5   11.43    0.65
   0 -10   5   11.78    0.67
  -1  10  -5    3.36    0.27
  -1  10  -5    2.83    0.33
   1 -10   5    2.91    0.30
   1 -10   5    2.87    0.36
   1 -10   5    3.49    0.32
  -2  10  -5   -0.26    0.16
  -2  10  -5   -0.01    0.12
   2 -10   5   -0.04    0.16
   2 -10   5    0.04    0.14
   2 -10   5    0.05    0.14
  -3  10  -5    0.57    0.15
  -3  10  -5    0.66    0.15
  -3  10  -5    0.51    0.19
   3 -10   5    0.71    0.20
   3 -10   5    0.70    0.19
   3 -10   5    0.65    0.17
   3 -10   5    0.81    0.17
  -4  10  -5    1.47    0.19
  -4  10  -5    1.11    0.19
   4 -10   5    0.92    0.22
   4 -10   5    1.39    0.19
  -5  10  -5   -0.06    0.15
  -5  10  -5    0.06    0.16
   5 -10   5    0.03    0.18
   5 -10   5   -0.11    0.17
   4   9  -5    0.08    0.13
  -4  -9   5    0.04    0.16
  -4  -9   5    0.16    0.19
  -4  -9   5    0.16    0.14
   3   9  -5    0.75    0.15
   3   9  -5    0.33    0.11
   3   9  -5    0.52    0.10
  -3  -9   5    0.65    0.17
  -3  -9   5    0.42    0.19
  -3  -9   5    0.68    0.18
   2   9  -5    0.26    0.10
   2   9  -5    0.28    0.14
   2   9  -5    0.23    0.10
  -2  -9   5    0.24    0.15
  -2  -9   5    0.25    0.14
   1   9  -5    1.63    0.19
   1   9  -5    2.02    0.22
  -1  -9   5    1.71    0.18
  -1  -9   5    1.53    0.18
  -1  -9   5    1.90    0.24
   0   9  -5    0.52    0.11
   0  -9   5    0.21    0.13
   0  -9   5    0.28    0.14
   0  -9   5    0.08    0.12
  -1   9  -5    4.65    0.30
  -1   9  -5    4.42    0.30
   1  -9   5    4.28    0.32
   1  -9   5    4.40    0.32
   1  -9   5    3.94    0.35
  -2   9  -5   15.47    0.78
  -2   9  -5   13.69    0.80
   2  -9   5   15.47    0.79
   2  -9   5   15.10    0.81
   2  -9   5   14.86    0.80
   2  -9   5   13.91    0.78
  -3   9  -5    0.06    0.12
   3  -9   5    0.10    0.13
   3  -9   5    0.05    0.16
   3  -9   5    0.06    0.13
   3  -9   5    0.09    0.15
  -4   9  -5    3.24    0.31
  -4   9  -5    3.85    0.30
  -4   9  -5    3.02    0.34
   4  -9   5    3.21    0.31
   4  -9   5    2.57    0.35
   4  -9   5    3.10    0.32
   4  -9   5    2.91    0.34
  -5   9  -5   29.07    1.45
  -5   9  -5   30.31    1.45
  -5   9  -5   26.15    1.46
   5  -9   5   27.70    1.47
   5  -9   5   31.18    1.45
   5  -9   5   27.95    1.46
   5  -9   5   26.74    1.45
  -6   9  -5    5.39    0.41
   6  -9   5    4.92    0.43
   6  -9   5    5.39    0.39
  -5  -8   5    2.80    0.31
  -5  -8   5    3.38    0.31
  -5  -8   5    2.82    0.33
   4   8  -5   11.95    0.63
   4   8  -5   12.27    0.66
   4   8  -5   12.43    0.63
  -4  -8   5   11.87    0.67
  -4  -8   5   12.19    0.68
  -4  -8   5   12.10    0.71
   3   8  -5    8.14    0.44
   3   8  -5    7.96    0.44
   3   8  -5    8.40    0.49
  -3  -8   5    7.64    0.48
  -3  -8   5    8.55    0.48
  -3  -8   5    8.00    0.53
   2   8  -5   -0.02    0.09
   2   8  -5   -0.08    0.11
   2   8  -5    0.00    0.09
  -2  -8   5    0.05    0.12
  -2  -8   5    0.01    0.12
   1   8  -5    2.16    0.23
   1   8  -5    2.07    0.20
   1   8  -5    2.25    0.20
  -1  -8   5    1.99    0.22
  -1  -8   5    1.67    0.22
   0   8  -5    2.38    0.20
   0   8  -5    2.30    0.22
   0   8  -5    2.50    0.24
   0  -8   5    2.26    0.23
   0  -8   5    1.84    0.25
   0  -8   5    2.30    0.23
  -1   8  -5   11.34    0.59
  -1   8  -5   10.49    0.56
  -1   8  -5   10.65    0.56
   1  -8   5    9.30    0.59
   1  -8   5   10.39    0.58
   1  -8   5   11.06    0.58
  -2   8  -5   27.96    1.45
  -2   8  -5   29.98    1.45
   2  -8   5   30.31    1.45
   2  -8   5   30.81    1.46
   2  -8   5   25.71    1.46
  -3   8  -5    0.67    0.13
   3  -8   5    0.66    0.16
   3  -8   5    0.56    0.13
  -4   8  -5   16.60    0.87
  -4   8  -5   17.15    0.88
   4  -8   5   15.05    0.86
   4  -8   5   16.04    0.88
   4  -8   5   17.21    0.89
  -5   8  -5    0.15    0.14
  -5   8  -5   -0.03    0.14
  -5   8  -5    0.08    0.16
   5  -8   5    0.39    0.18
   5  -8   5    0.05    0.16
   5  -8   5    0.29    0.17
   5  -8   5    0.06    0.16
  -6   8  -5    0.48    0.16
  -6   8  -5    0.07    0.16
  -6   8  -5    0.35    0.16
   6  -8   5    0.12    0.18
   6  -8   5    0.33    0.15
   6  -8   5    0.10    0.16
   6  -8   5    0.29    0.15
  -7   8  -5    1.03    0.25
   7  -8   5    1.71    0.21
   7  -8   5    1.47    0.23
   6   7  -5    1.67    0.20
  -6  -7   5    1.39    0.24
  -6  -7   5    1.36    0.20
  -6  -7   5    1.23    0.18
   5   7  -5   10.74    0.58
   5   7  -5   11.24    0.58
   5   7  -5   10.95    0.58
  -5  -7   5   11.13    0.64
  -5  -7   5   11.49    0.63
  -5  -7   5   10.56    0.62
   4   7  -5   20.50    1.04
   4   7  -5   21.50    1.05
   4   7  -5   20.62    1.04
  -4  -7   5   21.34    1.06
  -4  -7   5   19.19    1.08
  -4  -7   5   20.96    1.06
   3   7  -5    4.69    0.30
   3   7  -5    5.05    0.30
   3   7  -5    5.09    0.32
  -3  -7   5    5.01    0.35
  -3  -7   5    4.85    0.33
  -3  -7   5    5.31    0.33
   2   7  -5    0.57    0.12
   2   7  -5    0.50    0.09
  -2  -7   5    0.44    0.12
  -2  -7   5    0.55    0.12
   1   7  -5    5.53    0.37
   1   7  -5    5.00    0.34
   1   7  -5    5.50    0.35
  -1  -7   5    6.92    0.36
  -1  -7   5    6.42    0.36
  -1  -7   5    6.37    0.37
   0   7  -5    4.18    0.27
   0   7  -5    4.44    0.32
   0   7  -5    4.26    0.28
   0  -7   5    4.24    0.29
   0  -7   5    4.23    0.28
  -1   7  -5   10.45    0.61
  -1   7  -5   11.66    0.60
  -1   7  -5   12.11    0.59
   1  -7   5   10.41    0.61
   1  -7   5   11.41    0.60
   1  -7   5   11.43    0.59
  -2   7  -5    3.25    0.23
  -2   7  -5    2.37    0.22
  -2   7  -5    2.53    0.25
   2  -7   5    2.91    0.26
   2  -7   5    2.60    0.24
   2  -7   5    3.27    0.23
  -3   7  -5    0.22    0.11
  -3   7  -5    0.07    0.10
  -3   7  -5    0.03    0.11
   3  -7   5    0.13    0.12
   3  -7   5    0.04    0.11
   3  -7   5    0.22    0.13
  -4   7  -5    0.87    0.15
  -4   7  -5    1.34    0.18
   4  -7   5    0.96    0.16
   4  -7   5    1.38    0.16
  -5   7  -5   40.59    2.07
  -5   7  -5   40.46    2.08
   5  -7   5   40.23    2.06
   5  -7   5   42.12    2.08
   5  -7   5   43.09    2.08
   5  -7   5   43.07    2.07
  -6   7  -5    0.26    0.17
  -6   7  -5    0.31    0.16
  -6   7  -5    0.31    0.17
   6  -7   5    0.43    0.15
   6  -7   5    0.54    0.19
   6  -7   5    0.16    0.18
   6  -7   5    0.82    0.18
  -7   7  -5    5.65    0.41
  -7   7  -5    4.50    0.40
   7  -7   5    4.62    0.38
   7  -7   5    4.70    0.38
   7  -7   5    5.44    0.43
   7   6  -5    0.02    0.18
  -7  -6   5    0.04    0.16
  -7  -6   5    0.29    0.21
   6   6  -5    2.73    0.19
   6   6  -5    3.07    0.25
   6   6  -5    2.82    0.25
  -6  -6   5    2.92    0.30
  -6  -6   5    2.71    0.31
  -6  -6   5    2.51    0.33
   5   6  -5    0.84    0.11
   5   6  -5    1.13    0.12
   5   6  -5    0.93    0.12
  -5  -6   5    0.69    0.17
  -5  -6   5    0.88    0.14
  -5  -6   5    0.85    0.15
   4   6  -5    0.83    0.11
   4   6  -5    0.55    0.10
   4   6  -5    0.71    0.11
  -4  -6   5    0.78    0.13
  -4  -6   5    0.54    0.14
  -4  -6   5    0.64    0.13
   3   6  -5    4.21    0.27
   3   6  -5    4.27    0.27
   3   6  -5    4.33    0.28
  -3  -6   5    4.02    0.29
  -3  -6   5    4.80    0.28
  -3  -6   5    4.17    0.31
   2   6  -5   43.45    2.20
   2   6  -5   44.99    2.21
   2   6  -5   42.47    2.20
  -2  -6   5   46.24    2.21
  -2  -6   5   46.80    2.20
   1   6  -5    3.42    0.25
   1   6  -5    3.56    0.23
   1   6  -5    3.41    0.23
  -1  -6   5    3.32    0.23
  -1  -6   5    3.67    0.24
   0   6  -5    4.57    0.27
   0   6  -5    4.54    0.27
   0   6  -5    4.52    0.29
   0  -6   5    3.65    0.29
   0  -6   5    4.17    0.27
   0  -6   5    4.20    0.27
  -1   6  -5   34.39    1.75
  -1   6  -5   30.25    1.73
  -1   6  -5   36.78    1.74
   1  -6   5   36.60    1.74
   1  -6   5   34.63    1.74
   1  -6   5   38.65    1.75
  -2   6  -5    0.52    0.12
  -2   6  -5    0.68    0.15
   2  -6   5    0.51    0.11
   2  -6   5    0.51    0.12
  -3   6  -5    2.41    0.23
  -3   6  -5    2.27    0.20
   3  -6   5    2.19    0.22
   3  -6   5    2.08    0.21
   3  -6   5    2.01    0.19
   3  -6   5    2.03    0.21
  -4   6  -5    0.10    0.12
  -4   6  -5    0.05    0.13
   4  -6   5    0.14    0.12
   4  -6   5    0.11    0.10
   4  -6   5    0.05    0.12
   4  -6   5    0.22    0.10
  -5   6  -5    0.37    0.14
  -5   6  -5    0.27    0.13
   5  -6   5    0.40    0.13
   5  -6   5    0.35    0.15
   5  -6   5    0.12    0.14
  -6   6  -5    1.60    0.22
  -6   6  -5    1.17    0.18
  -6   6  -5    1.30    0.18
   6  -6   5    1.18    0.17
   6  -6   5    1.14    0.16
   6  -6   5    1.15    0.16
   6  -6   5    1.11    0.19
  -7   6  -5   -0.21    0.13
  -7   6  -5   -0.36    0.17
  -7   6  -5    0.09    0.16
   7  -6   5    0.15    0.17
   7  -6   5   -0.11    0.15
   7   5  -5    4.15    0.31
  -7  -5   5    5.57    0.38
  -7  -5   5    5.21    0.37
  -7  -5   5    4.56    0.38
   6   5  -5    5.28    0.32
   6   5  -5    5.08    0.29
   6   5  -5    5.23    0.33
  -6  -5   5    5.20    0.39
  -6  -5   5    5.36    0.37
  -6  -5   5    4.97    0.35
   5   5  -5    2.31    0.20
   5   5  -5    2.07    0.18
   5   5  -5    2.33    0.20
  -5  -5   5    2.49    0.23
  -5  -5   5    2.06    0.24
  -5  -5   5    2.17    0.23
   4   5  -5    0.49    0.09
   4   5  -5    0.38    0.09
   4   5  -5    0.46    0.09
  -4  -5   5    0.50    0.11
  -4  -5   5    0.66    0.12
   3   5  -5    5.12    0.31
   3   5  -5    5.51    0.31
   3   5  -5    5.24    0.31
  -3  -5   5    5.44    0.32
  -3  -5   5    5.33    0.32
  -3  -5   5    5.07    0.31
   2   5  -5    8.38    0.45
   2   5  -5    7.99    0.45
   2   5  -5    8.69    0.45
  -2  -5   5    8.37    0.45
  -2  -5   5    8.53    0.45
   1   5  -5   18.92    0.94
   1   5  -5   17.82    0.94
   1   5  -5   18.83    0.95
  -1  -5   5   19.74    0.94
  -1  -5   5   18.30    0.94
   0   5  -5   13.66    0.68
   0   5  -5   13.23    0.68
   0   5  -5   13.65    0.69
   0  -5   5   13.33    0.69
   0  -5   5   12.97    0.68
  -1   5  -5   18.52    0.96
  -1   5  -5   18.77    0.97
  -1   5  -5   20.39    0.97
   1  -5   5   19.70    0.97
   1  -5   5   19.18    0.96
   1  -5   5   19.43    0.97
   1  -5   5   18.50    0.97
  -2   5  -5    4.33    0.27
  -2   5  -5    3.88    0.25
  -2   5  -5    3.83    0.26
   2  -5   5    4.03    0.27
   2  -5   5    3.93    0.26
   2  -5   5    3.53    0.27
   2  -5   5    4.32    0.26
  -3   5  -5   17.16    0.80
  -3   5  -5   15.74    0.81
  -3   5  -5   15.51    0.80
   3  -5   5   16.02    0.80
   3  -5   5   15.52    0.81
   3  -5   5   13.91    0.81
   3  -5   5   15.65    0.80
  -4   5  -5   40.57    1.98
  -4   5  -5   41.23    1.98
  -4   5  -5   34.90    1.98
   4  -5   5   41.60    1.99
   4  -5   5   41.81    1.99
   4  -5   5   39.88    1.97
   4  -5   5   40.17    1.98
  -5   5  -5    1.88    0.22
  -5   5  -5    1.49    0.18
  -5   5  -5    1.82    0.23
  -5   5  -5    1.43    0.17
   5  -5   5    1.82    0.21
   5  -5   5    2.10    0.21
  -6   5  -5    9.41    0.53
  -6   5  -5    9.12    0.51
  -6   5  -5    7.36    0.52
  -6   5  -5    8.64    0.51
   6  -5   5    8.37    0.49
   6  -5   5    8.83    0.53
  -7   5  -5    4.39    0.36
  -7   5  -5    4.03    0.33
  -7   5  -5    3.79    0.35
  -7   5  -5    4.32    0.35
   7  -5   5    3.84    0.37
   7  -5   5    3.91    0.32
   7  -5   5    4.20    0.32
   8   4  -5    0.10    0.15
   8   4  -5    0.12    0.12
  -8  -4   5    0.08    0.17
  -8  -4   5   -0.22    0.16
   7   4  -5    8.18    0.47
   7   4  -5    7.75    0.41
   7   4  -5    8.68    0.46
  -7  -4   5    8.45    0.50
  -7  -4   5    8.13    0.54
  -7  -4   5    8.27    0.51
   6   4  -5   20.16    1.00
   6   4  -5   20.06    1.01
   6   4  -5   22.14    1.01
  -6  -4   5   18.00    1.03
  -6  -4   5   18.89    1.03
  -6  -4   5   20.97    1.03
   5   4  -5    0.06    0.08
   5   4  -5    0.01    0.07
   5   4  -5   -0.10    0.08
  -5  -4   5   -0.08    0.10
  -5  -4   5    0.17    0.11
   4   4  -5    0.03    0.07
   4   4  -5    0.18    0.08
   4   4  -5    0.05    0.08
  -4  -4   5    0.13    0.09
  -4  -4   5    0.03    0.07
  -4  -4   5    0.06    0.08
   3   4  -5    2.15    0.16
   3   4  -5    2.14    0.16
   3   4  -5    2.10    0.17
  -3  -4   5    2.06    0.18
  -3  -4   5    1.94    0.17
  -3  -4   5    1.88    0.17
   2   4  -5   80.28    4.15
   2   4  -5   95.79    4.15
   2   4  -5   83.13    4.15
  -2  -4   5   84.16    4.15
  -2  -4   5   82.56    4.15
   1   4  -5    5.93    0.33
   1   4  -5    6.53    0.34
   1   4  -5    5.53    0.33
  -1  -4   5    6.06    0.33
  -1  -4   5    5.79    0.33
   0   4  -5    6.53    0.36
   0   4  -5    6.40    0.35
   0   4  -5    6.41    0.34
   0  -4   5    5.80    0.34
   0  -4   5    6.31    0.34
  -1   4  -5   57.26    2.87
  -1   4  -5   57.78    2.88
  -1   4  -5   56.54    2.87
   1  -4   5   63.16    2.87
   1  -4   5   57.41    2.87
   1  -4   5   60.57    2.87
  -2   4  -5    2.71    0.20
  -2   4  -5    2.67    0.21
  -2   4  -5    2.63    0.19
   2  -4   5    2.58    0.19
   2  -4   5    2.74    0.20
   2  -4   5    2.81    0.19
  -3   4  -5   26.88    1.30
  -3   4  -5   25.55    1.29
   3  -4   5   27.52    1.29
   3  -4   5   25.32    1.29
   3  -4   5   24.53    1.30
  -4   4  -5    0.90    0.14
  -4   4  -5    0.99    0.12
  -4   4  -5    1.27    0.13
   4  -4   5    1.14    0.12
   4  -4   5    1.17    0.15
   4  -4   5    1.04    0.12
  -5   4  -5   31.88    1.60
  -5   4  -5   30.77    1.59
  -5   4  -5   28.16    1.59
   5  -4   5   32.87    1.59
   5  -4   5   34.68    1.58
   5  -4   5   33.18    1.60
  -6   4  -5    0.94    0.17
  -6   4  -5    0.89    0.15
  -6   4  -5    0.95    0.17
  -6   4  -5    1.15    0.15
   6  -4   5    1.52    0.15
   6  -4   5    0.84    0.17
  -7   4  -5    4.71    0.39
  -7   4  -5    5.27    0.38
  -7   4  -5    5.34    0.36
  -7   4  -5    5.05    0.41
   7  -4   5    5.32    0.42
   7  -4   5    5.75    0.36
   8   3  -5   18.11    0.93
  -8  -3   5   17.52    0.95
  -8  -3   5   17.86    0.95
  -8  -3   5   18.52    0.97
   7   3  -5    0.26    0.11
   7   3  -5    0.10    0.06
   7   3  -5    0.08    0.05
   7   3  -5    0.07    0.12
  -7  -3   5    0.22    0.14
  -7  -3   5   -0.07    0.14
  -7  -3   5    0.17    0.12
   6   3  -5    8.43    0.44
   6   3  -5    8.59    0.46
  -6  -3   5    7.84    0.47
  -6  -3   5    8.10    0.47
  -6  -3   5    8.40    0.48
   5   3  -5    3.81    0.24
   5   3  -5    3.69    0.24
   5   3  -5    3.17    0.22
  -5  -3   5    3.62    0.26
  -5  -3   5    3.50    0.25
   4   3  -5    4.61    0.26
   4   3  -5    4.13    0.26
   4   3  -5    4.33    0.26
  -4  -3   5    4.14    0.27
  -4  -3   5    4.66    0.27
  -4  -3   5    4.34    0.27
   3   3  -5   49.54    2.34
   3   3  -5   45.28    2.34
   3   3  -5   47.37    2.34
  -3  -3   5   48.10    2.34
  -3  -3   5   46.90    2.34
  -3  -3   5   49.50    2.34
   2   3  -5   30.12    1.59
   2   3  -5   32.83    1.60
   2   3  -5   32.76    1.60
  -2  -3   5   32.06    1.60
  -2  -3   5   34.39    1.60
   1   3  -5    8.66    0.43
   1   3  -5    7.51    0.43
  -1  -3   5    8.17    0.43
  -1  -3   5    8.14    0.43
   0   3  -5   10.71    0.52
   0   3  -5    9.66    0.53
   0   3  -5   10.24    0.52
   0  -3   5   10.24    0.52
   0  -3   5    9.40    0.52
  -1   3  -5   50.73    2.58
  -1   3  -5   52.82    2.58
  -1   3  -5   54.63    2.59
   1  -3   5   53.98    2.58
   1  -3   5   53.39    2.58
   1  -3   5   51.44    2.58
  -2   3  -5   99.95    4.58
  -2   3  -5   93.55    4.58
  -2   3  -5   90.72    4.58
  -2   3  -5   90.80    4.59
   2  -3   5   96.85    4.58
   2  -3   5   94.80    4.58
   2  -3   5   92.34    4.58
  -3   3  -5   11.60    0.60
  -3   3  -5   11.27    0.61
  -3   3  -5   12.03    0.61
  -3   3  -5   11.11    0.60
   3  -3   5   12.41    0.61
   3  -3   5   11.22    0.60
   3  -3   5   12.02    0.60
  -4   3  -5    0.05    0.10
  -4   3  -5    0.01    0.09
  -4   3  -5   -0.02    0.09
   4  -3   5    0.01    0.08
   4  -3   5    0.10    0.10
   4  -3   5    0.01    0.07
  -5   3  -5   28.47    1.40
  -5   3  -5   27.08    1.41
  -5   3  -5   28.38    1.41
  -5   3  -5   28.28    1.40
   5  -3   5   28.07    1.39
   5  -3   5   27.84    1.41
   5  -3   5   28.27    1.39
  -6   3  -5    1.36    0.19
  -6   3  -5    1.35    0.15
  -6   3  -5    1.32    0.16
  -6   3  -5    1.49    0.17
   6  -3   5    1.39    0.18
   6  -3   5    1.37    0.14
   6  -3   5    1.65    0.15
  -7   3  -5    7.10    0.49
  -7   3  -5    7.93    0.45
  -7   3  -5    7.50    0.49
  -7   3  -5    8.29    0.51
   7  -3   5    7.97    0.51
   7  -3   5    7.80    0.44
   9   2  -5    0.52    0.17
   9   2  -5    0.24    0.15
  -9  -2   5    0.22    0.16
  -9  -2   5    0.09    0.19
   8   2  -5    0.03    0.06
   8   2  -5    0.02    0.12
   8   2  -5   -0.06    0.06
  -8  -2   5   -0.17    0.15
  -8  -2   5    0.01    0.16
  -8  -2   5   -0.02    0.16
   7   2  -5   10.46    0.57
   7   2  -5   10.85    0.57
   7   2  -5   10.18    0.54
  -7  -2   5   10.71    0.59
  -7  -2   5   10.62    0.58
  -7  -2   5   10.21    0.58
   6   2  -5    7.59    0.37
   6   2  -5    5.24    0.37
  -6  -2   5    5.77    0.38
  -6  -2   5    6.28    0.38
  -6  -2   5    6.95    0.38
   5   2  -5   14.67    0.80
   5   2  -5   15.68    0.80
  -5  -2   5   15.90    0.80
  -5  -2   5   15.19    0.80
  -5  -2   5   17.02    0.80
   4   2  -5    0.69    0.09
   4   2  -5    0.54    0.09
  -4  -2   5    0.82    0.10
  -4  -2   5    0.55    0.09
  -4  -2   5    0.56    0.09
   3   2  -5    0.02    0.06
   3   2  -5    0.02    0.07
  -3  -2   5    0.03    0.06
  -3  -2   5    0.01    0.07
  -3  -2   5    0.06    0.07
   2   2  -5   42.01    2.09
   2   2  -5   43.23    2.09
  -2  -2   5   44.83    2.09
  -2  -2   5   41.12    2.09
   1   2  -5    9.04    0.45
   1   2  -5    8.67    0.46
  -1  -2   5    8.51    0.45
  -1  -2   5    8.76    0.45
   0   2  -5   70.28    3.40
   0   2  -5   70.65    3.40
   0  -2   5   71.81    3.40
   0  -2   5   62.25    3.40
   0  -2   5   74.55    3.40
  -1   2  -5    0.08    0.06
  -1   2  -5    0.19    0.08
  -1   2  -5    0.09    0.06
   1  -2   5    0.18    0.06
   1  -2   5    0.14    0.06
   1  -2   5    0.10    0.06
  -2   2  -5    0.53    0.09
  -2   2  -5    0.49    0.08
  -2   2  -5    0.57    0.08
  -2   2  -5    0.76    0.09
   2  -2   5    0.53    0.07
   2  -2   5    0.68    0.07
   2  -2   5    0.57    0.08
  -3   2  -5    0.37    0.08
  -3   2  -5    0.20    0.08
  -3   2  -5    0.12    0.07
  -3   2  -5    0.09    0.08
   3  -2   5    0.25    0.06
   3  -2   5    0.21    0.08
   3  -2   5    0.24    0.06
  -4   2  -5    1.04    0.13
  -4   2  -5    1.10    0.16
  -4   2  -5    1.13    0.12
  -4   2  -5    0.84    0.11
   4  -2   5    1.15    0.13
   4  -2   5    1.05    0.13
   4  -2   5    1.11    0.14
  -5   2  -5    4.08    0.26
  -5   2  -5    3.51    0.26
  -5   2  -5    3.58    0.25
  -5   2  -5    3.37    0.29
   5  -2   5    3.33    0.23
   5  -2   5    3.74    0.28
   5  -2   5    3.58    0.23
  -6   2  -5    1.78    0.20
  -6   2  -5    1.72    0.23
  -6   2  -5    1.64    0.18
  -6   2  -5    1.47    0.20
   6  -2   5    1.68    0.16
   6  -2   5    1.54    0.17
   6  -2   5    1.84    0.25
  -7   2  -5    0.06    0.10
  -7   2  -5   -0.28    0.16
  -7   2  -5    0.06    0.15
  -7   2  -5    0.23    0.15
   7  -2   5    0.01    0.16
   7  -2   5   -0.01    0.09
   7  -2   5    0.01    0.10
   9   1  -5    3.89    0.33
   9   1  -5    3.89    0.37
   9   1  -5    4.40    0.35
   9   1  -5    3.55    0.23
  -9  -1   5    4.11    0.34
  -9  -1   5    4.18    0.36
   8   1  -5    2.37    0.18
   8   1  -5    2.22    0.24
   8   1  -5    2.08    0.27
  -8  -1   5    2.46    0.24
  -8  -1   5    2.09    0.27
  -8  -1   5    2.48    0.27
   7   1  -5    2.73    0.25
   7   1  -5    2.83    0.19
   7   1  -5    2.60    0.24
   7   1  -5    2.61    0.23
  -7  -1   5    2.90    0.25
  -7  -1   5    2.64    0.25
   6   1  -5   11.28    0.55
   6   1  -5    9.62    0.53
   6   1  -5    8.84    0.55
  -6  -1   5   10.47    0.55
  -6  -1   5   10.36    0.55
  -6  -1   5   10.87    0.55
   5   1  -5    6.70    0.37
   5   1  -5    6.68    0.37
   5   1  -5    6.86    0.37
  -5  -1   5    6.53    0.37
  -5  -1   5    6.69    0.37
  -5  -1   5    6.89    0.38
   4   1  -5    0.02    0.07
   4   1  -5    0.04    0.07
  -4  -1   5    0.05    0.07
  -4  -1   5    0.01    0.06
  -4  -1   5   -0.05    0.07
   3   1  -5    3.46    0.21
   3   1  -5    2.98    0.21
  -3  -1   5    3.27    0.21
  -3  -1   5    3.27    0.19
  -3  -1   5    3.33    0.21
   2   1  -5   12.97    0.64
   2   1  -5   12.59    0.64
  -2  -1   5   13.05    0.64
  -2  -1   5   12.84    0.63
  -2  -1   5   12.40    0.64
   1   1  -5   98.59    4.82
   1   1  -5   96.80    4.82
  -1  -1   5   97.39    4.82
  -1  -1   5  100.26    4.82
  -1  -1   5  103.28    4.82
   0   1  -5   21.39    1.10
   0   1  -5   21.89    1.10
   0  -1   5   23.01    1.10
   0  -1   5   22.61    1.10
   0  -1   5   23.10    1.10
  -1   1  -5    4.70    0.26
  -1   1  -5    4.53    0.26
  -1   1  -5    4.64    0.26
   1  -1   5    5.03    0.26
   1  -1   5    4.58    0.25
   1  -1   5    4.77    0.25
  -2   1  -5    0.84    0.10
  -2   1  -5    0.87    0.11
  -2   1  -5    0.70    0.08
  -2   1  -5    0.53    0.08
   2  -1   5    0.75    0.07
   2  -1   5    0.65    0.08
   2  -1   5    0.79    0.08
  -3   1  -5    4.63    0.27
  -3   1  -5    4.96    0.28
  -3   1  -5    4.52    0.27
  -3   1  -5    4.40    0.27
   3  -1   5    5.09    0.28
   3  -1   5    4.60    0.25
   3  -1   5    4.67    0.25
  -4   1  -5    1.64    0.16
  -4   1  -5    1.99    0.19
  -4   1  -5    1.61    0.18
  -4   1  -5    1.49    0.16
   4  -1   5    1.70    0.20
   4  -1   5    1.76    0.12
   4  -1   5    1.55    0.11
  -5   1  -5    9.21    0.47
  -5   1  -5    9.09    0.48
  -5   1  -5    8.31    0.46
  -5   1  -5    8.25    0.50
   5  -1   5    8.53    0.43
   5  -1   5    8.37    0.43
   5  -1   5    8.24    0.49
  -6   1  -5    2.13    0.19
  -6   1  -5    2.37    0.24
  -6   1  -5    2.28    0.24
  -6   1  -5    2.15    0.30
   6  -1   5    1.76    0.21
  -7   1  -5    0.82    0.21
  -7   1  -5    1.33    0.19
  -7   1  -5    0.91    0.18
   9   0  -5    8.99    0.55
   9   0  -5    9.15    0.48
   9   0  -5    9.44    0.54
   9   0  -5    8.63    0.52
  -9   0   5    8.97    0.57
  -9   0   5    8.26    0.54
  -9   0   5    8.62    0.53
   8   0  -5    3.04    0.28
   8   0  -5    3.47    0.28
   8   0  -5    3.31    0.23
  -8   0   5    2.94    0.29
  -8   0   5    3.26    0.29
   7   0  -5   25.09    1.28
   7   0  -5   26.94    1.29
   7   0  -5   25.31    1.29
   7   0  -5   26.20    1.29
  -7   0   5   24.80    1.29
  -7   0   5   25.85    1.29
   6   0  -5   11.72    0.57
   6   0  -5    9.96    0.58
   6   0  -5   10.84    0.57
   6   0  -5   10.74    0.56
  -6   0   5   10.05    0.57
  -6   0   5   10.25    0.58
  -6   0   5   12.18    0.58
   5   0  -5    1.41    0.15
   5   0  -5    1.71    0.15
   5   0  -5    1.33    0.13
  -5   0   5    1.28    0.14
  -5   0   5    1.32    0.15
  -5   0   5    1.27    0.15
   4   0  -5    0.01    0.07
   4   0  -5    0.00    0.07
   4   0  -5    0.03    0.05
  -4   0   5   -0.01    0.07
  -4   0   5    0.06    0.07
  -4   0   5    0.07    0.05
   3   0  -5    4.39    0.25
   3   0  -5    4.24    0.25
  -3   0   5    4.35    0.25
  -3   0   5    4.61    0.25
  -3   0   5    4.23    0.23
   2   0  -5  139.43    6.27
   2   0  -5  124.93    6.27
  -2   0   5  127.43    6.27
  -2   0   5  125.13    6.27
   1   0  -5    6.05    0.32
   1   0  -5    6.34    0.32
  -1   0   5    5.50    0.31
  -1   0   5    6.22    0.31
  -1   0   5    6.00    0.30
   0   0  -5   32.30    1.55
   0   0  -5   30.51    1.55
   0   0  -5   31.82    1.54
   0   0   5   31.84    1.54
   0   0   5   31.88    1.54
   0   0   5   31.60    1.54
  -1   0  -5   54.31    2.66
  -1   0  -5   54.00    2.67
  -1   0  -5   55.38    2.66
   1   0   5   55.24    2.67
  -2   0  -5   21.50    1.09
  -2   0  -5   23.17    1.10
  -2   0  -5   21.86    1.09
   2   0   5   21.97    1.10
  -3   0  -5    1.45    0.14
  -3   0  -5    1.25    0.14
  -3   0  -5    1.29    0.13
  -3   0  -5    1.23    0.16
   3   0   5    1.28    0.16
  -4   0  -5   11.50    0.60
  -4   0  -5   13.13    0.63
  -4   0  -5   10.76    0.60
   4   0   5   11.68    0.63
  -5   0  -5   17.81    0.91
  -5   0  -5   17.27    0.93
  -5   0  -5   19.09    0.90
  -5   0  -5   16.89    0.89
  -6   0  -5   -0.07    0.12
  -6   0  -5   -0.23    0.19
  -6   0  -5    0.22    0.07
  -6   0  -5    0.28    0.13
   6   0   5   -0.02    0.17
  10  -1  -5    0.06    0.13
  10  -1  -5    0.25    0.18
 -10   1   5   -0.08    0.20
 -10   1   5    0.23    0.20
   9  -1  -5    1.98    0.21
   9  -1  -5    2.58    0.27
   9  -1  -5    2.03    0.23
   9  -1  -5    2.45    0.25
  -9   1   5    2.59    0.32
  -9   1   5    2.42    0.25
  -9   1   5    2.59    0.29
   8  -1  -5   23.60    1.12
   8  -1  -5   20.64    1.11
   8  -1  -5   19.34    1.09
  -8   1   5   21.97    1.12
  -8   1   5   23.23    1.12
   7  -1  -5   48.97    2.33
   7  -1  -5   46.92    2.33
   7  -1  -5   46.40    2.33
   7  -1  -5   46.33    2.32
  -7   1   5   43.98    2.33
  -7   1   5   48.26    2.33
  -7   1   5   49.74    2.33
   6  -1  -5   50.49    2.50
   6  -1  -5   49.02    2.49
   6  -1  -5   51.38    2.50
   6  -1  -5   54.11    2.50
  -6   1   5   51.53    2.49
  -6   1   5   48.09    2.50
  -6   1   5   51.47    2.50
   5  -1  -5   -0.01    0.07
   5  -1  -5    0.05    0.07
   5  -1  -5   -0.03    0.06
   5  -1  -5    0.02    0.07
  -5   1   5    0.09    0.07
  -5   1   5    0.02    0.07
  -5   1   5    0.09    0.06
   4  -1  -5   12.95    0.66
   4  -1  -5   13.11    0.67
   4  -1  -5   14.30    0.67
  -4   1   5   13.11    0.66
  -4   1   5   12.67    0.67
  -4   1   5   13.20    0.67
   3  -1  -5    2.46    0.18
   3  -1  -5    2.74    0.18
   3  -1  -5    2.77    0.15
  -3   1   5    2.85    0.17
  -3   1   5    2.62    0.15
  -3   1   5    2.76    0.17
   2  -1  -5   55.51    2.66
   2  -1  -5   56.45    2.66
  -2   1   5   50.05    2.65
  -2   1   5   56.37    2.65
   1  -1  -5    0.03    0.04
   1  -1  -5    0.07    0.02
   1  -1  -5    0.03    0.05
   0  -1  -5   26.42    1.30
   0  -1  -5   27.13    1.30
   0  -1  -5   26.24    1.30
   0   1   5   26.67    1.30
  -1  -1  -5    2.19    0.14
  -1  -1  -5    2.10    0.13
  -1  -1  -5    2.01    0.13
   1   1   5    2.06    0.14
  -2  -1  -5   80.08    3.83
  -2  -1  -5   77.40    3.81
  -2  -1  -5   75.61    3.81
   2   1   5   80.90    3.83
  -3  -1  -5    4.01    0.24
  -3  -1  -5    4.05    0.24
  -3  -1  -5    3.80    0.27
   3   1   5    4.34    0.27
  -4  -1  -5    7.41    0.41
  -4  -1  -5    7.72    0.42
  -4  -1  -5    8.72    0.46
  -4  -1  -5    7.62    0.42
   4   1   5    7.84    0.45
  -5  -1  -5    4.10    0.28
  -5  -1  -5    3.98    0.24
  -5  -1  -5    4.28    0.33
  -6  -1  -5    0.58    0.18
  -6  -1  -5    0.36    0.14
  -6  -1  -5    0.40    0.13
   6   1   5    0.60    0.19
  10  -2  -5    0.00    0.12
  10  -2  -5   -0.26    0.19
  10  -2  -5   -0.14    0.17
 -10   2   5   -0.07    0.21
 -10   2   5    0.16    0.16
   9  -2  -5   -0.07    0.14
   9  -2  -5    0.05    0.17
   9  -2  -5   -0.03    0.15
  -9   2   5   -0.09    0.14
  -9   2   5    0.18    0.16
  -9   2   5    0.06    0.15
   8  -2  -5    5.93    0.39
   8  -2  -5    6.52    0.37
   8  -2  -5    6.39    0.40
  -8   2   5    6.15    0.40
  -8   2   5    6.13    0.39
   7  -2  -5    7.50    0.44
   7  -2  -5    7.94    0.44
   7  -2  -5    6.92    0.43
  -7   2   5    7.19    0.43
  -7   2   5    8.14    0.44
  -7   2   5    8.22    0.44
   6  -2  -5   -0.01    0.08
   6  -2  -5    0.09    0.10
   6  -2  -5    0.06    0.08
  -6   2   5   -0.10    0.08
  -6   2   5    0.09    0.09
  -6   2   5    0.10    0.09
   5  -2  -5   10.47    0.54
   5  -2  -5   10.36    0.52
   5  -2  -5   10.21    0.54
   5  -2  -5    9.39    0.53
  -5   2   5   10.12    0.53
  -5   2   5   10.96    0.53
  -5   2   5   10.30    0.53
   4  -2  -5    6.19    0.37
   4  -2  -5    6.74    0.35
   4  -2  -5    7.08    0.37
   4  -2  -5    6.83    0.38
  -4   2   5    7.10    0.36
  -4   2   5    7.14    0.36
  -4   2   5    6.85    0.35
   3  -2  -5   34.26    1.80
   3  -2  -5   41.05    1.81
   3  -2  -5   36.00    1.82
   3  -2  -5   36.70    1.81
  -3   2   5   38.63    1.80
  -3   2   5   35.09    1.80
   2  -2  -5   21.86    1.01
   2  -2  -5   18.70    1.00
   2  -2  -5   20.59    1.01
  -2   2   5   21.16    1.00
   1  -2  -5    8.41    0.42
   1  -2  -5    8.30    0.42
   1  -2  -5    8.53    0.42
   0  -2  -5    2.22    0.13
   0  -2  -5    2.27    0.14
   0  -2  -5    2.48    0.13
  -1  -2  -5   31.29    1.51
  -1  -2  -5   31.30    1.50
  -1  -2  -5   29.69    1.50
  -2  -2  -5   56.52    2.73
  -2  -2  -5   55.27    2.71
  -2  -2  -5   53.59    2.71
   2   2   5   57.91    2.73
  -3  -2  -5   18.50    0.94
  -3  -2  -5   18.58    0.91
   3   2   5   17.93    0.94
  -4  -2  -5    0.45    0.09
  -4  -2  -5    0.39    0.08
  -4  -2  -5    0.48    0.08
  -4  -2  -5    0.19    0.14
  -4  -2  -5    0.44    0.08
   4   2   5    0.50    0.14
  -5  -2  -5    1.25    0.13
  -5  -2  -5    0.90    0.11
  -5  -2  -5    1.02    0.20
  -5  -2  -5    0.82    0.10
   5   2   5    1.34    0.19
  10  -3  -5   -0.02    0.15
  10  -3  -5   -0.06    0.15
  10  -3  -5   -0.03    0.19
 -10   3   5   -0.10    0.16
 -10   3   5    0.15    0.17
   9  -3  -5   -0.22    0.15
   9  -3  -5    0.02    0.14
   9  -3  -5    0.06    0.12
   9  -3  -5    0.00    0.13
  -9   3   5    0.00    0.15
  -9   3   5   -0.03    0.15
  -9   3   5   -0.15    0.15
   8  -3  -5   41.76    2.09
   8  -3  -5   45.03    2.10
   8  -3  -5   44.78    2.10
  -8   3   5   41.22    2.10
  -8   3   5   38.63    2.09
   7  -3  -5    0.10    0.11
   7  -3  -5    0.03    0.10
   7  -3  -5    0.05    0.09
  -7   3   5    0.01    0.10
  -7   3   5    0.34    0.11
  -7   3   5    0.10    0.11
   6  -3  -5    0.18    0.09
   6  -3  -5    0.15    0.09
   6  -3  -5    0.21    0.09
  -6   3   5    0.08    0.09
  -6   3   5    0.22    0.09
  -6   3   5    0.21    0.09
   5  -3  -5    9.45    0.49
   5  -3  -5    8.36    0.47
   5  -3  -5    8.52    0.47
   5  -3  -5    9.00    0.46
  -5   3   5    9.31    0.47
  -5   3   5    8.00    0.46
  -5   3   5    9.78    0.47
   4  -3  -5   11.43    0.62
   4  -3  -5   13.07    0.63
   4  -3  -5   12.64    0.65
   4  -3  -5   12.82    0.63
  -4   3   5   12.73    0.62
  -4   3   5   11.81    0.62
   3  -3  -5    8.29    0.45
   3  -3  -5    7.95    0.43
   3  -3  -5    9.02    0.42
   3  -3  -5    8.18    0.43
  -3   3   5    8.31    0.41
  -3   3   5    8.13    0.42
   2  -3  -5    6.53    0.34
   2  -3  -5    6.46    0.37
   2  -3  -5    6.94    0.34
   1  -3  -5    1.44    0.09
   1  -3  -5    1.24    0.10
   1  -3  -5    1.26    0.15
   1  -3  -5    1.31    0.09
   0  -3  -5    3.75    0.18
   0  -3  -5    3.55    0.24
   0  -3  -5    3.59    0.18
   0  -3  -5    3.61    0.21
  -1  -3  -5    1.29    0.08
  -1  -3  -5    1.19    0.16
  -1  -3  -5    1.29    0.08
  -1  -3  -5    1.29    0.15
  -2  -3  -5   42.64    2.07
  -2  -3  -5   44.83    2.10
  -2  -3  -5   42.54    2.09
  -2  -3  -5   40.41    2.07
  -3  -3  -5   25.65    1.27
  -3  -3  -5   25.59    1.29
  -3  -3  -5   26.08    1.26
  -3  -3  -5   25.02    1.26
  -4  -3  -5    7.16    0.37
  -4  -3  -5    6.82    0.37
  -4  -3  -5    6.64    0.37
  -4  -3  -5    6.71    0.37
  -4  -3  -5    6.91    0.44
  -5  -3  -5   -0.03    0.11
  -5  -3  -5    0.01    0.17
  10  -4  -5    0.03    0.15
  10  -4  -5   -0.48    0.17
  10  -4  -5    0.32    0.16
 -10   4   5    0.02    0.19
 -10   4   5    0.03    0.17
   9  -4  -5    1.38    0.18
   9  -4  -5    1.92    0.25
   9  -4  -5    2.09    0.21
   9  -4  -5    1.56    0.19
  -9   4   5    1.72    0.21
  -9   4   5    1.42    0.19
  -9   4   5    1.63    0.21
   8  -4  -5    5.61    0.38
   8  -4  -5    5.38    0.38
   8  -4  -5    5.40    0.36
  -8   4   5    5.41    0.37
  -8   4   5    6.09    0.37
   7  -4  -5   -0.05    0.11
   7  -4  -5    0.01    0.11
   7  -4  -5    0.18    0.12
   7  -4  -5    0.16    0.12
  -7   4   5    0.05    0.10
  -7   4   5    0.18    0.11
   6  -4  -5    0.56    0.10
   6  -4  -5    0.76    0.12
   6  -4  -5    0.69    0.11
   6  -4  -5    0.80    0.11
  -6   4   5    0.52    0.11
  -6   4   5    0.78    0.11
   5  -4  -5   28.24    1.29
   5  -4  -5   28.55    1.32
   5  -4  -5   26.50    1.30
   5  -4  -5   24.94    1.30
  -5   4   5   25.66    1.29
  -5   4   5   22.96    1.29
   4  -4  -5   18.19    0.93
   4  -4  -5   19.15    0.91
   4  -4  -5   17.56    0.91
   4  -4  -5   18.46    0.91
  -4   4   5   17.87    0.90
  -4   4   5   18.52    0.90
   3  -4  -5   55.45    3.08
   3  -4  -5   66.00    3.11
   3  -4  -5   66.18    3.09
   3  -4  -5   65.95    3.09
   2  -4  -5    0.42    0.05
   2  -4  -5    0.41    0.05
   2  -4  -5    0.41    0.10
   1  -4  -5    3.39    0.24
   1  -4  -5    3.35    0.18
   1  -4  -5    3.66    0.21
   1  -4  -5    3.48    0.18
   0  -4  -5    5.53    0.31
   0  -4  -5    5.58    0.33
  -1  -4  -5   46.88    2.34
  -1  -4  -5   48.59    2.34
  -2  -4  -5    1.44    0.17
  -2  -4  -5    1.51    0.10
  -3  -4  -5    3.31    0.19
  -3  -4  -5    3.28    0.29
  -3  -4  -5    3.30    0.20
  -3  -4  -5    3.14    0.23
  -4  -4  -5    1.61    0.14
  -4  -4  -5    1.57    0.23
  -4  -4  -5    1.78    0.16
  -4  -4  -5    1.48    0.15
  -4  -4  -5    1.64    0.15
  10  -5  -5    2.87    0.35
  10  -5  -5    3.23    0.38
  10  -5  -5    2.76    0.32
 -10   5   5    3.06    0.34
 -10   5   5    2.79    0.34
   9  -5  -5    0.93    0.18
   9  -5  -5    0.87    0.17
   9  -5  -5    0.82    0.17
   9  -5  -5    1.00    0.19
  -9   5   5    0.79    0.19
  -9   5   5    1.23    0.19
  -9   5   5    1.33    0.18
   8  -5  -5    4.00    0.30
   8  -5  -5    3.63    0.32
   8  -5  -5    3.72    0.29
   8  -5  -5    3.97    0.31
  -8   5   5    3.52    0.29
  -8   5   5    3.08    0.30
   7  -5  -5    0.22    0.13
   7  -5  -5   -0.06    0.11
   7  -5  -5   -0.06    0.11
   7  -5  -5   -0.12    0.10
  -7   5   5    0.08    0.09
  -7   5   5    0.14    0.09
   6  -5  -5    2.62    0.24
   6  -5  -5    3.02    0.28
   6  -5  -5    3.38    0.23
  -6   5   5    3.17    0.22
  -6   5   5    3.06    0.22
   5  -5  -5   41.48    2.32
   5  -5  -5   46.71    2.32
   5  -5  -5   48.32    2.32
   5  -5  -5   45.90    2.34
  -5   5   5   50.96    2.31
  -5   5   5   50.48    2.31
   4  -5  -5    7.59    0.42
   4  -5  -5    6.97    0.38
   4  -5  -5    7.03    0.38
   4  -5  -5    6.92    0.38
  -4   5   5    6.97    0.35
  -4   5   5    6.98    0.35
   3  -5  -5   17.19    0.86
   3  -5  -5   16.55    0.86
   3  -5  -5   18.29    0.89
   3  -5  -5   17.19    0.86
   2  -5  -5    0.12    0.05
   2  -5  -5    0.12    0.05
   1  -5  -5    2.90    0.20
   1  -5  -5    2.77    0.23
   1  -5  -5    2.92    0.16
   1  -5  -5    2.99    0.16
   0  -5  -5    0.55    0.11
   0  -5  -5    0.46    0.09
  -1  -5  -5    2.52    0.22
  -1  -5  -5    2.44    0.22
  -2  -5  -5    1.39    0.18
  -2  -5  -5    1.40    0.09
  -2  -5  -5    1.44    0.17
  -2  -5  -5    1.26    0.09
  -3  -5  -5    0.32    0.17
  -3  -5  -5    0.39    0.07
  -3  -5  -5    0.28    0.10
  -3  -5  -5    0.36    0.08
   9  -6  -5   -0.01    0.15
   9  -6  -5   -0.15    0.15
   9  -6  -5    0.16    0.15
  -9   6   5    0.58    0.19
  -9   6   5    0.33    0.15
   8  -6  -5    1.96    0.23
   8  -6  -5    1.81    0.20
   8  -6  -5    1.48    0.19
   8  -6  -5    1.84    0.20
  -8   6   5    1.77    0.23
   7  -6  -5    5.16    0.39
   7  -6  -5    5.30    0.35
   7  -6  -5    4.44    0.33
   7  -6  -5    5.57    0.35
  -7   6   5    5.50    0.33
   6  -6  -5    2.73    0.31
   6  -6  -5    2.94    0.23
   6  -6  -5    2.99    0.24
   6  -6  -5    2.77    0.25
  -6   6   5    3.21    0.21
  -6   6   5    2.95    0.22
   5  -6  -5   14.11    0.70
   5  -6  -5   12.61    0.69
   5  -6  -5   12.81    0.72
  -5   6   5   13.23    0.67
  -5   6   5   14.37    0.67
   4  -6  -5   18.16    0.95
   4  -6  -5   17.37    0.91
   4  -6  -5   19.70    0.92
   4  -6  -5   17.62    0.91
   3  -6  -5    4.47    0.26
   3  -6  -5    4.43    0.26
   3  -6  -5    4.82    0.33
   2  -6  -5   19.18    0.98
   2  -6  -5   20.25    0.98
   2  -6  -5   20.32    1.02
   1  -6  -5    7.97    0.41
   1  -6  -5    8.29    0.44
   1  -6  -5    8.91    0.47
   1  -6  -5    7.69    0.41
   0  -6  -5   13.13    0.70
   0  -6  -5   13.72    0.71
  -1  -6  -5    6.77    0.37
  -1  -6  -5    5.46    0.38
  -2  -6  -5    8.29    0.40
  -2  -6  -5    8.36    0.50
  -2  -6  -5    7.73    0.40
  -2  -6  -5    7.94    0.46
   9  -7  -5    1.15    0.21
   9  -7  -5    1.39    0.21
   9  -7  -5    1.66    0.22
  -9   7   5    1.62    0.20
  -9   7   5    1.50    0.23
   8  -7  -5   -0.21    0.15
   8  -7  -5   -0.02    0.14
   8  -7  -5    0.00    0.15
   8  -7  -5    0.06    0.14
  -8   7   5    0.05    0.13
   7  -7  -5    1.13    0.17
   7  -7  -5    1.08    0.16
   7  -7  -5    1.09    0.19
   7  -7  -5    1.19    0.16
  -7   7   5    1.27    0.14
  -7   7   5    1.27    0.15
   6  -7  -5    0.48    0.19
   6  -7  -5    0.42    0.12
   6  -7  -5    0.35    0.12
   6  -7  -5    0.39    0.15
  -6   7   5    0.48    0.09
  -6   7   5    0.51    0.09
   5  -7  -5   18.04    0.91
   5  -7  -5   17.10    0.85
   5  -7  -5   14.92    0.86
   5  -7  -5   17.09    0.86
   4  -7  -5    0.32    0.09
   4  -7  -5    0.53    0.11
   4  -7  -5    0.54    0.09
   4  -7  -5    0.44    0.16
   3  -7  -5   25.80    1.31
   3  -7  -5   25.13    1.27
   3  -7  -5   25.94    1.27
   2  -7  -5   17.30    0.89
   2  -7  -5   18.40    0.86
   2  -7  -5   17.08    0.91
   2  -7  -5   16.36    0.86
   1  -7  -5   18.55    0.93
   1  -7  -5   18.01    0.98
   1  -7  -5   19.98    0.96
   0  -7  -5    7.47    0.38
   0  -7  -5    7.74    0.38
   0  -7  -5    7.53    0.47
   0  -7  -5    7.80    0.46
  -1  -7  -5    1.16    0.18
   8  -8  -5    4.26    0.34
   8  -8  -5    3.36    0.36
   8  -8  -5    3.89    0.36
  -8   8   5    2.91    0.29
  -8   8   5    4.38    0.33
   7  -8  -5    0.58    0.22
   7  -8  -5    0.60    0.16
   7  -8  -5    0.71    0.16
   7  -8  -5    0.74    0.16
  -7   8   5    0.72    0.12
  -7   8   5    0.56    0.12
   6  -8  -5   13.44    0.69
   6  -8  -5   12.96    0.69
   6  -8  -5   12.22    0.69
   6  -8  -5   12.86    0.73
  -6   8   5   12.57    0.63
  -6   8   5   12.74    0.63
   5  -8  -5    0.19    0.15
   5  -8  -5    0.16    0.11
   5  -8  -5    0.14    0.12
   5  -8  -5    0.05    0.12
   4  -8  -5    7.10    0.37
   4  -8  -5    6.55    0.40
   4  -8  -5    5.67    0.38
   4  -8  -5    6.32    0.47
   3  -8  -5    0.73    0.11
   3  -8  -5    0.63    0.10
   3  -8  -5    0.69    0.19
   2  -8  -5    6.12    0.36
   2  -8  -5    5.20    0.41
   2  -8  -5    5.08    0.31
   1  -8  -5    5.60    0.33
   1  -8  -5    6.09    0.41
   1  -8  -5    6.14    0.43
   1  -8  -5    6.78    0.33
   0  -8  -5    1.67    0.21
   0  -8  -5    2.09    0.22
   7  -9  -5    7.58    0.49
   7  -9  -5    7.10    0.48
   7  -9  -5    7.69    0.49
   6  -9  -5    0.16    0.15
   6  -9  -5    0.36    0.16
   6  -9  -5    0.39    0.17
   6  -9  -5    0.50    0.19
   5  -9  -5    0.54    0.20
   5  -9  -5    0.83    0.17
   5  -9  -5    0.63    0.14
   4  -9  -5    3.70    0.26
   4  -9  -5    2.77    0.35
   4  -9  -5    2.98    0.31
   3  -9  -5    1.74    0.17
   3  -9  -5    1.69    0.21
   2  -9  -5   -0.01    0.09
   2  -9  -5   -0.21    0.15
   2  -9  -5    0.12    0.15
   0 -11   6    0.63    0.22
  -1  11  -6    8.27    0.53
  -1  11  -6    9.32    0.53
   1 -11   6    8.50    0.55
   1 -11   6    9.03    0.59
  -2  11  -6    0.73    0.18
  -2  11  -6    0.71    0.17
   2 -11   6    0.43    0.21
   2 -11   6    0.81    0.18
  -3  11  -6    0.94    0.19
  -3  11  -6    0.63    0.18
   3 -11   6    0.47    0.19
   3 -11   6    0.47    0.22
   2  10  -6    0.45    0.12
   2  10  -6    0.58    0.18
  -2 -10   6    0.42    0.17
  -2 -10   6    0.04    0.18
   1  10  -6    8.82    0.50
   1  10  -6    9.28    0.51
   1  10  -6    8.90    0.55
  -1 -10   6    8.62    0.53
  -1 -10   6    8.50    0.54
   0  10  -6   -0.01    0.11
   0  10  -6    0.00    0.13
   0  10  -6    0.23    0.17
   0 -10   6    0.07    0.20
   0 -10   6    0.08    0.15
   0 -10   6    0.18    0.16
  -1  10  -6    1.35    0.17
  -1  10  -6    1.58    0.22
   1 -10   6    1.41    0.19
   1 -10   6    1.35    0.21
   1 -10   6    2.02    0.22
  -2  10  -6    0.42    0.19
  -2  10  -6    0.44    0.16
   2 -10   6    0.48    0.19
   2 -10   6    0.37    0.18
   2 -10   6    0.35    0.15
   2 -10   6    0.23    0.15
  -3  10  -6    2.40    0.32
  -3  10  -6    2.49    0.29
   3 -10   6    2.30    0.29
   3 -10   6    1.73    0.24
  -4  10  -6    0.29    0.15
  -4  10  -6    0.09    0.16
   4 -10   6    0.12    0.17
   4 -10   6    0.31    0.21
  -5  10  -6   21.89    1.05
   5 -10   6   17.21    1.06
   5 -10   6   19.83    1.08
   4   9  -6    2.26    0.25
   4   9  -6    2.49    0.31
   4   9  -6    2.99    0.29
  -4  -9   6    1.95    0.27
  -4  -9   6    2.35    0.31
   3   9  -6    1.66    0.21
   3   9  -6    1.09    0.18
  -3  -9   6    2.27    0.25
  -3  -9   6    1.53    0.19
  -3  -9   6    2.38    0.29
   2   9  -6    0.44    0.11
   2   9  -6    0.36    0.11
   2   9  -6   -0.21    0.18
  -2  -9   6    0.36    0.16
  -2  -9   6    0.40    0.18
   1   9  -6    1.84    0.21
  -1  -9   6    2.21    0.22
  -1  -9   6    2.01    0.26
   0   9  -6   10.53    0.57
   0   9  -6   11.10    0.73
   0   9  -6    9.96    0.57
   0  -9   6    9.95    0.59
   0  -9   6   11.09    0.60
   0  -9   6   10.21    0.60
  -1   9  -6    5.59    0.40
  -1   9  -6    5.30    0.37
   1  -9   6    6.12    0.39
   1  -9   6    6.04    0.42
   1  -9   6    5.71    0.39
  -2   9  -6    0.44    0.15
  -2   9  -6    0.50    0.18
   2  -9   6    0.43    0.17
   2  -9   6    0.36    0.14
   2  -9   6    0.63    0.17
   2  -9   6    0.50    0.14
  -3   9  -6   -0.02    0.15
  -3   9  -6   -0.04    0.15
   3  -9   6    0.01    0.18
   3  -9   6   -0.04    0.14
   3  -9   6   -0.13    0.16
   3  -9   6   -0.05    0.16
  -4   9  -6    1.66    0.21
  -4   9  -6    1.43    0.21
  -4   9  -6    1.52    0.20
   4  -9   6    1.58    0.24
   4  -9   6    1.66    0.21
   4  -9   6    1.76    0.23
   4  -9   6    1.70    0.21
  -5   9  -6    0.45    0.18
   5  -9   6    0.41    0.19
   5  -9   6    0.15    0.15
  -6   9  -6    0.24    0.19
   6  -9   6    0.64    0.19
   6  -9   6    0.62    0.18
   5   8  -6    1.68    0.24
   5   8  -6    2.03    0.24
   5   8  -6    1.95    0.23
  -5  -8   6    2.34    0.29
  -5  -8   6    1.77    0.25
  -5  -8   6    1.45    0.23
   4   8  -6    0.37    0.12
   4   8  -6    0.39    0.13
  -4  -8   6    0.57    0.17
  -4  -8   6    0.51    0.16
  -4  -8   6    0.39    0.15
   3   8  -6    1.15    0.14
   3   8  -6    1.01    0.15
  -3  -8   6    1.15    0.17
  -3  -8   6    1.10    0.16
  -3  -8   6    0.95    0.19
   2   8  -6   12.08    0.66
   2   8  -6   12.27    0.64
   2   8  -6   12.95    0.64
  -2  -8   6   11.61    0.66
  -2  -8   6   11.82    0.66
   1   8  -6    3.15    0.22
   1   8  -6    2.37    0.26
   1   8  -6    2.17    0.22
  -1  -8   6    2.60    0.25
  -1  -8   6    2.28    0.25
   0   8  -6    9.32    0.49
   0   8  -6    8.17    0.51
   0   8  -6    8.73    0.49
   0  -8   6    8.60    0.50
   0  -8   6    8.97    0.50
   0  -8   6    8.57    0.52
  -1   8  -6    1.60    0.17
  -1   8  -6    1.54    0.20
   1  -8   6    1.19    0.15
   1  -8   6    1.61    0.19
  -2   8  -6    0.10    0.12
  -2   8  -6   -0.01    0.10
   2  -8   6    0.02    0.13
   2  -8   6   -0.30    0.13
  -3   8  -6    1.51    0.18
   3  -8   6    1.30    0.20
   3  -8   6    1.23    0.17
  -4   8  -6   12.61    0.72
  -4   8  -6   13.69    0.73
   4  -8   6   12.27    0.71
   4  -8   6   13.37    0.73
   4  -8   6   13.29    0.72
  -5   8  -6    5.50    0.42
  -5   8  -6    5.71    0.44
  -5   8  -6    6.17    0.42
   5  -8   6    6.42    0.44
   5  -8   6    6.26    0.41
   5  -8   6    6.01    0.42
   5  -8   6    6.14    0.44
  -6   8  -6   15.35    0.83
  -6   8  -6   13.04    0.82
   6  -8   6   15.63    0.83
   6  -8   6   15.27    0.81
   6   7  -6   25.13    1.30
   6   7  -6   29.67    1.31
  -6  -7   6   23.84    1.35
  -6  -7   6   25.26    1.34
   5   7  -6    5.21    0.33
   5   7  -6    5.08    0.34
  -5  -7   6    5.00    0.39
  -5  -7   6    5.11    0.39
  -5  -7   6    5.13    0.39
   4   7  -6    0.11    0.12
   4   7  -6    0.16    0.10
  -4  -7   6    0.19    0.14
  -4  -7   6    0.24    0.13
  -4  -7   6    0.24    0.15
   3   7  -6    8.93    0.53
   3   7  -6    9.73    0.51
  -3  -7   6    9.76    0.53
  -3  -7   6    9.38    0.53
  -3  -7   6    9.10    0.54
   2   7  -6    2.50    0.25
   2   7  -6    2.45    0.21
  -2  -7   6    2.39    0.24
  -2  -7   6    2.58    0.24
   1   7  -6   64.28    3.05
   1   7  -6   60.89    3.03
   1   7  -6   62.74    3.04
  -1  -7   6   58.52    3.04
  -1  -7   6   63.36    3.04
   0   7  -6   17.50    0.86
   0   7  -6   15.80    0.85
   0   7  -6   17.01    0.87
   0  -7   6   15.88    0.86
   0  -7   6   17.46    0.86
  -1   7  -6    0.60    0.12
  -1   7  -6    0.50    0.13
  -1   7  -6    0.99    0.11
   1  -7   6    0.67    0.13
   1  -7   6    0.34    0.11
  -2   7  -6    3.01    0.25
  -2   7  -6    2.90    0.24
   2  -7   6    2.70    0.27
   2  -7   6    2.45    0.25
   2  -7   6    3.04    0.25
  -3   7  -6    7.12    0.41
   3  -7   6    6.26    0.40
   3  -7   6    5.90    0.39
   3  -7   6    6.08    0.42
  -4   7  -6   32.75    1.62
  -4   7  -6   31.32    1.62
   4  -7   6   31.64    1.61
   4  -7   6   33.01    1.63
  -5   7  -6    0.35    0.19
  -5   7  -6    0.26    0.16
  -5   7  -6    0.20    0.15
   5  -7   6    0.05    0.13
   5  -7   6    0.25    0.14
   5  -7   6    0.19    0.15
   5  -7   6    0.46    0.17
  -6   7  -6   -0.33    0.14
  -6   7  -6    0.18    0.17
   6  -7   6   -0.13    0.17
   6  -7   6   -0.26    0.14
   6  -7   6    0.05    0.15
   7   6  -6    6.71    0.42
   7   6  -6    8.13    0.45
  -7  -6   6    6.74    0.49
  -7  -6   6    6.43    0.50
   6   6  -6    0.02    0.09
   6   6  -6    0.19    0.12
  -6  -6   6   -0.02    0.16
  -6  -6   6   -0.17    0.14
  -6  -6   6   -0.02    0.15
   5   6  -6    1.70    0.20
   5   6  -6    1.83    0.19
   5   6  -6    1.71    0.20
  -5  -6   6    1.52    0.17
  -5  -6   6    2.07    0.22
  -5  -6   6    2.10    0.21
   4   6  -6    4.63    0.31
   4   6  -6    4.78    0.29
  -4  -6   6    4.55    0.32
  -4  -6   6    4.37    0.32
  -4  -6   6    4.55    0.33
   3   6  -6    1.26    0.14
   3   6  -6    1.34    0.19
   3   6  -6    1.78    0.17
  -3  -6   6    1.53    0.16
  -3  -6   6    1.01    0.14
   2   6  -6   20.21    0.95
   2   6  -6   15.57    0.95
   2   6  -6   17.76    0.94
  -2  -6   6   18.39    0.95
  -2  -6   6   21.06    0.95
   1   6  -6    2.55    0.22
   1   6  -6    2.21    0.20
   1   6  -6    1.99    0.19
  -1  -6   6    2.03    0.21
  -1  -6   6    2.44    0.19
   0   6  -6    9.16    0.53
   0   6  -6   10.13    0.55
   0   6  -6    9.27    0.53
   0  -6   6    9.80    0.53
   0  -6   6   11.04    0.53
  -1   6  -6   22.88    1.03
  -1   6  -6   21.60    1.03
  -1   6  -6   18.00    1.03
   1  -6   6   19.94    1.03
   1  -6   6   19.28    1.02
   1  -6   6   19.90    1.03
  -2   6  -6    1.39    0.18
  -2   6  -6    2.11    0.20
  -2   6  -6    1.65    0.22
   2  -6   6    1.45    0.19
   2  -6   6    1.47    0.19
   2  -6   6    1.94    0.18
  -3   6  -6   20.63    1.07
  -3   6  -6   20.71    1.06
   3  -6   6   21.44    1.06
   3  -6   6   20.37    1.05
   3  -6   6   20.42    1.05
  -4   6  -6   12.33    0.62
   4  -6   6   11.87    0.61
   4  -6   6    9.81    0.62
  -5   6  -6   14.77    0.76
  -5   6  -6   14.57    0.76
   5  -6   6   14.19    0.77
   5  -6   6   12.43    0.74
  -6   6  -6    1.16    0.18
  -6   6  -6    1.01    0.17
  -6   6  -6    1.75    0.20
   6  -6   6    1.48    0.21
   6  -6   6    0.68    0.16
   6  -6   6    1.46    0.18
  -7   6  -6    0.15    0.20
  -7   6  -6    0.48    0.18
   7  -6   6    0.76    0.18
   7  -6   6    0.29    0.18
   7   5  -6    0.11    0.14
   7   5  -6    0.28    0.08
   7   5  -6   -0.10    0.11
  -7  -5   6    0.00    0.14
  -7  -5   6    0.34    0.15
  -7  -5   6    0.29    0.16
   6   5  -6    0.89    0.12
   6   5  -6    1.14    0.14
  -6  -5   6    1.15    0.17
  -6  -5   6    0.71    0.16
  -6  -5   6    0.94    0.18
   5   5  -6    0.12    0.09
   5   5  -6    0.11    0.09
   5   5  -6    0.14    0.10
  -5  -5   6   -0.03    0.12
  -5  -5   6    0.40    0.13
  -5  -5   6    0.18    0.12
   4   5  -6    9.04    0.51
   4   5  -6    9.80    0.51
   4   5  -6    9.39    0.51
  -4  -5   6   10.31    0.52
  -4  -5   6    8.95    0.52
  -4  -5   6    9.11    0.52
   3   5  -6   14.50    0.78
   3   5  -6   15.49    0.79
   3   5  -6   16.19    0.79
  -3  -5   6   14.92    0.79
  -3  -5   6   15.80    0.79
   2   5  -6   32.24    1.56
   2   5  -6   29.87    1.57
  -2  -5   6   32.21    1.56
  -2  -5   6   31.88    1.56
   1   5  -6   40.30    1.87
   1   5  -6   39.58    1.88
   1   5  -6   40.63    1.88
  -1  -5   6   36.81    1.87
  -1  -5   6   32.82    1.87
   0   5  -6   23.47    1.18
   0   5  -6   24.73    1.19
   0   5  -6   23.95    1.18
   0  -5   6   20.83    1.18
   0  -5   6   25.48    1.18
  -1   5  -6   15.56    0.81
  -1   5  -6   16.91    0.80
  -1   5  -6   14.49    0.80
   1  -5   6   15.34    0.80
   1  -5   6   15.93    0.80
   1  -5   6   15.86    0.80
  -2   5  -6    6.35    0.41
  -2   5  -6    8.31    0.41
  -2   5  -6    7.49    0.43
   2  -5   6    6.93    0.40
   2  -5   6    7.01    0.40
   2  -5   6    7.01    0.41
  -3   5  -6    2.93    0.24
  -3   5  -6    3.68    0.24
  -3   5  -6    2.54    0.25
   3  -5   6    3.18    0.24
   3  -5   6    3.12    0.27
  -4   5  -6   10.79    0.60
  -4   5  -6   10.31    0.59
  -4   5  -6   10.45    0.59
   4  -5   6   11.68    0.58
   4  -5   6   10.91    0.60
   4  -5   6   10.75    0.58
  -5   5  -6   13.74    0.75
  -5   5  -6   14.98    0.75
  -5   5  -6   13.05    0.74
   5  -5   6   12.93    0.72
   5  -5   6   14.21    0.73
  -6   5  -6    2.23    0.29
  -6   5  -6    1.82    0.27
  -6   5  -6    2.60    0.28
  -6   5  -6    2.68    0.28
   6  -5   6    2.30    0.25
   6  -5   6    1.78    0.23
  -7   5  -6    1.64    0.20
  -7   5  -6    2.22    0.24
  -7   5  -6    1.55    0.24
   7  -5   6    1.90    0.21
   7  -5   6    1.95    0.20
   8   4  -6   -0.02    0.16
   8   4  -6    0.22    0.14
  -8  -4   6    0.11    0.18
  -8  -4   6    0.19    0.16
   7   4  -6    1.66    0.17
   7   4  -6    1.94    0.23
  -7  -4   6    1.87    0.22
  -7  -4   6    1.97    0.22
  -7  -4   6    1.71    0.20
   6   4  -6    5.86    0.37
   6   4  -6    6.78    0.37
   6   4  -6    5.97    0.35
  -6  -4   6    5.97    0.40
  -6  -4   6    6.14    0.40
  -6  -4   6    5.88    0.38
   5   4  -6    0.61    0.11
   5   4  -6    0.57    0.11
  -5  -4   6    0.52    0.12
  -5  -4   6    0.30    0.11
  -5  -4   6    0.48    0.12
   4   4  -6    9.51    0.50
   4   4  -6    8.95    0.49
   4   4  -6    9.10    0.49
  -4  -4   6    9.75    0.50
  -4  -4   6    9.28    0.50
  -4  -4   6    8.51    0.50
   3   4  -6   20.96    1.01
   3   4  -6   18.64    1.00
   3   4  -6   21.15    1.01
  -3  -4   6   19.39    1.00
  -3  -4   6   20.16    1.01
  -3  -4   6   19.66    1.00
   2   4  -6    5.39    0.29
   2   4  -6    4.51    0.28
   2   4  -6    4.74    0.29
  -2  -4   6    4.74    0.28
  -2  -4   6    4.31    0.28
   1   4  -6   29.60    1.46
   1   4  -6   31.19    1.47
   1   4  -6   30.92    1.46
  -1  -4   6   29.53    1.46
  -1  -4   6   26.24    1.46
   0   4  -6    2.13    0.17
   0   4  -6    2.41    0.19
   0   4  -6    2.12    0.17
   0  -4   6    2.08    0.17
   0  -4   6    1.71    0.16
  -1   4  -6    0.53    0.09
  -1   4  -6    0.44    0.09
  -1   4  -6    0.40    0.09
   1  -4   6    0.48    0.09
   1  -4   6    0.43    0.09
   1  -4   6    0.32    0.07
  -2   4  -6    3.08    0.24
  -2   4  -6    2.88    0.23
  -2   4  -6    3.23    0.23
   2  -4   6    3.53    0.23
   2  -4   6    3.23    0.22
   2  -4   6    3.38    0.22
  -3   4  -6   -0.02    0.10
  -3   4  -6    0.08    0.09
   3  -4   6   -0.02    0.10
   3  -4   6    0.00    0.09
   3  -4   6    0.02    0.09
  -4   4  -6    0.08    0.11
  -4   4  -6    0.08    0.11
  -4   4  -6    0.07    0.11
  -4   4  -6    0.05    0.10
   4  -4   6    0.08    0.09
   4  -4   6    0.00    0.10
   4  -4   6    0.10    0.10
  -5   4  -6    0.02    0.12
  -5   4  -6    0.39    0.14
  -5   4  -6    0.18    0.12
   5  -4   6    0.13    0.10
   5  -4   6   -0.08    0.16
  -6   4  -6    2.00    0.26
  -6   4  -6    1.75    0.20
  -6   4  -6    2.35    0.31
  -6   4  -6    2.44    0.31
   6  -4   6    2.25    0.29
   6  -4   6    2.43    0.23
  -7   4  -6    8.58    0.56
  -7   4  -6    8.29    0.54
  -7   4  -6    7.93    0.51
   7  -4   6    8.85    0.50
   8   3  -6    2.37    0.18
   8   3  -6    2.23    0.17
   8   3  -6    2.15    0.27
   8   3  -6    2.48    0.25
  -8  -3   6    1.66    0.22
  -8  -3   6    1.96    0.23
  -8  -3   6    2.48    0.29
   7   3  -6    2.11    0.18
   7   3  -6    2.18    0.23
   7   3  -6    1.91    0.18
  -7  -3   6    1.64    0.19
  -7  -3   6    2.32    0.25
  -7  -3   6    2.03    0.26
   6   3  -6    0.21    0.08
   6   3  -6    0.08    0.10
  -6  -3   6    0.15    0.12
  -6  -3   6    0.21    0.12
   5   3  -6   18.43    0.87
   5   3  -6   17.27    0.87
  -5  -3   6   16.94    0.87
  -5  -3   6   15.77    0.87
  -5  -3   6   16.83    0.87
   4   3  -6    5.28    0.35
   4   3  -6    6.42    0.36
  -4  -3   6    6.67    0.35
  -4  -3   6    6.67    0.36
  -4  -3   6    6.39    0.36
   3   3  -6   32.02    1.64
   3   3  -6   35.23    1.64
  -3  -3   6   32.42    1.64
  -3  -3   6   33.71    1.64
  -3  -3   6   32.89    1.64
   2   3  -6   12.39    0.67
   2   3  -6   13.63    0.67
  -2  -3   6   13.54    0.67
  -2  -3   6   12.97    0.67
   1   3  -6   12.23    0.65
   1   3  -6   12.02    0.64
   1   3  -6   12.64    0.64
  -1  -3   6   13.85    0.64
  -1  -3   6   11.94    0.64
   0   3  -6    3.49    0.21
   0   3  -6    3.39    0.23
   0   3  -6    3.19    0.21
   0  -3   6    3.60    0.21
   0  -3   6    2.95    0.21
   0  -3   6    3.36    0.20
  -1   3  -6   53.26    2.52
  -1   3  -6   54.44    2.53
  -1   3  -6   52.85    2.52
   1  -3   6   48.90    2.52
   1  -3   6   49.96    2.52
   1  -3   6   49.92    2.52
  -2   3  -6    5.78    0.32
  -2   3  -6    5.30    0.31
  -2   3  -6    5.08    0.32
   2  -3   6    5.53    0.31
   2  -3   6    5.52    0.31
   2  -3   6    5.54    0.32
  -3   3  -6   39.28    1.81
  -3   3  -6   36.48    1.81
  -3   3  -6   35.81    1.81
  -3   3  -6   36.74    1.81
   3  -3   6   36.70    1.80
   3  -3   6   35.86    1.81
   3  -3   6   35.42    1.80
  -4   3  -6    2.27    0.23
  -4   3  -6    2.53    0.22
  -4   3  -6    1.93    0.21
  -4   3  -6    2.89    0.22
   4  -3   6    2.21    0.20
   4  -3   6    2.21    0.19
   4  -3   6    2.64    0.23
  -5   3  -6    6.21    0.40
  -5   3  -6    6.28    0.42
  -5   3  -6    7.04    0.42
   5  -3   6    6.63    0.37
   5  -3   6    6.54    0.37
  -6   3  -6    0.95    0.20
  -6   3  -6    1.35    0.20
  -6   3  -6    1.00    0.17
  -6   3  -6    1.22    0.16
   6  -3   6    1.37    0.13
   6  -3   6    1.18    0.14
   6  -3   6    1.05    0.19
  -7   3  -6   -0.02    0.16
  -7   3  -6    0.06    0.14
  -7   3  -6    0.15    0.19
  -7   3  -6    0.24    0.19
   7  -3   6    0.07    0.18
   7  -3   6    0.01    0.13
   9   2  -6    3.25    0.32
   9   2  -6    3.43    0.36
  -9  -2   6    3.28    0.34
  -9  -2   6    3.56    0.37
   8   2  -6    0.25    0.13
   8   2  -6    0.18    0.14
   8   2  -6    0.26    0.10
  -8  -2   6    0.01    0.15
  -8  -2   6    0.12    0.14
  -8  -2   6    0.15    0.16
   7   2  -6    0.10    0.09
   7   2  -6   -0.08    0.09
   7   2  -6   -0.07    0.11
  -7  -2   6   -0.08    0.11
  -7  -2   6    0.14    0.13
  -7  -2   6    0.07    0.12
   6   2  -6    0.66    0.12
   6   2  -6    0.95    0.12
  -6  -2   6    1.37    0.17
  -6  -2   6    0.70    0.14
   5   2  -6    0.10    0.09
  -5  -2   6    0.19    0.11
   4   2  -6    0.11    0.07
   4   2  -6    0.03    0.07
  -4  -2   6    0.19    0.08
  -4  -2   6    0.04    0.07
  -4  -2   6    0.11    0.08
   3   2  -6    0.45    0.08
   3   2  -6    0.47    0.08
  -3  -2   6    0.40    0.08
  -3  -2   6    0.38    0.06
  -3  -2   6    0.42    0.08
   2   2  -6   82.32    3.98
   2   2  -6   80.92    3.98
  -2  -2   6   80.66    3.98
  -2  -2   6   82.89    3.98
   1   2  -6   35.31    1.73
   1   2  -6   36.15    1.73
  -1  -2   6   33.85    1.73
  -1  -2   6   35.90    1.73
   0   2  -6   20.47    0.99
   0   2  -6   18.35    0.99
   0  -2   6   19.74    0.99
   0  -2   6   21.09    0.98
   0  -2   6   19.88    0.99
  -1   2  -6    4.36    0.25
  -1   2  -6    4.32    0.25
  -1   2  -6    3.95    0.26
   1  -2   6    4.21    0.24
   1  -2   6    4.26    0.24
   1  -2   6    4.24    0.24
  -2   2  -6    4.71    0.27
  -2   2  -6    4.65    0.26
  -2   2  -6    4.01    0.28
  -2   2  -6    4.32    0.27
   2  -2   6    4.49    0.27
   2  -2   6    4.62    0.25
   2  -2   6    4.53    0.25
  -3   2  -6    0.29    0.10
  -3   2  -6    0.31    0.09
  -3   2  -6    0.45    0.10
  -3   2  -6    0.25    0.09
   3  -2   6    0.32    0.07
   3  -2   6    0.44    0.07
   3  -2   6    0.38    0.10
  -4   2  -6   20.93    1.10
  -4   2  -6   22.22    1.10
  -4   2  -6   22.27    1.10
  -4   2  -6   22.73    1.10
   4  -2   6   21.57    1.11
   4  -2   6   21.44    1.08
   4  -2   6   21.39    1.08
  -5   2  -6    2.28    0.27
  -5   2  -6    2.36    0.24
  -5   2  -6    2.50    0.24
   5  -2   6    2.55    0.17
   5  -2   6    2.65    0.18
  -6   2  -6    0.78    0.15
  -6   2  -6    0.83    0.14
  -6   2  -6    0.99    0.19
  -6   2  -6    0.81    0.16
   6  -2   6    0.57    0.17
   6  -2   6    0.89    0.10
   6  -2   6    0.90    0.12
   9   1  -6    1.47    0.19
   9   1  -6    1.64    0.21
   9   1  -6    1.57    0.22
   9   1  -6    1.27    0.15
  -9  -1   6    1.80    0.22
  -9  -1   6    1.04    0.19
   8   1  -6    1.95    0.24
   8   1  -6    2.05    0.25
   8   1  -6    2.22    0.19
   8   1  -6    2.43    0.27
  -8  -1   6    2.51    0.26
  -8  -1   6    2.37    0.29
  -8  -1   6    1.98    0.27
   7   1  -6    5.54    0.35
   7   1  -6    5.38    0.34
   7   1  -6    5.30    0.32
  -7  -1   6    5.43    0.34
  -7  -1   6    5.10    0.36
   6   1  -6    1.66    0.19
   6   1  -6    2.15    0.19
  -6  -1   6    2.16    0.21
  -6  -1   6    1.56    0.19
  -6  -1   6    1.61    0.18
   5   1  -6    7.33    0.41
   5   1  -6    6.70    0.41
  -5  -1   6    7.11    0.41
  -5  -1   6    8.39    0.40
  -5  -1   6    7.58    0.41
   4   1  -6   13.12    0.66
   4   1  -6   12.85    0.66
  -4  -1   6   12.77    0.65
  -4  -1   6   12.66    0.66
  -4  -1   6   13.31    0.66
   3   1  -6    0.18    0.07
   3   1  -6    0.21    0.07
  -3  -1   6    0.23    0.08
  -3  -1   6    0.21    0.07
  -3  -1   6    0.20    0.05
   2   1  -6    9.79    0.50
   2   1  -6    8.81    0.50
  -2  -1   6    9.53    0.49
  -2  -1   6   10.09    0.48
  -2  -1   6    9.88    0.49
   1   1  -6   21.87    1.08
   1   1  -6   22.02    1.08
  -1  -1   6   21.73    1.07
  -1  -1   6   21.01    1.07
  -1  -1   6   22.29    1.06
   0   1  -6    0.44    0.07
   0   1  -6    0.37    0.07
   0  -1   6    0.44    0.06
   0  -1   6    0.52    0.06
   0  -1   6    0.51    0.06
  -1   1  -6   -0.01    0.05
  -1   1  -6    0.00    0.05
  -1   1  -6   -0.03    0.06
   1  -1   6   -0.01    0.04
   1  -1   6    0.00    0.04
   1  -1   6    0.06    0.05
  -2   1  -6    2.57    0.20
  -2   1  -6    2.30    0.18
  -2   1  -6    2.39    0.18
  -2   1  -6    2.41    0.17
   2  -1   6    2.36    0.18
   2  -1   6    2.49    0.15
   2  -1   6    2.63    0.14
  -3   1  -6   58.88    2.86
  -3   1  -6   59.65    2.87
  -3   1  -6   59.08    2.86
  -3   1  -6   59.67    2.87
   3  -1   6   58.74    2.87
   3  -1   6   56.46    2.84
   3  -1   6   57.69    2.85
  -4   1  -6    5.03    0.31
  -4   1  -6    5.25    0.31
  -4   1  -6    4.95    0.31
  -4   1  -6    5.28    0.33
   4  -1   6    4.92    0.33
  -5   1  -6    0.47    0.11
  -5   1  -6    0.35    0.12
  -5   1  -6    0.22    0.15
  -5   1  -6    0.35    0.12
  -6   1  -6    0.32    0.11
  -6   1  -6    0.47    0.14
  -6   1  -6    0.26    0.15
  -6   1  -6    0.44    0.18
   6  -1   6    0.71    0.19
   9   0  -6   16.59    0.91
   9   0  -6   17.66    0.92
   9   0  -6   17.26    0.91
   9   0  -6   17.97    0.88
  -9   0   6   16.69    0.92
  -9   0   6   15.89    0.92
  -9   0   6   17.67    0.92
   8   0  -6    4.83    0.34
   8   0  -6    4.90    0.31
   8   0  -6    4.58    0.34
   8   0  -6    4.65    0.34
  -8   0   6    5.20    0.35
  -8   0   6    4.84    0.36
   7   0  -6   26.53    1.26
   7   0  -6   26.28    1.25
   7   0  -6   22.48    1.25
   7   0  -6   23.89    1.26
  -7   0   6   25.54    1.26
   6   0  -6   46.54    2.23
   6   0  -6   43.01    2.23
   6   0  -6   44.44    2.23
   6   0  -6   45.19    2.23
  -6   0   6   44.76    2.23
  -6   0   6   43.66    2.22
  -6   0   6   49.62    2.23
   5   0  -6    0.21    0.09
   5   0  -6    0.33    0.09
   5   0  -6    0.28    0.07
  -5   0   6    0.28    0.07
  -5   0   6    0.34    0.08
  -5   0   6    0.21    0.09
   4   0  -6    0.17    0.07
   4   0  -6    0.02    0.07
  -4   0   6    0.11    0.07
  -4   0   6    0.04    0.07
  -4   0   6    0.17    0.05
   3   0  -6    2.87    0.20
   3   0  -6    2.77    0.20
  -3   0   6    3.16    0.19
  -3   0   6    3.04    0.16
  -3   0   6    3.42    0.20
   2   0  -6  166.69    7.44
   2   0  -6  146.68    7.43
  -2   0   6  144.77    7.43
  -2   0   6  154.81    7.43
   1   0  -6   53.67    2.82
   1   0  -6   59.05    2.82
  -1   0   6   55.25    2.81
  -1   0   6   62.20    2.82
  -1   0   6   59.68    2.82
   0   0  -6   31.07    1.57
   0   0  -6   33.48    1.57
   0   0  -6   33.67    1.57
   0   0   6   30.75    1.56
   0   0   6   30.81    1.56
   0   0   6   32.84    1.57
  -1   0  -6    0.09    0.05
  -1   0  -6   -0.03    0.05
  -1   0  -6    0.07    0.06
   1   0   6   -0.04    0.05
  -2   0  -6   21.08    1.04
  -2   0  -6   21.03    1.05
  -2   0  -6   20.96    1.05
   2   0   6   21.20    1.05
  -3   0  -6    1.66    0.15
  -3   0  -6    1.64    0.16
  -3   0  -6    1.73    0.19
  -3   0  -6    1.48    0.17
   3   0   6    1.87    0.18
  -4   0  -6    0.13    0.09
  -4   0  -6   -0.02    0.08
  -4   0  -6    0.05    0.09
   4   0   6    0.03    0.11
  -5   0  -6   -0.07    0.09
  -5   0  -6   -0.04    0.11
  -5   0  -6   -0.04    0.11
  -5   0  -6    0.02    0.16
  -6   0  -6    0.49    0.18
  -6   0  -6    0.17    0.15
  -6   0  -6    0.12    0.15
   6   0   6    0.07    0.18
  10  -1  -6    7.65    0.54
  10  -1  -6    9.16    0.52
 -10   1   6    7.29    0.53
 -10   1   6    8.25    0.53
   9  -1  -6    0.77    0.17
   9  -1  -6    0.55    0.15
   9  -1  -6    0.62    0.15
  -9   1   6    0.57    0.16
  -9   1   6    0.71    0.17
  -9   1   6    0.74    0.17
   8  -1  -6   15.96    0.82
   8  -1  -6   16.26    0.83
   8  -1  -6   15.54    0.83
   8  -1  -6   16.25    0.84
  -8   1   6   15.58    0.83
  -8   1   6   15.92    0.84
  -8   1   6   15.07    0.83
   7  -1  -6   27.54    1.35
   7  -1  -6   25.96    1.34
   7  -1  -6   26.95    1.35
  -7   1   6   25.54    1.34
  -7   1   6   27.75    1.35
  -7   1   6   27.25    1.35
   6  -1  -6   11.14    0.62
   6  -1  -6   11.86    0.63
   6  -1  -6   12.02    0.61
   6  -1  -6   12.22    0.63
  -6   1   6   11.84    0.63
  -6   1   6   12.09    0.61
   5  -1  -6    1.73    0.16
   5  -1  -6    1.57    0.16
   5  -1  -6    1.45    0.16
   5  -1  -6    1.41    0.13
  -5   1   6    1.35    0.13
  -5   1   6    1.58    0.15
  -5   1   6    1.35    0.15
   4  -1  -6    0.01    0.06
   4  -1  -6    0.03    0.04
   4  -1  -6    0.08    0.06
  -4   1   6    0.12    0.06
  -4   1   6    0.05    0.04
  -4   1   6    0.12    0.07
   3  -1  -6    0.17    0.06
   3  -1  -6    0.26    0.07
  -3   1   6    0.26    0.06
  -3   1   6    0.15    0.06
   2  -1  -6   70.61    3.43
   2  -1  -6   73.17    3.43
  -2   1   6   70.89    3.42
  -2   1   6   67.31    3.42
   1  -1  -6    8.99    0.45
   1  -1  -6    8.77    0.45
   0  -1  -6   14.51    0.72
   0  -1  -6   14.47    0.72
   0  -1  -6   14.72    0.72
  -1  -1  -6   40.65    2.03
  -1  -1  -6   41.38    2.03
  -1  -1  -6   44.12    2.03
   1   1   6   40.13    2.03
  -2  -1  -6   29.18    1.44
  -2  -1  -6   28.95    1.44
  -2  -1  -6   29.71    1.45
   2   1   6   29.40    1.45
  -3  -1  -6    4.12    0.25
  -3  -1  -6    4.43    0.29
  -3  -1  -6    4.31    0.26
   3   1   6    4.29    0.29
  -4  -1  -6    2.09    0.19
  -4  -1  -6    2.08    0.24
  -4  -1  -6    2.17    0.20
   4   1   6    1.70    0.23
  -5  -1  -6    4.43    0.28
  -5  -1  -6    4.23    0.31
  -5  -1  -6    5.62    0.32
  -5  -1  -6    4.72    0.38
   5   1   6    4.45    0.37
  10  -2  -6    3.82    0.36
  10  -2  -6    4.18    0.35
  10  -2  -6    4.33    0.39
 -10   2   6    4.43    0.38
 -10   2   6    3.80    0.38
   9  -2  -6    5.30    0.35
   9  -2  -6    4.19    0.36
   9  -2  -6    5.18    0.37
   9  -2  -6    4.96    0.36
  -9   2   6    4.07    0.36
  -9   2   6    5.38    0.37
  -9   2   6    4.74    0.37
   8  -2  -6   -0.02    0.11
   8  -2  -6    0.12    0.13
   8  -2  -6    0.05    0.10
  -8   2   6   -0.05    0.18
  -8   2   6    0.00    0.13
   7  -2  -6    8.23    0.47
   7  -2  -6    8.82    0.47
  -7   2   6    8.43    0.48
  -7   2   6    8.43    0.47
  -7   2   6    8.03    0.46
   6  -2  -6    6.79    0.40
   6  -2  -6    7.06    0.40
   6  -2  -6    7.09    0.38
   6  -2  -6    7.19    0.41
  -6   2   6    6.91    0.40
  -6   2   6    7.13    0.40
  -6   2   6    7.18    0.39
   5  -2  -6   10.68    0.54
   5  -2  -6   10.51    0.57
   5  -2  -6   10.77    0.56
   5  -2  -6    9.72    0.56
  -5   2   6   10.40    0.54
  -5   2   6   11.35    0.55
  -5   2   6   11.27    0.55
   4  -2  -6    3.18    0.20
   4  -2  -6    3.18    0.20
   4  -2  -6    3.00    0.23
   4  -2  -6    2.88    0.17
  -4   2   6    2.98    0.19
  -4   2   6    3.05    0.19
   3  -2  -6   10.01    0.47
   3  -2  -6    8.89    0.47
  -3   2   6    9.13    0.46
  -3   2   6    8.67    0.46
   2  -2  -6   44.56    2.16
   2  -2  -6   44.07    2.16
   1  -2  -6    4.04    0.22
   1  -2  -6    4.11    0.22
   1  -2  -6    3.81    0.21
   0  -2  -6   10.86    0.55
   0  -2  -6   10.95    0.54
   0  -2  -6   11.06    0.55
  -1  -2  -6  117.35    5.88
  -1  -2  -6  125.32    5.90
  -1  -2  -6  121.30    5.88
  -2  -2  -6    4.10    0.22
  -2  -2  -6    4.00    0.26
  -2  -2  -6    3.86    0.23
  -3  -2  -6   27.69    1.31
  -3  -2  -6   25.47    1.29
  -3  -2  -6   24.81    1.29
   3   2   6   26.79    1.32
  -4  -2  -6    1.27    0.17
  -4  -2  -6    1.31    0.13
  -4  -2  -6    1.17    0.17
  -4  -2  -6    1.39    0.17
  -4  -2  -6    1.24    0.12
  -5  -2  -6    7.94    0.47
  -5  -2  -6    8.71    0.56
  -5  -2  -6    8.55    0.47
   5   2   6    7.69    0.52
  10  -3  -6    2.31    0.26
  10  -3  -6    2.33    0.31
  10  -3  -6    2.52    0.30
 -10   3   6    2.35    0.31
 -10   3   6    1.81    0.24
   9  -3  -6    0.62    0.16
   9  -3  -6    1.03    0.17
   9  -3  -6    0.82    0.17
   9  -3  -6    0.65    0.16
  -9   3   6    0.73    0.17
  -9   3   6    0.68    0.17
  -9   3   6    0.59    0.16
   8  -3  -6   13.02    0.78
   8  -3  -6   14.24    0.78
   8  -3  -6   15.10    0.76
  -8   3   6   15.05    0.77
  -8   3   6   15.28    0.76
   7  -3  -6   -0.20    0.10
   7  -3  -6    0.10    0.12
   7  -3  -6    0.07    0.09
  -7   3   6   -0.06    0.10
  -7   3   6    0.07    0.10
  -7   3   6    0.12    0.10
   6  -3  -6    6.89    0.38
   6  -3  -6    7.86    0.40
   6  -3  -6    7.44    0.40
   6  -3  -6    6.85    0.41
  -6   3   6    6.83    0.39
  -6   3   6    6.42    0.38
  -6   3   6    6.36    0.39
   5  -3  -6   29.09    1.39
   5  -3  -6   29.90    1.38
   5  -3  -6   29.80    1.38
   5  -3  -6   25.30    1.36
  -5   3   6   27.74    1.37
  -5   3   6   25.04    1.37
   4  -3  -6    6.69    0.36
   4  -3  -6    6.92    0.34
   4  -3  -6    6.80    0.39
   4  -3  -6    6.73    0.37
  -4   3   6    6.47    0.35
  -4   3   6    6.51    0.35
   3  -3  -6    0.65    0.08
   3  -3  -6    0.76    0.06
   3  -3  -6    0.77    0.12
   3  -3  -6    0.71    0.08
   2  -3  -6    7.00    0.35
   2  -3  -6    7.00    0.35
   2  -3  -6    6.61    0.34
   2  -3  -6    6.31    0.39
   1  -3  -6    0.57    0.11
   1  -3  -6    0.53    0.06
   1  -3  -6    0.56    0.08
   1  -3  -6    0.56    0.06
   0  -3  -6    0.22    0.04
   0  -3  -6    0.30    0.07
   0  -3  -6    0.17    0.09
   0  -3  -6    0.25    0.04
  -1  -3  -6   34.41    1.68
  -1  -3  -6   34.30    1.69
  -1  -3  -6   33.33    1.66
  -1  -3  -6   34.02    1.66
  -2  -3  -6   -0.09    0.10
  -2  -3  -6   -0.05    0.05
  -2  -3  -6   -0.01    0.08
  -2  -3  -6    0.09    0.05
  -3  -3  -6    1.70    0.15
  -3  -3  -6    1.98    0.23
  -3  -3  -6    1.51    0.17
  -4  -3  -6    1.47    0.17
  -4  -3  -6    1.52    0.17
  -4  -3  -6    1.37    0.20
  -4  -3  -6    1.24    0.18
  -4  -3  -6    1.29    0.17
  10  -4  -6    0.25    0.19
  10  -4  -6   -0.09    0.19
  10  -4  -6    0.48    0.18
 -10   4   6    0.04    0.20
 -10   4   6    0.11    0.17
   9  -4  -6    0.24    0.16
   9  -4  -6    0.43    0.15
   9  -4  -6    0.12    0.15
   9  -4  -6    0.04    0.16
  -9   4   6    0.40    0.19
  -9   4   6    0.22    0.15
  -9   4   6    0.20    0.15
   8  -4  -6    0.89    0.16
   8  -4  -6    0.80    0.15
   8  -4  -6    0.48    0.15
   8  -4  -6    0.80    0.13
  -8   4   6    0.78    0.12
  -8   4   6    0.75    0.15
   7  -4  -6   -0.04    0.12
   7  -4  -6    0.20    0.10
   7  -4  -6    0.07    0.10
   7  -4  -6    0.14    0.12
  -7   4   6    0.09    0.10
  -7   4   6    0.06    0.09
  -7   4   6   -0.01    0.10
   6  -4  -6    0.91    0.14
   6  -4  -6    1.13    0.14
   6  -4  -6    0.84    0.13
  -6   4   6    1.51    0.16
  -6   4   6    1.03    0.11
   5  -4  -6  222.84   10.71
   5  -4  -6  205.76   10.68
   5  -4  -6  227.00   10.69
   5  -4  -6  193.17   10.69
  -5   4   6  233.54   10.69
  -5   4   6  239.78   10.69
   4  -4  -6    1.95    0.16
   4  -4  -6    2.15    0.22
   4  -4  -6    2.34    0.17
   4  -4  -6    2.08    0.14
  -4   4   6    2.17    0.13
  -4   4   6    2.04    0.13
   3  -4  -6    6.72    0.36
   3  -4  -6    5.92    0.31
   3  -4  -6    5.58    0.32
   3  -4  -6    5.30    0.30
   2  -4  -6   31.44    1.54
   2  -4  -6   31.52    1.54
   2  -4  -6   33.27    1.58
   2  -4  -6   30.10    1.54
   1  -4  -6    0.14    0.06
   1  -4  -6    0.16    0.09
   1  -4  -6    0.17    0.04
   1  -4  -6    0.12    0.04
   0  -4  -6    5.96    0.29
   0  -4  -6    5.65    0.29
   0  -4  -6    6.08    0.36
   0  -4  -6    5.83    0.33
  -1  -4  -6    0.43    0.04
  -1  -4  -6    0.33    0.11
  -1  -4  -6    0.24    0.10
  -1  -4  -6    0.45    0.05
  -2  -4  -6   -0.08    0.09
  -2  -4  -6    0.08    0.05
  -3  -4  -6    0.11    0.15
  -3  -4  -6    0.00    0.09
  -3  -4  -6   -0.04    0.06
  -3  -4  -6    0.06    0.07
   9  -5  -6    4.82    0.35
   9  -5  -6    4.41    0.40
   9  -5  -6    4.34    0.35
  -9   5   6    4.13    0.36
  -9   5   6    4.32    0.35
  -9   5   6    4.42    0.38
   8  -5  -6   -0.05    0.16
   8  -5  -6    0.02    0.17
   8  -5  -6    0.15    0.12
   8  -5  -6   -0.10    0.13
  -8   5   6   -0.08    0.12
   7  -5  -6   -0.21    0.12
   7  -5  -6   -0.19    0.13
   7  -5  -6    0.17    0.13
   7  -5  -6    0.04    0.10
  -7   5   6   -0.03    0.10
   6  -5  -6   13.45    0.74
   6  -5  -6   13.59    0.71
   6  -5  -6   14.67    0.70
   6  -5  -6   13.02    0.71
  -6   5   6   13.91    0.70
  -6   5   6   12.87    0.69
   5  -5  -6   20.55    1.01
   5  -5  -6   19.74    1.03
   5  -5  -6   20.82    1.06
   5  -5  -6   20.84    1.02
  -5   5   6   19.48    1.00
  -5   5   6   20.72    1.00
   4  -5  -6    0.49    0.09
   4  -5  -6    0.52    0.08
   4  -5  -6    0.46    0.09
   4  -5  -6    0.51    0.14
   3  -5  -6    0.11    0.06
   3  -5  -6   -0.08    0.06
   3  -5  -6    0.00    0.11
   3  -5  -6    0.03    0.06
   2  -5  -6    0.09    0.07
   2  -5  -6    0.16    0.06
   2  -5  -6    0.13    0.05
   1  -5  -6    2.92    0.21
   1  -5  -6    2.98    0.17
   1  -5  -6    2.96    0.17
   1  -5  -6    3.82    0.26
   0  -5  -6   24.78    1.26
   0  -5  -6   24.95    1.24
  -2  -5  -6   10.03    0.53
  -2  -5  -6   10.90    0.57
  -2  -5  -6   10.54    0.53
  -2  -5  -6   11.13    0.61
  -3  -5  -6   -0.01    0.14
  -3  -5  -6    0.14    0.19
   9  -6  -6    2.02    0.22
   9  -6  -6    2.11    0.30
  -9   6   6    1.33    0.20
  -9   6   6    2.07    0.27
   8  -6  -6    2.60    0.32
   8  -6  -6    2.80    0.27
   8  -6  -6    2.87    0.29
   8  -6  -6    2.40    0.28
  -8   6   6    2.92    0.27
   7  -6  -6   12.17    0.66
   7  -6  -6   12.40    0.71
   7  -6  -6   12.32    0.67
   7  -6  -6   12.98    0.67
  -7   6   6   12.71    0.66
  -7   6   6   11.77    0.65
   6  -6  -6    0.73    0.12
   6  -6  -6    0.63    0.11
   6  -6  -6    0.60    0.16
   6  -6  -6    0.71    0.13
  -6   6   6    0.72    0.09
  -6   6   6    0.62    0.10
   5  -6  -6   31.61    1.61
   5  -6  -6   31.59    1.64
   5  -6  -6   33.26    1.61
   5  -6  -6   33.21    1.60
   4  -6  -6    4.87    0.28
   4  -6  -6    4.79    0.28
   4  -6  -6    4.25    0.34
   4  -6  -6    4.68    0.28
   3  -6  -6    0.09    0.08
   3  -6  -6    0.02    0.07
   3  -6  -6    0.05    0.07
   3  -6  -6    0.03    0.13
   2  -6  -6   13.07    0.65
   2  -6  -6   13.55    0.71
   2  -6  -6   12.94    0.67
   2  -6  -6   12.61    0.65
   1  -6  -6    1.30    0.17
   1  -6  -6    1.21    0.09
   1  -6  -6    1.19    0.10
   1  -6  -6    1.15    0.13
   0  -6  -6    0.17    0.10
   0  -6  -6    0.19    0.13
  -1  -6  -6    1.21    0.16
  -2  -6  -6    2.09    0.24
   8  -7  -6    0.87    0.16
   8  -7  -6    1.06    0.17
   8  -7  -6    0.53    0.17
   8  -7  -6    1.10    0.23
  -8   7   6    0.93    0.15
  -8   7   6    1.02    0.16
   7  -7  -6    0.05    0.12
   7  -7  -6   -0.02    0.16
   7  -7  -6   -0.22    0.14
   7  -7  -6    0.18    0.14
  -7   7   6    0.09    0.10
  -7   7   6    0.01    0.09
   6  -7  -6    0.24    0.16
   6  -7  -6    0.13    0.11
   6  -7  -6    0.02    0.11
   6  -7  -6    0.06    0.12
  -6   7   6    0.02    0.06
  -6   7   6    0.00    0.05
   5  -7  -6   16.96    0.94
   5  -7  -6   20.51    0.95
   5  -7  -6   18.28    1.00
   5  -7  -6   18.47    0.94
   4  -7  -6    7.89    0.48
   4  -7  -6    8.76    0.56
   4  -7  -6   10.58    0.51
   4  -7  -6    9.28    0.49
   3  -7  -6    0.41    0.09
   3  -7  -6    0.27    0.08
   3  -7  -6    0.56    0.18
   2  -7  -6    0.04    0.07
   2  -7  -6    0.18    0.11
   2  -7  -6    0.16    0.14
   2  -7  -6    0.14    0.07
   1  -7  -6    1.07    0.10
   1  -7  -6    1.18    0.11
   1  -7  -6    1.22    0.18
   0  -7  -6    1.32    0.18
   0  -7  -6    1.21    0.17
   7  -8  -6    2.81    0.29
   7  -8  -6    2.69    0.28
   7  -8  -6    3.46    0.32
   7  -8  -6    2.45    0.29
  -7   8   6    2.56    0.27
   6  -8  -6    2.58    0.28
   6  -8  -6    2.25    0.26
   6  -8  -6    2.84    0.26
   6  -8  -6    2.48    0.28
   5  -8  -6    3.57    0.28
   5  -8  -6    3.64    0.29
   5  -8  -6    3.69    0.36
   5  -8  -6    3.67    0.30
   4  -8  -6    6.73    0.42
   4  -8  -6    6.46    0.41
   4  -8  -6    6.70    0.38
   4  -8  -6    6.98    0.47
   3  -8  -6    0.46    0.17
   3  -8  -6    0.41    0.11
   3  -8  -6    0.42    0.11
   2  -8  -6   14.18    0.80
   2  -8  -6   14.44    0.75
   2  -8  -6   14.03    0.72
   1  -8  -6    2.83    0.37
   1  -8  -6    1.64    0.20
   2  10  -7    0.10    0.16
   2  10  -7    0.14    0.19
  -2 -10   7    0.12    0.15
   1  10  -7    1.33    0.22
   1  10  -7    1.25    0.17
   1  10  -7    1.43    0.19
  -1 -10   7    1.50    0.21
   0  10  -7   12.39    0.70
   0  10  -7   13.26    0.73
   0  10  -7   12.56    0.69
   0 -10   7   12.05    0.71
  -1  10  -7    0.11    0.14
  -1  10  -7    0.10    0.18
  -1  10  -7   -0.13    0.16
   1 -10   7    0.24    0.16
  -2  10  -7    0.12    0.16
  -2  10  -7   -0.01    0.14
   2 -10   7   -0.09    0.18
   2 -10   7   -0.07    0.15
  -3  10  -7   -0.03    0.14
   3 -10   7   -0.02    0.19
   3 -10   7    0.06    0.19
  -4  10  -7    1.49    0.20
   4 -10   7    1.07    0.19
   4 -10   7    1.50    0.26
  -4  -9   7    0.94    0.21
   3   9  -7    0.65    0.16
  -3  -9   7    0.30    0.17
  -3  -9   7    0.30    0.15
  -3  -9   7    0.33    0.17
   2   9  -7    0.25    0.17
   2   9  -7    0.36    0.14
  -2  -9   7    0.54    0.15
  -2  -9   7    0.21    0.15
   1   9  -7   -0.14    0.12
   1   9  -7   -0.08    0.14
  -1  -9   7   -0.06    0.15
  -1  -9   7   -0.06    0.14
   0   9  -7    3.29    0.32
   0   9  -7    2.86    0.29
   0  -9   7    3.27    0.31
   0  -9   7    3.10    0.32
  -1   9  -7    4.48    0.37
  -1   9  -7    4.54    0.33
  -1   9  -7    4.44    0.34
   1  -9   7    4.72    0.36
   1  -9   7    4.50    0.36
  -2   9  -7    4.72    0.40
  -2   9  -7    4.92    0.35
  -2   9  -7    4.95    0.38
   2  -9   7    4.81    0.38
   2  -9   7    4.81    0.37
   2  -9   7    5.04    0.37
  -3   9  -7    0.82    0.17
  -3   9  -7    0.68    0.16
  -3   9  -7    0.97    0.21
   3  -9   7    0.66    0.18
   3  -9   7    0.78    0.19
   3  -9   7    0.63    0.17
   3  -9   7    0.74    0.20
  -4   9  -7    7.21    0.46
   4  -9   7    6.68    0.46
   4  -9   7    6.52    0.49
   4  -9   7    6.99    0.48
  -5   9  -7    0.31    0.17
   5  -9   7    0.04    0.16
   5   8  -7   11.28    0.66
   5   8  -7   12.52    0.67
  -5  -8   7   12.42    0.69
  -5  -8   7   12.26    0.72
   4   8  -7    0.05    0.10
   4   8  -7   -0.07    0.13
   4   8  -7   -0.09    0.13
  -4  -8   7   -0.15    0.15
  -4  -8   7    0.42    0.17
  -4  -8   7    0.11    0.14
   3   8  -7    6.61    0.44
   3   8  -7    6.99    0.43
  -3  -8   7    6.82    0.46
  -3  -8   7    7.13    0.45
   2   8  -7   14.40    0.89
   2   8  -7   19.24    0.91
  -2  -8   7   17.69    0.92
  -2  -8   7   18.62    0.92
   1   8  -7    1.03    0.15
  -1  -8   7    0.86    0.15
  -1  -8   7    1.07    0.16
   0   8  -7    0.91    0.14
   0  -8   7    0.64    0.13
   0  -8   7    0.56    0.14
  -1   8  -7    0.77    0.14
   1  -8   7    0.62    0.14
  -2   8  -7   10.33    0.55
  -2   8  -7    9.41    0.55
   2  -8   7    9.15    0.56
  -3   8  -7   15.11    0.79
  -3   8  -7   14.33    0.80
   3  -8   7   15.13    0.80
   3  -8   7   14.95    0.81
   3  -8   7   14.71    0.80
  -4   8  -7    0.56    0.16
  -4   8  -7    0.49    0.17
  -4   8  -7    0.51    0.16
   4  -8   7    0.54    0.17
   4  -8   7    0.72    0.17
   4  -8   7    0.46    0.17
  -5   8  -7    0.90    0.19
  -5   8  -7    1.00    0.22
   5  -8   7    0.57    0.18
   5  -8   7    0.72    0.16
   5  -8   7    0.82    0.20
   6   7  -7    1.96    0.26
   6   7  -7    2.44    0.28
  -6  -7   7    1.82    0.24
  -6  -7   7    1.67    0.22
   5   7  -7    6.62    0.42
   5   7  -7    5.56    0.39
  -5  -7   7    5.98    0.43
  -5  -7   7    6.44    0.42
  -5  -7   7    6.32    0.43
   4   7  -7    1.10    0.14
   4   7  -7    0.94    0.15
   4   7  -7    1.01    0.15
  -4  -7   7    0.81    0.16
  -4  -7   7    1.00    0.16
  -4  -7   7    0.71    0.17
   3   7  -7   -0.02    0.11
   3   7  -7    0.15    0.11
   3   7  -7    0.02    0.12
  -3  -7   7   -0.02    0.12
  -3  -7   7    0.00    0.12
   2   7  -7   -0.02    0.11
   2   7  -7    0.13    0.12
   2   7  -7    0.08    0.11
  -2  -7   7    0.17    0.12
  -2  -7   7    0.17    0.11
   1   7  -7    1.06    0.16
   1   7  -7    0.88    0.14
   1   7  -7    1.17    0.15
  -1  -7   7    1.21    0.16
   0   7  -7    5.51    0.35
   0   7  -7    5.26    0.36
   0   7  -7    5.49    0.35
   0  -7   7    5.64    0.36
  -1   7  -7    4.86    0.34
  -1   7  -7    5.23    0.33
   1  -7   7    4.67    0.33
   1  -7   7    4.81    0.33
  -2   7  -7    0.04    0.14
   2  -7   7    0.07    0.13
   2  -7   7   -0.06    0.12
  -3   7  -7    3.17    0.30
  -3   7  -7    2.67    0.28
   3  -7   7    3.01    0.27
  -4   7  -7    0.75    0.19
  -4   7  -7    0.43    0.21
  -4   7  -7    0.46    0.17
   4  -7   7    0.58    0.15
   4  -7   7    0.52    0.16
   4  -7   7    0.29    0.15
  -5   7  -7    0.65    0.19
  -5   7  -7    0.41    0.14
   5  -7   7    0.28    0.16
   5  -7   7    0.23    0.17
   5  -7   7    0.55    0.17
  -6   7  -7    0.01    0.17
  -6   7  -7    0.21    0.18
   6  -7   7   -0.20    0.16
   6  -7   7   -0.30    0.14
   7   6  -7    1.69    0.19
   7   6  -7    1.91    0.21
  -7  -6   7    1.16    0.24
  -7  -6   7    2.14    0.25
   6   6  -7    1.46    0.17
   6   6  -7    1.27    0.15
  -6  -6   7    1.34    0.21
  -6  -6   7    1.29    0.19
  -6  -6   7    1.14    0.19
   5   6  -7    1.21    0.15
   5   6  -7    1.39    0.16
   5   6  -7    1.83    0.22
  -5  -6   7    1.64    0.20
  -5  -6   7    1.28    0.18
  -5  -6   7    1.74    0.20
   4   6  -7    1.07    0.15
   4   6  -7    0.93    0.14
   4   6  -7    0.75    0.13
  -4  -6   7    0.99    0.15
  -4  -6   7    0.92    0.15
  -4  -6   7    0.92    0.16
   3   6  -7    8.49    0.49
   3   6  -7    9.04    0.49
   3   6  -7    9.28    0.51
  -3  -6   7    8.47    0.50
  -3  -6   7    9.06    0.50
   2   6  -7   10.65    0.57
   2   6  -7   10.78    0.59
   2   6  -7   10.92    0.57
  -2  -6   7   10.36    0.58
   1   6  -7   46.28    2.12
   1   6  -7   43.82    2.12
   1   6  -7   41.30    2.12
  -1  -6   7   40.10    2.12
   0   6  -7   22.06    1.09
   0   6  -7   18.94    1.07
   0   6  -7   22.17    1.08
   0  -6   7   21.85    1.08
  -1   6  -7    6.42    0.38
   1  -6   7    6.40    0.37
   1  -6   7    6.47    0.39
   1  -6   7    5.79    0.38
  -2   6  -7    6.08    0.38
   2  -6   7    6.23    0.37
   2  -6   7    5.85    0.37
   2  -6   7    5.91    0.37
  -3   6  -7   25.50    1.32
  -3   6  -7   27.41    1.31
   3  -6   7   27.12    1.32
   3  -6   7   26.32    1.31
   3  -6   7   23.36    1.30
  -4   6  -7    3.26    0.27
  -4   6  -7    2.67    0.29
  -4   6  -7    2.85    0.29
   4  -6   7    2.96    0.27
  -5   6  -7    0.02    0.15
  -5   6  -7    0.23    0.15
   5  -6   7    0.19    0.13
   5  -6   7    0.41    0.14
   5  -6   7    0.43    0.17
  -6   6  -7    2.26    0.32
  -6   6  -7    2.49    0.26
   6  -6   7    2.59    0.31
   6  -6   7    1.76    0.26
   6  -6   7    2.14    0.22
   7   5  -7    2.84    0.29
   7   5  -7    3.07    0.28
   7   5  -7    2.96    0.24
  -7  -5   7    3.08    0.32
  -7  -5   7    2.21    0.32
   6   5  -7    2.30    0.24
   6   5  -7    2.26    0.23
  -6  -5   7    2.16    0.29
  -6  -5   7    2.85    0.27
  -6  -5   7    2.33    0.23
   5   5  -7    3.49    0.26
   5   5  -7    3.64    0.28
   5   5  -7    3.57    0.27
  -5  -5   7    3.51    0.29
  -5  -5   7    3.46    0.29
  -5  -5   7    3.82    0.29
   4   5  -7    0.78    0.12
   4   5  -7    0.40    0.11
   4   5  -7    0.39    0.11
  -4  -5   7    0.51    0.13
  -4  -5   7    0.33    0.11
  -4  -5   7    0.58    0.11
   3   5  -7   37.19    1.83
   3   5  -7   36.33    1.83
   3   5  -7   36.56    1.84
  -3  -5   7   37.95    1.84
   2   5  -7    1.24    0.13
   2   5  -7    1.43    0.17
  -2  -5   7    0.95    0.13
  -2  -5   7    1.45    0.18
   1   5  -7    2.11    0.21
   1   5  -7    2.03    0.21
  -1  -5   7    2.17    0.21
   0   5  -7    0.63    0.11
   0   5  -7    0.48    0.12
   0  -5   7    0.55    0.12
  -1   5  -7    1.07    0.13
  -1   5  -7    0.90    0.13
  -1   5  -7    0.96    0.12
   1  -5   7    0.88    0.13
   1  -5   7    1.01    0.13
  -2   5  -7    3.46    0.25
  -2   5  -7    2.72    0.26
  -2   5  -7    2.80    0.24
   2  -5   7    3.18    0.24
   2  -5   7    3.20    0.25
  -3   5  -7    1.82    0.23
  -3   5  -7    2.44    0.24
  -3   5  -7    2.16    0.22
   3  -5   7    2.45    0.21
   3  -5   7    2.12    0.22
   3  -5   7    2.07    0.20
  -4   5  -7   21.41    1.12
  -4   5  -7   21.91    1.11
  -4   5  -7   22.28    1.13
   4  -5   7   21.78    1.11
   4  -5   7   21.74    1.11
  -5   5  -7    2.08    0.23
  -5   5  -7    1.91    0.28
   5  -5   7    2.18    0.24
   5  -5   7    2.07    0.27
  -6   5  -7    0.15    0.16
  -6   5  -7    0.00    0.16
  -6   5  -7   -0.05    0.17
  -6   5  -7    0.21    0.15
   6  -5   7    0.04    0.19
   6  -5   7    0.22    0.13
   8   4  -7    1.58    0.20
   8   4  -7    1.64    0.21
   8   4  -7    1.74    0.21
  -8  -4   7    1.18    0.20
  -8  -4   7    1.65    0.24
   7   4  -7    1.57    0.19
   7   4  -7    1.51    0.18
   7   4  -7    1.75    0.19
  -7  -4   7    2.00    0.22
  -7  -4   7    1.22    0.18
  -7  -4   7    1.96    0.21
   6   4  -7   25.16    1.26
   6   4  -7   25.60    1.25
  -6  -4   7   24.79    1.27
  -6  -4   7   24.35    1.27
  -6  -4   7   24.80    1.27
   5   4  -7    0.58    0.11
   5   4  -7    0.44    0.12
   5   4  -7    0.54    0.12
  -5  -4   7    0.74    0.13
  -5  -4   7    0.57    0.11
   4   4  -7   28.40    1.44
   4   4  -7   30.61    1.45
   4   4  -7   29.40    1.45
  -4  -4   7   27.48    1.44
  -4  -4   7   29.20    1.45
   3   4  -7   12.57    0.60
   3   4  -7   11.09    0.59
   3   4  -7   10.09    0.60
  -3  -4   7   11.32    0.59
  -3  -4   7   11.05    0.60
   2   4  -7   11.34    0.56
   2   4  -7   10.74    0.56
   2   4  -7    9.94    0.56
  -2  -4   7   10.88    0.56
  -2  -4   7    9.88    0.56
   1   4  -7   38.74    2.06
   1   4  -7   41.45    2.06
  -1  -4   7   43.24    2.06
  -1  -4   7   44.12    2.06
   0   4  -7    8.63    0.53
   0   4  -7    9.75    0.53
   0   4  -7   10.98    0.55
   0  -4   7    9.96    0.52
   0  -4   7   10.46    0.53
   0  -4   7   10.53    0.53
  -1   4  -7   55.66    2.96
  -1   4  -7   61.49    2.95
  -1   4  -7   59.16    2.95
   1  -4   7   62.42    2.95
   1  -4   7   62.59    2.95
   1  -4   7   60.28    2.95
  -2   4  -7   10.88    0.53
  -2   4  -7    9.38    0.52
  -2   4  -7    8.54    0.53
   2  -4   7    9.33    0.51
   2  -4   7   10.00    0.52
  -3   4  -7    3.95    0.29
  -3   4  -7    4.09    0.27
  -3   4  -7    3.54    0.28
   3  -4   7    3.80    0.26
   3  -4   7    3.47    0.25
   3  -4   7    3.71    0.29
  -4   4  -7   27.20    1.41
  -4   4  -7   29.98    1.42
  -4   4  -7   27.74    1.41
  -4   4  -7   27.74    1.41
   4  -4   7   27.79    1.40
   4  -4   7   27.04    1.39
   4  -4   7   28.45    1.41
  -5   4  -7    1.32    0.18
  -5   4  -7    1.21    0.18
  -5   4  -7    1.26    0.17
   5  -4   7    1.30    0.14
   5  -4   7    1.27    0.25
  -6   4  -7    3.46    0.34
  -6   4  -7    3.79    0.33
  -6   4  -7    3.37    0.32
  -6   4  -7    3.02    0.35
   6  -4   7    3.47    0.28
   6  -4   7    3.60    0.26
   6  -4   7    3.25    0.36
   8   3  -7    4.31    0.37
   8   3  -7    4.87    0.30
   8   3  -7    4.48    0.35
   8   3  -7    4.82    0.30
  -8  -3   7    3.46    0.39
  -8  -3   7    4.59    0.36
  -8  -3   7    4.56    0.41
   7   3  -7   12.34    0.67
   7   3  -7   11.44    0.65
  -7  -3   7   12.20    0.67
  -7  -3   7   13.03    0.68
  -7  -3   7   12.67    0.69
   6   3  -7    1.46    0.17
  -6  -3   7    1.61    0.18
  -6  -3   7    2.05    0.20
   5   3  -7    1.06    0.13
   5   3  -7    1.72    0.18
  -5  -3   7    1.47    0.16
  -5  -3   7    1.24    0.14
   4   3  -7   13.54    0.74
   4   3  -7   15.18    0.74
  -4  -3   7   13.16    0.73
  -4  -3   7   13.96    0.74
  -4  -3   7   15.66    0.74
   3   3  -7    9.34    0.48
   3   3  -7    9.01    0.48
  -3  -3   7    8.92    0.48
  -3  -3   7    7.61    0.48
  -3  -3   7    9.53    0.47
   2   3  -7   15.09    0.76
   2   3  -7   15.15    0.76
  -2  -3   7   14.71    0.76
  -2  -3   7   14.73    0.76
   1   3  -7    0.07    0.07
   1   3  -7    0.02    0.08
  -1  -3   7    0.12    0.07
  -1  -3   7    0.02    0.07
   0   3  -7    3.43    0.24
   0   3  -7    3.11    0.23
   0   3  -7    2.99    0.22
   0  -3   7    3.79    0.22
   0  -3   7    3.51    0.22
   0  -3   7    3.65    0.21
  -1   3  -7    4.71    0.28
  -1   3  -7    4.08    0.30
  -1   3  -7    4.67    0.29
   1  -3   7    4.46    0.27
   1  -3   7    4.98    0.27
   1  -3   7    4.85    0.27
  -2   3  -7    7.54    0.42
  -2   3  -7    7.14    0.43
  -2   3  -7    7.20    0.41
   2  -3   7    7.71    0.41
   2  -3   7    7.52    0.40
   2  -3   7    7.63    0.40
  -3   3  -7    0.14    0.09
  -3   3  -7    0.20    0.10
  -3   3  -7    0.25    0.12
  -3   3  -7    0.17    0.10
   3  -3   7    0.15    0.11
   3  -3   7    0.25    0.09
   3  -3   7    0.18    0.07
  -4   3  -7   34.07    1.68
  -4   3  -7   32.44    1.67
  -4   3  -7   33.71    1.68
  -4   3  -7   33.49    1.68
   4  -3   7   34.19    1.66
   4  -3   7   33.62    1.66
   4  -3   7   33.99    1.68
  -5   3  -7    0.07    0.13
  -5   3  -7    0.01    0.14
  -5   3  -7   -0.06    0.14
   5  -3   7   -0.11    0.09
   5  -3   7    0.03    0.07
  -6   3  -7   -0.05    0.16
  -6   3  -7    0.14    0.15
  -6   3  -7    0.06    0.16
  -6   3  -7    0.02    0.14
   6  -3   7   -0.13    0.10
   6  -3   7    0.03    0.18
   6  -3   7   -0.06    0.10
   9   2  -7    0.14    0.16
   9   2  -7    0.05    0.11
   9   2  -7    0.15    0.16
  -9  -2   7    0.31    0.18
  -9  -2   7   -0.16    0.17
   8   2  -7    1.30    0.20
   8   2  -7    1.71    0.19
   8   2  -7    1.55    0.19
  -8  -2   7    1.45    0.19
  -8  -2   7    1.97    0.21
  -8  -2   7    1.67    0.20
   7   2  -7    0.21    0.12
  -7  -2   7    0.14    0.12
  -7  -2   7    0.04    0.15
   6   2  -7    3.35    0.27
   6   2  -7    3.47    0.26
  -6  -2   7    3.21    0.25
  -6  -2   7    3.49    0.28
   5   2  -7    2.60    0.22
   5   2  -7    3.15    0.23
  -5  -2   7    2.58    0.23
  -5  -2   7    2.51    0.22
  -5  -2   7    2.72    0.20
   4   2  -7    3.55    0.24
   4   2  -7    2.91    0.23
  -4  -2   7    3.52    0.24
  -4  -2   7    3.66    0.24
  -4  -2   7    3.42    0.21
   3   2  -7    2.06    0.18
   3   2  -7    2.24    0.18
  -3  -2   7    2.30    0.18
  -3  -2   7    2.19    0.15
  -3  -2   7    2.19    0.18
   2   2  -7  138.49    6.51
   2   2  -7  134.87    6.51
  -2  -2   7  130.82    6.50
  -2  -2   7  131.33    6.50
   1   2  -7    0.57    0.08
   1   2  -7    0.50    0.08
  -1  -2   7    0.57    0.06
  -1  -2   7    0.54    0.08
  -1  -2   7    0.40    0.07
   0   2  -7    0.19    0.07
   0   2  -7    0.22    0.07
   0  -2   7    0.14    0.06
   0  -2   7    0.13    0.06
   0  -2   7    0.23    0.06
  -1   2  -7    0.69    0.10
  -1   2  -7    0.68    0.09
  -1   2  -7    0.54    0.10
   1  -2   7    0.71    0.08
   1  -2   7    0.82    0.09
   1  -2   7    0.64    0.08
  -2   2  -7    8.78    0.48
  -2   2  -7    9.51    0.47
  -2   2  -7    8.36    0.47
  -2   2  -7    7.82    0.49
   2  -2   7    9.13    0.47
   2  -2   7    8.83    0.46
   2  -2   7    9.25    0.46
  -3   2  -7    2.63    0.23
  -3   2  -7    2.52    0.22
  -3   2  -7    2.50    0.21
   3  -2   7    2.50    0.22
   3  -2   7    2.37    0.17
   3  -2   7    2.40    0.17
  -4   2  -7    0.20    0.11
  -4   2  -7    0.14    0.11
  -4   2  -7    0.21    0.14
   4  -2   7    0.05    0.12
   4  -2   7    0.25    0.06
   4  -2   7    0.07    0.06
  -5   2  -7    0.21    0.15
  -5   2  -7    0.15    0.12
  -5   2  -7    0.20    0.13
   5  -2   7    0.02    0.05
   5  -2   7    0.08    0.05
  -6   2  -7    3.38    0.29
  -6   2  -7    2.84    0.32
  -6   2  -7    3.47    0.31
  -6   2  -7    2.68    0.34
   6  -2   7    2.77    0.35
   9   1  -7    0.01    0.12
   9   1  -7   -0.26    0.14
   9   1  -7    0.45    0.16
  -9  -1   7    0.23    0.20
  -9  -1   7   -0.02    0.16
   8   1  -7   10.67    0.57
   8   1  -7   10.43    0.60
   8   1  -7    9.76    0.59
  -8  -1   7   10.25    0.60
  -8  -1   7   10.60    0.62
  -8  -1   7   11.25    0.61
   7   1  -7    9.07    0.49
   7   1  -7    8.22    0.48
  -7  -1   7    7.93    0.50
  -7  -1   7    9.03    0.48
   6   1  -7    6.11    0.39
   6   1  -7    7.21    0.40
  -6  -1   7    5.99    0.39
  -6  -1   7    6.49    0.37
  -6  -1   7    7.33    0.40
   5   1  -7    4.17    0.28
   5   1  -7    4.78    0.27
  -5  -1   7    3.98    0.29
  -5  -1   7    4.04    0.25
   4   1  -7    0.25    0.08
   4   1  -7    0.30    0.09
  -4  -1   7    0.41    0.09
  -4  -1   7    0.37    0.06
  -4  -1   7    0.36    0.09
   3   1  -7   24.98    1.32
   3   1  -7   29.21    1.33
  -3  -1   7   27.68    1.32
  -3  -1   7   27.69    1.32
  -3  -1   7   24.07    1.30
   2   1  -7    3.10    0.21
   2   1  -7    3.42    0.21
  -2  -1   7    2.86    0.20
  -2  -1   7    3.30    0.20
  -2  -1   7    3.30    0.17
  -2  -1   7    3.71    0.18
   1   1  -7   11.56    0.56
   1   1  -7   10.63    0.56
  -1  -1   7   10.58    0.55
  -1  -1   7   11.29    0.54
  -1  -1   7   10.69    0.55
   0   1  -7    3.85    0.24
   0   1  -7    3.82    0.23
   0  -1   7    4.01    0.22
   0  -1   7    4.11    0.22
   0  -1   7    3.91    0.22
  -1   1  -7  121.97    5.74
  -1   1  -7  119.44    5.74
  -1   1  -7  119.35    5.74
   1  -1   7  119.63    5.73
   1  -1   7  110.61    5.74
   1  -1   7  117.76    5.73
  -2   1  -7    1.98    0.20
  -2   1  -7    1.92    0.17
  -2   1  -7    1.63    0.17
  -2   1  -7    1.86    0.17
   2  -1   7    1.70    0.11
   2  -1   7    1.90    0.17
   2  -1   7    1.67    0.11
  -3   1  -7    2.73    0.24
  -3   1  -7    3.14    0.22
  -3   1  -7    2.97    0.22
  -3   1  -7    2.51    0.24
   3  -1   7    2.76    0.23
  -4   1  -7   11.69    0.66
  -4   1  -7   12.40    0.68
  -4   1  -7   13.28    0.67
  -4   1  -7   12.74    0.66
   4  -1   7   12.51    0.68
  -5   1  -7    0.11    0.15
  -5   1  -7    0.17    0.12
  -5   1  -7    0.15    0.12
   5  -1   7    0.16    0.15
   9   0  -7   29.58    1.56
   9   0  -7   30.29    1.56
   9   0  -7   31.36    1.56
   9   0  -7   33.07    1.55
  -9   0   7   30.78    1.57
  -9   0   7   30.05    1.57
   8   0  -7   35.07    1.61
   8   0  -7   32.77    1.62
   8   0  -7   33.24    1.62
   8   0  -7   31.03    1.62
  -8   0   7   32.28    1.62
  -8   0   7   30.87    1.62
  -8   0   7   30.78    1.62
   7   0  -7    0.20    0.10
   7   0  -7    0.28    0.13
   7   0  -7    0.27    0.11
  -7   0   7    0.28    0.10
  -7   0   7    0.29    0.14
  -7   0   7    0.02    0.14
   6   0  -7   -0.03    0.11
   6   0  -7   -0.02    0.09
  -6   0   7    0.21    0.08
  -6   0   7    0.06    0.10
   5   0  -7    5.37    0.29
   5   0  -7    4.60    0.30
  -5   0   7    4.13    0.26
  -5   0   7    4.37    0.29
  -5   0   7    4.74    0.29
   4   0  -7    3.33    0.23
   4   0  -7    3.60    0.23
  -4   0   7    3.29    0.19
  -4   0   7    3.83    0.23
  -4   0   7    3.55    0.22
   3   0  -7    0.67    0.09
   3   0  -7    0.58    0.08
  -3   0   7    0.56    0.08
  -3   0   7    0.63    0.08
   2   0  -7    0.43    0.07
   2   0  -7    0.42    0.07
  -2   0   7    0.39    0.06
  -2   0   7    0.48    0.07
   1   0  -7    0.05    0.06
   1   0  -7    0.04    0.06
  -1   0   7    0.01    0.04
  -1   0   7    0.01    0.04
   0   0  -7    4.31    0.25
   0   0  -7    4.45    0.26
   0   0  -7    4.62    0.24
   0   0   7    4.43    0.24
  -1   0  -7   35.18    1.70
  -1   0  -7   34.31    1.70
  -1   0  -7   34.42    1.70
   1   0   7   34.34    1.70
  -2   0  -7    0.64    0.11
  -2   0  -7    0.74    0.09
  -2   0  -7    0.75    0.10
   2   0   7    0.76    0.10
  -3   0  -7    9.81    0.52
  -3   0  -7    9.80    0.53
  -3   0  -7    9.85    0.52
  -3   0  -7    9.47    0.53
   3   0   7   10.14    0.54
  -4   0  -7    5.88    0.37
  -4   0  -7    5.35    0.34
  -4   0  -7    5.46    0.32
  -4   0  -7    5.29    0.35
   4   0   7    4.72    0.36
  -5   0  -7    0.08    0.13
  -5   0  -7   -0.04    0.17
  -5   0  -7    0.21    0.11
  -5   0  -7    0.26    0.13
   5   0   7    0.20    0.17
  10  -1  -7    0.07    0.18
  10  -1  -7   -0.02    0.18
  10  -1  -7    0.17    0.18
 -10   1   7    0.12    0.17
 -10   1   7    0.07    0.22
   9  -1  -7   49.05    2.41
   9  -1  -7   49.47    2.42
   9  -1  -7   49.01    2.42
   9  -1  -7   48.43    2.41
  -9   1   7   47.23    2.42
  -9   1   7   50.22    2.42
  -9   1   7   47.22    2.41
   8  -1  -7    0.10    0.14
   8  -1  -7    0.14    0.11
  -8   1   7    0.21    0.14
  -8   1   7    0.34    0.13
   7  -1  -7    0.15    0.11
   7  -1  -7    0.19    0.10
   7  -1  -7    0.15    0.09
  -7   1   7    0.12    0.12
  -7   1   7    0.22    0.09
  -7   1   7    0.05    0.10
   6  -1  -7    5.82    0.35
   6  -1  -7    6.31    0.35
   6  -1  -7    5.68    0.32
  -6   1   7    5.64    0.34
  -6   1   7    5.31    0.32
   5  -1  -7    5.19    0.28
   5  -1  -7    4.26    0.24
   5  -1  -7    4.23    0.28
  -5   1   7    4.07    0.24
  -5   1   7    4.44    0.27
  -5   1   7    4.49    0.27
   4  -1  -7   36.98    1.87
   4  -1  -7   37.78    1.87
  -4   1   7   38.29    1.86
  -4   1   7   38.79    1.86
   3  -1  -7    0.45    0.08
   3  -1  -7    0.35    0.08
  -3   1   7    0.35    0.06
  -3   1   7    0.43    0.07
   2  -1  -7    4.91    0.28
   2  -1  -7    5.13    0.28
  -2   1   7    5.09    0.26
  -2   1   7    5.12    0.26
   1  -1  -7    5.16    0.28
   1  -1  -7    5.17    0.28
   0  -1  -7    3.44    0.20
   0  -1  -7    3.36    0.19
   0  -1  -7    3.38    0.20
  -1  -1  -7  191.95    9.29
  -1  -1  -7  197.51    9.29
  -1  -1  -7  184.23    9.29
   1   1   7  192.55    9.29
  -2  -1  -7    1.26    0.14
  -2  -1  -7    1.27    0.15
  -2  -1  -7    1.02    0.13
   2   1   7    1.32    0.16
  -3  -1  -7    0.06    0.08
  -3  -1  -7    0.02    0.10
  -3  -1  -7    0.00    0.08
   3   1   7    0.14    0.15
  -4  -1  -7    0.93    0.17
  -4  -1  -7    0.69    0.12
  -5  -1  -7    2.93    0.39
  -5  -1  -7    2.07    0.26
  -5  -1  -7    2.09    0.21
   5   1   7    2.52    0.25
  10  -2  -7    2.62    0.34
  10  -2  -7    2.23    0.25
  10  -2  -7    2.42    0.34
 -10   2   7    2.77    0.28
 -10   2   7    2.61    0.36
   9  -2  -7    2.81    0.31
   9  -2  -7    2.34    0.29
   9  -2  -7    2.77    0.28
   9  -2  -7    2.82    0.28
  -9   2   7    3.04    0.30
  -9   2   7    2.13    0.28
  -9   2   7    2.79    0.29
   8  -2  -7    1.86    0.21
   8  -2  -7    2.07    0.25
   8  -2  -7    1.99    0.24
  -8   2   7    1.86    0.19
  -8   2   7    1.97    0.20
   7  -2  -7    3.52    0.27
   7  -2  -7    3.66    0.29
   7  -2  -7    3.53    0.27
   7  -2  -7    3.46    0.24
  -7   2   7    3.54    0.24
  -7   2   7    3.71    0.27
  -7   2   7    3.58    0.28
   6  -2  -7    1.89    0.20
   6  -2  -7    1.20    0.13
   6  -2  -7    1.31    0.15
   6  -2  -7    0.96    0.13
  -6   2   7    1.59    0.15
  -6   2   7    1.39    0.16
  -6   2   7    1.30    0.17
   5  -2  -7   79.87    3.87
   5  -2  -7   75.90    3.87
   5  -2  -7   76.58    3.85
   5  -2  -7   80.72    3.88
  -5   2   7   80.74    3.86
  -5   2   7   81.89    3.86
   4  -2  -7   22.37    1.17
   4  -2  -7   24.20    1.19
   4  -2  -7   24.45    1.17
  -4   2   7   23.41    1.16
  -4   2   7   23.48    1.16
   3  -2  -7    9.22    0.49
   3  -2  -7   10.22    0.50
  -3   2   7    9.13    0.48
  -3   2   7    9.68    0.48
   2  -2  -7    4.50    0.25
   2  -2  -7    4.40    0.25
   1  -2  -7    0.32    0.06
   1  -2  -7    0.38    0.04
   1  -2  -7    0.44    0.07
   0  -2  -7   11.58    0.56
   0  -2  -7   10.91    0.56
   0  -2  -7   10.97    0.56
  -1  -2  -7    0.55    0.07
  -1  -2  -7    0.64    0.08
  -1  -2  -7    0.82    0.10
  -2  -2  -7    6.88    0.37
  -2  -2  -7    6.93    0.40
  -2  -2  -7    7.25    0.37
  -3  -2  -7    1.41    0.15
  -3  -2  -7    1.74    0.17
  -4  -2  -7    4.81    0.32
  -4  -2  -7    4.95    0.38
  -4  -2  -7    4.90    0.31
  -4  -2  -7    4.50    0.31
  10  -3  -7    8.57    0.55
  10  -3  -7    8.48    0.57
 -10   3   7    9.00    0.55
 -10   3   7    9.37    0.59
   9  -3  -7    0.29    0.16
   9  -3  -7    0.62    0.16
   9  -3  -7    0.72    0.15
   9  -3  -7    0.43    0.16
  -9   3   7    0.54    0.16
  -9   3   7    0.84    0.16
  -9   3   7    0.56    0.16
   8  -3  -7    1.32    0.17
   8  -3  -7    1.60    0.18
   8  -3  -7    1.44    0.17
   8  -3  -7    1.71    0.24
  -8   3   7    1.34    0.16
   7  -3  -7    2.06    0.25
   7  -3  -7    2.22    0.20
   7  -3  -7    2.59    0.24
   7  -3  -7    2.60    0.23
  -7   3   7    2.82    0.20
  -7   3   7    2.72    0.22
   6  -3  -7   30.35    1.61
   6  -3  -7   32.86    1.58
   6  -3  -7   31.33    1.59
   6  -3  -7   32.67    1.60
  -6   3   7   32.82    1.59
  -6   3   7   32.35    1.59
   5  -3  -7    0.90    0.12
   5  -3  -7    0.99    0.10
  -5   3   7    0.83    0.10
  -5   3   7    0.99    0.11
   4  -3  -7    3.10    0.21
   4  -3  -7    3.01    0.24
   4  -3  -7    2.79    0.20
  -4   3   7    2.74    0.17
  -4   3   7    2.78    0.17
   3  -3  -7    5.27    0.33
   3  -3  -7    5.42    0.29
   3  -3  -7    5.03    0.29
   2  -3  -7    0.54    0.07
   2  -3  -7    0.59    0.07
   1  -3  -7   13.12    0.64
   1  -3  -7   11.76    0.63
   1  -3  -7   12.27    0.63
   1  -3  -7   14.01    0.68
   0  -3  -7   10.42    0.53
   0  -3  -7   10.56    0.53
   0  -3  -7    9.97    0.55
   0  -3  -7   12.03    0.58
  -1  -3  -7    0.26    0.09
  -1  -3  -7    0.11    0.05
  -1  -3  -7    0.26    0.06
  -1  -3  -7    0.04    0.09
  -2  -3  -7    0.20    0.11
  -2  -3  -7    0.26    0.07
  -2  -3  -7    0.37    0.11
  -2  -3  -7    0.27    0.07
  -3  -3  -7   -0.14    0.14
  -3  -3  -7    0.10    0.12
  -3  -3  -7    0.06    0.08
   9  -4  -7    0.09    0.18
   9  -4  -7    0.21    0.15
   9  -4  -7    0.14    0.14
  -9   4   7    0.17    0.15
  -9   4   7    0.05    0.19
  -9   4   7    0.13    0.14
   8  -4  -7    4.43    0.36
   8  -4  -7    4.15    0.32
   8  -4  -7    4.45    0.36
   8  -4  -7    4.47    0.33
  -8   4   7    4.00    0.32
   7  -4  -7    6.86    0.38
   7  -4  -7    7.33    0.42
   7  -4  -7    6.37    0.44
   7  -4  -7    6.90    0.42
  -7   4   7    6.94    0.40
  -7   4   7    6.79    0.39
   6  -4  -7    1.84    0.21
   6  -4  -7    1.59    0.24
   6  -4  -7    2.07    0.21
   6  -4  -7    1.82    0.15
  -6   4   7    2.00    0.17
  -6   4   7    1.67    0.18
   5  -4  -7   10.81    0.56
   5  -4  -7   10.81    0.63
   5  -4  -7   12.92    0.59
   5  -4  -7   12.13    0.59
  -5   4   7   10.65    0.57
  -5   4   7   10.08    0.57
   4  -4  -7   27.92    1.42
   4  -4  -7   27.17    1.39
   4  -4  -7   28.31    1.37
   4  -4  -7   29.20    1.39
   3  -4  -7    6.49    0.34
   3  -4  -7    6.41    0.32
   3  -4  -7    6.47    0.40
   3  -4  -7    5.93    0.32
   3  -4  -7    6.60    0.35
   2  -4  -7   20.96    1.02
   2  -4  -7   20.96    1.06
   2  -4  -7   19.90    1.01
   2  -4  -7   20.72    1.02
   1  -4  -7    0.02    0.05
   1  -4  -7   -0.04    0.06
   1  -4  -7   -0.07    0.05
   0  -4  -7    4.17    0.23
   0  -4  -7    4.07    0.23
   0  -4  -7    4.86    0.30
   0  -4  -7    4.17    0.26
  -1  -4  -7    3.02    0.23
  -1  -4  -7    3.08    0.17
  -1  -4  -7    2.90    0.17
  -1  -4  -7    2.90    0.25
  -2  -4  -7    1.68    0.13
  -2  -4  -7    1.55    0.14
  -3  -4  -7    0.93    0.19
  -3  -4  -7    0.50    0.13
   9  -5  -7    0.13    0.14
   9  -5  -7    0.11    0.16
   9  -5  -7   -0.18    0.16
  -9   5   7    0.20    0.16
  -9   5   7    0.02    0.14
   8  -5  -7   25.42    1.28
   8  -5  -7   25.39    1.32
   8  -5  -7   25.47    1.30
   8  -5  -7   26.40    1.30
  -8   5   7   24.37    1.28
   7  -5  -7    0.14    0.16
   7  -5  -7    0.20    0.13
   7  -5  -7    0.06    0.13
   7  -5  -7    0.15    0.10
  -7   5   7    0.11    0.09
  -7   5   7    0.04    0.10
   6  -5  -7    2.08    0.29
   6  -5  -7    1.87    0.22
   6  -5  -7    1.74    0.21
   6  -5  -7    1.86    0.16
  -6   5   7    1.80    0.16
  -6   5   7    1.70    0.17
   5  -5  -7    2.54    0.19
   5  -5  -7    2.19    0.16
   5  -5  -7    2.31    0.22
   5  -5  -7    1.95    0.25
  -5   5   7    2.14    0.13
  -5   5   7    2.11    0.12
   4  -5  -7   -0.03    0.08
   4  -5  -7    0.10    0.12
   4  -5  -7    0.10    0.09
   4  -5  -7    0.04    0.06
   3  -5  -7    1.18    0.16
   3  -5  -7    1.23    0.12
   3  -5  -7    1.18    0.14
   3  -5  -7    1.46    0.14
   3  -5  -7    1.18    0.11
   2  -5  -7   69.87    3.61
   2  -5  -7   76.65    3.61
   2  -5  -7   76.12    3.62
   2  -5  -7   74.58    3.65
   1  -5  -7    0.59    0.15
   1  -5  -7    0.67    0.10
   1  -5  -7    0.70    0.07
   1  -5  -7    0.72    0.07
   0  -5  -7    3.29    0.25
   0  -5  -7    3.44    0.29
   0  -5  -7    3.28    0.18
   0  -5  -7    3.34    0.18
  -1  -5  -7   16.75    0.97
  -1  -5  -7   20.62    0.96
  -2  -5  -7    6.07    0.37
  -2  -5  -7    4.66    0.40
   9  -6  -7    0.96    0.17
   9  -6  -7    0.41    0.19
   9  -6  -7    0.82    0.20
  -9   6   7    0.82    0.17
  -9   6   7    0.66    0.18
   8  -6  -7    7.71    0.51
   8  -6  -7    8.03    0.46
   8  -6  -7    8.45    0.50
   8  -6  -7    7.02    0.47
  -8   6   7    7.78    0.45
  -8   6   7    7.35    0.46
   7  -6  -7   14.37    0.74
   7  -6  -7   15.13    0.80
   7  -6  -7   14.04    0.77
   7  -6  -7   14.89    0.77
  -7   6   7   14.68    0.74
  -7   6   7   13.27    0.74
   6  -6  -7    2.39    0.25
   6  -6  -7    2.14    0.21
   6  -6  -7    2.84    0.25
   6  -6  -7    2.94    0.34
  -6   6   7    2.84    0.17
  -6   6   7    2.89    0.17
   5  -6  -7    1.48    0.20
   5  -6  -7    1.60    0.20
   5  -6  -7    2.05    0.17
   4  -6  -7    8.25    0.44
   4  -6  -7    8.35    0.43
   4  -6  -7    7.56    0.51
   4  -6  -7    8.14    0.44
   3  -6  -7    8.96    0.47
   3  -6  -7    8.81    0.47
   3  -6  -7    9.29    0.48
   3  -6  -7    9.35    0.55
   3  -6  -7    8.96    0.48
   2  -6  -7    7.19    0.36
   2  -6  -7    6.48    0.36
   2  -6  -7    6.81    0.38
   2  -6  -7    6.97    0.45
   1  -6  -7    2.63    0.17
   1  -6  -7    2.98    0.22
   1  -6  -7    3.29    0.30
   1  -6  -7    2.93    0.17
   0  -6  -7    0.65    0.15
  -1  -6  -7    0.91    0.18
  -1  -6  -7    1.11    0.19
   8  -7  -7    2.81    0.38
   8  -7  -7    3.49    0.32
   8  -7  -7    2.85    0.29
  -8   7   7    3.21    0.25
   7  -7  -7    1.84    0.25
   7  -7  -7    2.24    0.28
   7  -7  -7    1.18    0.18
   7  -7  -7    1.16    0.23
  -7   7   7    1.42    0.13
  -7   7   7    1.43    0.15
   6  -7  -7    0.21    0.13
   6  -7  -7    0.17    0.17
   6  -7  -7    0.02    0.13
   6  -7  -7    0.19    0.11
   5  -7  -7    9.17    0.54
   5  -7  -7    8.70    0.48
   5  -7  -7    7.83    0.47
   5  -7  -7    8.88    0.49
   4  -7  -7    1.06    0.14
   4  -7  -7    1.37    0.13
   4  -7  -7    1.08    0.19
   3  -7  -7    1.54    0.17
   3  -7  -7    1.48    0.17
   3  -7  -7    1.58    0.20
   3  -7  -7    1.74    0.22
   3  -7  -7    1.50    0.16
   2  -7  -7    1.28    0.14
   2  -7  -7    1.39    0.14
   2  -7  -7    1.40    0.15
   2  -7  -7    2.53    0.33
   1  -7  -7    0.74    0.19
   6  -8  -7    1.33    0.18
   6  -8  -7    1.21    0.22
   6  -8  -7    1.15    0.18
   6  -8  -7    1.31    0.18
   5  -8  -7    8.15    0.46
   5  -8  -7    7.68    0.46
   5  -8  -7    7.92    0.47
   5  -8  -7    7.48    0.53
   4  -8  -7    3.88    0.31
   4  -8  -7    3.96    0.38
   4  -8  -7    3.75    0.30
   4  -8  -7    3.19    0.28
   3  -8  -7    0.45    0.12
   3  -8  -7    0.13    0.18
   3  -8  -7    0.64    0.11
   3  -8  -7    0.56    0.17
   1  10  -8    0.12    0.19
   1  10  -8    0.31    0.16
   1  10  -8    0.31    0.19
  -1 -10   8   -0.16    0.15
   0  10  -8    5.58    0.42
   0  10  -8    6.37    0.43
   0 -10   8    6.60    0.44
  -1  10  -8    0.85    0.18
  -1  10  -8    1.03    0.18
   1 -10   8    1.19    0.20
  -2  10  -8    0.41    0.17
   2 -10   8    0.27    0.19
  -3  10  -8    0.35    0.18
   3 -10   8    0.59    0.18
   3   9  -8    0.33    0.17
   3   9  -8    0.48    0.15
   3   9  -8    0.46    0.18
  -3  -9   8    0.61    0.18
  -3  -9   8    0.20    0.17
   2   9  -8    8.54    0.56
   2   9  -8    9.36    0.52
   2   9  -8    9.07    0.54
  -2  -9   8    8.06    0.60
  -2  -9   8    8.70    0.54
   1   9  -8   15.64    0.86
   1   9  -8   16.24    0.87
   1   9  -8   18.34    0.90
  -1  -9   8   15.00    0.87
  -1  -9   8   16.17    0.87
   0   9  -8    7.42    0.44
   0   9  -8    7.64    0.48
   0   9  -8    6.34    0.46
   0  -9   8    7.18    0.45
   0  -9   8    5.98    0.45
  -1   9  -8    0.42    0.15
  -1   9  -8    0.53    0.19
  -1   9  -8    0.63    0.19
   1  -9   8    0.53    0.16
   1  -9   8    0.58    0.17
   1  -9   8    0.40    0.17
  -2   9  -8    1.30    0.24
  -2   9  -8    1.22    0.18
  -2   9  -8    1.44    0.18
   2  -9   8    1.44    0.21
   2  -9   8    1.53    0.20
   2  -9   8    1.89    0.22
  -3   9  -8    6.01    0.44
   3  -9   8    7.06    0.47
   3  -9   8    5.92    0.44
  -4   9  -8    1.54    0.22
   4  -9   8    2.12    0.23
   5   8  -8    0.39    0.15
   5   8  -8    0.09    0.14
  -5  -8   8    0.77    0.21
  -5  -8   8    0.63    0.19
   4   8  -8    0.44    0.16
   4   8  -8    0.39    0.14
  -4  -8   8    0.54    0.17
  -4  -8   8    0.51    0.16
   3   8  -8    8.83    0.52
   3   8  -8    8.67    0.50
  -3  -8   8    9.20    0.53
  -3  -8   8    8.09    0.52
   2   8  -8    9.25    0.53
   2   8  -8    8.79    0.51
  -2  -8   8    8.90    0.54
  -2  -8   8    8.62    0.53
   1   8  -8    1.91    0.19
   1   8  -8    1.68    0.22
   1   8  -8    1.55    0.18
  -1  -8   8    2.09    0.26
  -1  -8   8    1.39    0.18
   0   8  -8    0.11    0.13
   0   8  -8    0.08    0.15
   0   8  -8    0.16    0.14
   0  -8   8    0.38    0.16
  -1   8  -8    3.35    0.29
  -1   8  -8    3.59    0.32
  -1   8  -8    2.97    0.31
   1  -8   8    3.58    0.41
   1  -8   8    2.86    0.32
  -2   8  -8    0.40    0.17
  -2   8  -8    0.34    0.15
  -2   8  -8    0.42    0.19
   2  -8   8    0.51    0.18
   2  -8   8    0.49    0.16
   2  -8   8    0.48    0.15
  -3   8  -8   10.96    0.67
  -3   8  -8   10.52    0.69
  -3   8  -8   12.49    0.68
   3  -8   8   12.44    0.67
   3  -8   8   12.04    0.66
   3  -8   8   12.73    0.69
  -4   8  -8    2.07    0.24
  -4   8  -8    1.20    0.32
   4  -8   8    2.52    0.32
   4  -8   8    2.09    0.23
  -5   8  -8    0.11    0.20
   5  -8   8    0.22    0.16
   6   7  -8    0.68    0.18
   6   7  -8    0.57    0.15
   6   7  -8    0.63    0.16
  -6  -7   8    0.52    0.18
  -6  -7   8    0.53    0.19
   5   7  -8    0.20    0.15
   5   7  -8    0.36    0.15
   5   7  -8    0.54    0.15
  -5  -7   8    0.34    0.16
  -5  -7   8    0.24    0.16
  -5  -7   8    0.37    0.16
   4   7  -8    5.33    0.37
   4   7  -8    4.86    0.38
   4   7  -8    5.44    0.36
  -4  -7   8    4.41    0.36
  -4  -7   8    4.67    0.37
  -4  -7   8    5.16    0.38
   3   7  -8   19.01    1.01
   3   7  -8   19.55    1.02
  -3  -7   8   20.79    1.02
  -3  -7   8   18.91    1.02
   2   7  -8    5.67    0.37
  -2  -7   8    5.37    0.37
   1   7  -8    6.31    0.40
  -1  -7   8    6.51    0.41
   0   7  -8   31.91    1.60
   0  -7   8   31.99    1.60
  -1   7  -8    6.79    0.42
   1  -7   8    6.11    0.40
   1  -7   8    6.07    0.40
  -2   7  -8   10.97    0.63
   2  -7   8   10.91    0.62
   2  -7   8   11.78    0.64
  -3   7  -8    2.69    0.30
  -3   7  -8    2.78    0.32
  -3   7  -8    2.23    0.27
   3  -7   8    2.64    0.27
   3  -7   8    1.99    0.27
  -4   7  -8   20.54    1.03
  -4   7  -8   18.51    1.04
   4  -7   8   19.07    1.02
   4  -7   8   19.76    1.02
   4  -7   8   19.35    1.03
  -5   7  -8   -0.21    0.18
  -5   7  -8   -0.08    0.17
   5  -7   8   -0.04    0.14
   5  -7   8    0.31    0.19
   5  -7   8   -0.17    0.15
   6   6  -8    1.86    0.20
   6   6  -8    2.12    0.21
   6   6  -8    2.16    0.26
  -6  -6   8    1.49    0.20
  -6  -6   8    2.34    0.23
   5   6  -8    3.64    0.29
   5   6  -8    3.79    0.33
   5   6  -8    3.23    0.30
  -5  -6   8    3.16    0.32
  -5  -6   8    3.47    0.32
  -5  -6   8    3.53    0.32
   4   6  -8    0.10    0.12
   4   6  -8    0.14    0.13
  -4  -6   8    0.07    0.13
  -4  -6   8    0.19    0.13
  -4  -6   8    0.07    0.13
   3   6  -8    4.50    0.33
   3   6  -8    4.66    0.33
  -3  -6   8    5.15    0.34
   2   6  -8    0.28    0.12
   2   6  -8    0.47    0.12
   2   6  -8    0.35    0.12
  -2  -6   8    0.33    0.13
   1   6  -8   11.67    0.60
   1   6  -8   11.69    0.62
   1   6  -8   10.78    0.60
  -1  -6   8   10.33    0.61
   0   6  -8    7.70    0.44
   0   6  -8    6.50    0.45
   0  -6   8    7.45    0.44
   0  -6   8    7.91    0.44
   0  -6   8    7.45    0.43
  -1   6  -8    2.52    0.25
   1  -6   8    1.95    0.22
   1  -6   8    2.28    0.23
   1  -6   8    2.42    0.23
  -2   6  -8    8.39    0.51
  -2   6  -8    9.09    0.50
   2  -6   8    8.42    0.49
   2  -6   8    8.19    0.48
  -3   6  -8    2.46    0.28
  -3   6  -8    2.36    0.25
  -3   6  -8    2.25    0.28
   3  -6   8    1.84    0.20
   3  -6   8    2.10    0.23
  -4   6  -8    7.95    0.50
  -4   6  -8    8.95    0.52
  -4   6  -8    7.78    0.49
   4  -6   8    7.33    0.49
   4  -6   8    8.16    0.47
   4  -6   8    7.81    0.51
  -5   6  -8    0.15    0.18
  -5   6  -8   -0.01    0.17
   5  -6   8   -0.06    0.14
   5  -6   8    0.06    0.14
   5  -6   8    0.03    0.17
   7   5  -8    2.69    0.31
   7   5  -8    2.49    0.27
   7   5  -8    2.13    0.29
  -7  -5   8    2.56    0.32
  -7  -5   8    2.53    0.30
   6   5  -8    3.87    0.30
   6   5  -8    2.86    0.30
   6   5  -8    3.60    0.31
  -6  -5   8    3.00    0.30
  -6  -5   8    3.12    0.32
  -6  -5   8    3.26    0.31
   5   5  -8    0.01    0.13
   5   5  -8    0.17    0.12
  -5  -5   8    0.24    0.15
  -5  -5   8    0.06    0.15
  -5  -5   8    0.01    0.13
   4   5  -8    5.42    0.37
   4   5  -8    5.69    0.37
  -4  -5   8    6.77    0.38
  -4  -5   8    5.62    0.35
   3   5  -8    5.46    0.34
   3   5  -8    5.48    0.35
   3   5  -8    4.72    0.33
  -3  -5   8    5.21    0.35
   2   5  -8    0.97    0.13
   2   5  -8    1.03    0.14
   2   5  -8    0.80    0.14
  -2  -5   8    1.10    0.15
  -2  -5   8    1.12    0.14
   1   5  -8    0.76    0.14
   1   5  -8    0.44    0.11
  -1  -5   8    0.77    0.12
   0   5  -8    5.19    0.35
   0  -5   8    5.57    0.34
   0  -5   8    5.54    0.34
   0  -5   8    6.06    0.34
  -1   5  -8   17.41    0.91
  -1   5  -8   16.39    0.91
   1  -5   8   18.58    0.91
   1  -5   8   18.92    0.91
   1  -5   8   17.53    0.91
  -2   5  -8    1.44    0.17
  -2   5  -8    1.54    0.19
  -2   5  -8    1.78    0.18
   2  -5   8    1.55    0.20
   2  -5   8    1.70    0.23
  -3   5  -8    2.52    0.27
  -3   5  -8    2.66    0.25
  -3   5  -8    2.70    0.27
   3  -5   8    2.67    0.25
   3  -5   8    2.43    0.24
   3  -5   8    3.12    0.24
  -4   5  -8    9.00    0.55
  -4   5  -8   10.71    0.57
  -4   5  -8    9.50    0.56
   4  -5   8    8.69    0.52
   4  -5   8    9.55    0.53
  -5   5  -8   -0.04    0.15
  -5   5  -8    0.12    0.16
  -5   5  -8    0.15    0.15
   5  -5   8    0.18    0.12
   5  -5   8   -0.21    0.16
   5  -5   8   -0.01    0.20
   8   4  -8    2.00    0.27
   8   4  -8    1.81    0.21
   8   4  -8    1.73    0.24
   8   4  -8    1.52    0.22
  -8  -4   8    1.95    0.23
  -8  -4   8    1.38    0.23
   7   4  -8    7.89    0.51
   7   4  -8    8.33    0.48
   7   4  -8    8.21    0.50
  -7  -4   8    8.27    0.51
  -7  -4   8    8.38    0.51
  -7  -4   8    8.57    0.51
   6   4  -8    5.90    0.38
   6   4  -8    5.17    0.41
   6   4  -8    6.14    0.38
  -6  -4   8    5.67    0.38
  -6  -4   8    5.47    0.40
   5   4  -8   12.11    0.68
   5   4  -8   12.73    0.68
  -5  -4   8   12.16    0.68
  -5  -4   8   13.24    0.66
   4   4  -8    5.31    0.34
   4   4  -8    5.03    0.32
   4   4  -8    4.66    0.32
  -4  -4   8    5.25    0.33
  -4  -4   8    4.31    0.30
   3   4  -8   39.20    1.81
   3   4  -8   32.91    1.81
  -3  -4   8   37.58    1.81
  -3  -4   8   36.63    1.81
   2   4  -8   12.85    0.70
   2   4  -8   12.74    0.69
  -2  -4   8   14.79    0.70
  -2  -4   8   13.04    0.70
   1   4  -8   -0.03    0.08
   1   4  -8    0.05    0.10
   1   4  -8    0.13    0.09
  -1  -4   8    0.07    0.08
  -1  -4   8    0.01    0.10
   0   4  -8   16.55    0.81
   0   4  -8   14.53    0.80
   0   4  -8   18.09    0.83
   0  -4   8   15.57    0.80
   0  -4   8   15.72    0.81
   0  -4   8   14.00    0.80
  -1   4  -8   14.63    0.83
  -1   4  -8   14.19    0.81
  -1   4  -8   17.23    0.82
   1  -4   8   16.92    0.81
   1  -4   8   15.80    0.81
   1  -4   8   16.61    0.81
  -2   4  -8   30.21    1.49
  -2   4  -8   29.69    1.49
  -2   4  -8   30.83    1.50
   2  -4   8   28.39    1.48
   2  -4   8   29.22    1.48
   2  -4   8   30.53    1.48
  -3   4  -8    0.91    0.16
  -3   4  -8    0.94    0.15
  -3   4  -8    1.02    0.15
   3  -4   8    0.56    0.14
   3  -4   8    0.69    0.11
   3  -4   8    0.78    0.14
  -4   4  -8   -0.01    0.13
  -4   4  -8    0.00    0.13
  -4   4  -8    0.07    0.15
   4  -4   8   -0.02    0.11
   4  -4   8    0.12    0.10
  -5   4  -8   -0.11    0.15
  -5   4  -8    0.03    0.16
  -5   4  -8    0.07    0.15
  -5   4  -8    0.02    0.18
   5  -4   8   -0.14    0.11
   5  -4   8   -0.02    0.16
   8   3  -8   -0.14    0.13
   8   3  -8    0.29    0.12
   8   3  -8    0.11    0.13
   8   3  -8    0.07    0.14
  -8  -3   8    0.30    0.18
  -8  -3   8    0.07    0.17
   7   3  -8    0.15    0.14
   7   3  -8    0.11    0.14
  -7  -3   8    0.09    0.17
  -7  -3   8    0.05    0.14
  -7  -3   8    0.02    0.13
   6   3  -8   -0.09    0.11
  -6  -3   8    0.15    0.13
  -6  -3   8    0.12    0.10
   5   3  -8    0.73    0.14
   5   3  -8    0.67    0.12
  -5  -3   8    0.86    0.16
  -5  -3   8    0.85    0.11
   4   3  -8    3.03    0.24
   4   3  -8    2.44    0.22
  -4  -3   8    2.49    0.20
  -4  -3   8    2.62    0.23
  -4  -3   8    3.22    0.22
   3   3  -8   49.37    2.37
   3   3  -8   47.37    2.36
  -3  -3   8   48.04    2.36
  -3  -3   8   46.76    2.36
  -3  -3   8   48.89    2.35
   2   3  -8   32.31    1.61
   2   3  -8   35.64    1.62
  -2  -3   8   34.36    1.61
  -2  -3   8   28.14    1.61
   1   3  -8    4.38    0.27
   1   3  -8    3.94    0.27
  -1  -3   8    4.55    0.27
  -1  -3   8    4.24    0.26
  -1  -3   8    4.23    0.25
   0   3  -8    1.40    0.16
   0   3  -8    1.29    0.16
   0   3  -8    1.14    0.15
   0  -3   8    1.28    0.15
   0  -3   8    1.20    0.15
   0  -3   8    1.14    0.13
  -1   3  -8    0.06    0.12
  -1   3  -8    0.05    0.10
   1  -3   8    0.05    0.07
  -2   3  -8   33.65    1.69
  -2   3  -8   35.48    1.68
  -2   3  -8   32.75    1.68
   2  -3   8   34.44    1.67
   2  -3   8   35.34    1.68
   2  -3   8   31.23    1.66
  -3   3  -8    1.19    0.15
  -3   3  -8    1.03    0.16
  -3   3  -8    1.17    0.15
   3  -3   8    1.30    0.16
   3  -3   8    1.10    0.12
   3  -3   8    1.06    0.14
  -4   3  -8    6.73    0.41
  -4   3  -8    6.65    0.43
  -4   3  -8    6.65    0.42
  -4   3  -8    7.21    0.42
   4  -3   8    6.63    0.37
   4  -3   8    6.48    0.42
   4  -3   8    6.31    0.37
  -5   3  -8    0.26    0.18
  -5   3  -8    0.66    0.16
  -5   3  -8    0.63    0.18
   5  -3   8    0.43    0.10
   5  -3   8    0.53    0.11
   5  -3   8    0.42    0.17
   9   2  -8    1.62    0.21
  -9  -2   8    1.13    0.22
  -9  -2   8    1.01    0.22
   8   2  -8    2.92    0.31
   8   2  -8    3.38    0.32
  -8  -2   8    3.80    0.32
  -8  -2   8    3.29    0.31
  -8  -2   8    3.39    0.32
   7   2  -8   -0.13    0.13
   7   2  -8   -0.04    0.12
  -7  -2   8   -0.19    0.17
   6   2  -8    3.13    0.27
  -6  -2   8    3.03    0.27
  -6  -2   8    2.99    0.24
   5   2  -8    7.11    0.41
  -5  -2   8    7.38    0.41
  -5  -2   8    6.99    0.38
  -5  -2   8    6.43    0.41
   4   2  -8   34.89    1.80
   4   2  -8   33.74    1.80
  -4  -2   8   36.81    1.79
  -4  -2   8   37.35    1.80
  -4  -2   8   39.21    1.80
   3   2  -8   29.85    1.61
   3   2  -8   35.64    1.62
  -3  -2   8   32.27    1.61
  -3  -2   8   31.14    1.60
  -3  -2   8   34.29    1.62
   2   2  -8    0.69    0.10
   2   2  -8    1.03    0.12
  -2  -2   8    1.00    0.10
  -2  -2   8    0.68    0.09
  -2  -2   8    0.92    0.11
   1   2  -8    0.07    0.08
   1   2  -8   -0.07    0.08
  -1  -2   8   -0.02    0.07
  -1  -2   8    0.05    0.07
  -1  -2   8    0.10    0.05
   0   2  -8    5.91    0.35
   0   2  -8    6.28    0.34
   0  -2   8    5.78    0.32
   0  -2   8    5.93    0.33
   0  -2   8    6.10    0.33
  -1   2  -8   10.21    0.51
  -1   2  -8    9.10    0.51
  -1   2  -8    9.36    0.53
   1  -2   8    9.56    0.49
   1  -2   8    9.45    0.50
   1  -2   8    9.73    0.49
  -2   2  -8    0.32    0.12
  -2   2  -8    0.43    0.11
  -2   2  -8    0.47    0.09
   2  -2   8    0.48    0.07
   2  -2   8    0.46    0.10
   2  -2   8    0.44    0.07
  -3   2  -8    2.81    0.26
  -3   2  -8    3.22    0.25
  -3   2  -8    2.87    0.23
  -3   2  -8    2.85    0.24
   3  -2   8    2.76    0.18
   3  -2   8    2.86    0.26
   3  -2   8    2.94    0.18
  -4   2  -8    0.44    0.14
  -4   2  -8    0.55    0.13
  -4   2  -8    0.31    0.13
  -4   2  -8    0.31    0.13
   4  -2   8    0.51    0.14
  -5   2  -8    0.10    0.18
  -5   2  -8    0.36    0.16
  -5   2  -8    0.03    0.14
   5  -2   8    0.28    0.16
   9   1  -8   21.38    1.10
   9   1  -8   21.15    1.12
  -9  -1   8   22.25    1.13
  -9  -1   8   21.08    1.13
   8   1  -8    0.37    0.16
   8   1  -8    0.51    0.17
  -8  -1   8    0.69    0.17
  -8  -1   8    0.38    0.16
  -8  -1   8    0.53    0.15
   7   1  -8    0.06    0.12
  -7  -1   8    0.02    0.09
  -7  -1   8    0.02    0.13
  -7  -1   8   -0.02    0.14
   6   1  -8    0.22    0.13
  -6  -1   8    0.02    0.07
  -6  -1   8    0.07    0.11
  -6  -1   8    0.03    0.12
   5   1  -8    2.64    0.21
   5   1  -8    1.83    0.19
  -5  -1   8    1.93    0.20
  -5  -1   8    1.72    0.20
  -5  -1   8    1.86    0.15
   4   1  -8    0.69    0.13
  -4  -1   8    0.72    0.11
  -4  -1   8    0.62    0.09
  -4  -1   8    0.66    0.11
   3   1  -8    8.01    0.46
   3   1  -8    8.74    0.46
  -3  -1   8    8.69    0.45
  -3  -1   8    8.85    0.42
  -3  -1   8    7.94    0.45
   2   1  -8    0.13    0.08
   2   1  -8    0.09    0.08
  -2  -1   8    0.13    0.07
  -2  -1   8    0.16    0.03
  -2  -1   8    0.16    0.07
  -2  -1   8    0.15    0.03
   1   1  -8    7.27    0.38
   1   1  -8    6.93    0.38
  -1  -1   8    6.95    0.35
  -1  -1   8    6.71    0.36
  -1  -1   8    6.44    0.36
   0   1  -8    3.91    0.25
   0   1  -8    3.89    0.25
   0  -1   8    4.14    0.22
   0  -1   8    3.96    0.22
   0  -1   8    3.57    0.22
  -1   1  -8   50.95    2.49
  -1   1  -8   51.15    2.49
  -1   1  -8   51.92    2.50
   1  -1   8   50.49    2.47
   1  -1   8   51.05    2.49
   1  -1   8   49.97    2.47
  -2   1  -8    6.38    0.37
  -2   1  -8    6.32    0.37
  -2   1  -8    6.20    0.39
  -2   1  -8    6.43    0.36
   2  -1   8    6.80    0.37
  -3   1  -8    0.73    0.12
  -3   1  -8    0.48    0.11
  -3   1  -8    0.56    0.13
   3  -1   8    0.75    0.14
  -4   1  -8    0.72    0.14
  -4   1  -8    0.53    0.13
  -4   1  -8    0.75    0.14
  -4   1  -8    0.61    0.15
   4  -1   8    0.59    0.15
  -5   1  -8    3.79    0.36
  -5   1  -8    4.16    0.40
  -5   1  -8    4.33    0.33
   5  -1   8    3.91    0.38
   9   0  -8    3.06    0.32
   9   0  -8    3.06    0.33
  -9   0   8    3.66    0.33
  -9   0   8    3.38    0.32
   8   0  -8    4.66    0.36
   8   0  -8    4.64    0.38
   8   0  -8    4.89    0.35
  -8   0   8    4.44    0.35
  -8   0   8    4.75    0.37
  -8   0   8    5.49    0.33
   7   0  -8   -0.06    0.13
   7   0  -8    0.13    0.12
  -7   0   8   -0.11    0.09
  -7   0   8    0.12    0.13
   6   0  -8    2.99    0.26
  -6   0   8    3.61    0.25
  -6   0   8    3.84    0.26
  -6   0   8    2.85    0.21
   5   0  -8    8.26    0.47
   5   0  -8    8.85    0.47
  -5   0   8    7.44    0.43
  -5   0   8    8.61    0.47
  -5   0   8    9.32    0.46
   4   0  -8   34.62    1.69
   4   0  -8   36.03    1.69
  -4   0   8   32.05    1.68
  -4   0   8   33.44    1.66
  -4   0   8   34.62    1.68
   3   0  -8    3.62    0.25
   3   0  -8    4.14    0.25
  -3   0   8    3.88    0.23
  -3   0   8    3.98    0.24
   2   0  -8    4.48    0.28
   2   0  -8    4.75    0.27
  -2   0   8    4.66    0.26
  -2   0   8    4.88    0.26
   1   0  -8   12.30    0.62
   1   0  -8   12.40    0.62
  -1   0   8   11.48    0.60
  -1   0   8   12.48    0.60
   0   0  -8   33.16    1.67
   0   0  -8   34.32    1.67
   0   0   8   34.45    1.66
  -1   0  -8   14.87    0.78
  -1   0  -8   15.98    0.78
  -1   0  -8   15.38    0.78
   1   0   8   15.36    0.77
  -2   0  -8    4.10    0.27
  -2   0  -8    4.13    0.27
  -2   0  -8    4.22    0.26
   2   0   8    4.18    0.27
  -3   0  -8   -0.01    0.10
  -3   0  -8   -0.07    0.11
   3   0   8   -0.02    0.12
  -4   0  -8   25.76    1.30
  -4   0  -8   25.43    1.30
  -4   0  -8   25.85    1.32
  -4   0  -8   26.14    1.30
   9  -1  -8    0.90    0.18
   9  -1  -8    0.66    0.16
   9  -1  -8    0.83    0.17
  -9   1   8    0.17    0.15
  -9   1   8    0.61    0.16
  -9   1   8    0.79    0.16
   8  -1  -8    5.30    0.34
   8  -1  -8    4.43    0.35
   8  -1  -8    4.14    0.38
   8  -1  -8    5.35    0.36
  -8   1   8    4.95    0.34
  -8   1   8    4.12    0.36
   7  -1  -8    6.19    0.39
   7  -1  -8    5.99    0.38
   7  -1  -8    6.13    0.34
  -7   1   8    5.79    0.37
  -7   1   8    5.72    0.34
   6  -1  -8   31.08    1.52
   6  -1  -8   31.01    1.53
  -6   1   8   29.64    1.51
  -6   1   8   29.86    1.51
  -6   1   8   30.37    1.49
   5  -1  -8   16.00    0.82
   5  -1  -8   15.80    0.82
  -5   1   8   16.45    0.79
  -5   1   8   16.11    0.82
  -5   1   8   15.73    0.82
   4  -1  -8   35.14    1.98
   4  -1  -8   42.08    1.99
  -4   1   8   39.72    1.98
  -4   1   8   44.24    1.98
   3  -1  -8    6.37    0.36
   3  -1  -8    7.03    0.36
  -3   1   8    6.30    0.34
  -3   1   8    6.05    0.34
   2  -1  -8   15.98    0.80
   2  -1  -8   15.85    0.80
  -2   1   8   15.50    0.78
  -2   1   8   16.28    0.78
   1  -1  -8   35.61    1.73
   1  -1  -8   34.94    1.73
   0  -1  -8    9.02    0.54
   0  -1  -8   11.31    0.55
   0  -1  -8   11.96    0.55
  -1  -1  -8    3.28    0.22
  -1  -1  -8    3.72    0.22
  -1  -1  -8    3.53    0.22
   1   1   8    3.42    0.22
  -2  -1  -8    2.50    0.21
  -2  -1  -8    2.33    0.19
  -2  -1  -8    2.39    0.19
   2   1   8    2.01    0.21
  -3  -1  -8    4.33    0.29
  -3  -1  -8    3.56    0.30
  -3  -1  -8    4.02    0.27
  -3  -1  -8    4.19    0.27
   3   1   8    4.06    0.30
  -4  -1  -8    8.13    0.51
  -4  -1  -8    7.92    0.47
  -4  -1  -8    8.03    0.47
   9  -2  -8    7.60    0.49
   9  -2  -8    7.29    0.49
   9  -2  -8    7.34    0.46
  -9   2   8    7.73    0.48
  -9   2   8    7.99    0.48
  -9   2   8    7.17    0.47
   8  -2  -8   -0.10    0.10
   8  -2  -8    0.03    0.14
   8  -2  -8   -0.04    0.13
   8  -2  -8   -0.12    0.15
  -8   2   8    0.02    0.13
  -8   2   8   -0.26    0.13
  -8   2   8   -0.21    0.10
   7  -2  -8    0.01    0.13
   7  -2  -8    0.20    0.12
   7  -2  -8   -0.03    0.11
   7  -2  -8    0.05    0.08
  -7   2   8    0.09    0.12
  -7   2   8    0.12    0.09
  -7   2   8    0.08    0.11
   6  -2  -8   11.64    0.63
   6  -2  -8   11.46    0.60
   6  -2  -8   11.56    0.63
   6  -2  -8   11.96    0.65
  -6   2   8   11.63    0.63
  -6   2   8   11.81    0.60
  -6   2   8   12.72    0.62
   5  -2  -8   13.54    0.75
   5  -2  -8   14.28    0.73
   5  -2  -8   13.63    0.72
  -5   2   8   13.79    0.71
  -5   2   8   14.83    0.72
   4  -2  -8    8.89    0.48
   4  -2  -8    9.10    0.48
  -4   2   8    8.93    0.46
  -4   2   8    8.62    0.46
   3  -2  -8    8.87    0.45
   3  -2  -8    8.47    0.45
  -3   2   8    8.32    0.42
  -3   2   8    8.11    0.42
   2  -2  -8   23.54    1.15
   2  -2  -8   22.89    1.15
   1  -2  -8    0.52    0.08
   1  -2  -8    0.51    0.07
   0  -2  -8   10.09    0.52
   0  -2  -8    9.76    0.51
   0  -2  -8   10.40    0.52
  -1  -2  -8    1.45    0.16
  -1  -2  -8    1.58    0.14
  -1  -2  -8    1.68    0.15
  -2  -2  -8   -0.02    0.12
  -2  -2  -8    0.04    0.07
  -2  -2  -8    0.08    0.08
  -3  -2  -8    0.93    0.14
  -3  -2  -8    1.19    0.13
  -3  -2  -8    1.26    0.13
  -3  -2  -8    1.00    0.16
   9  -3  -8    1.94    0.24
   9  -3  -8    1.83    0.21
   9  -3  -8    1.71    0.18
  -9   3   8    1.36    0.19
  -9   3   8    1.56    0.19
  -9   3   8    1.27    0.18
   8  -3  -8    3.35    0.25
   8  -3  -8    3.10    0.29
   8  -3  -8    3.08    0.32
   8  -3  -8    2.70    0.29
  -8   3   8    2.88    0.28
  -8   3   8    2.96    0.31
  -8   3   8    3.66    0.26
   7  -3  -8    2.99    0.30
   7  -3  -8    3.34    0.29
   7  -3  -8    3.46    0.29
   7  -3  -8    3.50    0.23
  -7   3   8    3.94    0.26
  -7   3   8    3.73    0.26
   6  -3  -8   62.84    3.33
   6  -3  -8   63.33    3.33
   6  -3  -8   71.11    3.31
   6  -3  -8   74.21    3.36
  -6   3   8   61.10    3.32
  -6   3   8   75.70    3.33
   5  -3  -8    1.86    0.25
   5  -3  -8    1.63    0.21
   5  -3  -8    2.04    0.19
  -5   3   8    2.06    0.16
  -5   3   8    2.18    0.17
   4  -3  -8   23.66    1.24
   4  -3  -8   26.52    1.24
   4  -3  -8   24.39    1.27
  -4   3   8   25.33    1.21
  -4   3   8   24.53    1.21
   3  -3  -8    0.53    0.09
   3  -3  -8    0.50    0.09
   3  -3  -8    0.50    0.14
   2  -3  -8   60.13    3.00
   2  -3  -8   63.06    3.01
   2  -3  -8   61.69    3.04
   1  -3  -8    2.77    0.27
   1  -3  -8    2.83    0.19
   1  -3  -8    3.03    0.19
   1  -3  -8    3.11    0.17
   0  -3  -8    0.16    0.06
   0  -3  -8    0.09    0.08
   0  -3  -8    0.11    0.06
   0  -3  -8    0.03    0.12
  -1  -3  -8    0.70    0.08
  -1  -3  -8    0.46    0.13
  -1  -3  -8    0.55    0.08
  -1  -3  -8    0.49    0.10
  -2  -3  -8    2.50    0.18
  -2  -3  -8    2.37    0.19
   9  -4  -8    1.30    0.21
   9  -4  -8    1.06    0.18
   9  -4  -8    1.18    0.16
  -9   4   8    1.22    0.18
  -9   4   8    1.30    0.23
  -9   4   8    1.06    0.18
   8  -4  -8   14.70    0.79
   8  -4  -8   13.69    0.75
   8  -4  -8   11.60    0.75
   8  -4  -8   15.49    0.73
  -8   4   8   14.28    0.75
   7  -4  -8    0.08    0.13
   7  -4  -8    0.15    0.12
   7  -4  -8    0.16    0.09
   7  -4  -8    0.31    0.16
  -7   4   8    0.31    0.11
   6  -4  -8   -0.01    0.06
   6  -4  -8   -0.09    0.10
   6  -4  -8    0.19    0.16
   6  -4  -8    0.21    0.12
  -6   4   8    0.06    0.09
  -6   4   8    0.01    0.08
   5  -4  -8    3.21    0.25
   5  -4  -8    4.39    0.25
   5  -4  -8    3.71    0.32
  -5   4   8    3.26    0.20
  -5   4   8    3.55    0.20
   4  -4  -8   12.43    0.67
   4  -4  -8   11.89    0.62
   4  -4  -8   11.80    0.62
   3  -4  -8   16.65    0.81
   3  -4  -8   15.58    0.85
   3  -4  -8   15.83    0.81
   2  -4  -8    0.79    0.16
   2  -4  -8    0.85    0.08
   2  -4  -8    0.98    0.13
   2  -4  -8    0.90    0.09
   2  -4  -8    0.92    0.08
   1  -4  -8    6.72    0.45
   1  -4  -8    7.12    0.38
   1  -4  -8    7.53    0.38
   1  -4  -8    7.50    0.38
   0  -4  -8    3.54    0.21
   0  -4  -8    3.54    0.24
   0  -4  -8    3.60    0.21
   0  -4  -8    3.83    0.31
  -1  -4  -8   19.89    1.00
  -1  -4  -8   20.32    0.99
  -1  -4  -8   20.76    1.02
  -1  -4  -8   19.63    1.05
  -2  -4  -8    1.54    0.20
  -2  -4  -8    1.55    0.19
   9  -5  -8    0.08    0.17
   9  -5  -8    0.29    0.17
   9  -5  -8    0.25    0.15
  -9   5   8    0.13    0.15
  -9   5   8    0.14    0.17
   8  -5  -8    0.75    0.16
   8  -5  -8    0.63    0.17
   8  -5  -8    0.84    0.13
   8  -5  -8    0.43    0.15
  -8   5   8    0.48    0.13
  -8   5   8    0.65    0.14
   7  -5  -8    0.16    0.16
   7  -5  -8    0.05    0.14
   7  -5  -8    0.06    0.09
   7  -5  -8    0.13    0.13
  -7   5   8   -0.03    0.10
  -7   5   8    0.10    0.10
   6  -5  -8    3.26    0.26
   6  -5  -8    2.93    0.19
   6  -5  -8    3.37    0.26
   6  -5  -8    2.58    0.35
  -6   5   8    3.10    0.19
  -6   5   8    2.97    0.20
   5  -5  -8   16.37    0.80
   5  -5  -8   15.92    0.84
   5  -5  -8   18.08    0.84
   5  -5  -8   14.79    0.87
   4  -5  -8    5.24    0.27
   4  -5  -8    5.51    0.40
   4  -5  -8    5.05    0.27
   4  -5  -8    4.96    0.32
   4  -5  -8    6.13    0.32
   3  -5  -8    0.03    0.04
   3  -5  -8   -0.07    0.15
   3  -5  -8   -0.07    0.08
   3  -5  -8    0.00    0.05
   3  -5  -8    0.06    0.08
   2  -5  -8    0.64    0.08
   2  -5  -8    0.34    0.16
   2  -5  -8    0.64    0.07
   2  -5  -8    0.53    0.08
   1  -5  -8    9.20    0.48
   1  -5  -8    9.32    0.55
   1  -5  -8    9.61    0.48
   1  -5  -8    9.20    0.49
   0  -5  -8    0.03    0.06
   0  -5  -8   -0.07    0.10
   0  -5  -8   -0.08    0.16
   0  -5  -8   -0.02    0.06
  -1  -5  -8    0.23    0.16
   8  -6  -8    2.50    0.36
   8  -6  -8    2.83    0.29
   8  -6  -8    1.54    0.28
   8  -6  -8    2.59    0.25
  -8   6   8    2.42    0.24
   7  -6  -8    0.16    0.14
   7  -6  -8    0.14    0.20
   7  -6  -8    0.23    0.17
   7  -6  -8   -0.01    0.10
  -7   6   8   -0.05    0.09
  -7   6   8   -0.03    0.10
   6  -6  -8   17.02    0.94
   6  -6  -8   17.32    0.90
   6  -6  -8   17.22    0.90
   6  -6  -8   18.01    0.87
   5  -6  -8   24.91    1.29
   5  -6  -8   25.97    1.25
   5  -6  -8   24.38    1.25
   5  -6  -8   24.14    1.22
   4  -6  -8    0.97    0.18
   4  -6  -8    0.94    0.12
   4  -6  -8    1.11    0.11
   4  -6  -8    1.11    0.13
   3  -6  -8    0.15    0.17
   3  -6  -8    0.02    0.07
   3  -6  -8    0.10    0.08
   3  -6  -8   -0.04    0.07
   3  -6  -8    0.06    0.08
   2  -6  -8    0.41    0.07
   2  -6  -8    0.44    0.09
   2  -6  -8    0.82    0.21
   2  -6  -8    0.28    0.09
   1  -6  -8    0.60    0.11
   1  -6  -8    0.63    0.19
   1  -6  -8    0.82    0.09
   7  -7  -8    1.21    0.18
   7  -7  -8    1.30    0.18
   7  -7  -8    1.07    0.24
   6  -7  -8    1.77    0.20
   6  -7  -8    1.44    0.19
   6  -7  -8    1.26    0.17
   6  -7  -8    1.31    0.23
   5  -7  -8    0.79    0.21
   5  -7  -8    0.99    0.15
   5  -7  -8    1.05    0.12
   5  -7  -8    0.94    0.15
   4  -7  -8    6.17    0.33
   4  -7  -8    5.43    0.36
   4  -7  -8    5.13    0.32
   4  -7  -8    5.15    0.31
   4  -7  -8    5.13    0.43
   3  -7  -8   -0.01    0.10
   3  -7  -8   -0.02    0.16
   3  -7  -8   -0.17    0.11
   3  -7  -8    0.05    0.11
   3  -7  -8   -0.11    0.18
   0  10  -9    3.67    0.36
   3   9  -9    0.84    0.20
   3   9  -9    0.76    0.17
   3   9  -9    0.82    0.17
  -3  -9   9    0.77    0.19
   2   9  -9    1.40    0.19
   2   9  -9    1.77    0.21
   2   9  -9    1.78    0.23
  -2  -9   9    2.04    0.23
   1   9  -9    5.84    0.42
   1   9  -9    5.19    0.41
   1   9  -9    6.42    0.45
  -1  -9   9    5.96    0.42
   0   9  -9    0.48    0.17
   0   9  -9    0.63    0.17
   0   9  -9    0.45    0.19
   0  -9   9    0.56    0.18
  -1   9  -9    2.23    0.28
   1  -9   9    1.93    0.23
   1  -9   9    1.82    0.21
  -2   9  -9    2.44    0.33
   2  -9   9    3.21    0.36
   2  -9   9    3.22    0.32
  -3   9  -9    0.65    0.20
   3  -9   9    0.39    0.17
   4   8  -9    0.24    0.19
   4   8  -9   -0.05    0.15
   4   8  -9   -0.16    0.17
  -4  -8   9    0.14    0.14
  -4  -8   9   -0.05    0.16
   3   8  -9    0.65    0.18
   3   8  -9    0.36    0.19
   3   8  -9    0.52    0.16
  -3  -8   9    0.68    0.17
   2   8  -9    0.33    0.17
   2   8  -9   -0.02    0.16
   2   8  -9    0.07    0.14
  -2  -8   9    0.13    0.14
  -2  -8   9    0.25    0.16
   1   8  -9    0.14    0.16
   1   8  -9    0.25    0.15
   1   8  -9   -0.17    0.16
  -1  -8   9    0.29    0.14
  -1  -8   9    0.25    0.15
   0   8  -9    2.29    0.25
   0   8  -9    1.46    0.20
   0   8  -9    1.76    0.21
   0  -8   9    1.75    0.21
   0  -8   9    1.70    0.21
   0  -8   9    2.08    0.22
  -1   8  -9    1.30    0.18
  -1   8  -9    1.52    0.19
  -1   8  -9    1.67    0.23
   1  -8   9    1.36    0.20
   1  -8   9    1.49    0.18
   1  -8   9    1.31    0.19
  -2   8  -9    2.48    0.31
  -2   8  -9    3.07    0.31
  -2   8  -9    2.69    0.34
   2  -8   9    2.15    0.31
   2  -8   9    2.75    0.28
   2  -8   9    2.21    0.23
  -3   8  -9    2.28    0.25
   3  -8   9    1.64    0.19
   3  -8   9    2.14    0.24
   3  -8   9    1.63    0.22
  -4   8  -9    1.66    0.26
   4  -8   9    1.49    0.21
   5   7  -9    0.60    0.17
   5   7  -9    0.49    0.18
  -5  -7   9    0.39    0.18
  -5  -7   9    0.76    0.19
   4   7  -9   14.73    0.76
   4   7  -9   13.49    0.77
  -4  -7   9   14.39    0.76
  -4  -7   9   13.54    0.77
  -4  -7   9   13.65    0.77
   3   7  -9    1.23    0.17
   3   7  -9    1.55    0.20
  -3  -7   9    1.24    0.19
  -3  -7   9    1.19    0.19
   2   7  -9   16.76    0.91
   2   7  -9   16.80    0.91
  -2  -7   9   18.49    0.92
   1   7  -9    2.76    0.29
   1   7  -9    3.32    0.30
   1   7  -9    3.28    0.29
  -1  -7   9    3.21    0.34
  -1  -7   9    3.19    0.30
   0   7  -9    1.05    0.17
   0   7  -9    0.98    0.18
   0   7  -9    1.19    0.19
   0  -7   9    1.80    0.23
   0  -7   9    1.19    0.17
   0  -7   9    1.38    0.18
  -1   7  -9    2.56    0.29
   1  -7   9    2.10    0.25
   1  -7   9    1.75    0.20
   1  -7   9    2.15    0.26
  -2   7  -9   16.18    0.94
  -2   7  -9   17.54    0.93
  -2   7  -9   17.76    0.94
   2  -7   9   17.57    0.93
   2  -7   9   18.86    0.93
  -3   7  -9   10.90    0.64
  -3   7  -9   10.58    0.61
  -3   7  -9   10.45    0.62
   3  -7   9   10.49    0.62
   3  -7   9   10.34    0.61
   3  -7   9   11.18    0.62
  -4   7  -9    8.16    0.51
   4  -7   9    7.49    0.51
   4  -7   9    7.72    0.50
   4  -7   9    7.85    0.49
   6   6  -9    0.21    0.15
   6   6  -9   -0.03    0.15
   6   6  -9   -0.06    0.15
  -6  -6   9    0.37    0.16
  -6  -6   9    0.15    0.15
   5   6  -9    0.41    0.17
   5   6  -9    0.43    0.15
   5   6  -9    0.47    0.15
  -5  -6   9    0.45    0.15
  -5  -6   9    0.55    0.17
  -5  -6   9    0.58    0.16
   4   6  -9    4.87    0.37
   4   6  -9    4.84    0.35
  -4  -6   9    4.96    0.34
  -4  -6   9    5.10    0.39
   3   6  -9    0.02    0.11
   3   6  -9    0.24    0.14
   3   6  -9    0.21    0.14
  -3  -6   9    0.00    0.13
   2   6  -9    6.06    0.38
  -2  -6   9    5.62    0.38
   1   6  -9    1.31    0.17
  -1  -6   9    1.44    0.17
   0   6  -9    1.71    0.19
   0  -6   9    1.11    0.14
   0  -6   9    1.07    0.15
  -1   6  -9    3.04    0.29
   1  -6   9    3.27    0.26
   1  -6   9    3.25    0.27
  -2   6  -9    1.89    0.21
  -2   6  -9    2.23    0.26
  -2   6  -9    1.97    0.28
   2  -6   9    2.35    0.26
   2  -6   9    2.00    0.23
  -3   6  -9   20.58    1.07
  -3   6  -9   21.99    1.05
  -3   6  -9   19.88    1.05
   3  -6   9   18.51    1.03
   3  -6   9   19.64    1.04
  -4   6  -9    1.04    0.20
  -4   6  -9    1.01    0.21
   4  -6   9    0.58    0.15
   4  -6   9    0.66    0.16
   4  -6   9    0.83    0.18
   7   5  -9    5.34    0.37
   7   5  -9    4.25    0.37
   7   5  -9    5.13    0.39
  -7  -5   9    5.19    0.39
  -7  -5   9    4.38    0.41
   6   5  -9    0.21    0.15
   6   5  -9    0.13    0.17
   6   5  -9    0.17    0.15
  -6  -5   9    0.46    0.18
  -6  -5   9   -0.19    0.15
  -6  -5   9    0.24    0.14
   5   5  -9    2.39    0.29
   5   5  -9    2.55    0.27
   5   5  -9    2.46    0.26
  -5  -5   9    2.19    0.25
  -5  -5   9    2.02    0.22
   4   5  -9    7.18    0.43
   4   5  -9    7.08    0.43
  -4  -5   9    6.72    0.40
  -4  -5   9    6.94    0.44
   3   5  -9   10.33    0.56
   3   5  -9   10.76    0.57
  -3  -5   9    9.08    0.55
   2   5  -9   -0.09    0.12
   2   5  -9    0.04    0.12
  -2  -5   9    0.02    0.12
  -2  -5   9   -0.18    0.10
   1   5  -9   19.20    0.96
  -1  -5   9   18.05    0.95
  -1  -5   9   18.73    0.96
  -1  -5   9   18.69    0.96
   0   5  -9    5.02    0.33
   0   5  -9    4.36    0.32
   0  -5   9    4.76    0.31
   0  -5   9    4.98    0.32
   0  -5   9    4.77    0.32
  -1   5  -9    3.26    0.29
  -1   5  -9    2.60    0.26
  -1   5  -9    2.91    0.25
   1  -5   9    2.59    0.24
   1  -5   9    2.96    0.25
   1  -5   9    2.81    0.25
  -2   5  -9   19.16    1.02
  -2   5  -9   19.61    1.02
  -2   5  -9   20.75    1.04
   2  -5   9   18.68    1.01
   2  -5   9   19.74    1.01
   2  -5   9   20.61    1.01
  -3   5  -9    1.20    0.19
  -3   5  -9    1.45    0.19
  -3   5  -9    1.39    0.19
   3  -5   9    1.41    0.18
   3  -5   9    1.36    0.16
   3  -5   9    1.37    0.16
  -4   5  -9    0.06    0.15
  -4   5  -9   -0.01    0.15
  -4   5  -9   -0.02    0.16
   4  -5   9    0.09    0.12
   4  -5   9    0.14    0.14
   4  -5   9   -0.07    0.11
  -5   5  -9   -0.17    0.18
  -5   5  -9   -0.22    0.16
   5  -5   9   -0.10    0.18
   8   4  -9   -0.18    0.15
  -8  -4   9    0.06    0.17
   7   4  -9    3.33    0.31
   7   4  -9    3.50    0.29
   7   4  -9    2.84    0.31
  -7  -4   9    2.93    0.35
  -7  -4   9    3.12    0.32
   6   4  -9    9.62    0.55
   6   4  -9    9.52    0.56
   6   4  -9    9.61    0.55
  -6  -4   9    9.92    0.57
  -6  -4   9    9.55    0.54
  -6  -4   9    9.19    0.58
   5   4  -9    3.70    0.29
   5   4  -9    3.28    0.31
   5   4  -9    3.99    0.31
  -5  -4   9    3.86    0.32
   4   4  -9    5.41    0.34
   4   4  -9    5.28    0.36
  -4  -4   9    5.13    0.31
  -4  -4   9    4.75    0.34
   3   4  -9   39.10    1.81
   3   4  -9   33.84    1.79
  -3  -4   9   37.87    1.79
  -3  -4   9   33.48    1.79
   2   4  -9    0.75    0.14
   2   4  -9    0.97    0.14
  -2  -4   9    1.05    0.12
  -2  -4   9    0.83    0.12
   1   4  -9    7.03    0.42
   1   4  -9    6.86    0.41
  -1  -4   9    7.47    0.41
  -1  -4   9    6.68    0.39
  -1  -4   9    7.47    0.40
   0   4  -9   10.42    0.54
   0   4  -9    9.17    0.54
   0  -4   9    9.61    0.53
   0  -4   9    9.88    0.52
  -1   4  -9    0.24    0.12
  -1   4  -9    0.41    0.12
  -1   4  -9    0.21    0.13
   1  -4   9    0.51    0.11
   1  -4   9    0.38    0.11
  -2   4  -9    5.77    0.41
  -2   4  -9    6.09    0.39
  -2   4  -9    6.02    0.38
   2  -4   9    5.78    0.37
   2  -4   9    6.03    0.35
   2  -4   9    6.40    0.37
  -3   4  -9    3.27    0.31
  -3   4  -9    3.22    0.29
  -3   4  -9    3.21    0.31
   3  -4   9    3.59    0.24
   3  -4   9    3.37    0.28
   3  -4   9    3.01    0.26
  -4   4  -9    1.14    0.20
  -4   4  -9    1.11    0.18
  -4   4  -9    1.39    0.20
   4  -4   9    1.27    0.14
   4  -4   9    1.16    0.16
   8   3  -9    0.60    0.17
  -8  -3   9    0.57    0.18
  -8  -3   9    0.59    0.20
   7   3  -9    0.35    0.15
   7   3  -9    0.32    0.16
  -7  -3   9    0.30    0.20
  -7  -3   9    0.29    0.13
  -7  -3   9    0.24    0.16
   6   3  -9   17.49    0.94
   6   3  -9   17.42    0.95
  -6  -3   9   20.20    0.93
  -6  -3   9   17.06    0.95
   5   3  -9    9.15    0.52
  -5  -3   9    8.67    0.48
  -5  -3   9    9.12    0.51
   4   3  -9    3.08    0.27
  -4  -3   9    3.70    0.26
  -4  -3   9    3.29    0.26
  -4  -3   9    3.12    0.22
   3   3  -9   32.99    1.72
   3   3  -9   34.51    1.72
  -3  -3   9   35.80    1.72
  -3  -3   9   33.93    1.70
  -3  -3   9   36.16    1.72
   2   3  -9    1.03    0.13
  -2  -3   9    0.83    0.11
  -2  -3   9    0.80    0.09
  -2  -3   9    0.76    0.13
   1   3  -9    4.67    0.32
   1   3  -9    5.35    0.32
  -1  -3   9    5.69    0.32
  -1  -3   9    5.10    0.31
  -1  -3   9    5.12    0.29
   0   3  -9   54.32    3.04
   0   3  -9   59.79    3.06
   0   3  -9   66.84    3.05
   0  -3   9   63.21    3.03
   0  -3   9   64.16    3.04
   0  -3   9   64.37    3.04
  -1   3  -9   26.57    1.30
  -1   3  -9   24.60    1.28
  -1   3  -9   26.93    1.29
   1  -3   9   25.76    1.27
   1  -3   9   24.16    1.27
   1  -3   9   25.48    1.27
  -2   3  -9    4.96    0.34
  -2   3  -9    5.63    0.34
  -2   3  -9    4.68    0.36
   2  -3   9    5.61    0.33
   2  -3   9    5.13    0.31
   2  -3   9    5.22    0.30
  -3   3  -9    1.41    0.18
  -3   3  -9    1.71    0.19
  -3   3  -9    2.11    0.23
   3  -3   9    1.70    0.18
   3  -3   9    1.60    0.16
   3  -3   9    1.98    0.22
  -4   3  -9    0.09    0.15
  -4   3  -9   -0.15    0.14
  -4   3  -9    0.19    0.18
  -4   3  -9    0.00    0.14
   4  -3   9    0.09    0.09
   4  -3   9    0.02    0.08
   8   2  -9   -0.02    0.13
   8   2  -9   -0.01    0.15
  -8  -2   9   -0.15    0.15
  -8  -2   9    0.08    0.15
   7   2  -9    0.54    0.17
   7   2  -9    0.64    0.15
  -7  -2   9    0.80    0.18
  -7  -2   9    0.91    0.17
  -7  -2   9    0.72    0.12
   6   2  -9    2.13    0.24
  -6  -2   9    1.58    0.18
  -6  -2   9    1.77    0.20
   5   2  -9   13.01    0.73
  -5  -2   9   13.65    0.70
  -5  -2   9   14.13    0.73
  -5  -2   9   14.45    0.73
   4   2  -9    1.80    0.21
   4   2  -9    2.08    0.21
  -4  -2   9    1.87    0.20
  -4  -2   9    2.05    0.15
  -4  -2   9    2.25    0.20
   3   2  -9    5.94    0.34
   3   2  -9    5.96    0.34
  -3  -2   9    5.70    0.34
  -3  -2   9    5.62    0.30
  -3  -2   9    5.22    0.34
   2   2  -9    1.34    0.16
   2   2  -9    0.93    0.12
  -2  -2   9    1.32    0.12
  -2  -2   9    1.35    0.11
  -2  -2   9    1.15    0.15
   1   2  -9    3.10    0.24
  -1  -2   9    3.10    0.22
  -1  -2   9    2.86    0.20
  -1  -2   9    3.11    0.18
   0   2  -9   41.99    2.03
   0   2  -9   42.51    2.02
   0  -2   9   40.64    2.01
   0  -2   9   40.45    2.01
   0  -2   9   39.60    2.01
  -1   2  -9    9.54    0.47
  -1   2  -9    8.42    0.50
  -1   2  -9    8.16    0.47
   1  -2   9    8.29    0.44
   1  -2   9    8.18    0.45
   1  -2   9    8.38    0.44
  -2   2  -9    5.08    0.32
  -2   2  -9    5.21    0.33
  -2   2  -9    4.84    0.36
   2  -2   9    5.09    0.27
   2  -2   9    4.71    0.31
   2  -2   9    5.07    0.27
  -3   2  -9    0.14    0.13
  -3   2  -9    0.17    0.11
  -3   2  -9    0.21    0.13
  -3   2  -9    0.24    0.13
   3  -2   9    0.29    0.12
  -4   2  -9    0.02    0.15
  -4   2  -9   -0.11    0.14
  -4   2  -9   -0.02    0.14
  -4   2  -9    0.05    0.16
   9   1  -9   10.20    0.59
   9   1  -9    9.55    0.59
  -9  -1   9    9.66    0.59
  -9  -1   9    9.38    0.59
   8   1  -9    1.88    0.20
   8   1  -9    1.52    0.18
   8   1  -9    1.29    0.19
  -8  -1   9    1.72    0.21
  -8  -1   9    1.31    0.17
  -8  -1   9    1.19    0.18
   7   1  -9    1.21    0.18
  -7  -1   9    0.88    0.17
  -7  -1   9    1.16    0.17
  -7  -1   9    0.94    0.13
   6   1  -9   11.72    0.64
  -6  -1   9   12.56    0.64
  -6  -1   9   10.89    0.60
   5   1  -9    0.36    0.12
   5   1  -9    0.11    0.11
  -5  -1   9    0.42    0.12
  -5  -1   9    0.13    0.11
  -5  -1   9    0.37    0.07
   4   1  -9    5.16    0.31
   4   1  -9    3.99    0.30
  -4  -1   9    4.75    0.30
  -4  -1   9    4.26    0.29
  -4  -1   9    4.66    0.24
   3   1  -9    4.81    0.30
   3   1  -9    4.82    0.28
  -3  -1   9    4.23    0.28
  -3  -1   9    4.25    0.27
   2   1  -9    0.12    0.09
   2   1  -9    0.08    0.08
  -2  -1   9    0.02    0.07
  -2  -1   9   -0.05    0.07
   1   1  -9    0.20    0.09
   1   1  -9    0.15    0.09
  -1  -1   9    0.14    0.06
  -1  -1   9    0.10    0.06
  -1  -1   9    0.15    0.04
   0   1  -9    6.04    0.36
   0   1  -9    6.18    0.37
   0  -1   9    6.42    0.33
   0  -1   9    6.45    0.32
   0  -1   9    6.21    0.33
  -1   1  -9   18.22    0.92
  -1   1  -9   19.44    0.92
   1  -1   9   17.08    0.91
  -2   1  -9    8.27    0.47
  -2   1  -9    8.51    0.46
  -2   1  -9    8.53    0.47
  -2   1  -9    8.48    0.50
   2  -1   9    8.11    0.46
  -3   1  -9    6.95    0.43
  -3   1  -9    7.63    0.42
  -3   1  -9    7.35    0.45
  -3   1  -9    7.07    0.43
   3  -1   9    7.00    0.43
  -4   1  -9    0.00    0.14
  -4   1  -9    0.20    0.16
  -4   1  -9    0.07    0.14
  -4   1  -9    0.11    0.15
   9   0  -9    1.82    0.21
   9   0  -9    1.70    0.22
  -9   0   9    1.93    0.21
  -9   0   9    1.63    0.21
   8   0  -9    0.40    0.15
   8   0  -9    0.25    0.16
   8   0  -9    0.24    0.15
  -8   0   9    0.00    0.15
  -8   0   9    0.13    0.14
   7   0  -9    1.87    0.25
   7   0  -9    1.39    0.18
  -7   0   9    1.57    0.18
  -7   0   9    1.71    0.17
   6   0  -9   88.83    4.46
   6   0  -9   93.12    4.47
  -6   0   9   90.33    4.46
  -6   0   9   95.07    4.46
  -6   0   9   89.11    4.44
   5   0  -9    2.40    0.23
   5   0  -9    2.29    0.23
  -5   0   9    2.53    0.23
  -5   0   9    2.55    0.15
   4   0  -9    2.32    0.21
  -4   0   9    2.37    0.19
  -4   0   9    2.09    0.19
   3   0  -9    0.40    0.10
  -3   0   9    0.35    0.08
  -3   0   9    0.45    0.08
   2   0  -9    1.29    0.13
   2   0  -9    1.28    0.16
  -2   0   9    1.17    0.12
  -2   0   9    1.14    0.12
   1   0  -9    2.50    0.20
   1   0  -9    2.48    0.19
   0   0  -9   37.59    1.82
   0   0  -9   36.04    1.82
   0   0   9   37.09    1.80
  -1   0  -9   10.01    0.53
  -1   0  -9    9.52    0.51
  -1   0  -9    9.74    0.53
   1   0   9   10.28    0.51
  -2   0  -9    0.69    0.12
  -2   0  -9    0.43    0.11
   2   0   9    0.48    0.11
  -3   0  -9    1.79    0.17
  -3   0  -9    1.47    0.19
  -3   0  -9    1.68    0.17
   3   0   9    1.68    0.22
   9  -1  -9    0.00    0.15
   9  -1  -9   -0.01    0.18
  -9   1   9    0.04    0.16
  -9   1   9    0.65    0.18
   8  -1  -9    1.06    0.18
   8  -1  -9    0.97    0.17
   8  -1  -9    0.92    0.17
  -8   1   9    1.07    0.13
  -8   1   9    0.81    0.16
  -8   1   9    1.09    0.18
   7  -1  -9    4.81    0.36
   7  -1  -9    5.28    0.38
   7  -1  -9    5.21    0.37
  -7   1   9    5.88    0.35
  -7   1   9    4.89    0.31
   6  -1  -9    4.88    0.35
   6  -1  -9    5.55    0.35
   6  -1  -9    4.95    0.37
  -6   1   9    6.03    0.33
  -6   1   9    5.67    0.34
  -6   1   9    5.35    0.29
   5  -1  -9    0.05    0.10
   5  -1  -9   -0.02    0.11
  -5   1   9    0.17    0.09
  -5   1   9    0.12    0.10
   4  -1  -9   14.71    0.77
   4  -1  -9   15.66    0.76
  -4   1   9   14.75    0.75
  -4   1   9   14.16    0.75
   3  -1  -9    2.24    0.20
   3  -1  -9    2.56    0.21
  -3   1   9    2.36    0.16
  -3   1   9    2.64    0.16
   2  -1  -9    4.30    0.26
   2  -1  -9    3.91    0.26
   1  -1  -9    0.00    0.08
   1  -1  -9    0.02    0.07
   0  -1  -9    1.52    0.16
   0  -1  -9    1.59    0.16
  -1  -1  -9   20.35    1.03
  -1  -1  -9   20.67    1.03
  -1  -1  -9   20.87    1.03
  -2  -1  -9    0.47    0.11
  -2  -1  -9    0.54    0.10
  -2  -1  -9    0.51    0.11
  -3  -1  -9   16.63    0.86
  -3  -1  -9   16.32    0.86
  -3  -1  -9   17.37    0.88
  -3  -1  -9   16.14    0.87
   3   1   9   16.51    0.87
   9  -2  -9    4.15    0.36
   9  -2  -9    4.13    0.32
   9  -2  -9    5.25    0.40
  -9   2   9    4.29    0.35
  -9   2   9    3.67    0.34
   8  -2  -9    5.77    0.42
   8  -2  -9    6.05    0.41
   8  -2  -9    6.38    0.44
   8  -2  -9    6.09    0.36
  -8   2   9    6.09    0.37
  -8   2   9    6.24    0.40
  -8   2   9    6.15    0.41
   7  -2  -9    0.24    0.16
   7  -2  -9    0.42    0.16
   7  -2  -9    0.35    0.15
  -7   2   9    0.32    0.12
  -7   2   9    0.15    0.13
  -7   2   9    0.46    0.09
   6  -2  -9    6.01    0.42
   6  -2  -9    6.40    0.40
   6  -2  -9    5.82    0.39
  -6   2   9    6.90    0.37
  -6   2   9    6.80    0.40
   5  -2  -9    7.48    0.48
   5  -2  -9    7.64    0.44
   5  -2  -9    8.10    0.44
  -5   2   9    7.65    0.41
  -5   2   9    7.36    0.41
   4  -2  -9   15.00    0.80
   4  -2  -9   16.92    0.79
  -4   2   9   14.62    0.77
  -4   2   9   15.33    0.77
   3  -2  -9   10.95    0.56
   3  -2  -9   10.42    0.56
   2  -2  -9    3.29    0.22
   2  -2  -9    3.18    0.22
   1  -2  -9    0.25    0.08
   1  -2  -9    0.22    0.07
   0  -2  -9    2.79    0.21
   0  -2  -9    3.03    0.20
   0  -2  -9    2.97    0.18
  -1  -2  -9    8.30    0.45
  -1  -2  -9    8.51    0.45
  -1  -2  -9    8.37    0.45
  -2  -2  -9    5.87    0.37
  -2  -2  -9    6.14    0.36
  -2  -2  -9    5.91    0.36
   9  -3  -9    0.29    0.13
   9  -3  -9    0.13    0.17
   9  -3  -9    0.42    0.17
  -9   3   9    0.31    0.16
  -9   3   9    0.38    0.15
  -9   3   9    0.49    0.14
   8  -3  -9    0.47    0.16
   8  -3  -9    0.19    0.16
   8  -3  -9    0.38    0.16
   8  -3  -9    0.46    0.10
  -8   3   9    0.47    0.14
  -8   3   9    0.21    0.14
   7  -3  -9    9.30    0.50
   7  -3  -9   10.08    0.57
   7  -3  -9   10.21    0.61
   7  -3  -9    9.10    0.56
  -7   3   9   10.80    0.54
  -7   3   9    9.83    0.54
   6  -3  -9    0.47    0.12
   6  -3  -9    0.27    0.15
   6  -3  -9    0.51    0.13
  -6   3   9    0.66    0.10
  -6   3   9    0.70    0.11
   5  -3  -9    0.83    0.17
   5  -3  -9    1.21    0.13
   5  -3  -9    1.09    0.14
  -5   3   9    1.03    0.12
  -5   3   9    0.98    0.12
   4  -3  -9    0.13    0.14
   4  -3  -9    0.43    0.11
   3  -3  -9    3.13    0.23
   3  -3  -9    3.30    0.30
   3  -3  -9    3.58    0.24
   2  -3  -9    0.36    0.09
   2  -3  -9    0.50    0.09
   2  -3  -9    0.33    0.15
   1  -3  -9    2.15    0.28
   1  -3  -9    1.93    0.16
   1  -3  -9    2.00    0.16
   0  -3  -9    2.79    0.20
   0  -3  -9    3.14    0.19
   0  -3  -9    2.50    0.29
   0  -3  -9    2.84    0.20
  -1  -3  -9    2.18    0.19
  -1  -3  -9    1.87    0.17
  -1  -3  -9    2.57    0.30
  -1  -3  -9    1.88    0.18
   9  -4  -9    0.98    0.23
   9  -4  -9    0.36    0.20
   9  -4  -9    0.77    0.20
  -9   4   9    1.01    0.21
  -9   4   9    0.96    0.17
   8  -4  -9    2.66    0.33
   8  -4  -9    2.82    0.31
   8  -4  -9    2.66    0.29
   8  -4  -9    3.09    0.23
  -8   4   9    3.37    0.28
   7  -4  -9    1.61    0.14
   7  -4  -9    1.64    0.20
   7  -4  -9    1.95    0.20
   7  -4  -9    2.07    0.29
  -7   4   9    2.15    0.25
  -7   4   9    1.69    0.19
   6  -4  -9    0.06    0.12
   6  -4  -9    0.23    0.13
   6  -4  -9    0.22    0.16
  -6   4   9    0.06    0.08
  -6   4   9    0.04    0.08
   5  -4  -9    8.43    0.56
   5  -4  -9    9.58    0.51
   5  -4  -9    9.06    0.51
   4  -4  -9    2.40    0.22
   4  -4  -9    2.34    0.30
   3  -4  -9   25.53    1.34
   3  -4  -9   25.54    1.29
   3  -4  -9   27.04    1.30
   2  -4  -9    6.04    0.34
   2  -4  -9    6.13    0.35
   2  -4  -9    6.47    0.44
   1  -4  -9   13.35    0.69
   1  -4  -9   14.23    0.70
   1  -4  -9   14.10    0.70
   1  -4  -9   13.66    0.77
   0  -4  -9    6.98    0.41
   0  -4  -9    7.81    0.40
   0  -4  -9    7.58    0.40
   0  -4  -9    7.61    0.49
   8  -5  -9    1.06    0.18
   8  -5  -9    1.46    0.23
  -8   5   9    1.28    0.16
   7  -5  -9   21.48    1.08
   7  -5  -9   20.28    1.11
   7  -5  -9   21.38    1.03
   7  -5  -9   19.99    1.07
  -7   5   9   21.12    1.04
  -7   5   9   20.45    1.04
   6  -5  -9   10.09    0.55
   6  -5  -9    9.24    0.60
   6  -5  -9    9.67    0.55
   5  -5  -9    2.86    0.25
   5  -5  -9    3.30    0.26
   5  -5  -9    2.72    0.32
   4  -5  -9    1.11    0.19
   4  -5  -9    1.07    0.15
   4  -5  -9    1.00    0.12
   3  -5  -9   -0.06    0.10
   3  -5  -9    0.07    0.15
   3  -5  -9   -0.03    0.09
   2  -5  -9    1.12    0.14
   2  -5  -9    0.90    0.18
   2  -5  -9    0.78    0.11
   1  -5  -9    4.25    0.27
   1  -5  -9    3.97    0.29
   1  -5  -9    5.00    0.40
   1  -5  -9    3.98    0.26
   7  -6  -9    6.73    0.47
   7  -6  -9    7.78    0.47
   7  -6  -9    7.37    0.53
   6  -6  -9    5.79    0.40
   6  -6  -9    5.52    0.45
   6  -6  -9    5.44    0.38
   5  -6  -9    0.76    0.14
   5  -6  -9    0.63    0.14
   5  -6  -9    0.31    0.18
   4  -6  -9    2.44    0.24
   4  -6  -9    1.81    0.23
   3  -6  -9    0.00    0.10
   3  -6  -9   -0.05    0.17
   3  -6  -9    0.19    0.10
   2  -6  -9    2.49    0.27
   2   9 -10    0.99    0.20
  -2  -9  10    0.33    0.24
   1   9 -10    0.19    0.17
  -1  -9  10    0.15    0.21
   0   9 -10    2.67    0.34
   0  -9  10    2.72    0.35
   0  -9  10    3.17    0.34
  -1   9 -10    0.24    0.17
   1  -9  10    0.33    0.20
   1  -9  10    0.31    0.18
   4   8 -10    2.63    0.35
   4   8 -10    2.52    0.34
  -4  -8  10    2.82    0.32
   3   8 -10    5.34    0.41
   3   8 -10    4.92    0.38
  -3  -8  10    4.24    0.41
   2   8 -10    5.82    0.45
   2   8 -10    5.40    0.41
   2   8 -10    6.74    0.42
  -2  -8  10    5.57    0.44
   1   8 -10    0.30    0.14
   1   8 -10    0.11    0.16
   1   8 -10    0.02    0.16
  -1  -8  10    0.04    0.17
  -1  -8  10    0.57    0.17
   0   8 -10    0.69    0.23
   0   8 -10    1.15    0.19
   0   8 -10    0.38    0.27
   0  -8  10    0.83    0.18
   0  -8  10    1.34    0.20
   0  -8  10    1.61    0.19
  -1   8 -10    5.45    0.42
   1  -8  10    5.64    0.42
   1  -8  10    5.34    0.39
  -2   8 -10    1.26    0.21
   2  -8  10    1.30    0.19
   2  -8  10    1.45    0.22
   5   7 -10    4.01    0.39
   5   7 -10    4.82    0.38
  -5  -7  10    4.33    0.38
  -5  -7  10    3.91    0.36
   4   7 -10    0.83    0.19
   4   7 -10    0.84    0.17
   4   7 -10    1.18    0.18
  -4  -7  10    1.16    0.20
  -4  -7  10    1.14    0.19
   3   7 -10    1.31    0.18
   3   7 -10    1.16    0.20
   3   7 -10    0.92    0.18
  -3  -7  10    1.06    0.20
  -3  -7  10    0.84    0.19
   2   7 -10   -0.07    0.13
   2   7 -10    0.27    0.15
   2   7 -10    0.19    0.17
  -2  -7  10    0.19    0.15
  -2  -7  10    0.00    0.16
   1   7 -10    0.16    0.15
   1   7 -10    0.28    0.16
   1   7 -10    0.12    0.15
  -1  -7  10    0.37    0.15
  -1  -7  10    0.04    0.15
  -1  -7  10    0.36    0.14
   0   7 -10    1.32    0.19
   0   7 -10    1.72    0.23
   0   7 -10    1.16    0.17
   0  -7  10    1.30    0.18
   0  -7  10    0.84    0.15
   0  -7  10    1.19    0.19
  -1   7 -10    9.29    0.55
  -1   7 -10    8.72    0.58
  -1   7 -10    8.58    0.55
   1  -7  10   10.08    0.56
   1  -7  10    8.96    0.54
  -2   7 -10    0.08    0.16
   2  -7  10    0.18    0.16
   2  -7  10    0.33    0.16
   2  -7  10    0.17    0.17
  -3   7 -10    6.00    0.46
   3  -7  10    7.33    0.46
   3  -7  10    5.76    0.44
   3  -7  10    6.68    0.43
   6   6 -10    4.16    0.36
   6   6 -10    3.86    0.35
  -6  -6  10    3.30    0.38
  -6  -6  10    3.90    0.37
   5   6 -10    1.17    0.18
   5   6 -10    1.20    0.19
   5   6 -10    1.25    0.19
  -5  -6  10    1.45    0.19
  -5  -6  10    1.21    0.20
   4   6 -10    1.51    0.21
   4   6 -10    1.35    0.20
   4   6 -10    1.36    0.18
  -4  -6  10    0.92    0.17
  -4  -6  10    1.53    0.21
  -4  -6  10    1.34    0.17
   3   6 -10   13.35    0.76
   3   6 -10   13.91    0.78
   3   6 -10   14.43    0.77
  -3  -6  10   13.98    0.77
  -3  -6  10   14.93    0.78
   2   6 -10    4.61    0.36
   2   6 -10    5.05    0.38
  -2  -6  10    4.43    0.33
  -2  -6  10    3.94    0.35
   1   6 -10    0.66    0.16
   1   6 -10    0.39    0.16
  -1  -6  10    0.51    0.13
  -1  -6  10    0.69    0.15
  -1  -6  10    0.76    0.15
   0   6 -10    2.98    0.30
   0   6 -10    3.36    0.32
   0  -6  10    3.47    0.28
   0  -6  10    3.35    0.29
   0  -6  10    3.47    0.29
  -1   6 -10    4.17    0.33
  -1   6 -10    4.50    0.35
  -1   6 -10    3.99    0.37
   1  -6  10    3.73    0.32
   1  -6  10    3.99    0.32
   1  -6  10    4.37    0.31
  -2   6 -10    2.77    0.30
  -2   6 -10    2.51    0.30
  -2   6 -10    3.43    0.33
   2  -6  10    3.05    0.29
   2  -6  10    3.29    0.29
  -3   6 -10    3.00    0.40
  -3   6 -10    3.89    0.36
   3  -6  10    3.52    0.33
   3  -6  10    3.54    0.31
   3  -6  10    3.97    0.33
   7   5 -10   -0.09    0.15
  -7  -5  10   -0.12    0.17
   6   5 -10    0.84    0.19
   6   5 -10    0.79    0.17
  -6  -5  10    0.81    0.17
  -6  -5  10    0.92    0.22
   5   5 -10    0.93    0.18
   5   5 -10    0.95    0.17
  -5  -5  10    1.15    0.16
  -5  -5  10    0.66    0.16
  -5  -5  10    0.96    0.17
   4   5 -10    2.12    0.29
   4   5 -10    2.73    0.28
  -4  -5  10    2.45    0.21
  -4  -5  10    2.30    0.23
  -4  -5  10    2.28    0.27
   3   5 -10    0.13    0.15
  -3  -5  10    0.16    0.13
  -3  -5  10    0.17    0.13
   2   5 -10    0.40    0.14
  -2  -5  10    0.30    0.12
   1   5 -10    0.43    0.14
   1   5 -10    0.39    0.12
  -1  -5  10    0.43    0.11
  -1  -5  10    0.20    0.12
   0   5 -10   24.24    1.25
   0   5 -10   26.67    1.25
   0  -5  10   24.68    1.24
   0  -5  10   22.82    1.24
  -1   5 -10    1.17    0.19
  -1   5 -10    1.06    0.19
  -1   5 -10    0.94    0.16
   1  -5  10    1.07    0.15
   1  -5  10    1.00    0.18
   1  -5  10    0.58    0.13
  -2   5 -10   -0.30    0.17
  -2   5 -10    0.02    0.17
  -2   5 -10   -0.10    0.14
   2  -5  10    0.14    0.11
   2  -5  10   -0.01    0.12
   2  -5  10    0.05    0.12
  -3   5 -10    0.32    0.15
  -3   5 -10    0.24    0.17
  -3   5 -10    0.26    0.17
   3  -5  10    0.00    0.11
   3  -5  10    0.08    0.13
  -4   5 -10   -0.05    0.19
  -4   5 -10   -0.18    0.17
   4  -5  10   -0.09    0.14
   4  -5  10    0.11    0.17
   4  -5  10   -0.11    0.16
   7   4 -10    1.85    0.22
  -7  -4  10    1.15    0.18
  -7  -4  10    1.80    0.22
   6   4 -10    3.05    0.30
   6   4 -10    2.90    0.30
  -6  -4  10    3.44    0.32
  -6  -4  10    2.86    0.32
  -6  -4  10    2.97    0.27
   5   4 -10    5.36    0.37
   5   4 -10    4.83    0.38
  -5  -4  10    5.51    0.36
  -5  -4  10    4.60    0.37
   4   4 -10   15.20    0.77
  -4  -4  10   13.69    0.75
  -4  -4  10   13.68    0.73
   3   4 -10    8.68    0.50
  -3  -4  10    8.31    0.49
  -3  -4  10    8.64    0.46
   2   4 -10    5.99    0.38
   2   4 -10    5.36    0.37
  -2  -4  10    5.83    0.37
  -2  -4  10    6.28    0.34
  -2  -4  10    5.98    0.37
   1   4 -10   31.79    1.62
   1   4 -10   32.91    1.62
  -1  -4  10   32.47    1.60
  -1  -4  10   32.51    1.61
  -1  -4  10   32.42    1.61
   0   4 -10    0.78    0.14
   0   4 -10    0.53    0.14
   0   4 -10    1.02    0.15
   0  -4  10    0.93    0.13
   0  -4  10    0.63    0.11
   0  -4  10    0.71    0.11
  -1   4 -10    0.04    0.14
  -1   4 -10   -0.10    0.12
  -1   4 -10    0.08    0.13
   1  -4  10   -0.08    0.10
   1  -4  10   -0.01    0.11
  -2   4 -10    0.01    0.15
  -2   4 -10   -0.03    0.15
  -2   4 -10   -0.03    0.15
   2  -4  10   -0.02    0.10
   2  -4  10    0.02    0.12
  -3   4 -10    0.26    0.16
  -3   4 -10    0.29    0.16
  -3   4 -10   -0.08    0.17
   3  -4  10    0.21    0.12
   3  -4  10    0.11    0.14
   3  -4  10   -0.05    0.10
  -4   4 -10    0.93    0.21
  -4   4 -10    1.62    0.21
   4  -4  10    1.26    0.21
   8   3 -10    0.60    0.18
  -8  -3  10    0.20    0.19
  -8  -3  10    0.34    0.20
   7   3 -10    0.60    0.17
   7   3 -10    0.61    0.16
  -7  -3  10    0.17    0.17
  -7  -3  10    0.59    0.15
  -7  -3  10    0.31    0.16
   6   3 -10    1.44    0.18
   6   3 -10    1.54    0.22
  -6  -3  10    1.33    0.18
  -6  -3  10    1.72    0.20
  -6  -3  10    1.01    0.19
   5   3 -10    0.39    0.15
  -5  -3  10    0.54    0.15
  -5  -3  10    0.44    0.10
   4   3 -10    9.52    0.53
  -4  -3  10    9.16    0.48
  -4  -3  10    9.00    0.52
   3   3 -10    5.30    0.35
   3   3 -10    4.95    0.35
  -3  -3  10    5.84    0.34
  -3  -3  10    5.68    0.34
  -3  -3  10    5.28    0.30
   2   3 -10    0.02    0.11
   2   3 -10    0.05    0.11
  -2  -3  10    0.11    0.10
  -2  -3  10    0.12    0.07
   1   3 -10   12.33    0.65
   1   3 -10   11.93    0.65
  -1  -3  10   12.04    0.63
  -1  -3  10   11.98    0.65
  -1  -3  10   12.45    0.62
   0   3 -10   20.43    1.06
   0   3 -10   19.24    1.06
   0   3 -10   24.05    1.09
   0  -3  10   20.84    1.05
   0  -3  10   20.23    1.04
   0  -3  10   20.11    1.04
  -1   3 -10    8.70    0.53
  -1   3 -10    8.97    0.51
  -1   3 -10    8.90    0.51
   1  -3  10    8.78    0.48
   1  -3  10    8.74    0.48
   1  -3  10    9.44    0.48
  -2   3 -10    0.27    0.15
  -2   3 -10    0.07    0.13
  -2   3 -10    0.21    0.13
   2  -3  10    0.18    0.09
   2  -3  10   -0.06    0.11
   2  -3  10    0.04    0.09
  -3   3 -10   -0.23    0.13
  -3   3 -10    0.21    0.18
  -3   3 -10   -0.09    0.15
   3  -3  10   -0.11    0.09
   3  -3  10   -0.07    0.13
   3  -3  10   -0.06    0.07
   8   2 -10    1.80    0.22
  -8  -2  10    2.28    0.22
  -8  -2  10    2.07    0.24
   7   2 -10    1.16    0.20
   7   2 -10    1.66    0.20
  -7  -2  10    1.43    0.19
  -7  -2  10    1.12    0.18
   6   2 -10    7.63    0.49
  -6  -2  10    8.00    0.42
  -6  -2  10    8.18    0.47
  -6  -2  10    6.63    0.47
   5   2 -10    2.16    0.25
   5   2 -10    2.30    0.24
  -5  -2  10    2.18    0.24
  -5  -2  10    2.38    0.17
   4   2 -10    2.58    0.24
   4   2 -10    2.28    0.25
  -4  -2  10    3.04    0.24
  -4  -2  10    2.44    0.16
  -4  -2  10    2.10    0.23
   3   2 -10    6.77    0.42
   3   2 -10    6.61    0.41
  -3  -2  10    7.55    0.36
  -3  -2  10    6.94    0.40
  -3  -2  10    6.87    0.36
   2   2 -10    5.68    0.34
   2   2 -10    5.28    0.34
  -2  -2  10    5.92    0.28
  -2  -2  10    4.54    0.32
  -2  -2  10    5.23    0.32
   1   2 -10    0.16    0.11
   1   2 -10    0.22    0.11
  -1  -2  10    0.28    0.06
  -1  -2  10    0.24    0.09
  -1  -2  10    0.15    0.08
   0   2 -10   29.68    1.43
   0   2 -10   29.33    1.43
   0  -2  10   27.79    1.41
   0  -2  10   28.99    1.40
   0  -2  10   26.96    1.41
  -1   2 -10    6.69    0.41
  -1   2 -10    6.07    0.38
  -1   2 -10    5.96    0.38
   1  -2  10    5.70    0.32
   1  -2  10    5.93    0.34
   1  -2  10    5.95    0.32
  -2   2 -10   12.10    0.63
  -2   2 -10   11.66    0.63
  -2   2 -10   10.57    0.65
   2  -2  10   11.65    0.61
  -3   2 -10    9.69    0.57
  -3   2 -10    9.51    0.59
  -3   2 -10   10.19    0.58
   3  -2  10   10.28    0.56
   8   1 -10    2.64    0.34
   8   1 -10    2.57    0.34
  -8  -1  10    2.97    0.31
   7   1 -10   10.54    0.63
   7   1 -10   11.50    0.64
  -7  -1  10   10.93    0.59
  -7  -1  10   11.61    0.63
  -7  -1  10   11.05    0.64
   6   1 -10   -0.08    0.12
   6   1 -10    0.15    0.15
  -6  -1  10    0.17    0.13
  -6  -1  10    0.11    0.07
   5   1 -10    0.97    0.16
   5   1 -10    0.62    0.13
  -5  -1  10    0.82    0.13
  -5  -1  10    0.94    0.14
  -5  -1  10    1.04    0.09
   4   1 -10    1.16    0.15
   4   1 -10    1.24    0.15
  -4  -1  10    1.09    0.13
   3   1 -10   -0.03    0.10
   3   1 -10    0.03    0.11
  -3  -1  10    0.10    0.09
  -3  -1  10    0.00    0.08
   2   1 -10    7.65    0.43
   2   1 -10    8.03    0.43
  -2  -1  10    7.36    0.41
  -2  -1  10    7.65    0.42
   1   1 -10    1.55    0.18
   1   1 -10    1.10    0.13
  -1  -1  10    0.92    0.10
  -1  -1  10    1.07    0.13
   0   1 -10    0.02    0.10
   0  -1  10    0.01    0.06
  -1   1 -10    0.03    0.11
  -1   1 -10    0.14    0.11
   1  -1  10    0.15    0.08
  -2   1 -10    0.35    0.13
  -2   1 -10    0.14    0.12
  -2   1 -10   -0.05    0.13
   2  -1  10    0.08    0.10
  -3   1 -10    4.16    0.35
  -3   1 -10    4.28    0.37
  -3   1 -10    3.91    0.33
   3  -1  10    4.32    0.32
  -9   0  10    0.55    0.18
   8   0 -10    0.17    0.18
   8   0 -10    0.05    0.17
  -8   0  10    0.21    0.12
  -8   0  10   -0.07    0.15
  -8   0  10   -0.07    0.14
   7   0 -10    0.25    0.15
   7   0 -10    0.42    0.14
  -7   0  10    0.56    0.14
  -7   0  10    0.37    0.10
  -7   0  10    0.48    0.15
   6   0 -10    8.71    0.54
   6   0 -10   10.33    0.54
  -6   0  10   10.32    0.53
  -6   0  10    8.02    0.52
  -6   0  10    9.32    0.47
   5   0 -10    6.14    0.38
   5   0 -10    5.68    0.37
  -5   0  10    6.04    0.36
   4   0 -10    6.81    0.41
   4   0 -10    6.67    0.42
  -4   0  10    7.07    0.39
  -4   0  10    7.62    0.40
   3   0 -10    4.23    0.27
   3   0 -10    3.36    0.26
  -3   0  10    3.59    0.23
  -3   0  10    3.62    0.23
   2   0 -10    8.36    0.46
   2   0 -10    8.53    0.45
  -2   0  10    7.99    0.42
  -2   0  10    8.20    0.42
   1   0 -10   26.34    1.34
   1   0 -10   27.13    1.33
   0   0 -10    4.33    0.32
   0   0 -10    4.90    0.29
  -1   0 -10    0.68    0.13
   1   0  10    0.79    0.10
  -2   0 -10    1.94    0.25
  -2   0 -10    1.89    0.18
  -2   0 -10    2.01    0.28
  -2   0 -10    1.92    0.22
   2   0  10    1.80    0.20
   9  -1 -10    8.36    0.55
  -9   1  10    7.00    0.53
  -9   1  10    9.45    0.51
   8  -1 -10    0.16    0.18
   8  -1 -10    0.06    0.16
  -8   1  10   -0.03    0.15
  -8   1  10    0.02    0.11
  -8   1  10   -0.18    0.18
   7  -1 -10    2.28    0.29
   7  -1 -10    3.17    0.33
   7  -1 -10    2.79    0.30
  -7   1  10    2.41    0.19
  -7   1  10    2.60    0.26
   6  -1 -10    3.51    0.31
   6  -1 -10    3.48    0.31
  -6   1  10    3.56    0.28
  -6   1  10    4.56    0.27
   5  -1 -10   19.34    1.05
   5  -1 -10   20.50    1.05
  -5   1  10   20.79    1.04
  -5   1  10   21.76    1.04
   4  -1 -10    4.96    0.32
   4  -1 -10    5.22    0.33
  -4   1  10    4.60    0.29
  -4   1  10    5.19    0.29
   3  -1 -10    3.68    0.24
   3  -1 -10    3.31    0.25
  -3   1  10    3.19    0.18
  -3   1  10    3.01    0.18
   2  -1 -10   24.33    1.15
   2  -1 -10   21.54    1.15
   1  -1 -10    4.35    0.25
   1  -1 -10    3.39    0.26
   0  -1 -10    4.04    0.26
  -1  -1 -10    5.34    0.35
  -1  -1 -10    5.61    0.32
  -2  -1 -10    0.81    0.15
  -2  -1 -10    0.71    0.14
  -2  -1 -10    0.65    0.14
   8  -2 -10    7.40    0.50
   8  -2 -10    7.81    0.49
  -8   2  10    7.21    0.43
  -8   2  10    8.01    0.48
  -8   2  10    7.57    0.47
   7  -2 -10    8.83    0.57
   7  -2 -10    8.75    0.55
   7  -2 -10    9.59    0.55
  -7   2  10    9.79    0.53
   6  -2 -10    2.42    0.27
   6  -2 -10    2.40    0.26
   6  -2 -10    2.69    0.33
  -6   2  10    2.54    0.21
  -6   2  10    2.29    0.25
   5  -2 -10    1.32    0.15
   5  -2 -10    1.29    0.20
   5  -2 -10    1.05    0.15
  -5   2  10    1.35    0.15
  -5   2  10    1.57    0.15
   4  -2 -10    1.95    0.22
   4  -2 -10    2.65    0.22
  -4   2  10    2.47    0.14
  -4   2  10    2.26    0.14
   3  -2 -10    9.99    0.54
   3  -2 -10   10.26    0.55
   2  -2 -10    1.89    0.20
   2  -2 -10    2.47    0.19
   1  -2 -10    6.17    0.36
   1  -2 -10    6.27    0.36
   0  -2 -10    2.05    0.20
   0  -2 -10    2.24    0.21
  -1  -2 -10    0.03    0.10
  -1  -2 -10    0.09    0.12
   8  -3 -10    0.27    0.18
   8  -3 -10    0.50    0.17
  -8   3  10    0.41    0.15
  -8   3  10    0.58    0.16
   7  -3 -10    0.80    0.17
   7  -3 -10    0.93    0.16
   7  -3 -10    1.08    0.19
  -7   3  10    1.28    0.15
  -7   3  10    1.72    0.19
   6  -3 -10   17.92    0.91
   6  -3 -10   17.09    0.90
   6  -3 -10   16.70    0.93
  -6   3  10   17.10    0.87
  -6   3  10   17.68    0.88
   5  -3 -10    4.06    0.37
   5  -3 -10    4.36    0.31
   5  -3 -10    3.98    0.30
  -5   3  10    4.12    0.22
  -5   3  10    4.07    0.22
   4  -3 -10    9.72    0.61
   4  -3 -10   10.88    0.55
   4  -3 -10    9.45    0.55
   3  -3 -10    4.22    0.29
   3  -3 -10    4.39    0.38
   2  -3 -10    0.76    0.11
   2  -3 -10    0.54    0.11
   2  -3 -10    0.40    0.18
   1  -3 -10    9.71    0.51
   1  -3 -10    9.77    0.60
   1  -3 -10    9.19    0.51
   0  -3 -10    4.88    0.30
   0  -3 -10    4.09    0.29
   0  -3 -10    5.09    0.42
   8  -4 -10    1.62    0.21
   8  -4 -10    1.65    0.23
  -8   4  10    2.68    0.28
   7  -4 -10    1.46    0.18
   7  -4 -10    1.27    0.23
   7  -4 -10    1.48    0.19
  -7   4  10    1.65    0.21
  -7   4  10    1.32    0.15
   6  -4 -10    8.72    0.49
   6  -4 -10    7.99    0.54
   6  -4 -10    7.90    0.50
  -6   4  10    7.93    0.41
  -6   4  10    7.80    0.41
   5  -4 -10    0.08    0.12
   5  -4 -10    0.07    0.13
   5  -4 -10    0.02    0.15
   4  -4 -10    0.10    0.16
   4  -4 -10    0.34    0.12
   4  -4 -10    0.37    0.12
   3  -4 -10    7.31    0.49
   3  -4 -10    7.49    0.43
   2  -4 -10    1.81    0.22
   2  -4 -10    1.46    0.19
   2  -4 -10    1.37    0.14
   1  -4 -10    0.69    0.11
   1  -4 -10    0.69    0.14
   1  -4 -10    0.73    0.19
   7  -5 -10   15.92    0.82
   7  -5 -10   12.49    0.89
   7  -5 -10   15.97    0.81
   6  -5 -10   12.03    0.75
   6  -5 -10   12.54    0.70
   6  -5 -10   13.52    0.71
   5  -5 -10    0.40    0.13
   5  -5 -10    0.33    0.15
   5  -5 -10    0.17    0.16
   4  -5 -10    2.68    0.25
   4  -5 -10    2.37    0.24
   4  -5 -10    2.63    0.33
   3  -5 -10    0.40    0.12
   3  -5 -10    0.74    0.21
   2   8 -11    3.63    0.36
  -2  -8  11    2.95    0.35
   1   8 -11    1.35    0.21
  -1  -8  11    1.44    0.21
  -1  -8  11    1.44    0.21
   0   8 -11    0.32    0.19
   0  -8  11    0.38    0.17
   0  -8  11    0.81    0.18
  -1   8 -11    0.05    0.19
   1  -8  11    0.08    0.18
   1  -8  11   -0.14    0.16
   4   7 -11   -0.12    0.18
   4   7 -11    0.09    0.17
  -4  -7  11   -0.22    0.17
  -4  -7  11    0.11    0.17
   3   7 -11    0.09    0.19
   3   7 -11    0.10    0.16
  -3  -7  11    0.04    0.15
   2   7 -11    0.48    0.20
   2   7 -11    0.71    0.18
  -2  -7  11    0.43    0.17
   1   7 -11    0.36    0.19
  -1  -7  11    0.22    0.15
  -1  -7  11    0.06    0.12
  -1  -7  11   -0.02    0.16
   0   7 -11    1.50    0.22
   0  -7  11    1.35    0.19
   0  -7  11    2.24    0.22
  -1   7 -11    1.55    0.22
   1  -7  11    1.87    0.21
   1  -7  11    1.53    0.22
  -2   7 -11    3.64    0.37
   2  -7  11    4.26    0.38
   2  -7  11    4.76    0.35
   2  -7  11    4.26    0.38
   5   6 -11   21.47    1.16
   5   6 -11   22.16    1.16
  -5  -6  11   22.51    1.14
  -5  -6  11   21.79    1.16
   4   6 -11   -0.08    0.15
   4   6 -11    0.12    0.16
  -4  -6  11    0.28    0.13
  -4  -6  11   -0.08    0.15
   3   6 -11    7.47    0.49
   3   6 -11    7.47    0.48
   3   6 -11    8.30    0.50
  -3  -6  11    7.48    0.47
  -3  -6  11    7.24    0.48
   2   6 -11    2.29    0.32
   2   6 -11    2.58    0.29
   2   6 -11    1.91    0.22
  -2  -6  11    2.89    0.28
  -2  -6  11    2.46    0.32
  -2  -6  11    2.90    0.26
   1   6 -11    0.16    0.15
   1   6 -11    0.06    0.15
   1   6 -11    0.15    0.16
  -1  -6  11    0.13    0.12
  -1  -6  11    0.23    0.14
  -1  -6  11   -0.25    0.14
   0   6 -11    0.68    0.16
   0   6 -11    0.56    0.20
   0   6 -11    0.62    0.16
   0  -6  11    0.81    0.18
   0  -6  11    0.65    0.15
   0  -6  11    0.92    0.16
  -1   6 -11    0.14    0.20
  -1   6 -11    0.49    0.16
   1  -6  11    0.54    0.17
   1  -6  11    0.56    0.16
   1  -6  11    0.88    0.16
  -2   6 -11    0.26    0.18
   2  -6  11    0.03    0.15
   2  -6  11    0.08    0.15
   6   5 -11    2.34    0.33
   6   5 -11    1.95    0.23
  -6  -5  11    2.47    0.24
  -6  -5  11    2.38    0.30
   5   5 -11    6.44    0.44
   5   5 -11    6.34    0.45
  -5  -5  11    6.48    0.44
  -5  -5  11    6.53    0.41
   4   5 -11    9.18    0.55
   4   5 -11    9.31    0.56
   4   5 -11    8.93    0.55
  -4  -5  11    9.51    0.50
  -4  -5  11    8.58    0.54
  -4  -5  11    8.75    0.54
   3   5 -11   18.10    0.91
   3   5 -11   16.99    0.91
   3   5 -11   16.65    0.92
  -3  -5  11   17.16    0.90
  -3  -5  11   16.47    0.90
   2   5 -11    0.02    0.16
   2   5 -11   -0.06    0.14
   2   5 -11   -0.06    0.16
  -2  -5  11    0.21    0.13
  -2  -5  11   -0.05    0.13
  -2  -5  11    0.06    0.10
   1   5 -11    1.49    0.19
   1   5 -11    1.92    0.23
   1   5 -11    1.74    0.21
  -1  -5  11    1.95    0.21
  -1  -5  11    1.94    0.20
   0   5 -11   12.13    0.72
   0   5 -11   12.97    0.74
   0   5 -11   13.73    0.72
   0  -5  11   12.27    0.70
   0  -5  11   13.90    0.70
  -1   5 -11    1.60    0.20
  -1   5 -11    1.55    0.23
  -1   5 -11    1.07    0.19
   1  -5  11    1.70    0.23
   1  -5  11    1.75    0.17
  -2   5 -11    2.16    0.30
  -2   5 -11    2.63    0.31
   2  -5  11    2.64    0.27
   2  -5  11    2.67    0.28
   7   4 -11    0.24    0.19
   7   4 -11    0.16    0.19
  -7  -4  11    0.15    0.18
  -7  -4  11    0.37    0.20
   6   4 -11    0.76    0.18
   6   4 -11    0.52    0.17
  -6  -4  11    0.86    0.18
   5   4 -11    2.47    0.29
   5   4 -11    2.00    0.21
   5   4 -11    1.88    0.22
  -5  -4  11    1.82    0.22
  -5  -4  11    2.21    0.21
  -5  -4  11    2.28    0.28
   4   4 -11    0.71    0.16
   4   4 -11    0.37    0.16
   4   4 -11    0.73    0.18
  -4  -4  11    0.57    0.15
  -4  -4  11    0.92    0.12
  -4  -4  11    0.42    0.15
   3   4 -11   12.60    0.73
   3   4 -11   13.63    0.72
   3   4 -11   13.55    0.72
  -3  -4  11   12.97    0.67
  -3  -4  11   13.31    0.71
  -3  -4  11   12.58    0.68
   2   4 -11    0.85    0.17
   2   4 -11    0.91    0.19
   2   4 -11    0.77    0.16
  -2  -4  11    0.61    0.11
  -2  -4  11    0.81    0.14
   1   4 -11   18.77    0.94
   1   4 -11   19.56    1.05
   1   4 -11   17.67    0.94
  -1  -4  11   18.55    0.91
  -1  -4  11   15.82    0.92
  -1  -4  11   17.76    0.93
   0   4 -11   11.05    0.59
   0   4 -11   10.31    0.59
   0   4 -11    8.92    0.61
   0  -4  11   10.69    0.56
   0  -4  11   10.14    0.55
   0  -4  11   10.53    0.57
  -1   4 -11    6.26    0.43
  -1   4 -11    5.56    0.43
  -1   4 -11    5.52    0.40
   1  -4  11    6.20    0.35
   1  -4  11    6.16    0.36
   1  -4  11    5.12    0.37
  -2   4 -11    2.13    0.26
  -2   4 -11    2.29    0.29
  -2   4 -11    2.08    0.22
   2  -4  11    2.11    0.23
   2  -4  11    2.25    0.25
   7   3 -11   -0.04    0.16
  -7  -3  11    0.15    0.15
  -7  -3  11   -0.19    0.18
   6   3 -11    0.41    0.15
   6   3 -11    0.40    0.16
  -6  -3  11    0.44    0.16
  -6  -3  11   -0.01    0.15
  -6  -3  11    0.32    0.12
   5   3 -11   20.23    1.03
   5   3 -11   18.70    1.02
  -5  -3  11   20.04    0.98
  -5  -3  11   19.89    1.02
  -5  -3  11   19.25    1.03
   4   3 -11   12.25    0.67
   4   3 -11   12.04    0.68
  -4  -3  11   12.27    0.62
  -4  -3  11   12.05    0.66
   3   3 -11    0.36    0.15
   3   3 -11    0.56    0.14
  -3  -3  11    0.30    0.12
  -3  -3  11    0.30    0.13
  -3  -3  11    0.42    0.08
  -3  -3  11    0.40    0.08
   2   3 -11    0.22    0.14
   2   3 -11    0.16    0.13
  -2  -3  11    0.02    0.10
  -2  -3  11    0.09    0.07
   1   3 -11    6.40    0.40
   1   3 -11    6.08    0.43
   1   3 -11    6.76    0.40
  -1  -3  11    5.76    0.34
  -1  -3  11    6.44    0.37
   0   3 -11   24.35    1.31
   0   3 -11   26.92    1.34
   0   3 -11   26.35    1.32
   0  -3  11   25.89    1.29
   0  -3  11   27.07    1.30
   0  -3  11   25.28    1.29
  -1   3 -11   -0.02    0.13
  -1   3 -11    0.14    0.17
  -1   3 -11    0.22    0.16
   1  -3  11    0.13    0.08
   1  -3  11    0.03    0.10
   1  -3  11    0.21    0.11
  -2   3 -11   11.70    0.66
  -2   3 -11   12.41    0.67
  -2   3 -11   10.66    0.68
   2  -3  11   11.23    0.60
   2  -3  11   11.60    0.60
   2  -3  11   12.11    0.64
  -8  -2  11   -0.23    0.18
  -8  -2  11   -0.04    0.18
   7   2 -11    1.47    0.22
  -7  -2  11    1.43    0.20
  -7  -2  11    1.58    0.16
  -7  -2  11    1.50    0.19
   6   2 -11    9.66    0.58
   6   2 -11   10.22    0.58
  -6  -2  11    9.59    0.53
  -6  -2  11   10.50    0.58
  -6  -2  11   10.60    0.60
   5   2 -11    0.78    0.19
   5   2 -11    0.61    0.15
  -5  -2  11    0.85    0.15
  -5  -2  11    0.79    0.09
   4   2 -11   10.40    0.58
   4   2 -11   10.50    0.56
  -4  -2  11   10.13    0.55
  -4  -2  11   10.18    0.56
  -4  -2  11    8.97    0.50
  -4  -2  11   10.05    0.50
   3   2 -11    0.16    0.12
   3   2 -11    0.28    0.12
  -3  -2  11    0.19    0.10
   2   2 -11    0.07    0.13
   2   2 -11    0.11    0.12
  -2  -2  11   -0.01    0.10
  -2  -2  11   -0.15    0.10
   1   2 -11    1.37    0.16
   1   2 -11    1.86    0.23
  -1  -2  11    1.45    0.11
  -1  -2  11    1.57    0.16
  -1  -2  11    1.57    0.18
   0   2 -11    0.27    0.14
   0   2 -11    0.61    0.13
   0  -2  11    0.43    0.08
   0  -2  11    0.46    0.09
   0  -2  11    0.49    0.08
  -1   2 -11    0.04    0.14
  -1   2 -11    0.20    0.14
  -1   2 -11    0.05    0.16
   1  -2  11    0.15    0.10
  -2   2 -11    0.00    0.17
  -2   2 -11    0.03    0.17
  -2   2 -11    0.08    0.15
   2  -2  11    0.01    0.12
   8   1 -11    0.94    0.20
   8   1 -11    1.14    0.21
  -8  -1  11    1.36    0.22
   7   1 -11   10.16    0.60
  -7  -1  11    9.95    0.54
  -7  -1  11   10.41    0.62
  -7  -1  11   10.54    0.60
   6   1 -11    2.56    0.28
   6   1 -11    2.76    0.28
  -6  -1  11    2.13    0.17
  -6  -1  11    2.76    0.28
  -6  -1  11    2.73    0.26
   5   1 -11   12.30    0.64
   5   1 -11   11.75    0.65
  -5  -1  11   11.27    0.63
  -5  -1  11   11.17    0.63
   4   1 -11    0.62    0.14
   4   1 -11    0.32    0.13
  -4  -1  11    0.57    0.12
   3   1 -11    1.62    0.17
   3   1 -11    1.70    0.17
  -3  -1  11    1.50    0.18
  -3  -1  11    1.54    0.19
   2   1 -11   11.52    0.63
   2   1 -11   11.28    0.63
  -2  -1  11   12.28    0.60
  -2  -1  11   11.23    0.59
   1   1 -11    4.18    0.29
   1   1 -11    3.96    0.29
  -1  -1  11    3.74    0.22
  -1  -1  11    4.01    0.22
   0   1 -11    1.77    0.23
   0   1 -11    2.18    0.24
   0  -1  11    1.89    0.14
  -1   1 -11    0.44    0.15
  -1   1 -11    0.39    0.18
  -1   1 -11    0.20    0.14
   1  -1  11    0.27    0.09
  -2   1 -11    1.37    0.20
  -2   1 -11    0.85    0.21
  -2   1 -11    1.41    0.19
   8   0 -11    0.59    0.17
   8   0 -11    0.08    0.16
  -8   0  11    0.20    0.15
  -8   0  11    0.20    0.18
  -8   0  11    0.18    0.13
   7   0 -11    0.38    0.17
   7   0 -11    0.64    0.16
  -7   0  11    0.75    0.17
  -7   0  11    0.69    0.18
  -7   0  11    0.70    0.10
   6   0 -11    0.04    0.14
   6   0 -11   -0.05    0.14
  -6   0  11    0.01    0.16
  -6   0  11    0.09    0.12
   5   0 -11    0.03    0.13
   5   0 -11    0.12    0.15
  -5   0  11    0.05    0.10
   4   0 -11   13.75    0.72
   4   0 -11   13.34    0.72
  -4   0  11   13.26    0.69
  -4   0  11   13.35    0.69
   3   0 -11    0.16    0.12
   3   0 -11    0.05    0.11
  -3   0  11    0.20    0.07
  -3   0  11    0.20    0.08
   2   0 -11   10.36    0.57
   2   0 -11   10.29    0.56
   1   0 -11    0.00    0.11
   1   0 -11    0.01    0.11
   0   0 -11   18.19    0.94
   0   0 -11   18.13    0.94
  -1   0 -11    0.72    0.16
  -1   0 -11    0.91    0.16
   8  -1 -11    0.93    0.22
   8  -1 -11    1.19    0.20
  -8   1  11    1.18    0.20
  -8   1  11    0.87    0.19
   7  -1 -11    2.28    0.28
   7  -1 -11    2.12    0.30
   7  -1 -11    1.72    0.22
  -7   1  11    2.04    0.26
  -7   1  11    1.98    0.25
   6  -1 -11   -0.04    0.14
   6  -1 -11    0.01    0.15
  -6   1  11    0.28    0.12
   5  -1 -11    0.36    0.13
   5  -1 -11    0.53    0.15
  -5   1  11    0.31    0.11
  -5   1  11    0.26    0.10
   4  -1 -11    3.21    0.28
   4  -1 -11    3.46    0.27
  -4   1  11    3.29    0.21
  -4   1  11    3.24    0.21
   3  -1 -11    9.69    0.55
   3  -1 -11   10.22    0.55
   2  -1 -11    0.13    0.11
   2  -1 -11   -0.09    0.11
   1  -1 -11    2.84    0.25
   1  -1 -11    2.95    0.25
   0  -1 -11   16.30    0.84
   0  -1 -11   16.34    0.85
   8  -2 -11    8.05    0.56
   8  -2 -11    8.21    0.53
  -8   2  11    8.48    0.53
  -8   2  11    8.77    0.53
   7  -2 -11    1.86    0.23
   7  -2 -11    2.42    0.28
   7  -2 -11    1.64    0.22
  -7   2  11    1.76    0.18
  -7   2  11    1.29    0.17
   6  -2 -11    0.39    0.17
   6  -2 -11   -0.18    0.14
   6  -2 -11    0.24    0.15
  -6   2  11    0.09    0.11
  -6   2  11    0.17    0.12
   5  -2 -11    1.88    0.24
   5  -2 -11    2.19    0.26
   5  -2 -11    1.70    0.23
  -5   2  11    1.83    0.17
  -5   2  11    1.96    0.15
   4  -2 -11    2.74    0.26
   4  -2 -11    2.41    0.25
   3  -2 -11    1.45    0.16
   3  -2 -11    1.23    0.15
   2  -2 -11    2.51    0.24
   2  -2 -11    3.01    0.25
   1  -2 -11    1.46    0.16
   0  -2 -11    0.33    0.13
   7  -3 -11    3.18    0.35
   7  -3 -11    3.55    0.34
   7  -3 -11    3.02    0.37
  -7   3  11    4.22    0.29
  -7   3  11    4.01    0.29
   6  -3 -11    5.95    0.40
   6  -3 -11    6.18    0.41
   6  -3 -11    5.13    0.44
  -6   3  11    5.22    0.31
  -6   3  11    5.59    0.32
   5  -3 -11    2.72    0.28
   5  -3 -11    3.72    0.36
   5  -3 -11    3.10    0.30
   4  -3 -11    4.17    0.30
   4  -3 -11    3.56    0.37
   4  -3 -11    3.80    0.30
   3  -3 -11    3.42    0.27
   3  -3 -11    3.00    0.34
   3  -3 -11    3.22    0.28
   2  -3 -11    0.43    0.12
   2  -3 -11    0.17    0.19
   6  -4 -11   -0.16    0.19
   6  -4 -11   -0.08    0.15
   6  -4 -11    0.13    0.16
   5  -4 -11    1.18    0.17
   5  -4 -11    1.07    0.19
   5  -4 -11    1.24    0.22
   4  -4 -11    7.98    0.48
   4  -4 -11    8.69    0.48
   4  -4 -11    7.92    0.55
   3  -4 -11    2.31    0.26
   3  -4 -11    2.19    0.26
   3  -4 -11    2.99    0.25
   2   7 -12   -0.07    0.17
  -2  -7  12    0.00    0.16
   1   7 -12    2.25    0.27
  -1  -7  12    2.53    0.32
   4   6 -12    0.64    0.21
  -4  -6  12    0.48    0.16
  -4  -6  12    0.49    0.18
   3   6 -12    0.85    0.19
  -3  -6  12    0.70    0.18
   2   6 -12    0.08    0.17
  -2  -6  12   -0.16    0.15
  -2  -6  12   -0.03    0.14
  -2  -6  12    0.22    0.13
   1   6 -12    0.84    0.18
  -1  -6  12    1.00    0.16
  -1  -6  12    0.99    0.19
  -1  -6  12    1.00    0.17
   0   6 -12    6.77    0.48
   0  -6  12    6.85    0.47
   0  -6  12    7.55    0.46
   0  -6  12    7.35    0.48
  -1   6 -12    3.76    0.38
   1  -6  12    4.48    0.38
   5   5 -12    6.62    0.46
  -5  -5  12    6.28    0.45
  -5  -5  12    5.95    0.42
   4   5 -12    0.21    0.18
   4   5 -12    0.15    0.20
  -4  -5  12   -0.03    0.14
  -4  -5  12    0.03    0.15
   3   5 -12    0.13    0.16
   3   5 -12    0.03    0.19
  -3  -5  12    0.08    0.15
  -3  -5  12   -0.16    0.11
  -3  -5  12   -0.11    0.14
  -3  -5  12    0.11    0.12
   2   5 -12    2.51    0.24
  -2  -5  12    2.62    0.30
  -2  -5  12    2.29    0.23
  -2  -5  12    2.32    0.28
   1   5 -12    1.82    0.21
  -1  -5  12    1.71    0.23
  -1  -5  12    1.67    0.19
  -1  -5  12    2.01    0.21
   0   5 -12    6.62    0.47
   0  -5  12    7.39    0.45
   0  -5  12    7.34    0.45
   0  -5  12    7.10    0.45
  -1   5 -12    0.29    0.16
   1  -5  12    0.29    0.18
   1  -5  12    0.18    0.13
   1  -5  12    0.25    0.15
   6   4 -12   12.34    0.83
   6   4 -12   13.55    0.81
  -6  -4  12   14.97    0.81
  -6  -4  12   16.64    0.77
   5   4 -12    1.62    0.23
   5   4 -12    1.74    0.24
  -5  -4  12    2.27    0.23
  -5  -4  12    1.60    0.22
  -5  -4  12    2.13    0.23
   4   4 -12   -0.16    0.15
   4   4 -12   -0.19    0.17
   4   4 -12   -0.22    0.19
  -4  -4  12    0.10    0.18
  -4  -4  12   -0.25    0.14
  -4  -4  12   -0.14    0.09
   3   4 -12    0.22    0.15
   3   4 -12    0.09    0.16
   3   4 -12    0.02    0.18
  -3  -4  12    0.23    0.10
  -3  -4  12    0.13    0.10
  -3  -4  12    0.21    0.13
  -3  -4  12    0.05    0.13
   2   4 -12    0.10    0.16
   2   4 -12    0.44    0.16
   2   4 -12    0.28    0.18
  -2  -4  12    0.24    0.12
  -2  -4  12    0.41    0.10
   1   4 -12    1.40    0.18
   1   4 -12    0.95    0.19
   1   4 -12    1.30    0.18
  -1  -4  12    1.48    0.16
  -1  -4  12    1.29    0.18
   0   4 -12    5.63    0.42
   0   4 -12    6.38    0.40
   0  -4  12    5.20    0.37
   0  -4  12    5.36    0.37
   0  -4  12    5.84    0.35
  -1   4 -12    8.99    0.59
   1  -4  12    9.33    0.54
   1  -4  12   10.89    0.54
   1  -4  12    9.44    0.54
   6   3 -12   17.00    0.92
  -6  -3  12   16.52    0.86
  -6  -3  12   17.17    0.91
   5   3 -12    5.75    0.41
  -5  -3  12    5.48    0.39
  -5  -3  12    5.72    0.42
  -5  -3  12    5.37    0.33
   4   3 -12    0.51    0.16
   4   3 -12    0.55    0.16
  -4  -3  12    0.59    0.15
  -4  -3  12    0.51    0.15
  -4  -3  12    0.53    0.08
  -4  -3  12    0.57    0.09
   3   3 -12    2.77    0.30
   3   3 -12    2.51    0.29
  -3  -3  12    2.45    0.17
  -3  -3  12    2.98    0.18
  -3  -3  12    2.78    0.28
   2   3 -12    3.52    0.33
   2   3 -12    3.63    0.32
  -2  -3  12    3.40    0.21
  -2  -3  12    3.91    0.21
  -2  -3  12    3.73    0.30
   1   3 -12   10.40    0.61
   1   3 -12   10.37    0.61
   1   3 -12   10.96    0.64
  -1  -3  12   10.65    0.54
  -1  -3  12   10.73    0.58
   0   3 -12    0.86    0.17
   0   3 -12    1.08    0.17
   0  -3  12    1.07    0.11
   0  -3  12    0.72    0.13
   0  -3  12    0.85    0.13
  -1   3 -12    1.35    0.20
  -1   3 -12    1.70    0.20
   7   2 -12    3.80    0.41
  -7  -2  12    3.94    0.31
  -7  -2  12    4.50    0.38
   6   2 -12    0.56    0.17
  -6  -2  12    0.34    0.17
  -6  -2  12    0.41    0.19
  -6  -2  12    0.35    0.10
   5   2 -12    0.15    0.15
   5   2 -12    0.32    0.16
  -5  -2  12    0.13    0.15
  -5  -2  12    0.25    0.13
   4   2 -12    2.28    0.29
   4   2 -12    2.49    0.28
  -4  -2  12    2.16    0.21
   3   2 -12    6.07    0.40
   3   2 -12    5.91    0.42
  -3  -2  12    5.81    0.36
  -3  -2  12    6.03    0.37
   2   2 -12   10.23    0.59
   2   2 -12    9.72    0.58
  -2  -2  12   10.19    0.55
  -2  -2  12   10.22    0.55
   1   2 -12    2.41    0.27
   1   2 -12    3.03    0.30
  -1  -2  12    2.53    0.21
  -1  -2  12    2.45    0.22
   0   2 -12    3.37    0.33
   0   2 -12    2.84    0.30
   0  -2  12    3.18    0.22
   0  -2  12    2.71    0.21
  -1   2 -12   -0.36    0.16
  -1   2 -12   -0.14    0.16
   7   1 -12    0.04    0.18
  -7  -1  12   -0.18    0.16
  -7  -1  12    0.18    0.17
   6   1 -12    3.51    0.34
  -6  -1  12    3.68    0.34
  -6  -1  12    3.42    0.32
   5   1 -12    8.24    0.52
   5   1 -12    9.04    0.52
  -5  -1  12    8.45    0.50
   4   1 -12    9.15    0.56
   4   1 -12    9.32    0.54
  -4  -1  12    8.93    0.50
   3   1 -12    2.20    0.28
   3   1 -12    2.50    0.26
  -3  -1  12    2.52    0.21
  -3  -1  12    2.10    0.22
   2   1 -12    0.70    0.16
   2   1 -12    0.47    0.14
  -2  -1  12    0.52    0.10
  -2  -1  12    0.59    0.09
   1   1 -12    0.56    0.15
   1   1 -12    0.26    0.15
   0   1 -12    0.09    0.16
   0   1 -12    0.25    0.15
   7   0 -12    1.05    0.20
  -7   0  12    0.67    0.18
  -7   0  12    0.88    0.19
   6   0 -12    0.00    0.16
   6   0 -12    0.06    0.15
  -6   0  12   -0.07    0.13
   5   0 -12    0.72    0.17
   5   0 -12    0.43    0.15
  -5   0  12    0.67    0.13
   4   0 -12    2.31    0.26
   4   0 -12    1.95    0.22
  -4   0  12    2.31    0.20
  -4   0  12    1.97    0.19
   3   0 -12    5.77    0.38
   3   0 -12    5.80    0.39
  -3   0  12    5.61    0.30
  -3   0  12    5.71    0.31
   2   0 -12    2.55    0.27
   2   0 -12    2.59    0.27
   1   0 -12    2.61    0.28
   1   0 -12    3.45    0.29
   0   0 -12    2.39    0.30
   7  -1 -12    0.31    0.19
   7  -1 -12    0.19    0.17
  -7   1  12    0.04    0.15
  -7   1  12    0.24    0.16
   6  -1 -12    1.41    0.20
   6  -1 -12    1.50    0.20
  -6   1  12    1.66    0.21
   5  -1 -12    1.63    0.19
   5  -1 -12    1.94    0.20
  -5   1  12    2.03    0.20
  -5   1  12    1.80    0.20
   4  -1 -12    4.27    0.33
   4  -1 -12    4.38    0.36
   3  -1 -12    6.55    0.43
   3  -1 -12    6.95    0.42
   2  -1 -12    0.95    0.16
   2  -1 -12    1.14    0.16
   1  -1 -12    1.44    0.18
   1  -1 -12    1.56    0.18
   6  -2 -12    7.39    0.55
   6  -2 -12    7.55    0.50
   6  -2 -12    8.32    0.49
  -6   2  12    7.18    0.50
  -6   2  12    7.98    0.47
   5  -2 -12    4.85    0.38
   5  -2 -12    5.00    0.44
   5  -2 -12    4.75    0.37
   4  -2 -12    0.59    0.15
   4  -2 -12    0.94    0.18
   3  -2 -12    0.25    0.14
   3  -2 -12    0.17    0.14
   3   5 -13    9.01    0.59
  -3  -5  13    9.68    0.51
  -3  -5  13    9.29    0.54
  -3  -5  13    7.18    0.58
   2   5 -13    0.16    0.18
  -2  -5  13    0.31    0.18
  -2  -5  13    0.23    0.16
   4   4 -13    0.61    0.19
  -4  -4  13    0.46    0.18
  -4  -4  13    1.06    0.19
   3   4 -13    0.73    0.18
  -3  -4  13    1.04    0.20
  -3  -4  13    0.41    0.18
  -3  -4  13    1.21    0.18
   2   4 -13   11.53    0.64
  -2  -4  13   10.95    0.62
  -2  -4  13   10.31    0.62
   1   4 -13    0.09    0.16
  -1  -4  13    0.08    0.16
   5   3 -13    7.88    0.52
  -5  -3  13    7.97    0.50
  -5  -3  13    7.80    0.52
   4   3 -13    2.83    0.33
  -4  -3  13    3.27    0.30
  -4  -3  13    2.89    0.34
   3   3 -13   15.19    0.82
  -3  -3  13   14.47    0.79
   2   3 -13   -0.07    0.15
  -2  -3  13    0.32    0.14
  -2  -3  13   -0.06    0.13
   1   3 -13    0.75    0.18
  -1  -3  13    0.58    0.14
   5   2 -13    6.51    0.46
  -5  -2  13    6.15    0.42
  -5  -2  13    6.36    0.44
   4   2 -13    1.60    0.21
  -4  -2  13    1.88    0.20
   3   2 -13    8.66    0.54
   3   2 -13    8.23    0.54
  -3  -2  13    9.39    0.49
  -3  -2  13    8.42    0.50
   2   2 -13    4.78    0.40
   2   2 -13    5.80    0.39
  -2  -2  13    5.47    0.34
  -2  -2  13    5.42    0.35
   5   1 -13    0.02    0.16
  -5  -1  13    0.05    0.15
   4   1 -13    0.32    0.16
   4   1 -13   -0.02    0.16
  -4  -1  13    0.25    0.12
   3   1 -13    3.38    0.32
   3   1 -13    3.12    0.31
  -3  -1  13    3.18    0.27
  -3  -1  13    2.95    0.33
   2   1 -13    0.38    0.17
   2   1 -13    0.29    0.15
   5   0 -13    0.15    0.16
  -5   0  13    0.11    0.12
   4   0 -13    0.85    0.17
   4   0 -13    0.72    0.17
   3   0 -13    4.86    0.38
   3   0 -13    4.99    0.38
   0   0   0    0.00    0.00
;
_shelx_hkl_checksum              51695
loop_
_space_group_symop_operation_xyz
'x, y, z'
'-x, -y, -z'
loop_
_atom_site_label
_atom_site_type_symbol
_atom_site_fract_x
_atom_site_fract_y
_atom_site_fract_z
_atom_site_U_iso_or_equiv
_atom_site_adp_type
_atom_site_occupancy
_atom_site_site_symmetry_order
_atom_site_calc_flag
_atom_site_refinement_flags_posn
_atom_site_refinement_flags_adp
O1 O 0.34782(12) 0.56085(10) -0.08939(9) 0.0285(2) Uani 1 1 d . .
O2 O 0.15219(11) 0.85693(11) 0.20328(9) 0.0272(2) Uani 1 1 d . .
N1 N 0.57725(13) 0.72995(12) 0.17340(10) 0.0188(2) Uani 1 1 d . .
H1A H 0.534(2) 0.636(2) 0.1100(17) 0.032(4) Uiso 1 1 d . .
N2 N 0.64948(13) 1.00155(12) 0.40610(10) 0.0208(2) Uani 1 1 d . .
C1 C 0.23863(16) 0.62444(13) -0.06967(12) 0.0194(2) Uani 1 1 d . .
C2 C 0.05054(16) 0.57011(13) -0.18760(12) 0.0223(3) Uani 1 1 d . .
H2A H -0.0252 0.4651 -0.1912 0.027 Uiso 1 1 calc R U
H2B H 0.0659 0.5547 -0.2763 0.027 Uiso 1 1 calc R U
C3 C -0.05568(15) 0.68202(13) -0.17893(11) 0.0188(2) Uani 1 1 d . .
C4 C -0.05305(15) 0.72492(14) -0.03303(12) 0.0217(3) Uani 1 1 d . .
H4A H -0.1075 0.8077 -0.0223 0.026 Uiso 1 1 calc R U
H4B H -0.1330 0.6295 -0.0252 0.026 Uiso 1 1 calc R U
C5 C 0.13521(15) 0.78507(13) 0.08632(11) 0.0183(2) Uani 1 1 d . .
C6 C 0.28120(15) 0.74315(13) 0.05926(11) 0.0173(2) Uani 1 1 d . .
C7 C 0.46370(15) 0.80790(13) 0.16676(11) 0.0170(2) Uani 1 1 d . .
C8 C 0.77215(14) 0.79663(13) 0.26929(12) 0.0192(2) Uani 1 1 d . .
H8A H 0.8281 0.9059 0.2700 0.023 Uiso 1 1 calc R U
H8B H 0.8364 0.7313 0.2356 0.023 Uiso 1 1 calc R U
C9 C 0.79930(16) 0.80175(14) 0.41653(12) 0.0221(3) Uani 1 1 d . .
H9A H 0.9305 0.8619 0.4798 0.027 Uiso 1 1 calc R U
H9B H 0.7675 0.6918 0.4195 0.027 Uiso 1 1 calc R U
C10 C 0.68050(16) 0.88026(15) 0.46819(12) 0.0238(3) Uani 1 1 d . .
H10A H 0.5605 0.7975 0.4447 0.029 Uiso 1 1 calc R U
H10B H 0.7422 0.9299 0.5708 0.029 Uiso 1 1 calc R U
C11 C 0.71283(16) 1.16156(14) 0.47240(13) 0.0258(3) Uani 1 1 d . .
H11A H 0.7908 1.2159 0.5683 0.031 Uiso 1 1 calc R U
C12 C 0.64485(17) 1.23125(14) 0.37713(14) 0.0279(3) Uani 1 1 d . .
H12A H 0.6698 1.3419 0.3949 0.034 Uiso 1 1 calc R U
C13 C 0.53178(16) 1.10915(14) 0.24861(13) 0.0233(3) Uani 1 1 d . .
H13A H 0.4647 1.1217 0.1641 0.028 Uiso 1 1 calc R U
C14 C 0.53666(14) 0.96754(13) 0.26849(11) 0.0185(2) Uani 1 1 d . .
C15 C -0.25500(17) 0.59685(16) -0.28753(13) 0.0304(3) Uani 1 1 d . .
H15A H -0.3125 0.5001 -0.2706 0.046 Uiso 1 1 calc R U
H15B H -0.3235 0.6677 -0.2804 0.046 Uiso 1 1 calc R U
H15C H -0.2563 0.5683 -0.3810 0.046 Uiso 1 1 calc R U
C16 C 0.03379(17) 0.83293(14) -0.20545(13) 0.0246(3) Uani 1 1 d . .
H16A H 0.1612 0.8875 -0.1361 0.037 Uiso 1 1 calc R U
H16B H 0.0324 0.8043 -0.2989 0.037 Uiso 1 1 calc R U
H16C H -0.0348 0.9037 -0.1983 0.037 Uiso 1 1 calc R U
loop_
_atom_site_aniso_label
_atom_site_aniso_U_11
_atom_site_aniso_U_22
_atom_site_aniso_U_33
_atom_site_aniso_U_23
_atom_site_aniso_U_13
_atom_site_aniso_U_12
O1 0.0324(5) 0.0262(5) 0.0236(5) 0.0005(4) 0.0055(4) 0.0198(4)
O2 0.0229(4) 0.0370(5) 0.0188(4) 0.0025(4) 0.0091(3) 0.0114(4)
N1 0.0188(5) 0.0173(5) 0.0178(5) 0.0023(4) 0.0053(4) 0.0083(4)
N2 0.0178(5) 0.0227(5) 0.0183(5) 0.0011(4) 0.0056(4) 0.0089(4)
C1 0.0237(6) 0.0153(5) 0.0186(5) 0.0059(4) 0.0061(4) 0.0091(4)
C2 0.0260(6) 0.0174(5) 0.0179(6) 0.0028(4) 0.0030(5) 0.0096(5)
C3 0.0190(5) 0.0188(5) 0.0162(5) 0.0055(4) 0.0040(4) 0.0078(4)
C4 0.0168(5) 0.0278(6) 0.0198(6) 0.0081(5) 0.0068(5) 0.0076(5)
C5 0.0192(5) 0.0187(5) 0.0176(5) 0.0071(4) 0.0075(4) 0.0068(4)
C6 0.0185(5) 0.0164(5) 0.0161(5) 0.0053(4) 0.0053(4) 0.0074(4)
C7 0.0191(5) 0.0174(5) 0.0165(5) 0.0061(4) 0.0086(4) 0.0076(4)
C8 0.0151(5) 0.0202(5) 0.0230(6) 0.0057(4) 0.0082(4) 0.0081(4)
C9 0.0192(5) 0.0240(6) 0.0232(6) 0.0090(5) 0.0064(4) 0.0100(5)
C10 0.0237(6) 0.0317(6) 0.0182(6) 0.0089(5) 0.0087(5) 0.0126(5)
C11 0.0172(5) 0.0242(6) 0.0259(6) -0.0054(5) 0.0066(5) 0.0061(5)
C12 0.0236(6) 0.0175(6) 0.0395(7) 0.0008(5) 0.0147(5) 0.0076(5)
C13 0.0222(6) 0.0207(6) 0.0288(6) 0.0070(5) 0.0109(5) 0.0111(5)
C14 0.0151(5) 0.0199(6) 0.0190(5) 0.0038(4) 0.0059(4) 0.0077(4)
C15 0.0236(6) 0.0323(7) 0.0239(6) 0.0044(5) 0.0002(5) 0.0091(5)
C16 0.0301(6) 0.0246(6) 0.0243(6) 0.0135(5) 0.0111(5) 0.0136(5)
loop_
_atom_type_symbol
_atom_type_description
_atom_type_scat_dispersion_real
_atom_type_scat_dispersion_imag
_atom_type_scat_source
C C 0.0033 0.0016 'International Tables Vol C Tables 4.2.6.8 and 6.1.1.4'
H H 0.0000 0.0000 'International Tables Vol C Tables 4.2.6.8 and 6.1.1.4'
N N 0.0061 0.0033 'International Tables Vol C Tables 4.2.6.8 and 6.1.1.4'
O O 0.0106 0.0060 'International Tables Vol C Tables 4.2.6.8 and 6.1.1.4'
loop_
_geom_angle_atom_site_label_1
_geom_angle_atom_site_label_2
_geom_angle_atom_site_label_3
_geom_angle
C7 N1 C8 124.44(10)
C7 N1 H1A 116.5(10)
C8 N1 H1A 118.7(10)
C11 N2 C14 108.71(10)
C11 N2 C10 127.25(10)
C14 N2 C10 123.88(10)
O1 C1 C6 123.38(10)
O1 C1 C2 117.67(10)
C6 C1 C2 118.94(10)
C1 C2 C3 115.97(9)
C1 C2 H2A 108.3
C3 C2 H2A 108.3
C1 C2 H2B 108.3
C3 C2 H2B 108.3
H2A C2 H2B 107.4
C16 C3 C15 109.38(10)
C16 C3 C4 110.00(9)
C15 C3 C4 109.59(10)
C16 C3 C2 110.53(10)
C15 C3 C2 109.58(9)
C4 C3 C2 107.74(9)
C5 C4 C3 115.55(9)
C5 C4 H4A 108.4
C3 C4 H4A 108.4
C5 C4 H4B 108.4
C3 C4 H4B 108.4
H4A C4 H4B 107.5
O2 C5 C6 123.46(10)
O2 C5 C4 117.87(10)
C6 C5 C4 118.45(10)
C7 C6 C1 119.82(10)
C7 C6 C5 119.78(10)
C1 C6 C5 120.08(10)
N1 C7 C6 121.54(10)
N1 C7 C14 116.93(10)
C6 C7 C14 121.41(9)
N1 C8 C9 112.18(9)
N1 C8 H8A 109.2
C9 C8 H8A 109.2
N1 C8 H8B 109.2
C9 C8 H8B 109.2
H8A C8 H8B 107.9
C8 C9 C10 112.15(9)
C8 C9 H9A 109.2
C10 C9 H9A 109.2
C8 C9 H9B 109.2
C10 C9 H9B 109.2
H9A C9 H9B 107.9
N2 C10 C9 111.86(9)
N2 C10 H10A 109.2
C9 C10 H10A 109.2
N2 C10 H10B 109.2
C9 C10 H10B 109.2
H10A C10 H10B 107.9
C12 C11 N2 108.49(11)
C12 C11 H11A 125.8
N2 C11 H11A 125.8
C11 C12 C13 107.67(11)
C11 C12 H12A 126.2
C13 C12 H12A 126.2
C14 C13 C12 107.07(11)
C14 C13 H13A 126.5
C12 C13 H13A 126.5
N2 C14 C13 108.03(10)
N2 C14 C7 121.63(10)
C13 C14 C7 129.80(11)
C3 C15 H15A 109.5
C3 C15 H15B 109.5
H15A C15 H15B 109.5
C3 C15 H15C 109.5
H15A C15 H15C 109.5
H15B C15 H15C 109.5
C3 C16 H16A 109.5
C3 C16 H16B 109.5
H16A C16 H16B 109.5
C3 C16 H16C 109.5
H16A C16 H16C 109.5
H16B C16 H16C 109.5
loop_
_geom_bond_atom_site_label_1
_geom_bond_atom_site_label_2
_geom_bond_distance
O1 C1 1.2486(14)
O2 C5 1.2333(14)
N1 C7 1.3207(14)
N1 C8 1.4658(14)
N1 H1A 0.874(17)
N2 C11 1.3620(15)
N2 C14 1.3809(14)
N2 C10 1.4628(15)
C1 C6 1.4389(15)
C1 C2 1.5165(15)
C2 C3 1.5314(15)
C2 H2A 0.9900
C2 H2B 0.9900
C3 C16 1.5290(16)
C3 C15 1.5334(16)
C3 C4 1.5279(15)
C4 C5 1.5183(15)
C4 H4A 0.9900
C4 H4B 0.9900
C5 C6 1.4564(15)
C6 C7 1.4322(15)
C7 C14 1.4603(15)
C8 C9 1.5175(16)
C8 H8A 0.9900
C8 H8B 0.9900
C9 C10 1.5370(16)
C9 H9A 0.9900
C9 H9B 0.9900
C10 H10A 0.9900
C10 H10B 0.9900
C11 C12 1.3750(19)
C11 H11A 0.9500
C12 C13 1.4063(17)
C12 H12A 0.9500
C13 C14 1.3807(16)
C13 H13A 0.9500
C15 H15A 0.9800
C15 H15B 0.9800
C15 H15C 0.9800
C16 H16A 0.9800
C16 H16B 0.9800
C16 H16C 0.9800
