#------------------------------------------------------------------------------
#$Date: 2020-07-16 02:12:31 +0300 (Thu, 16 Jul 2020) $
#$Revision: 254324 $
#$URL: file:///home/coder/svn-repositories/cod/cif/4/03/85/4038581.cif $
#------------------------------------------------------------------------------
#
# This file is available in the Crystallography Open Database (COD),
# http://www.crystallography.net/
#
# All data on this site have been placed in the public domain by the
# contributors.
#
data_4038581
loop_
_publ_author_name
'Zhang, Rui'
'Zhang, Zhikun'
'Wang, Kang'
'Wang, Jianbo'
_publ_section_title
;
 Difluoroketenimine: Generation from Difluorocarbene and Isocyanide, and
 Its [3+2] Cycloadditions with Alkenes or Alkynes.
;
_journal_name_full               'The Journal of organic chemistry'
_journal_paper_doi               10.1021/acs.joc.0c01120
_journal_year                    2020
_chemical_formula_sum            'C15 H15 F N2'
_chemical_formula_weight         242.29
_space_group_crystal_system      triclinic
_space_group_IT_number           2
_space_group_name_Hall           '-P 1'
_space_group_name_H-M_alt        'P -1'
_atom_sites_solution_hydrogens   geom
_atom_sites_solution_primary     dual
_audit_creation_method           SHELXL-2014/7
_cell_angle_alpha                98.774(4)
_cell_angle_beta                 93.882(3)
_cell_angle_gamma                91.418(3)
_cell_formula_units_Z            2
_cell_length_a                   8.1747(3)
_cell_length_b                   8.6211(4)
_cell_length_c                   9.3514(4)
_cell_measurement_reflns_used    3618
_cell_measurement_temperature    179.99(10)
_cell_measurement_theta_max      29.1470
_cell_measurement_theta_min      2.3980
_cell_volume                     649.42(5)
_computing_structure_refinement  'SHELXL-2014/7 (Sheldrick, 2014)'
_diffrn_ambient_environment      N~2~
_diffrn_ambient_temperature      179.99(10)
_diffrn_detector                 'CCD plate'
_diffrn_measured_fraction_theta_full 1.000
_diffrn_measured_fraction_theta_max 0.998
_diffrn_measurement_device       'four-circle diffractometer'
_diffrn_measurement_device_type  'XtaLAB AFC12 (RINC): Kappa single'
_diffrn_radiation_monochromator  graphite
_diffrn_radiation_probe          x-ray
_diffrn_radiation_type           'Mo K\a'
_diffrn_radiation_wavelength     0.71073
_diffrn_reflns_av_R_equivalents  0.0202
_diffrn_reflns_av_unetI/netI     0.0278
_diffrn_reflns_Laue_measured_fraction_full 1.000
_diffrn_reflns_Laue_measured_fraction_max 0.998
_diffrn_reflns_limit_h_max       10
_diffrn_reflns_limit_h_min       -10
_diffrn_reflns_limit_k_max       11
_diffrn_reflns_limit_k_min       -11
_diffrn_reflns_limit_l_max       12
_diffrn_reflns_limit_l_min       -11
_diffrn_reflns_number            8002
_diffrn_reflns_point_group_measured_fraction_full 1.000
_diffrn_reflns_point_group_measured_fraction_max 0.998
_diffrn_reflns_theta_full        25.242
_diffrn_reflns_theta_max         27.482
_diffrn_reflns_theta_min         2.209
_diffrn_source                   'fine-focus sealed X-ray tube'
_diffrn_source_type              'Enhance (Mo) X-ray Source'
_exptl_absorpt_coefficient_mu    0.084
_exptl_absorpt_correction_T_max  1.00000
_exptl_absorpt_correction_T_min  0.85058
_exptl_absorpt_correction_type   multi-scan
_exptl_absorpt_process_details
;
CrysAlisPro 1.171.39.29a (Rigaku Oxford Diffraction, 2015)
Empirical absorption correction using spherical harmonics,
 implemented in SCALE3 ABSPACK scaling algorithm.
;
_exptl_crystal_colour            colorless
_exptl_crystal_density_diffrn    1.239
_exptl_crystal_description       rod-like
_exptl_crystal_F_000             256
_exptl_crystal_size_max          0.28
_exptl_crystal_size_mid          0.1
_exptl_crystal_size_min          0.08
_refine_diff_density_max         0.739
_refine_diff_density_min         -0.225
_refine_diff_density_rms         0.042
_refine_ls_extinction_method     none
_refine_ls_goodness_of_fit_ref   1.062
_refine_ls_hydrogen_treatment    constr
_refine_ls_matrix_type           full
_refine_ls_number_parameters     166
_refine_ls_number_reflns         2972
_refine_ls_number_restraints     0
_refine_ls_restrained_S_all      1.062
_refine_ls_R_factor_all          0.0596
_refine_ls_R_factor_gt           0.0484
_refine_ls_shift/su_max          0.000
_refine_ls_shift/su_mean         0.000
_refine_ls_structure_factor_coef Fsqd
_refine_ls_weighting_details
'w=1/[\s^2^(Fo^2^)+(0.0635P)^2^+0.2074P] where P=(Fo^2^+2Fc^2^)/3'
_refine_ls_weighting_scheme      calc
_refine_ls_wR_factor_gt          0.1273
_refine_ls_wR_factor_ref         0.1344
_reflns_Friedel_coverage         0.000
_reflns_number_gt                2389
_reflns_number_total             2972
_reflns_threshold_expression     'I > 2\s(I)'
_cod_data_source_file            jo0c01120_si_003.cif
_cod_data_source_block           3
_cod_database_code               4038581
_shelx_shelxl_version_number     2014/7
_shelx_space_group_comment
;
The symmetry employed for this shelxl refinement is uniquely defined
by the following loop, which should always be used as a source of
symmetry information in preference to the above space-group names.
They are only intended as comments.
;
_shelx_res_file
;

    3.res created by SHELXL-2014/7


TITL 3_a.res in P-1
REM Old TITL 3 in P-1
REM SHELXT solution in P-1
REM R1 0.157, Rweak 0.011, Alpha 0.038, Orientation as input
REM Formula found by SHELXT: C15 N2 F
CELL 0.71073 8.1747 8.6211 9.3514 98.774 93.882 91.418
ZERR 2 0.0003 0.0004 0.0004 0.004 0.003 0.003
LATT 1
SFAC C H N F
UNIT 30 30 4 2

L.S. 10
PLAN  20
BOND $H
LIST 6
FMAP 2

ACTA
CONF

WGHT    0.063500    0.207400
FVAR       1.18606
F1    4    0.484119    0.787326    0.148817    11.00000    0.05569    0.02768 =
         0.06475    0.02078    0.00451    0.00200
N1    3    0.619372    0.422464    0.227456    11.00000    0.02508    0.02379 =
         0.02990    0.00703    0.00339   -0.00224
N2    3    0.922060    0.718968    0.178317    11.00000    0.05473    0.05181 =
         0.06707    0.00337    0.02049   -0.02409
C1    1    0.802436    0.648021    0.183365    11.00000    0.04106    0.03258 =
         0.03739    0.00424    0.00979   -0.00867
C2    1    0.648452    0.572681    0.192475    11.00000    0.03361    0.02490 =
         0.02757    0.00590    0.00480   -0.00627
C3    1    0.500693    0.641107    0.180640    11.00000    0.04121    0.02300 =
         0.03230    0.00886    0.00176    0.00001
C4    1    0.376887    0.540053    0.208314    11.00000    0.02891    0.03108 =
         0.03813    0.00919    0.00134    0.00107
AFIX  43
H4    2    0.265252    0.558606    0.207112    11.00000   -1.20000
AFIX   0
C5    1    0.452820    0.405529    0.238202    11.00000    0.02526    0.02704 =
         0.02627    0.00560    0.00115   -0.00266
C6    1    0.365452    0.269872    0.282885    11.00000    0.02312    0.02520 =
         0.03269    0.00671    0.00425   -0.00092
C7    1    0.363336    0.256943    0.429415    11.00000    0.04820    0.03166 =
         0.03151    0.00448    0.00496   -0.00675
AFIX  43
H7    2    0.419456    0.331668    0.498890    11.00000   -1.20000
AFIX   0
C8    1    0.277614    0.132730    0.471905    11.00000    0.06486    0.03486 =
         0.03852    0.01122    0.01731   -0.00427
AFIX  43
H8    2    0.277916    0.123635    0.569747    11.00000   -1.20000
AFIX   0
C9    1    0.191868    0.022561    0.369636    11.00000    0.04279    0.02767 =
         0.05785    0.01154    0.01915   -0.00352
AFIX  43
H9    2    0.135071   -0.060824    0.398507    11.00000   -1.20000
AFIX   0
C10   1    0.190656    0.036466    0.224709    11.00000    0.03020    0.02820 =
         0.05365    0.00247    0.00327   -0.00559
AFIX  43
H10   2    0.131768   -0.036911    0.155886    11.00000   -1.20000
AFIX   0
C11   1    0.277119    0.159739    0.181111    11.00000    0.02936    0.03097 =
         0.03401    0.00521    0.00152   -0.00246
AFIX  43
H11   2    0.275810    0.168527    0.083151    11.00000   -1.20000
AFIX   0
C12   1    0.755176    0.309064    0.242939    11.00000    0.02630    0.03139 =
         0.03866    0.00842    0.00024    0.00243
C13   1    0.857686    0.303324    0.110867    11.00000    0.04095    0.05124 =
         0.05572    0.01304    0.01472    0.01306
AFIX 137
H13A  2    0.786975    0.279719    0.023568    11.00000   -1.50000
H13B  2    0.937115    0.223392    0.113102    11.00000   -1.50000
H13C  2    0.913116    0.403270    0.113287    11.00000   -1.50000
AFIX   0
C14   1    0.857708    0.366788    0.382460    11.00000    0.06371    0.07131 =
         0.04867   -0.00009   -0.02087    0.02076
AFIX 137
H14A  2    0.894378    0.473557    0.383092    11.00000   -1.50000
H14B  2    0.951010    0.302174    0.389400    11.00000   -1.50000
H14C  2    0.792843    0.361287    0.463482    11.00000   -1.50000
AFIX   0
C15   1    0.689414    0.141869    0.239788    11.00000    0.03963    0.03358 =
         0.10042    0.02314    0.01521    0.00924
AFIX 137
H15A  2    0.631168    0.136278    0.324721    11.00000   -1.50000
H15B  2    0.779153    0.072009    0.237962    11.00000   -1.50000
H15C  2    0.616419    0.111806    0.154692    11.00000   -1.50000
AFIX   0
HKLF 4

REM  3_a.res in P-1
REM R1 =  0.0484 for    2389 Fo > 4sig(Fo)  and  0.0596 for all    2972 data
REM    166 parameters refined using      0 restraints

END

WGHT      0.0657      0.1744

REM Highest difference peak  0.739,  deepest hole -0.225,  1-sigma level  0.042
Q1    1   0.1992  0.5952  0.2005  11.00000  0.05    0.74
Q2    1   0.9087  0.3543  0.2029  11.00000  0.05    0.25
Q3    1   0.4118  0.3393  0.2569  11.00000  0.05    0.21
Q4    1   0.6401  0.4978  0.1955  11.00000  0.05    0.20
Q5    1   0.6877  0.3636  0.2370  11.00000  0.05    0.18
Q6    1   0.3952  0.2415  0.3499  11.00000  0.05    0.18
Q7    1   0.7845  0.3260  0.3155  11.00000  0.05    0.17
Q8    1   0.2563  0.0787  0.2064  11.00000  0.05    0.17
Q9    1   0.7207  0.6086  0.1940  11.00000  0.05    0.16
Q10   1   0.5333  0.3971  0.2265  11.00000  0.05    0.16
Q11   1   0.4339  0.5849  0.1713  11.00000  0.05    0.16
Q12   1   0.2881  0.2359  0.2429  11.00000  0.05    0.16
Q13   1   0.4026  0.4589  0.1792  11.00000  0.05    0.16
Q14   1   0.2797  0.0509  0.4169  11.00000  0.05    0.16
Q15   1   0.2212  0.0152  0.3013  11.00000  0.05    0.15
Q16   1   0.8151  0.4388  0.4544  11.00000  0.05    0.15
Q17   1   0.6656  0.1597  0.3694  11.00000  0.05    0.15
Q18   1   0.7152  0.2360  0.2441  11.00000  0.05    0.15
Q19   1   0.4230  0.4960  0.2701  11.00000  0.05    0.15
Q20   1   0.2774  0.2122  0.4416  11.00000  0.05    0.14
;
_shelx_res_checksum              27134
_shelx_hkl_file
;
 -10  -3   2   38.36    3.71
 -10  -3   3    1.98    1.74
 -10  -2   3    8.76    2.25
 -10  -2   4   10.48    2.34
 -10  -1   4   30.57    3.26
 -10   0  -3    3.61    1.80
 -10   1  -3    0.62    1.65
 -10   1  -2    2.00    1.65
 -10   1   2    1.95    1.64
 -10   1   3   -0.30    1.77
 -10   1   4    0.66    1.73
 -10   2  -3    0.32    1.88
 -10   2  -2    0.59    1.46
 -10   2   2    0.84    1.56
 -10   2   3   47.73    3.97
 -10   2   4    2.01    1.91
 -10   3  -2   14.09    2.46
 -10   3  -1    2.53    1.66
 -10   3   2   -0.29    1.55
 -10   3   3    5.02    1.99
  -9  -5  -1   12.66    2.51
  -9  -5   0   -0.56    1.66
  -9  -5   1    6.29    2.26
  -9  -5   1    7.85    2.15
  -9  -5   2    1.77    1.78
  -9  -5   2   -0.28    1.60
  -9  -5   3    6.18    2.03
  -9  -5   3    1.92    1.69
  -9  -5   4   10.37    2.11
  -9  -5   4   10.17    2.22
  -9  -4   1    5.99    1.92
  -9  -4   2   -0.29    1.66
  -9  -4   2   -1.14    1.52
  -9  -4   3   18.33    2.53
  -9  -4   3   18.78    2.60
  -9  -4   4    8.74    1.98
  -9  -4   5    3.90    1.76
  -9  -4   5    7.53    1.90
  -9  -3  -4    0.93    1.58
  -9  -3  -3    0.85    1.53
  -9  -3   2    2.27    1.63
  -9  -3   3    1.27    1.52
  -9  -3   4   13.60    2.17
  -9  -3   4   16.35    2.48
  -9  -3   5    0.42    1.30
  -9  -3   5    1.64    1.58
  -9  -3   6   17.99    2.53
  -9  -2  -4   26.80    3.08
  -9  -2  -3    2.24    1.51
  -9  -2  -2    4.02    1.60
  -9  -2   4   13.75    2.06
  -9  -2   4    7.74    2.03
  -9  -2   5    1.35    1.59
  -9  -2   6    0.53    1.43
  -9  -1  -5    3.02    1.74
  -9  -1  -4    7.05    2.10
  -9  -1  -3   11.70    2.13
  -9  -1  -2   11.09    1.95
  -9  -1  -1   16.25    2.10
  -9  -1   4    4.90    1.77
  -9  -1   5    5.33    1.84
  -9  -1   6   -1.39    1.88
  -9  -1   6   -0.26    1.51
  -9  -1   7   20.44    3.11
  -9  -1   7   21.29    2.58
  -9   0  -5    4.36    1.91
  -9   0  -4    3.08    1.78
  -9   0  -3   31.29    3.10
  -9   0  -2    0.50    1.25
  -9   0  -1    3.44    1.43
  -9   0   3   15.56    2.36
  -9   0   4    0.60    1.51
  -9   0   5    5.21    1.92
  -9   0   5    1.32    1.57
  -9   0   6   46.14    3.66
  -9   0   6   50.79    4.28
  -9   0   7   24.41    2.71
  -9   0   7   19.11    3.15
  -9   1  -5    4.69    2.04
  -9   1  -4    5.24    1.88
  -9   1  -3    1.14    1.52
  -9   1  -2    0.79    1.28
  -9   1  -1    4.81    1.59
  -9   1   1   14.53    2.11
  -9   1   2    1.02    1.38
  -9   1   3   24.89    2.81
  -9   1   4   24.37    2.88
  -9   1   5   -0.66    1.63
  -9   1   6   26.52    2.84
  -9   1   6   23.10    3.15
  -9   2  -5    0.34    1.80
  -9   2  -4   -0.95    1.62
  -9   2  -3    1.48    1.42
  -9   2  -2    9.38    2.12
  -9   2  -1   10.72    1.91
  -9   2   0   16.19    2.02
  -9   2   0   15.16    2.07
  -9   2   1    1.64    1.38
  -9   2   2    0.26    1.38
  -9   2   3    4.54    1.66
  -9   2   4    3.69    1.84
  -9   2   5    3.67    1.95
  -9   2   6   -1.21    1.56
  -9   2   6   -0.72    2.00
  -9   3  -5    0.71    1.69
  -9   3  -4    3.31    1.99
  -9   3  -3   35.92    3.50
  -9   3  -2    4.80    1.67
  -9   3  -1   70.62    4.41
  -9   3   0    1.92    1.48
  -9   3   1    1.19    1.37
  -9   3   2    0.53    1.26
  -9   3   3   20.90    2.73
  -9   3   4    1.58    1.78
  -9   3   5    0.69    1.73
  -9   4  -4    9.49    2.38
  -9   4  -3    4.70    1.91
  -9   4  -2   35.66    3.35
  -9   4  -1    0.28    1.33
  -9   4   0   24.73    2.66
  -9   4   1    5.68    1.70
  -9   4   2    4.92    1.77
  -9   4   3    7.51    1.99
  -9   4   4    0.33    1.60
  -9   5  -3    7.95    2.33
  -9   5  -2    0.94    1.64
  -9   5  -1    5.35    1.81
  -9   5   1    1.81    1.57
  -9   5   2   18.30    2.69
  -9   5   3    1.25    1.63
  -8  -7   1    4.49    2.01
  -8  -7   1    8.06    1.91
  -8  -7   2   30.96    3.00
  -8  -7   2   31.87    3.28
  -8  -7   3    3.37    1.77
  -8  -7   3    3.76    1.70
  -8  -6  -2    6.61    1.86
  -8  -6  -1    7.70    1.98
  -8  -6   0   19.50    2.50
  -8  -6   0   18.68    2.69
  -8  -6   1    5.54    1.95
  -8  -6   1   12.35    2.17
  -8  -6   2    3.56    1.82
  -8  -6   2    4.51    1.62
  -8  -6   3   -0.26    1.55
  -8  -6   3    2.03    1.50
  -8  -6   4   -0.25    1.44
  -8  -6   4    1.78    1.53
  -8  -6   5   -0.50    1.38
  -8  -6   5    3.42    1.68
  -8  -5  -2   -0.25    1.42
  -8  -5  -1   17.66    2.38
  -8  -5   0    6.25    1.84
  -8  -5   1    2.24    1.53
  -8  -5   1    3.41    1.70
  -8  -5   2    4.54    1.75
  -8  -5   2    4.74    1.60
  -8  -5   3   34.85    3.12
  -8  -5   3   32.12    2.97
  -8  -5   4   13.96    2.14
  -8  -5   4   19.27    2.40
  -8  -5   5   37.07    3.02
  -8  -5   6    0.65    1.43
  -8  -5   6    0.75    1.39
  -8  -4  -5   17.81    2.72
  -8  -4  -4    3.81    1.82
  -8  -4  -3    1.05    1.38
  -8  -4  -2    4.90    1.53
  -8  -4   1   15.13    2.21
  -8  -4   2    6.65    1.81
  -8  -4   2    6.05    1.70
  -8  -4   3   35.17    3.10
  -8  -4   3   41.18    3.24
  -8  -4   4   -0.66    1.25
  -8  -4   5    8.86    1.76
  -8  -4   5    9.98    1.93
  -8  -4   6   -1.17    1.09
  -8  -4   6   -0.49    1.40
  -8  -4   7   18.03    2.38
  -8  -3  -5    5.24    1.92
  -8  -3  -4    0.28    1.33
  -8  -3  -3    2.27    1.40
  -8  -3  -2    9.75    1.78
  -8  -3  -1  100.13    4.85
  -8  -3   3   14.53    2.13
  -8  -3   4   34.19    2.82
  -8  -3   4   32.36    2.92
  -8  -3   5   28.75    2.44
  -8  -3   5   26.28    2.66
  -8  -3   6   17.56    2.25
  -8  -3   7    2.38    1.45
  -8  -3   8   14.55    2.25
  -8  -2  -6    9.18    2.31
  -8  -2  -5    1.54    1.65
  -8  -2  -4   -0.28    1.41
  -8  -2  -3   -0.51    1.21
  -8  -2  -2   19.86    2.29
  -8  -2  -1   31.06    2.57
  -8  -2   0  236.59    8.23
  -8  -2   4    3.86    1.45
  -8  -2   4    7.79    1.73
  -8  -2   5    2.63    1.46
  -8  -2   5    4.42    1.35
  -8  -2   6   12.75    2.00
  -8  -2   7    1.87    1.36
  -8  -2   8    1.12    1.45
  -8  -1  -6    0.34    1.72
  -8  -1  -5   56.22    4.31
  -8  -1  -4    9.02    2.02
  -8  -1  -3    7.89    1.75
  -8  -1  -2   63.00    3.89
  -8  -1  -1   16.01    1.99
  -8  -1   0   41.72    2.77
  -8  -1   4    4.67    1.81
  -8  -1   5   -0.59    1.51
  -8  -1   5    0.24    1.24
  -8  -1   6   15.93    2.53
  -8  -1   6   13.99    2.07
  -8  -1   7   11.48    1.93
  -8  -1   8    7.33    1.81
  -8  -1   8    5.84    2.18
  -8   0  -7   19.28    3.04
  -8   0  -6    8.83    2.23
  -8   0  -5    8.69    2.06
  -8   0  -4   15.80    2.36
  -8   0  -3    1.79    1.39
  -8   0  -2   34.84    2.92
  -8   0  -1    3.68    1.33
  -8   0   0   59.71    3.43
  -8   0   1   -0.31    0.92
  -8   0   2    1.15    1.19
  -8   0   3   28.46    2.77
  -8   0   4   19.49    2.49
  -8   0   5   10.84    1.88
  -8   0   5   14.28    2.34
  -8   0   6    1.78    1.33
  -8   0   6    1.93    1.62
  -8   0   7  105.74    6.32
  -8   0   7  114.95    5.40
  -8   0   8    2.07    1.47
  -8   1  -7   16.65    2.95
  -8   1  -6   10.22    2.40
  -8   1  -5   15.63    2.50
  -8   1  -4    2.57    1.48
  -8   1  -3    0.26    1.34
  -8   1  -2   48.60    3.47
  -8   1  -1   11.44    1.82
  -8   1   0  158.22    6.41
  -8   1   0  165.00    6.55
  -8   1   1    6.65    1.48
  -8   1   1    4.81    1.20
  -8   1   2  117.25    5.51
  -8   1   2   99.11    4.37
  -8   1   3   -0.51    1.30
  -8   1   4    4.43    1.65
  -8   1   5   27.85    3.05
  -8   1   6   35.69    3.49
  -8   1   6   31.03    2.75
  -8   1   7   12.92    2.45
  -8   1   7   16.89    2.14
  -8   2  -7    1.85    1.89
  -8   2  -6   24.20    3.17
  -8   2  -5   18.18    2.55
  -8   2  -4    1.45    1.39
  -8   2  -3   52.18    3.89
  -8   2  -2    3.49    1.42
  -8   2  -1   13.42    1.63
  -8   2  -1   11.00    1.86
  -8   2   0   13.26    1.87
  -8   2   0   12.91    1.76
  -8   2   1   92.67    4.74
  -8   2   1   99.80    4.61
  -8   2   2    4.20    1.43
  -8   2   3   58.20    3.96
  -8   2   4    5.92    1.78
  -8   2   5   42.67    3.69
  -8   2   6    3.98    1.57
  -8   2   6    8.32    2.18
  -8   2   7   66.76    5.03
  -8   3  -7   17.93    2.83
  -8   3  -6   -0.35    1.72
  -8   3  -5  101.08    5.90
  -8   3  -4   -0.61    1.53
  -8   3  -3   82.48    4.96
  -8   3  -2   14.39    2.18
  -8   3  -1   36.91    3.10
  -8   3  -1   40.61    2.70
  -8   3   0   11.91    1.74
  -8   3   0   10.74    1.82
  -8   3   1    6.50    1.47
  -8   3   1    7.58    1.68
  -8   3   2   17.34    2.22
  -8   3   3    0.80    1.32
  -8   3   4    0.29    1.44
  -8   3   5   19.98    2.76
  -8   3   6    6.88    2.12
  -8   3   7   18.53    2.96
  -8   4  -6   53.20    4.53
  -8   4  -5    0.68    1.60
  -8   4  -4   33.39    3.36
  -8   4  -3    1.46    1.51
  -8   4  -2   -0.54    1.31
  -8   4  -1   28.72    2.81
  -8   4   0    0.48    1.20
  -8   4   0    1.61    1.23
  -8   4   1   51.89    3.54
  -8   4   2   68.95    4.29
  -8   4   3    0.83    1.41
  -8   4   4  100.99    5.77
  -8   4   5    0.33    1.58
  -8   4   6    0.36    1.80
  -8   5  -6    0.38    1.80
  -8   5  -5    8.99    2.39
  -8   5  -4   24.23    3.00
  -8   5  -3    3.05    1.72
  -8   5  -2    8.66    2.03
  -8   5  -1    3.02    1.52
  -8   5   0   58.10    3.66
  -8   5   1    0.72    1.39
  -8   5   2   33.08    3.09
  -8   5   3    9.32    2.02
  -8   5   4   15.26    2.71
  -8   5   5    8.30    2.27
  -8   6  -5   17.48    2.90
  -8   6  -4   -0.68    1.54
  -8   6  -3   -0.32    1.68
  -8   6  -2    1.86    1.74
  -8   6   1  107.43    5.58
  -8   6   2    3.09    1.80
  -8   6   3   16.93    2.73
  -8   6   4    7.38    2.16
  -8   7  -3    0.69    1.71
  -8   7   1    5.75    1.82
  -8   7   2   12.03    2.51
  -7  -8   0    2.62    1.42
  -7  -8   1   24.28    2.47
  -7  -8   2    0.22    1.36
  -7  -8   2    2.52    1.81
  -7  -8   3    0.82    1.52
  -7  -8   3   -1.36    1.52
  -7  -8   4    9.44    2.27
  -7  -8   4   12.92    2.09
  -7  -7  -2    8.54    2.29
  -7  -7  -1   -0.29    1.71
  -7  -7  -1    1.22    1.34
  -7  -7   0   19.06    2.25
  -7  -7   0   12.66    2.36
  -7  -7   1   42.55    3.14
  -7  -7   1   36.21    3.34
  -7  -7   2   29.64    2.96
  -7  -7   2   28.56    2.65
  -7  -7   3   27.84    2.83
  -7  -7   3   21.59    2.46
  -7  -7   4   18.72    2.44
  -7  -7   4   18.70    2.40
  -7  -7   5    3.76    1.61
  -7  -7   5    4.41    1.72
  -7  -7   6   29.33    2.97
  -7  -7   6   26.13    2.74
  -7  -6  -2    9.03    1.76
  -7  -6  -1   24.29    2.46
  -7  -6  -1   24.02    2.86
  -7  -6   0   15.56    2.13
  -7  -6   1    6.80    1.85
  -7  -6   1    7.62    1.66
  -7  -6   2   40.84    3.12
  -7  -6   2   40.19    3.26
  -7  -6   3    1.57    1.35
  -7  -6   3   -0.24    1.31
  -7  -6   4   32.91    2.87
  -7  -6   4   39.64    3.13
  -7  -6   5    9.42    1.85
  -7  -6   5    8.68    1.75
  -7  -6   6   21.26    2.42
  -7  -6   7    6.71    1.76
  -7  -6   7    7.10    1.73
  -7  -5  -2    0.85    1.21
  -7  -5  -1   -1.08    1.37
  -7  -5   0   34.51    2.93
  -7  -5   1    6.34    1.56
  -7  -5   1    5.86    1.75
  -7  -5   2   24.49    2.51
  -7  -5   2   20.15    2.29
  -7  -5   3    6.66    1.66
  -7  -5   3    5.56    1.62
  -7  -5   4   -0.68    1.25
  -7  -5   4    1.28    1.28
  -7  -5   5   21.19    2.23
  -7  -5   6   20.69    2.36
  -7  -5   6   19.34    2.22
  -7  -5   7   18.55    2.27
  -7  -5   7   19.69    2.17
  -7  -5   8   50.63    3.61
  -7  -4   0  138.25    5.50
  -7  -4   1   -0.22    1.17
  -7  -4   2    8.57    1.70
  -7  -4   2   12.30    1.92
  -7  -4   3   36.20    2.85
  -7  -4   3   32.38    2.79
  -7  -4   4    2.35    1.29
  -7  -4   5   18.30    1.99
  -7  -4   5   17.94    2.19
  -7  -4   6   -0.44    1.12
  -7  -4   6    0.70    1.11
  -7  -4   7    6.79    1.61
  -7  -4   7    6.30    1.42
  -7  -4   8    9.82    1.79
  -7  -4   9   11.81    1.98
  -7  -3  -7    5.37    2.19
  -7  -3  -6   27.67    3.17
  -7  -3  -5  118.76    6.22
  -7  -3  -4    1.05    1.32
  -7  -3  -3  164.10    7.01
  -7  -3  -2  225.90    8.33
  -7  -3  -1  124.34    5.30
  -7  -3   0  320.54   10.10
  -7  -3   1  101.19    4.14
  -7  -3   3    0.40    1.11
  -7  -3   4  101.10    4.63
  -7  -3   4   94.08    4.84
  -7  -3   5    1.50    1.22
  -7  -3   5    0.83    1.00
  -7  -3   6    3.57    1.15
  -7  -3   6    3.22    1.31
  -7  -3   7   10.96    1.81
  -7  -3   8    0.84    1.33
  -7  -3   9    4.28    1.58
  -7  -2  -7   10.59    2.36
  -7  -2  -6    0.62    1.52
  -7  -2  -5    8.98    1.86
  -7  -2  -4    2.50    1.35
  -7  -2  -3   13.89    2.00
  -7  -2  -2    1.00    1.08
  -7  -2  -1    5.33    1.28
  -7  -2   0  175.10    6.39
  -7  -2   1    1.51    0.87
  -7  -2   4  121.82    5.07
  -7  -2   4  112.83    5.36
  -7  -2   5   78.29    4.33
  -7  -2   5   93.82    4.07
  -7  -2   6   26.37    2.02
  -7  -2   6   25.97    2.44
  -7  -2   7    2.49    1.56
  -7  -2   7    3.48    1.39
  -7  -2   8    8.20    1.65
  -7  -2   8    4.32    1.85
  -7  -2   9    9.46    1.76
  -7  -2   9    7.06    2.11
  -7  -1  -8   46.54    4.33
  -7  -1  -7   10.96    2.39
  -7  -1  -6    0.62    1.48
  -7  -1  -5  131.45    6.49
  -7  -1  -4   52.63    3.69
  -7  -1  -3  136.77    6.19
  -7  -1  -2  138.50    5.95
  -7  -1  -1   32.44    2.49
  -7  -1   0   35.85    2.43
  -7  -1   1  136.94    5.09
  -7  -1   3   28.26    2.62
  -7  -1   4   96.67    5.17
  -7  -1   4  102.88    4.93
  -7  -1   5  134.56    5.09
  -7  -1   5  135.28    5.90
  -7  -1   5  139.30    6.54
  -7  -1   6  188.49    7.28
  -7  -1   7  118.76    6.37
  -7  -1   7  117.33    5.32
  -7  -1   8   85.42    5.38
  -7  -1   8   83.48    4.25
  -7  -1   9   39.56    3.92
  -7  -1   9   43.56    3.05
  -7   0  -8   61.20    4.88
  -7   0  -7   26.51    3.16
  -7   0  -6   15.96    2.52
  -7   0  -5   74.61    4.71
  -7   0  -4    6.15    1.59
  -7   0  -3   95.80    4.97
  -7   0  -2   98.79    4.83
  -7   0  -1   81.12    4.08
  -7   0   0  166.78    6.21
  -7   0   1   12.83    1.69
  -7   0   1   10.64    1.37
  -7   0   2  152.02    6.29
  -7   0   2  145.05    5.15
  -7   0   3    7.66    1.60
  -7   0   4    1.97    1.32
  -7   0   5   58.61    3.56
  -7   0   5   64.22    4.21
  -7   0   6   -0.58    1.17
  -7   0   6   -0.87    1.42
  -7   0   7   64.08    3.68
  -7   0   8   11.85    2.36
  -7   0   8   15.24    1.79
  -7   0   9   61.28    4.87
  -7   1  -8   14.27    2.71
  -7   1  -7   23.02    3.04
  -7   1  -6   10.35    2.12
  -7   1  -5   18.27    2.43
  -7   1  -4    1.56    1.26
  -7   1  -3   84.57    4.63
  -7   1  -2    5.66    1.40
  -7   1  -1  130.60    5.57
  -7   1   0   45.65    2.94
  -7   1   0   47.93    2.92
  -7   1   1   44.86    2.94
  -7   1   1   41.21    2.57
  -7   1   2  488.86   14.01
  -7   1   2  494.82   15.13
  -7   1   3   32.53    2.75
  -7   1   4  262.12    9.77
  -7   1   5  101.05    5.42
  -7   1   6   -0.30    1.41
  -7   1   6   -0.37    1.19
  -7   1   7   56.51    3.37
  -7   1   7   56.09    3.83
  -7   1   8    1.91    1.59
  -7   1   8    3.45    1.94
  -7   1   9   -0.92    1.77
  -7   1   9   -0.74    1.88
  -7   2  -8    0.38    1.83
  -7   2  -7  109.79    6.33
  -7   2  -6   13.94    2.38
  -7   2  -5   24.35    2.77
  -7   2  -4   13.12    2.03
  -7   2  -3   42.96    3.25
  -7   2  -2  151.53    6.41
  -7   2  -2  142.35    5.17
  -7   2  -1  101.99    4.37
  -7   2  -1  104.67    4.96
  -7   2   0  118.08    5.04
  -7   2   0  121.19    5.22
  -7   2   1    6.01    1.25
  -7   2   1    7.84    1.41
  -7   2   2   58.24    3.59
  -7   2   3   46.07    3.31
  -7   2   4   54.34    3.78
  -7   2   5   72.07    4.53
  -7   2   5   64.62    3.57
  -7   2   6   77.88    3.98
  -7   2   6   70.18    4.08
  -7   2   6   80.95    5.07
  -7   2   7   65.11    4.13
  -7   2   8   15.98    2.68
  -7   2   8   14.23    2.26
  -7   2   9   50.07    4.16
  -7   3  -7    4.83    1.97
  -7   3  -6   37.39    3.52
  -7   3  -5    0.30    1.32
  -7   3  -4    5.78    1.68
  -7   3  -3    3.59    1.44
  -7   3  -2   35.77    2.95
  -7   3  -2   29.30    2.02
  -7   3  -1    0.64    1.05
  -7   3  -1   -0.15    0.85
  -7   3   0   25.48    2.32
  -7   3   0   26.20    2.22
  -7   3   1   31.25    2.56
  -7   3   1   40.44    2.76
  -7   3   2   -0.43    1.11
  -7   3   3    3.36    1.34
  -7   3   4    2.58    1.01
  -7   3   4    1.06    1.20
  -7   3   5    0.58    1.39
  -7   3   5   -0.88    1.03
  -7   3   6    0.41    1.19
  -7   3   6    1.90    1.64
  -7   3   7   49.14    3.55
  -7   3   8    0.55    1.64
  -7   3   8    2.21    2.07
  -7   4  -7    8.90    2.33
  -7   4  -6    2.66    1.75
  -7   4  -5   -1.25    1.52
  -7   4  -4    1.75    1.27
  -7   4  -3    1.89    1.40
  -7   4  -2   -0.49    1.27
  -7   4  -1    9.31    1.43
  -7   4  -1    8.56    1.68
  -7   4   0   55.66    3.30
  -7   4   0   48.16    3.35
  -7   4   1  139.57    5.99
  -7   4   2    3.42    1.49
  -7   4   3   14.63    2.07
  -7   4   4   61.00    4.19
  -7   4   5    2.73    1.62
  -7   4   6   33.36    3.42
  -7   4   7    8.58    2.43
  -7   5  -6   24.14    3.12
  -7   5  -5   11.01    2.19
  -7   5  -4  108.42    5.90
  -7   5  -3    6.42    1.65
  -7   5  -2   20.41    2.46
  -7   5  -1  196.64    7.95
  -7   5  -1  186.38    6.99
  -7   5   0   13.48    1.79
  -7   5   1   73.13    4.18
  -7   5   2   37.11    3.09
  -7   5   3    0.54    1.37
  -7   5   4    6.48    1.84
  -7   5   5   31.47    3.37
  -7   5   6    3.13    1.80
  -7   5   7    7.51    2.39
  -7   6  -5    0.99    1.58
  -7   6  -4    1.58    1.64
  -7   6  -3    4.50    1.69
  -7   6  -2   -0.29    1.39
  -7   6  -1    3.39    1.24
  -7   6   0   38.49    2.97
  -7   6   1   24.15    2.50
  -7   6   2    3.14    1.49
  -7   6   3    5.47    1.92
  -7   6   4    4.72    1.86
  -7   6   5    0.34    1.72
  -7   6   6    1.48    1.74
  -7   7  -5    1.75    1.78
  -7   7  -4    0.67    1.48
  -7   7  -3   12.57    2.35
  -7   7   0   23.89    2.56
  -7   7   1    1.03    1.48
  -7   7   2   18.34    2.45
  -7   7   3   44.24    3.79
  -7   7   4    0.34    1.66
  -7   8   0    5.29    1.74
  -7   8   1    2.22    1.72
  -7   8   2   14.51    2.52
  -6  -9   2    6.87    2.10
  -6  -9   2   10.15    1.87
  -6  -9   3   76.50    4.29
  -6  -8  -2    7.22    2.14
  -6  -8  -1   45.76    3.69
  -6  -8   0    5.26    1.47
  -6  -8   0    2.94    1.75
  -6  -8   1  120.21    6.07
  -6  -8   1  124.35    5.39
  -6  -8   2    2.92    1.34
  -6  -8   3   29.11    2.84
  -6  -8   3   27.67    2.56
  -6  -8   4    4.69    1.59
  -6  -8   4    5.51    1.73
  -6  -8   5   -0.22    1.41
  -6  -8   5    1.00    1.49
  -6  -8   6    5.36    1.71
  -6  -8   6    2.99    1.60
  -6  -7  -4   21.33    2.93
  -6  -7  -3    4.25    1.94
  -6  -7  -2   18.77    2.63
  -6  -7  -1    1.90    1.17
  -6  -7  -1    2.62    1.66
  -6  -7   0   36.93    2.70
  -6  -7   0   36.84    3.20
  -6  -7   1   17.06    1.98
  -6  -7   2    4.54    1.54
  -6  -7   2    4.39    1.37
  -6  -7   3  113.33    5.22
  -6  -7   3  112.41    5.54
  -6  -7   4   22.80    2.35
  -6  -7   4   28.40    2.66
  -6  -7   5   43.09    3.29
  -6  -7   5   44.14    3.22
  -6  -7   6   33.17    2.97
  -6  -7   6   46.12    3.25
  -6  -7   7    0.91    1.40
  -6  -6  -2   20.63    2.13
  -6  -6  -1    0.18    1.01
  -6  -6  -1   -0.52    1.42
  -6  -6   0   29.14    2.46
  -6  -6   1    3.01    1.30
  -6  -6   1    3.00    1.42
  -6  -6   2   27.41    2.40
  -6  -6   2   26.56    2.56
  -6  -6   3    3.88    1.54
  -6  -6   3    0.98    1.07
  -6  -6   4    5.23    1.52
  -6  -6   4    5.14    1.36
  -6  -6   5    8.77    1.72
  -6  -6   5    9.23    1.67
  -6  -6   6   23.01    2.35
  -6  -6   7   37.19    2.89
  -6  -6   7   31.16    2.66
  -6  -6   8   79.02    4.31
  -6  -6   8   76.32    4.46
  -6  -5  -2    5.62    1.37
  -6  -5  -1   41.23    2.90
  -6  -5   0   17.08    1.91
  -6  -5   1    4.72    1.46
  -6  -5   1    4.88    1.33
  -6  -5   2  186.32    7.22
  -6  -5   2  196.47    7.49
  -6  -5   3    0.97    1.01
  -6  -5   3    0.59    1.06
  -6  -5   4    0.78    1.01
  -6  -5   4    1.33    1.06
  -6  -5   5   15.10    1.90
  -6  -5   6   15.25    1.91
  -6  -5   6   19.31    2.01
  -6  -5   7   -0.36    1.04
  -6  -5   7    0.21    1.12
  -6  -5   8    4.50    1.44
  -6  -5   8    4.62    1.36
  -6  -5   9   -0.22    1.45
  -6  -4   1  198.67    7.44
  -6  -4   2  265.64    9.04
  -6  -4   2  241.96    7.49
  -6  -4   2  256.39    8.83
  -6  -4   3   25.89    2.27
  -6  -4   3   25.65    2.24
  -6  -4   4  236.37    8.23
  -6  -4   5   87.28    4.33
  -6  -4   5   81.05    4.03
  -6  -4   6   12.11    1.69
  -6  -4   6    6.99    1.38
  -6  -4   7  119.72    4.90
  -6  -4   7  110.13    5.20
  -6  -4   8    0.81    1.23
  -6  -4   9   17.70    2.19
  -6  -3  -8    4.12    2.08
  -6  -3   0  221.60    7.37
  -6  -3   1    4.90    0.91
  -6  -3   2   49.19    2.24
  -6  -3   2   50.88    3.16
  -6  -3   3    3.42    1.11
  -6  -3   4   74.57    3.66
  -6  -3   4   74.47    3.95
  -6  -3   5   12.35    1.68
  -6  -3   5    9.87    1.35
  -6  -3   6   36.79    2.37
  -6  -3   6   35.24    2.67
  -6  -3   7   29.82    2.13
  -6  -3   7   30.62    2.47
  -6  -3   8    3.78    1.39
  -6  -3   9   92.17    4.60
  -6  -3  10    0.40    1.32
  -6  -2  -8    0.72    1.95
  -6  -2  -7    9.43    2.21
  -6  -2  -6    2.93    1.69
  -6  -2  -5   21.48    2.45
  -6  -2  -4    0.93    1.11
  -6  -2  -3   18.58    2.04
  -6  -2  -2    4.97    1.23
  -6  -2  -1   61.92    3.24
  -6  -2   0    0.51    0.70
  -6  -2   1   25.55    1.70
  -6  -2   2   92.27    3.32
  -6  -2   3  138.55    3.98
  -6  -2   3  149.63    5.91
  -6  -2   4  130.44    5.62
  -6  -2   4  145.64    5.37
  -6  -2   5   -0.51    0.85
  -6  -2   5    2.51    1.19
  -6  -2   6  520.26   14.74
  -6  -2   6  523.67   15.62
  -6  -2   6  540.60   16.76
  -6  -2   7    0.18    1.05
  -6  -2   7    1.12    1.32
  -6  -2   8   95.98    4.54
  -6  -2   8  103.82    5.76
  -6  -2   9   36.72    2.73
  -6  -2   9   36.89    3.51
  -6  -2  10    3.41    2.06
  -6  -2  10    6.99    1.64
  -6  -1  -8   32.55    3.46
  -6  -1  -7    0.62    1.48
  -6  -1  -6   32.88    3.05
  -6  -1  -5   22.17    2.43
  -6  -1  -4   26.80    2.48
  -6  -1  -3   30.76    2.53
  -6  -1  -2   19.34    1.88
  -6  -1  -1   15.19    1.61
  -6  -1   0   39.33    2.35
  -6  -1   1    6.74    0.98
  -6  -1   2   76.34    3.95
  -6  -1   2   78.24    3.01
  -6  -1   3    6.76    1.39
  -6  -1   4  127.49    5.45
  -6  -1   4  136.91    6.00
  -6  -1   4  131.50    4.95
  -6  -1   5   53.26    2.60
  -6  -1   5   52.36    3.13
  -6  -1   6    2.45    0.80
  -6  -1   6    1.30    1.29
  -6  -1   6    3.09    1.12
  -6  -1   7  207.29    8.90
  -6  -1   7  238.36    8.01
  -6  -1   8   20.79    1.99
  -6  -1   8   20.02    2.66
  -6  -1   9   14.77    1.85
  -6  -1   9   15.93    2.51
  -6  -1  10    0.35    1.90
  -6   0  -7   25.87    2.94
  -6   0  -6   18.10    2.41
  -6   0  -5   -0.26    1.13
  -6   0  -4  226.46    8.61
  -6   0  -3   55.02    3.43
  -6   0  -2  101.50    4.68
  -6   0  -1   17.31    1.69
  -6   0   0   90.75    3.91
  -6   0   0   90.11    3.96
  -6   0   1    3.97    1.09
  -6   0   1    0.46    0.63
  -6   0   2  236.78    7.34
  -6   0   2  259.76    8.63
  -6   0   3   18.58    2.02
  -6   0   4    1.96    1.00
  -6   0   5   17.18    2.09
  -6   0   5   16.34    1.80
  -6   0   5   14.03    1.23
  -6   0   6   -0.49    1.01
  -6   0   7   30.62    2.35
  -6   0   7   36.55    3.25
  -6   0   7   30.43    2.83
  -6   0   8   -1.34    1.56
  -6   0   8    0.61    1.52
  -6   0   8    0.15    0.98
  -6   0   9    3.63    1.79
  -6   0   9    6.58    2.03
  -6   0  10   14.50    2.65
  -6   0  10   11.65    2.53
  -6   1  -9    2.67    2.17
  -6   1  -7   16.75    2.62
  -6   1  -6   81.61    4.98
  -6   1  -5   35.92    3.08
  -6   1  -4   16.99    2.08
  -6   1  -3  254.66    9.11
  -6   1  -2  144.81    5.94
  -6   1  -1  176.11    6.63
  -6   1  -1  184.90    6.16
  -6   1   0  113.46    4.56
  -6   1   0   98.92    4.35
  -6   1   1  155.10    5.90
  -6   1   1  154.79    5.54
  -6   1   2    0.76    0.66
  -6   1   2   -0.54    0.88
  -6   1   3   68.60    3.84
  -6   1   4  122.45    4.98
  -6   1   4  129.66    5.78
  -6   1   5    0.86    0.95
  -6   1   5    0.49    0.94
  -6   1   5    0.24    1.10
  -6   1   6    5.66    1.43
  -6   1   6    6.96    1.34
  -6   1   7   12.77    2.16
  -6   1   7    7.72    1.74
  -6   1   7   12.80    1.54
  -6   1   8   -1.26    1.61
  -6   1   8    0.80    1.43
  -6   1   9    9.97    2.22
  -6   1   9    7.11    2.14
  -6   1  10    2.70    1.92
  -6   1  10   -1.81    1.93
  -6   2  -9   18.90    3.06
  -6   2  -6   62.67    4.32
  -6   2  -5  191.01    7.98
  -6   2  -4  172.96    7.27
  -6   2  -3   54.69    3.49
  -6   2  -2  172.82    5.71
  -6   2  -2  178.17    6.88
  -6   2  -1   24.66    1.79
  -6   2  -1   25.11    2.17
  -6   2   0    1.28    0.79
  -6   2   0    2.23    0.94
  -6   2   1   35.52    2.30
  -6   2   1   33.84    2.40
  -6   2   2  108.42    4.09
  -6   2   2   98.53    4.69
  -6   2   3  158.99    6.48
  -6   2   3  151.49    5.37
  -6   2   4  110.36    5.31
  -6   2   4  102.94    4.37
  -6   2   5    6.14    1.32
  -6   2   5    4.52    1.47
  -6   2   6   30.96    2.58
  -6   2   6   36.49    2.38
  -6   2   7   17.75    2.49
  -6   2   7   18.69    2.23
  -6   2   8   20.32    2.54
  -6   2   8   15.96    2.59
  -6   2   9   35.45    3.70
  -6   2   9   36.67    3.49
  -6   3  -9    8.31    2.38
  -6   3  -6   67.46    4.55
  -6   3  -5   34.55    3.05
  -6   3  -4   54.67    3.72
  -6   3  -3    1.60    1.13
  -6   3  -3    1.00    0.58
  -6   3  -2   44.35    2.32
  -6   3  -2   44.73    3.15
  -6   3  -1   53.63    2.80
  -6   3  -1   51.81    3.24
  -6   3   0   75.94    3.82
  -6   3   0   69.93    3.51
  -6   3   1   19.10    1.85
  -6   3   1   19.29    1.92
  -6   3   2   76.00    3.09
  -6   3   2   82.61    4.20
  -6   3   2   84.27    3.28
  -6   3   3   83.10    4.44
  -6   3   3   86.25    3.58
  -6   3   4  141.52    5.41
  -6   3   4  143.93    6.42
  -6   3   5    0.52    0.99
  -6   3   5    0.26    1.16
  -6   3   6   24.72    2.38
  -6   3   7   -0.71    1.32
  -6   3   7    0.94    1.67
  -6   3   8    6.80    2.12
  -6   3   8    7.33    1.85
  -6   3   9   30.38    3.57
  -6   3   9   28.24    3.17
  -6   4  -9   18.51    3.09
  -6   4  -8   13.70    2.58
  -6   4  -7    6.20    2.06
  -6   4  -5   66.65    4.41
  -6   4  -4   29.72    2.85
  -6   4  -3   18.93    2.24
  -6   4  -3   20.84    1.46
  -6   4  -2   -0.22    1.04
  -6   4  -2    0.12    0.72
  -6   4  -1   23.59    1.89
  -6   4  -1   24.34    2.32
  -6   4   0  182.29    6.92
  -6   4   0  167.39    6.41
  -6   4   1   13.21    1.72
  -6   4   1   12.83    0.94
  -6   4   2   95.58    4.66
  -6   4   2   85.11    3.35
  -6   4   3   73.30    4.23
  -6   4   3   68.24    3.16
  -6   4   4    0.25    1.08
  -6   4   4    1.93    0.98
  -6   4   5   58.68    3.40
  -6   4   5   64.10    4.26
  -6   4   6   14.89    2.43
  -6   4   6   13.89    1.86
  -6   4   7    2.43    1.44
  -6   4   8    2.50    1.68
  -6   4   8    4.28    1.95
  -6   5  -8    3.63    2.04
  -6   5  -7   30.86    3.37
  -6   5  -5    8.35    1.94
  -6   5  -4   48.24    3.67
  -6   5  -3   80.50    4.66
  -6   5  -2   57.34    2.96
  -6   5  -2   59.51    3.87
  -6   5  -1   67.07    3.45
  -6   5  -1   66.06    4.01
  -6   5   0   70.82    3.75
  -6   5   1  192.50    7.40
  -6   5   2   52.69    3.51
  -6   5   3    5.58    1.10
  -6   5   3    6.17    1.54
  -6   5   4   11.80    1.55
  -6   5   4   11.67    2.08
  -6   5   5    0.57    1.08
  -6   5   5    2.08    1.56
  -6   5   6   14.84    2.09
  -6   5   6   13.91    2.51
  -6   5   7    3.56    1.66
  -6   5   8    0.29    1.68
  -6   6  -8   11.63    2.64
  -6   6  -7    5.57    2.10
  -6   6  -6    1.95    1.58
  -6   6  -4    1.16    1.24
  -6   6  -3    1.65    1.49
  -6   6  -2   74.91    3.69
  -6   6  -2   81.97    4.75
  -6   6  -1   37.67    2.63
  -6   6   0   26.19    2.31
  -6   6   1   24.57    2.43
  -6   6   2   36.06    3.01
  -6   6   3   26.00    2.77
  -6   6   4   11.64    2.17
  -6   6   5   18.22    2.63
  -6   6   6   20.41    2.93
  -6   7  -7    6.04    2.19
  -6   7  -6    1.02    1.66
  -6   7  -3   15.49    2.32
  -6   7  -2    0.85    1.01
  -6   7  -1    3.27    1.29
  -6   7   0    9.00    1.74
  -6   7   1    0.95    1.40
  -6   7   2    2.36    1.51
  -6   7   3   19.23    2.54
  -6   7   4    6.58    2.01
  -6   7   5   12.90    2.56
  -6   8  -6   34.95    3.77
  -6   8  -5    5.85    2.10
  -6   8  -1    7.72    1.64
  -6   8   0    9.25    1.89
  -6   8   1    9.36    1.90
  -6   8   2   44.22    3.63
  -6   8   3    1.86    1.59
  -6   8   4    4.06    2.00
  -6   9   0   26.42    2.85
  -6   9   1   23.67    2.85
  -5  -9  -2   -0.52    1.62
  -5  -9  -1    0.51    1.52
  -5  -9   0    2.05    1.56
  -5  -9   1    2.79    1.69
  -5  -9   1    1.67    1.32
  -5  -9   2   16.96    2.42
  -5  -9   2   22.84    2.19
  -5  -9   3   23.32    2.29
  -5  -9   4    2.29    1.45
  -5  -9   4    1.02    1.27
  -5  -9   5   -1.28    1.63
  -5  -9   5   -1.29    1.37
  -5  -8  -4   11.25    2.16
  -5  -8  -3   79.68    4.74
  -5  -8  -2   30.35    3.02
  -5  -8  -1   17.13    2.31
  -5  -8   0   14.83    2.16
  -5  -8   0   15.65    1.74
  -5  -8   1    2.60    1.57
  -5  -8   1    1.46    1.13
  -5  -8   2    1.03    1.16
  -5  -8   3    9.13    1.55
  -5  -8   3    6.27    1.69
  -5  -8   4   18.35    2.08
  -5  -8   4   17.19    2.24
  -5  -8   5    3.67    1.37
  -5  -8   5    3.95    1.59
  -5  -8   6   32.86    2.80
  -5  -8   6   32.64    3.01
  -5  -8   7    3.09    1.65
  -5  -8   7    3.18    1.56
  -5  -7  -5   -0.26    1.71
  -5  -7  -4   13.12    2.35
  -5  -7  -3   19.30    2.45
  -5  -7  -2   19.51    2.42
  -5  -7  -1    0.23    1.19
  -5  -7  -1   -0.29    0.89
  -5  -7   0    5.87    1.22
  -5  -7   0    3.60    1.46
  -5  -7   1    0.47    1.03
  -5  -7   1   -0.22    1.12
  -5  -7   2   22.29    2.07
  -5  -7   3    2.80    1.19
  -5  -7   3    3.60    1.35
  -5  -7   4    0.21    1.20
  -5  -7   4   -0.55    1.04
  -5  -7   5   20.90    2.25
  -5  -7   5   18.90    2.11
  -5  -7   6    3.04    1.38
  -5  -7   6    4.86    1.59
  -5  -7   7   20.95    2.33
  -5  -7   8   -1.30    1.53
  -5  -7   8   -1.35    1.35
  -5  -6  -3   65.86    3.26
  -5  -6  -2   18.11    2.28
  -5  -6  -2   12.94    1.56
  -5  -6  -1    2.03    1.36
  -5  -6  -1   -0.15    0.92
  -5  -6   0    1.07    1.20
  -5  -6   0    0.31    0.99
  -5  -6   1   40.87    2.66
  -5  -6   2   13.88    1.84
  -5  -6   2   16.31    1.78
  -5  -6   3   10.74    1.63
  -5  -6   3    8.91    1.48
  -5  -6   4  112.12    4.93
  -5  -6   4  112.82    5.09
  -5  -6   5   10.42    1.57
  -5  -6   5    9.01    1.57
  -5  -6   6    2.82    1.34
  -5  -6   7    0.38    1.14
  -5  -6   7    0.20    1.12
  -5  -6   8    4.20    1.39
  -5  -6   8    6.94    1.63
  -5  -6   9    3.09    1.49
  -5  -6   9    1.59    1.24
  -5  -5  -3  108.39    4.57
  -5  -5  -2   10.44    1.44
  -5  -5  -1  957.77   25.94
  -5  -5   0  109.56    4.69
  -5  -5   1  405.02   12.27
  -5  -5   1  399.45   12.70
  -5  -5   2   25.53    2.12
  -5  -5   2   23.20    2.11
  -5  -5   3  188.80    6.77
  -5  -5   3  173.56    6.72
  -5  -5   4  160.40    6.22
  -5  -5   4  163.76    6.25
  -5  -5   5   65.47    3.50
  -5  -5   6   40.22    2.67
  -5  -5   6   36.35    2.62
  -5  -5   7    7.22    1.41
  -5  -5   7    6.39    1.42
  -5  -5   8    0.51    1.07
  -5  -5   8    0.98    1.17
  -5  -5   9    3.70    1.45
  -5  -5  10    0.86    1.38
  -5  -4   0  191.63    6.86
  -5  -4   1  385.48   11.80
  -5  -4   1  381.67   11.70
  -5  -4   1  388.58   11.68
  -5  -4   2   86.29    3.78
  -5  -4   2   91.00    4.25
  -5  -4   2   83.62    3.99
  -5  -4   3   64.44    2.89
  -5  -4   3   54.92    3.13
  -5  -4   3   54.61    3.10
  -5  -4   4  474.30   13.95
  -5  -4   5    1.02    0.91
  -5  -4   5   -0.33    0.84
  -5  -4   6   79.40    3.94
  -5  -4   6   79.87    3.74
  -5  -4   7   31.87    2.43
  -5  -4   7   29.26    2.17
  -5  -4   8   27.02    2.12
  -5  -4   8   25.84    2.34
  -5  -4   9    0.95    1.19
  -5  -4  10   20.55    2.28
  -5  -3   0   -0.17    0.98
  -5  -3   1   93.89    4.16
  -5  -3   2   27.53    2.09
  -5  -3   2   26.76    1.96
  -5  -3   2   26.68    1.41
  -5  -3   3    0.29    0.72
  -5  -3   3    1.34    0.77
  -5  -3   3    1.36    0.29
  -5  -3   4   10.91    1.40
  -5  -3   4    8.09    1.18
  -5  -3   5    9.55    1.25
  -5  -3   5    7.20    1.26
  -5  -3   6  202.47    6.74
  -5  -3   6  199.35    7.13
  -5  -3   7  151.18    5.90
  -5  -3   7  151.80    5.42
  -5  -3   8   48.85    2.63
  -5  -3   8   48.48    3.01
  -5  -3   9   16.79    1.90
  -5  -3  10   60.47    3.57
  -5  -2  -9    7.87    2.34
  -5  -2   0  439.52   12.45
  -5  -2   1  151.44    5.06
  -5  -2   1  171.73    6.00
  -5  -2   2  441.60   11.94
  -5  -2   2  467.73   13.15
  -5  -2   3  155.49    5.61
  -5  -2   3  154.60    5.48
  -5  -2   3  152.78    5.84
  -5  -2   4   37.49    2.18
  -5  -2   4   40.84    2.53
  -5  -2   5  140.21    5.53
  -5  -2   5  147.86    5.08
  -5  -2   5  144.56    6.20
  -5  -2   6   -0.71    0.75
  -5  -2   6    0.30    0.84
  -5  -2   6   -0.23    1.09
  -5  -2   7   96.01    3.68
  -5  -2   7   91.30    5.03
  -5  -2   7   92.64    4.18
  -5  -2   8  128.21    6.29
  -5  -2   8  130.34    5.27
  -5  -2   9    2.61    1.50
  -5  -2   9    2.75    1.15
  -5  -2  10    0.31    1.63
  -5  -2  10    1.01    1.19
  -5  -2  11   37.64    3.71
  -5  -1  -9    1.43    1.74
  -5  -1  -7    3.50    1.62
  -5  -1  -6   14.33    2.07
  -5  -1  -5   -0.23    1.08
  -5  -1  -4    8.30    1.44
  -5  -1  -3   83.28    4.07
  -5  -1  -2    3.17    0.92
  -5  -1  -1   36.79    2.23
  -5  -1   0   44.07    2.33
  -5  -1   1   33.16    1.79
  -5  -1   1   33.34    2.30
  -5  -1   2   33.31    2.24
  -5  -1   2   33.51    2.29
  -5  -1   2   30.34    1.50
  -5  -1   3  316.66   10.28
  -5  -1   4   38.85    2.46
  -5  -1   4   38.00    2.08
  -5  -1   5   45.34    2.17
  -5  -1   5   48.62    3.23
  -5  -1   5   43.90    2.64
  -5  -1   6  116.69    3.98
  -5  -1   6  112.54    4.67
  -5  -1   6  115.70    5.53
  -5  -1   7  112.75    5.54
  -5  -1   7  122.12    5.87
  -5  -1   7  113.31    4.66
  -5  -1   8   48.74    3.62
  -5  -1   8   48.28    2.79
  -5  -1   8   48.81    3.72
  -5  -1   9    9.74    2.09
  -5  -1   9   10.58    2.24
  -5  -1   9    8.67    1.44
  -5  -1  10    7.24    2.11
  -5  -1  10    2.52    1.63
  -5  -1  11    2.67    1.97
  -5  -1  11    1.46    2.02
  -5   0 -10    7.03    2.41
  -5   0  -9    8.83    2.38
  -5   0  -8   13.64    2.40
  -5   0  -6  129.55    6.16
  -5   0  -5   75.94    4.24
  -5   0  -4  198.32    7.53
  -5   0  -3   47.04    2.96
  -5   0  -2  272.46    8.91
  -5   0  -1  186.81    6.46
  -5   0   0    0.34    0.56
  -5   0   0    0.23    0.54
  -5   0   1   -0.15    0.93
  -5   0   1    1.47    0.71
  -5   0   1    1.31    0.56
  -5   0   2   31.62    2.19
  -5   0   2   27.52    1.51
  -5   0   2   31.35    2.18
  -5   0   3  217.53    7.71
  -5   0   4   15.77    1.25
  -5   0   4   16.73    1.82
  -5   0   5   -0.34    0.86
  -5   0   5    0.79    0.53
  -5   0   5   -0.14    0.72
  -5   0   6   34.11    2.82
  -5   0   6   34.20    2.66
  -5   0   6   31.65    2.19
  -5   0   6   34.48    1.56
  -5   0   7   36.06    3.07
  -5   0   7   42.44    3.15
  -5   0   7   38.28    2.35
  -5   0   8   18.25    2.39
  -5   0   8   14.26    2.11
  -5   0   8   14.29    1.52
  -5   0   9   43.34    3.65
  -5   0   9   47.20    3.85
  -5   0  10    0.32    1.64
  -5   0  10   -0.33    1.68
  -5   1 -10    8.13    2.49
  -5   1  -9    0.35    1.60
  -5   1  -8   24.29    2.96
  -5   1  -5    0.23    1.01
  -5   1  -4  174.40    6.93
  -5   1  -3    9.72    1.44
  -5   1  -2   73.55    3.66
  -5   1  -1  196.28    6.33
  -5   1  -1  204.59    6.93
  -5   1   0   33.64    2.03
  -5   1   0   30.93    2.01
  -5   1   1  198.55    6.80
  -5   1   1  200.99    6.43
  -5   1   2   12.68    1.13
  -5   1   2   14.24    1.51
  -5   1   3   43.48    2.84
  -5   1   3   44.71    2.36
  -5   1   4   48.27    2.71
  -5   1   4   53.60    3.28
  -5   1   5    7.76    1.13
  -5   1   5    9.18    1.39
  -5   1   5    7.71    0.68
  -5   1   6   -0.24    1.12
  -5   1   6   -0.39    0.99
  -5   1   6    1.00    0.83
  -5   1   7    1.80    1.15
  -5   1   7    5.00    1.02
  -5   1   7    3.14    1.47
  -5   1   8    6.36    1.10
  -5   1   8    6.84    1.81
  -5   1   8    4.89    1.51
  -5   1   9   -0.62    1.62
  -5   1   9    1.76    1.68
  -5   1  10    6.30    2.07
  -5   1  10    4.93    2.03
  -5   2 -10   -0.38    1.95
  -5   2  -9    0.35    1.55
  -5   2  -8   25.17    2.93
  -5   2  -7   10.68    2.08
  -5   2  -5   53.93    3.61
  -5   2  -4   40.63    2.99
  -5   2  -3    0.76    0.84
  -5   2  -2   19.42    1.84
  -5   2  -2   19.03    1.28
  -5   2  -1   25.99    1.66
  -5   2  -1   27.80    2.09
  -5   2   0  346.79   10.34
  -5   2   0  320.83    9.97
  -5   2   0  343.31   10.01
  -5   2   1  221.16    7.57
  -5   2   1  224.42    7.38
  -5   2   1  240.70    7.17
  -5   2   2  263.10    7.50
  -5   2   2  242.43    7.35
  -5   2   2  243.57    8.35
  -5   2   3  704.45   19.31
  -5   2   3  720.72   20.42
  -5   2   3  727.05   18.73
  -5   2   4   22.42    1.14
  -5   2   4   21.86    1.77
  -5   2   4   22.32    2.22
  -5   2   5  425.04   12.79
  -5   2   5  414.86   12.18
  -5   2   6   41.79    3.29
  -5   2   6   43.04    2.38
  -5   2   6   42.25    2.96
  -5   2   7    5.44    1.62
  -5   2   7    4.34    0.93
  -5   2   8    4.44    1.80
  -5   2   8    1.30    1.46
  -5   2   9    2.95    1.74
  -5   2   9    2.25    1.69
  -5   2  10    1.99    1.84
  -5   2  10   -0.69    1.79
  -5   3 -10    5.69    2.29
  -5   3  -9    0.35    1.67
  -5   3  -8    5.44    1.91
  -5   3  -7    5.27    1.73
  -5   3  -4   32.32    2.70
  -5   3  -3  110.97    5.21
  -5   3  -3  118.32    3.79
  -5   3  -2  136.36    5.64
  -5   3  -2  131.36    4.50
  -5   3  -1   16.02    1.38
  -5   3  -1   13.54    1.57
  -5   3   0  884.53   23.87
  -5   3   0  885.67   23.48
  -5   3   0  903.86   24.29
  -5   3   1  153.18    4.66
  -5   3   1  162.53    5.87
  -5   3   1  154.44    5.08
  -5   3   2   64.74    2.55
  -5   3   2   68.46    3.52
  -5   3   2   59.71    2.62
  -5   3   3   49.89    1.98
  -5   3   3   51.98    2.57
  -5   3   3   45.54    3.04
  -5   3   4  105.67    4.35
  -5   3   4  100.81    4.97
  -5   3   5    3.71    1.13
  -5   3   6  106.63    4.03
  -5   3   6  103.45    5.46
  -5   3   6  104.60    4.95
  -5   3   7    3.42    1.60
  -5   3   7    0.93    1.20
  -5   3   8   37.00    3.48
  -5   3   8   45.92    3.57
  -5   3   9    2.02    1.77
  -5   3   9    3.61    1.71
  -5   3  10   15.89    2.83
  -5   3  10   10.14    2.39
  -5   4  -9   20.83    2.95
  -5   4  -8   16.36    2.50
  -5   4  -7   -0.30    1.37
  -5   4  -6  137.69    6.58
  -5   4  -4  246.58    9.22
  -5   4  -3   81.23    4.35
  -5   4  -3   78.46    3.03
  -5   4  -2    2.77    1.07
  -5   4  -2    1.94    0.74
  -5   4  -1  351.09   10.43
  -5   4  -1  347.81   11.28
  -5   4   0   20.38    1.74
  -5   4   0   20.15    1.95
  -5   4   0   16.25    0.90
  -5   4   1  422.38   12.95
  -5   4   1  442.25   11.95
  -5   4   1  424.47   11.63
  -5   4   2  154.24    5.14
  -5   4   2  151.02    4.80
  -5   4   2  155.06    6.12
  -5   4   3   36.03    2.21
  -5   4   3   40.44    2.90
  -5   4   4   -0.46    1.08
  -5   4   4   -0.15    0.94
  -5   4   5   50.76    3.61
  -5   4   5   48.55    3.08
  -5   4   6    4.83    1.46
  -5   4   7    3.65    1.69
  -5   4   7    0.24    1.22
  -5   4   8    2.20    1.64
  -5   4   8    1.65    1.73
  -5   4   9    3.19    1.86
  -5   4   9    1.55    1.81
  -5   5  -9   33.50    3.59
  -5   5  -8    2.66    1.73
  -5   5  -7   36.94    3.49
  -5   5  -6   58.77    4.18
  -5   5  -3   99.24    5.00
  -5   5  -3   92.37    3.61
  -5   5  -2    0.12    0.69
  -5   5  -2   -0.44    0.97
  -5   5  -1    0.69    0.75
  -5   5  -1    0.87    0.41
  -5   5  -1    1.45    0.99
  -5   5   0   99.54    4.34
  -5   5   0   94.31    3.24
  -5   5   1   -0.17    0.57
  -5   5   1   -0.71    0.91
  -5   5   2   -0.40    0.96
  -5   5   2   -0.33    0.72
  -5   5   3   19.11    2.17
  -5   5   3   18.45    1.69
  -5   5   4    7.41    1.57
  -5   5   4    4.58    1.18
  -5   5   5    8.69    1.55
  -5   5   5   12.74    2.00
  -5   5   6    0.45    1.11
  -5   5   7   38.72    3.69
  -5   5   7   35.13    3.11
  -5   5   8   22.83    2.82
  -5   5   8   15.46    2.73
  -5   6  -9   -1.48    1.97
  -5   6  -8    9.31    2.30
  -5   6  -7   -1.61    1.67
  -5   6  -6   13.63    2.30
  -5   6  -5    0.28    1.25
  -5   6  -3    5.75    1.64
  -5   6  -3    4.87    0.98
  -5   6  -2   74.37    4.37
  -5   6  -2   77.18    3.59
  -5   6  -1   30.66    2.28
  -5   6   0   54.44    3.20
  -5   6   0   49.50    2.34
  -5   6   1  198.28    7.71
  -5   6   1  216.12    6.80
  -5   6   2   18.04    2.12
  -5   6   2   16.49    1.59
  -5   6   3  204.51    8.22
  -5   6   3  208.16    7.27
  -5   6   4   21.68    2.55
  -5   6   4   24.63    2.25
  -5   6   5    2.94    1.50
  -5   6   5    1.88    1.29
  -5   6   6   55.88    3.78
  -5   6   7    3.28    1.74
  -5   6   7    5.58    2.08
  -5   7  -8   -0.34    1.67
  -5   7  -7   -0.33    1.62
  -5   7  -6    2.19    1.57
  -5   7  -5    0.89    1.42
  -5   7  -4    5.11    1.71
  -5   7  -3    0.43    0.88
  -5   7  -2   36.17    2.48
  -5   7  -1   -0.18    0.98
  -5   7   0   13.44    1.87
  -5   7   1   12.00    1.93
  -5   7   2   40.25    3.20
  -5   7   3    6.72    1.38
  -5   7   3    2.67    1.47
  -5   7   4   75.80    4.81
  -5   7   4   71.02    4.01
  -5   7   5    0.46    1.21
  -5   7   5    0.32    1.41
  -5   7   6    2.83    1.67
  -5   8  -7    7.23    2.21
  -5   8  -6    8.92    2.13
  -5   8  -5    1.91    1.68
  -5   8  -2    1.69    1.14
  -5   8  -1   21.12    2.30
  -5   8   0    0.91    1.25
  -5   8   1    1.98    1.36
  -5   8   2    5.67    1.69
  -5   8   3    0.29    1.43
  -5   8   4    8.58    2.23
  -5   8   5    3.79    1.99
  -5   9  -2   21.54    2.36
  -5   9  -1    6.79    1.72
  -5   9   0    3.30    1.57
  -5   9   1    4.97    1.81
  -5   9   2   -0.30    1.60
  -5   9   3   12.85    2.48
  -5  10  -1    2.35    1.64
  -4 -10   0   32.52    3.06
  -4 -10   1   14.94    2.36
  -4 -10   2   84.85    4.90
  -4 -10   3    6.87    1.57
  -4 -10   3    6.46    2.00
  -4 -10   4   28.44    2.55
  -4  -9  -3    4.18    1.72
  -4  -9  -2   26.67    2.73
  -4  -9  -1    1.63    1.52
  -4  -9   0   54.11    3.69
  -4  -9   1    1.19    1.03
  -4  -9   1    3.49    1.55
  -4  -9   2   -1.17    1.31
  -4  -9   2    0.16    1.00
  -4  -9   3    5.89    1.71
  -4  -9   3    5.43    1.43
  -4  -9   4   17.09    1.96
  -4  -9   5    8.04    1.84
  -4  -9   5    6.03    1.55
  -4  -9   6    3.21    1.43
  -4  -9   6    4.69    1.74
  -4  -9   7    1.01    1.44
  -4  -9   7    0.69    1.32
  -4  -8  -5   26.26    2.70
  -4  -8  -4   75.15    4.37
  -4  -8  -3    5.13    1.67
  -4  -8  -2   62.63    3.91
  -4  -8  -1    8.25    1.76
  -4  -8   0    6.86    1.55
  -4  -8   0    5.91    1.25
  -4  -8   1   15.00    1.64
  -4  -8   1   18.55    2.13
  -4  -8   2   16.63    1.76
  -4  -8   2   13.83    1.94
  -4  -8   3    6.60    1.39
  -4  -8   4   40.13    3.02
  -4  -8   4   36.43    2.64
  -4  -8   5   25.72    2.54
  -4  -8   5   25.95    2.34
  -4  -8   6    6.68    1.66
  -4  -8   6    5.60    1.55
  -4  -8   7    2.34    1.40
  -4  -8   7   -1.37    1.45
  -4  -8   8   80.84    4.60
  -4  -7  -5   19.76    2.44
  -4  -7  -4   -0.22    1.39
  -4  -7  -3   30.20    2.69
  -4  -7  -2   94.84    4.74
  -4  -7  -2   89.73    3.67
  -4  -7  -1   85.55    4.51
  -4  -7  -1   88.27    3.69
  -4  -7   0   51.53    2.72
  -4  -7   0   50.44    3.31
  -4  -7   1   69.64    3.89
  -4  -7   1   74.12    3.47
  -4  -7   2   36.00    2.40
  -4  -7   3   88.75    4.13
  -4  -7   3   95.46    4.57
  -4  -7   4    0.66    0.98
  -4  -7   4    5.81    1.40
  -4  -7   5    7.21    1.40
  -4  -7   5    3.32    1.22
  -4  -7   6   41.57    2.98
  -4  -7   6   44.43    2.97
  -4  -7   7   20.97    2.22
  -4  -7   8   25.15    2.41
  -4  -7   8   21.71    2.27
  -4  -7   9    2.02    1.44
  -4  -7   9    0.22    1.33
  -4  -6  -3   78.85    3.31
  -4  -6  -3   78.54    4.35
  -4  -6  -2  175.10    6.86
  -4  -6  -2  163.19    5.70
  -4  -6  -1    6.73    1.51
  -4  -6  -1    8.14    1.22
  -4  -6   0  671.00   19.82
  -4  -6   0  710.92   19.06
  -4  -6   1   32.98    2.13
  -4  -6   1   26.56    2.35
  -4  -6   2  170.48    6.10
  -4  -6   3  144.86    5.57
  -4  -6   3  151.85    5.96
  -4  -6   4  140.46    5.67
  -4  -6   4  138.90    5.48
  -4  -6   5  213.67    7.62
  -4  -6   5  209.82    7.48
  -4  -6   6    0.89    0.97
  -4  -6   7   45.45    2.94
  -4  -6   7   38.14    2.84
  -4  -6   8   31.93    2.54
  -4  -6   8   36.95    2.74
  -4  -6   9   18.27    2.13
  -4  -6   9   15.22    1.97
  -4  -6  10   15.78    2.22
  -4  -5  -4    8.69    1.16
  -4  -5  -3   -0.23    0.72
  -4  -5  -2    1.40    0.78
  -4  -5  -1   57.71    2.87
  -4  -5   0   10.44    1.25
  -4  -5   0    8.25    1.39
  -4  -5   1   46.83    2.56
  -4  -5   1   43.36    2.27
  -4  -5   1   39.47    2.34
  -4  -5   2  121.57    4.10
  -4  -5   2  118.08    4.63
  -4  -5   2  115.89    4.26
  -4  -5   3    0.14    0.71
  -4  -5   3   -0.15    0.74
  -4  -5   3    0.29    0.53
  -4  -5   4  191.34    6.89
  -4  -5   4  203.65    6.94
  -4  -5   5  227.59    7.76
  -4  -5   6  161.51    5.88
  -4  -5   6  141.69    5.77
  -4  -5   7  113.85    4.81
  -4  -5   7  116.58    5.00
  -4  -5   8   18.15    1.89
  -4  -5   8   18.64    2.00
  -4  -5   9   71.45    3.81
  -4  -5   9   76.67    4.07
  -4  -5  10    8.38    1.75
  -4  -4  -1  105.74    4.41
  -4  -4  -1   98.96    4.09
  -4  -4   0   49.02    2.66
  -4  -4   0   46.94    2.63
  -4  -4   0   56.96    2.76
  -4  -4   1   13.41    1.51
  -4  -4   1   11.50    1.29
  -4  -4   1   11.39    1.24
  -4  -4   1   10.52    1.24
  -4  -4   2   16.01    1.48
  -4  -4   2   12.62    1.40
  -4  -4   2   12.44    1.21
  -4  -4   3   28.53    1.58
  -4  -4   3   32.59    2.11
  -4  -4   3   25.81    1.26
  -4  -4   3   29.28    2.03
  -4  -4   4    0.19    0.21
  -4  -4   4    0.53    0.68
  -4  -4   5  225.52    7.37
  -4  -4   5  218.80    7.47
  -4  -4   6    1.19    0.88
  -4  -4   6    0.15    0.82
  -4  -4   7  319.58   10.04
  -4  -4   7  307.52    9.66
  -4  -4   8   21.64    2.03
  -4  -4   8   26.79    2.04
  -4  -4   9   49.77    3.15
  -4  -4   9   46.03    2.82
  -4  -4  10   81.51    4.20
  -4  -4  11   71.34    4.05
  -4  -3  -1    3.87    1.03
  -4  -3  -1    3.96    1.09
  -4  -3   0  125.48    4.68
  -4  -3   0  105.52    4.37
  -4  -3   1  155.72    5.58
  -4  -3   1  156.37    5.43
  -4  -3   2  242.42    7.73
  -4  -3   2  241.87    7.79
  -4  -3   2  236.44    7.35
  -4  -3   3   13.43    0.63
  -4  -3   3   14.74    1.16
  -4  -3   3   12.56    1.28
  -4  -3   3   15.37    0.64
  -4  -3   4   78.55    3.33
  -4  -3   4   73.90    3.46
  -4  -3   5  150.42    5.31
  -4  -3   5  158.42    5.62
  -4  -3   6  312.75    9.84
  -4  -3   6  322.84    9.52
  -4  -3   7   11.49    1.32
  -4  -3   7   16.06    1.59
  -4  -3   8   42.65    2.38
  -4  -3   8   40.39    2.62
  -4  -3   9    4.68    1.28
  -4  -3  10    2.57    1.29
  -4  -3  11    2.39    1.40
  -4  -2 -10   30.04    3.81
  -4  -2  -1   84.35    3.75
  -4  -2  -1   88.81    4.00
  -4  -2   0  145.29    5.25
  -4  -2   1  200.13    6.58
  -4  -2   2  240.39    6.67
  -4  -2   2  260.21    7.62
  -4  -2   3  831.40   22.09
  -4  -2   3  809.95   21.75
  -4  -2   4   63.79    3.02
  -4  -2   4   64.25    3.39
  -4  -2   4   58.51    2.66
  -4  -2   5  175.70    6.06
  -4  -2   5  177.42    6.75
  -4  -2   5  170.70    5.56
  -4  -2   6  208.55    6.66
  -4  -2   6  219.18    8.09
  -4  -2   6  231.81    7.28
  -4  -2   7  154.84    6.47
  -4  -2   7  149.58    4.98
  -4  -2   7  142.63    5.43
  -4  -2   8    7.18    1.05
  -4  -2   8    7.78    1.24
  -4  -2   8   10.54    1.80
  -4  -2   9   -0.29    0.95
  -4  -2   9   -0.52    1.28
  -4  -2  10    2.01    1.04
  -4  -2  10    2.22    1.50
  -4  -2  11    5.89    1.93
  -4  -1 -10    0.74    1.78
  -4  -1  -9    3.71    1.83
  -4  -1  -8   40.03    3.50
  -4  -1  -2  232.60    7.96
  -4  -1  -2  225.21    7.64
  -4  -1  -1  267.54    8.49
  -4  -1  -1  262.04    8.08
  -4  -1   0  128.96    4.78
  -4  -1   0  118.46    4.16
  -4  -1   1  469.80   12.72
  -4  -1   1  489.43   13.53
  -4  -1   2   76.98    3.23
  -4  -1   2   74.04    3.40
  -4  -1   2   71.64    2.38
  -4  -1   3  198.50    6.08
  -4  -1   3  184.93    6.36
  -4  -1   4   60.22    2.44
  -4  -1   4   57.19    3.19
  -4  -1   4   54.25    2.77
  -4  -1   5  255.65    7.49
  -4  -1   5  273.44    8.87
  -4  -1   5  264.86    9.06
  -4  -1   5  264.03    8.21
  -4  -1   6    3.29    0.66
  -4  -1   6    3.97    0.86
  -4  -1   6    3.82    1.19
  -4  -1   6    5.62    1.35
  -4  -1   7    8.16    1.16
  -4  -1   7    9.71    1.62
  -4  -1   7    9.66    0.93
  -4  -1   7    7.93    1.57
  -4  -1   8   12.26    1.40
  -4  -1   8   15.74    2.04
  -4  -1   8   10.30    1.88
  -4  -1   9   35.53    3.13
  -4  -1   9   30.13    2.13
  -4  -1   9   28.11    2.95
  -4  -1  10   -0.28    1.51
  -4  -1  10    0.64    1.67
  -4  -1  11    6.95    2.10
  -4  -1  11    6.72    2.27
  -4   0 -10    3.22    1.91
  -4   0  -9    1.61    1.64
  -4   0  -8    4.33    1.70
  -4   0  -7    5.69    1.56
  -4   0  -5    2.01    1.03
  -4   0  -4    6.45    1.25
  -4   0  -3  448.82   13.29
  -4   0  -2   42.61    2.43
  -4   0  -1  677.01   18.85
  -4   0  -1  727.98   19.42
  -4   0   0   71.49    3.00
  -4   0   0   74.40    3.42
  -4   0   0   77.76    3.05
  -4   0   1  180.62    5.98
  -4   0   1  172.85    5.42
  -4   0   1  187.98    6.16
  -4   0   2    0.26    0.35
  -4   0   2    0.76    0.63
  -4   0   3    2.74    0.78
  -4   0   3    2.98    0.73
  -4   0   4   21.41    1.18
  -4   0   4   17.75    1.47
  -4   0   4   20.11    1.68
  -4   0   5    2.52    0.89
  -4   0   5    2.38    0.97
  -4   0   5    3.07    0.75
  -4   0   5    2.69    0.47
  -4   0   6    1.07    0.65
  -4   0   6    1.63    1.04
  -4   0   6    1.86    1.08
  -4   0   6    1.68    0.44
  -4   0   7   58.71    3.66
  -4   0   7   59.63    2.79
  -4   0   7   59.72    3.77
  -4   0   8   16.61    1.45
  -4   0   8   11.86    1.99
  -4   0   8   16.85    2.12
  -4   0   9   60.79    4.18
  -4   0   9   61.74    4.24
  -4   0   9   51.99    2.71
  -4   0  10   73.45    4.67
  -4   0  10   64.76    4.65
  -4   0  11    4.25    1.99
  -4   0  11    6.51    1.99
  -4   1 -10   17.92    2.90
  -4   1  -9    4.51    1.81
  -4   1  -8   58.54    4.13
  -4   1  -7    6.44    1.74
  -4   1  -6  134.73    6.22
  -4   1  -6  152.23    5.30
  -4   1  -5  116.59    4.20
  -4   1  -4   18.38    1.85
  -4   1  -3  583.87   16.73
  -4   1  -2   88.09    3.99
  -4   1  -2   87.73    2.90
  -4   1  -2   77.48    3.66
  -4   1  -1   13.59    1.06
  -4   1  -1   14.51    1.34
  -4   1   0 1069.67   28.60
  -4   1   0 1130.74   28.78
  -4   1   0 1124.04   29.30
  -4   1   1   61.03    2.57
  -4   1   1   61.48    2.83
  -4   1   1   62.71    3.10
  -4   1   2   28.85    1.57
  -4   1   2   26.01    1.86
  -4   1   3   60.31    3.12
  -4   1   3   60.06    2.71
  -4   1   4   25.41    1.82
  -4   1   4   23.82    1.10
  -4   1   5    4.21    0.39
  -4   1   5    5.98    0.92
  -4   1   5    4.53    1.13
  -4   1   5    4.80    1.09
  -4   1   6   38.90    2.06
  -4   1   6   34.99    2.59
  -4   1   6   36.41    2.82
  -4   1   7   -0.23    1.06
  -4   1   7    1.50    1.16
  -4   1   7    1.13    0.67
  -4   1   8    4.36    1.51
  -4   1   8    5.20    1.56
  -4   1   8    3.25    0.82
  -4   1   9    6.14    1.72
  -4   1   9    4.23    1.65
  -4   1  10   19.58    2.74
  -4   1  10   22.26    2.87
  -4   1  11    2.13    1.81
  -4   1  11    1.93    1.77
  -4   2 -10   27.47    3.41
  -4   2  -9    7.69    2.02
  -4   2  -8   13.91    2.17
  -4   2  -7   49.04    3.66
  -4   2  -6   18.00    2.15
  -4   2  -5   77.78    2.98
  -4   2  -4   38.30    1.68
  -4   2  -3  109.46    3.22
  -4   2  -3  113.56    4.84
  -4   2  -2   72.48    2.59
  -4   2  -2   68.72    3.46
  -4   2  -2   75.82    3.63
  -4   2  -2   72.31    3.19
  -4   2  -1   41.01    2.44
  -4   2  -1   46.49    2.28
  -4   2  -1   45.74    2.08
  -4   2  -1   45.26    2.66
  -4   2   0  141.39    4.68
  -4   2   0  144.83    5.09
  -4   2   0  136.72    4.79
  -4   2   1  775.44   19.81
  -4   2   1  754.71   19.43
  -4   2   1  767.91   20.47
  -4   2   1  735.06   20.23
  -4   2   2  534.17   15.35
  -4   2   2  543.87   14.19
  -4   2   2  539.95   14.48
  -4   2   3   10.69    1.07
  -4   2   3    9.45    0.69
  -4   2   3    7.16    1.15
  -4   2   4    9.29    1.17
  -4   2   4    7.75    0.46
  -4   2   4    8.28    0.46
  -4   2   5  173.34    5.55
  -4   2   5  164.41    6.71
  -4   2   5  168.49    6.31
  -4   2   6   44.49    2.97
  -4   2   6   43.76    2.13
  -4   2   6   39.78    3.05
  -4   2   7   66.63    2.73
  -4   2   7   70.00    4.19
  -4   2   7   73.54    4.10
  -4   2   8    3.22    1.51
  -4   2   8    2.77    1.32
  -4   2   9    2.63    1.64
  -4   2   9    5.14    1.74
  -4   2  10    4.73    2.03
  -4   2  10    6.12    1.94
  -4   3 -10    1.39    1.81
  -4   3  -9   -0.64    1.53
  -4   3  -8   11.91    2.15
  -4   3  -7    0.79    1.20
  -4   3  -6   19.60    2.27
  -4   3  -5   22.35    2.24
  -4   3  -5   20.34    1.28
  -4   3  -4   19.02    1.03
  -4   3  -3   83.63    2.40
  -4   3  -3   85.45    2.80
  -4   3  -3   80.48    4.07
  -4   3  -2    0.36    0.43
  -4   3  -2    0.49    0.80
  -4   3  -1    8.65    0.94
  -4   3  -1    6.12    0.92
  -4   3  -1    7.25    1.14
  -4   3   0  389.82   10.69
  -4   3   0  386.06   11.05
  -4   3   0  378.49    9.94
  -4   3   0  384.16   11.43
  -4   3   1  121.35    3.93
  -4   3   1  114.90    4.54
  -4   3   1  117.18    3.77
  -4   3   2   10.10    1.30
  -4   3   2    7.79    0.74
  -4   3   2    8.58    0.92
  -4   3   3    1.67    0.77
  -4   3   3    0.94    0.33
  -4   3   3    1.10    0.69
  -4   3   4  146.74    5.48
  -4   3   5   16.71    1.30
  -4   3   5   18.69    1.80
  -4   3   5   14.89    1.94
  -4   3   6   23.80    2.45
  -4   3   6   26.83    1.51
  -4   3   6   27.10    2.36
  -4   3   7   62.73    4.09
  -4   3   7   60.93    3.84
  -4   3   8   10.40    1.95
  -4   3   8   12.22    2.15
  -4   3   9   -0.31    1.60
  -4   3   9    2.94    1.79
  -4   3  10    6.94    2.14
  -4   3  10    5.98    2.03
  -4   4 -10    7.20    2.20
  -4   4  -9   67.98    4.70
  -4   4  -8   97.12    5.52
  -4   4  -7    1.07    1.21
  -4   4  -6   18.44    2.26
  -4   4  -5  120.54    5.64
  -4   4  -4   77.05    2.59
  -4   4  -4   76.00    2.60
  -4   4  -3  201.73    6.07
  -4   4  -3  206.18    5.59
  -4   4  -2   21.41    0.96
  -4   4  -2   21.30    1.40
  -4   4  -2   20.28    0.92
  -4   4  -2   19.77    1.92
  -4   4  -1   65.86    2.88
  -4   4  -1   65.99    3.42
  -4   4  -1   63.20    2.15
  -4   4   0  225.95    6.80
  -4   4   0  226.33    7.31
  -4   4   0  223.84    6.40
  -4   4   1    3.11    0.81
  -4   4   1    3.16    0.65
  -4   4   1    4.22    0.69
  -4   4   2   18.83    1.77
  -4   4   2   17.86    1.10
  -4   4   2   21.04    1.51
  -4   4   3   58.84    3.42
  -4   4   3   63.57    2.14
  -4   4   3   62.86    3.03
  -4   4   4    1.02    0.96
  -4   4   4    0.91    0.85
  -4   4   5    0.37    0.57
  -4   4   5    0.53    0.92
  -4   4   6   61.49    3.97
  -4   4   6   55.86    3.51
  -4   4   7    0.56    1.34
  -4   4   7   -0.24    1.21
  -4   4   8   58.74    4.26
  -4   4   8   52.20    3.89
  -4   4   9   10.13    2.16
  -4   4   9    8.22    2.12
  -4   5 -10    0.35    1.67
  -4   5  -9   11.68    2.46
  -4   5  -8   59.17    4.37
  -4   5  -7   58.14    4.13
  -4   5  -6  180.64    7.72
  -4   5  -5   62.42    4.01
  -4   5  -4   92.56    3.31
  -4   5  -4   96.77    4.84
  -4   5  -3   92.17    3.53
  -4   5  -3   94.23    3.14
  -4   5  -2    0.19    0.83
  -4   5  -2   -0.43    0.67
  -4   5  -1  331.18   10.83
  -4   5  -1  311.94    9.95
  -4   5  -1  343.68    9.28
  -4   5   0   55.73    2.94
  -4   5   0   51.94    2.35
  -4   5   1    8.96    1.08
  -4   5   1   10.19    1.43
  -4   5   1   10.43    1.00
  -4   5   1   11.16    1.14
  -4   5   2   76.52    2.81
  -4   5   2   76.71    3.95
  -4   5   2   76.82    3.41
  -4   5   2   77.75    3.06
  -4   5   3   36.93    2.78
  -4   5   3   35.20    2.32
  -4   5   4    9.19    1.61
  -4   5   4   10.48    1.48
  -4   5   5    3.54    1.21
  -4   5   6   15.02    2.01
  -4   5   6   14.20    2.17
  -4   5   7   68.52    4.34
  -4   5   7   70.43    4.67
  -4   5   8   -0.58    1.57
  -4   5   8    2.29    1.74
  -4   5   9    3.52    1.90
  -4   5   9    2.90    1.95
  -4   6  -9    2.70    1.92
  -4   6  -8    8.17    2.10
  -4   6  -7   20.86    2.62
  -4   6  -6   54.84    3.90
  -4   6  -5   84.21    4.79
  -4   6  -4  346.29   10.16
  -4   6  -4  373.29   12.17
  -4   6  -3    0.11    0.73
  -4   6  -2  325.54    9.95
  -4   6  -1  176.05    6.45
  -4   6  -1  185.06    5.94
  -4   6   0   22.13    1.98
  -4   6   0   23.96    1.68
  -4   6   1  124.04    4.74
  -4   6   1  128.36    5.46
  -4   6   2   55.11    3.44
  -4   6   2   56.91    3.02
  -4   6   3   26.66    2.17
  -4   6   3   28.09    2.55
  -4   6   4  103.27    5.30
  -4   6   4  100.35    4.75
  -4   6   5    0.43    1.28
  -4   6   6   17.81    2.58
  -4   6   6   21.32    2.45
  -4   6   7   73.87    4.98
  -4   6   7   67.03    4.45
  -4   6   8   11.20    2.47
  -4   6   8   15.60    2.67
  -4   7  -9    0.67    1.68
  -4   7  -8   10.38    2.32
  -4   7  -7    5.98    1.92
  -4   7  -6   19.07    2.54
  -4   7  -5   -0.27    1.23
  -4   7  -4   12.99    1.40
  -4   7  -4   13.72    2.03
  -4   7  -3    0.70    0.79
  -4   7  -2   17.83    1.76
  -4   7  -1   80.29    3.58
  -4   7  -1   79.24    3.96
  -4   7   0  160.29    6.52
  -4   7   0  168.62    5.98
  -4   7   1  233.40    8.56
  -4   7   1  227.43    7.79
  -4   7   2   73.50    3.78
  -4   7   2   79.42    4.42
  -4   7   3  144.76    6.00
  -4   7   3  142.83    6.55
  -4   7   4   49.88    3.50
  -4   7   4   66.38    4.30
  -4   7   5   30.96    2.83
  -4   7   6   66.78    4.77
  -4   7   6   69.71    4.45
  -4   7   7   -0.35    1.76
  -4   7   7    0.59    1.59
  -4   8  -8   25.75    3.14
  -4   8  -7    2.84    1.78
  -4   8  -6   69.73    4.74
  -4   8  -3   39.71    2.67
  -4   8  -2   51.63    3.22
  -4   8  -1   55.19    3.45
  -4   8   0    2.83    1.27
  -4   8   0    1.47    1.02
  -4   8   1    2.14    1.09
  -4   8   1    4.04    1.37
  -4   8   2    5.63    1.42
  -4   8   2    4.92    1.53
  -4   8   3   67.19    4.49
  -4   8   3   72.85    4.14
  -4   8   4    0.97    1.42
  -4   8   4   -0.91    1.59
  -4   8   5   19.56    2.95
  -4   8   5   26.70    2.87
  -4   8   6   15.62    2.52
  -4   9  -3   37.01    2.79
  -4   9  -2   84.82    4.49
  -4   9  -1   16.85    2.21
  -4   9   0   11.30    1.92
  -4   9   1    2.40    1.48
  -4   9   2    8.07    1.91
  -4   9   3    0.31    1.52
  -4   9   4    2.67    1.66
  -4   9   4    2.99    1.82
  -4  10  -2   10.72    1.95
  -4  10  -1    1.28    1.37
  -4  10   0    1.10    1.56
  -4  10   1    7.41    2.01
  -3 -10  -2    0.89    1.47
  -3 -10  -1    2.50    1.55
  -3 -10   0   -0.69    1.43
  -3 -10   1   14.48    2.20
  -3 -10   2    7.65    1.76
  -3 -10   2    8.91    1.50
  -3 -10   3    1.71    1.52
  -3 -10   3    0.35    1.18
  -3 -10   4    0.19    1.26
  -3 -10   4   -0.75    1.51
  -3 -10   5    1.25    1.37
  -3  -9  -3    6.80    1.78
  -3  -9  -2   84.72    4.46
  -3  -9  -1   32.41    2.76
  -3  -9   0    3.37    1.39
  -3  -9   1   18.11    1.73
  -3  -9   1   17.76    2.15
  -3  -9   2   33.86    2.76
  -3  -9   2   23.78    2.00
  -3  -9   3   11.26    1.89
  -3  -9   3   18.19    1.86
  -3  -9   4    0.70    1.06
  -3  -9   5    8.96    1.65
  -3  -9   5    8.52    1.81
  -3  -9   6    0.21    1.16
  -3  -9   6    0.24    1.30
  -3  -9   7    6.01    1.63
  -3  -9   7   11.43    2.03
  -3  -8  -4    6.42    1.61
  -3  -8  -3   16.28    2.03
  -3  -8  -2  119.68    5.34
  -3  -8  -1    1.35    1.31
  -3  -8   0   18.32    1.58
  -3  -8   0   23.43    2.21
  -3  -8   1   74.08    3.97
  -3  -8   1   70.21    3.29
  -3  -8   2   20.10    2.12
  -3  -8   2   21.86    1.83
  -3  -8   3    1.38    1.20
  -3  -8   3    3.00    1.09
  -3  -8   4   10.91    1.51
  -3  -8   5   -0.21    1.22
  -3  -8   5    1.75    1.03
  -3  -8   6   44.99    3.21
  -3  -8   6   42.77    2.99
  -3  -8   7    3.11    1.43
  -3  -8   7    6.74    1.54
  -3  -8   8   24.43    2.60
  -3  -8   9    5.97    1.84
  -3  -8   9    8.76    1.90
  -3  -7  -5   62.54    3.71
  -3  -7  -4   47.63    3.16
  -3  -7  -3  128.57    5.49
  -3  -7  -2   80.13    4.06
  -3  -7  -2   74.33    2.99
  -3  -7  -1  259.12    7.79
  -3  -7  -1  254.46    8.81
  -3  -7   0  713.12   20.10
  -3  -7   0  703.60   19.05
  -3  -7   1   71.91    3.73
  -3  -7   1   64.75    3.08
  -3  -7   2  438.19   13.28
  -3  -7   2  424.47   12.50
  -3  -7   3  323.70   10.02
  -3  -7   4  110.76    5.00
  -3  -7   4  116.42    4.76
  -3  -7   5  219.82    7.62
  -3  -7   5  212.02    7.82
  -3  -7   6   14.75    1.81
  -3  -7   6   14.80    1.73
  -3  -7   7   12.46    1.73
  -3  -7   8   18.67    2.18
  -3  -7   8   17.20    2.14
  -3  -7   9    2.23    1.47
  -3  -7   9    6.12    1.66
  -3  -7  10   16.00    2.31
  -3  -7  10   23.01    2.54
  -3  -6  -6    5.02    1.52
  -3  -6  -5   11.94    1.81
  -3  -6  -4   31.49    2.55
  -3  -6  -3   21.52    1.36
  -3  -6  -3   19.08    2.07
  -3  -6  -2  401.21   12.15
  -3  -6  -2  382.25   10.81
  -3  -6  -1    2.76    0.77
  -3  -6  -1    1.30    0.95
  -3  -6   0   15.76    1.70
  -3  -6   0   16.44    1.38
  -3  -6   1   61.10    2.85
  -3  -6   1   73.48    3.53
  -3  -6   1   65.41    2.99
  -3  -6   2  319.12    9.63
  -3  -6   3    0.31    0.78
  -3  -6   3    0.64    0.74
  -3  -6   3   -0.38    0.74
  -3  -6   4   99.38    4.18
  -3  -6   4   96.89    4.35
  -3  -6   5  136.21    5.52
  -3  -6   5  141.95    5.43
  -3  -6   6    2.82    1.08
  -3  -6   7   76.48    3.88
  -3  -6   7   72.95    3.78
  -3  -6   8   31.61    2.54
  -3  -6   8   34.36    2.62
  -3  -6   9   47.53    3.22
  -3  -6   9   47.79    3.23
  -3  -6  10    9.86    1.87
  -3  -6  10    7.57    1.77
  -3  -5  -4   22.62    1.39
  -3  -5  -3   67.71    2.74
  -3  -5  -2   44.57    2.14
  -3  -5  -1  405.85   11.40
  -3  -5  -1  405.24   12.30
  -3  -5   0  319.47    9.90
  -3  -5   0  304.72    9.29
  -3  -5   0  320.01    9.25
  -3  -5   1  156.00    5.26
  -3  -5   1  150.83    5.07
  -3  -5   2   25.79    1.71
  -3  -5   2   22.94    1.42
  -3  -5   3  631.41   16.27
  -3  -5   3  627.11   16.77
  -3  -5   3  619.90   17.54
  -3  -5   3  639.32   17.35
  -3  -5   4  252.47    7.82
  -3  -5   4  242.57    7.08
  -3  -5   5   22.65    1.84
  -3  -5   6  673.38   19.08
  -3  -5   6  702.67   19.17
  -3  -5   7  124.05    4.98
  -3  -5   7  116.86    4.93
  -3  -5   8  102.79    4.62
  -3  -5   8  110.88    4.77
  -3  -5   9  137.89    5.75
  -3  -5   9  138.11    5.71
  -3  -5  10   32.44    2.62
  -3  -5  10   31.39    2.64
  -3  -5  11   55.03    3.62
  -3  -4  -2  142.25    4.79
  -3  -4  -1    2.32    0.65
  -3  -4  -1    2.58    0.81
  -3  -4   0  178.41    5.79
  -3  -4   0  181.11    5.82
  -3  -4   0  174.23    6.27
  -3  -4   1  154.30    5.23
  -3  -4   1  152.69    5.01
  -3  -4   1  155.32    4.91
  -3  -4   2   -0.06    0.46
  -3  -4   2   -0.11    0.49
  -3  -4   2    0.12    0.52
  -3  -4   2    0.07    0.49
  -3  -4   3   93.29    3.00
  -3  -4   3   89.02    3.67
  -3  -4   3   83.23    2.79
  -3  -4   3   86.83    3.56
  -3  -4   4   63.29    2.91
  -3  -4   4   58.01    2.14
  -3  -4   5   57.04    2.80
  -3  -4   5   53.07    2.77
  -3  -4   6   21.63    1.76
  -3  -4   6   19.72    1.63
  -3  -4   7  189.11    6.63
  -3  -4   7  186.34    6.44
  -3  -4   8   24.65    1.94
  -3  -4   8   21.59    1.94
  -3  -4   9   87.03    4.12
  -3  -4   9   83.64    4.00
  -3  -4  10    2.36    1.30
  -3  -4  11   38.03    2.94
  -3  -3  -2    4.82    0.98
  -3  -3  -1   73.44    3.15
  -3  -3  -1   76.57    3.33
  -3  -3   0  151.10    5.07
  -3  -3   0  152.96    5.13
  -3  -3   0  154.61    5.16
  -3  -3   1  474.41   12.87
  -3  -3   1  472.25   13.34
  -3  -3   1  468.59   13.09
  -3  -3   2  161.76    5.43
  -3  -3   2  158.13    4.97
  -3  -3   2  164.95    5.41
  -3  -3   3    0.27    0.26
  -3  -3   3    0.19    0.37
  -3  -3   3    0.49    0.51
  -3  -3   4   36.55    2.07
  -3  -3   4   38.16    2.02
  -3  -3   5    0.90    0.63
  -3  -3   5    0.10    0.54
  -3  -3   6   17.08    1.50
  -3  -3   6   19.29    1.48
  -3  -3   7  198.60    6.47
  -3  -3   7  196.74    6.69
  -3  -3   8   29.57    2.14
  -3  -3   8   32.56    2.08
  -3  -3   9   -0.54    0.88
  -3  -3   9    1.66    1.00
  -3  -3  10   28.47    2.29
  -3  -3  11   10.52    1.64
  -3  -2  -6   51.68    2.29
  -3  -2  -5   35.54    1.85
  -3  -2  -2  235.83    7.61
  -3  -2  -2  227.35    7.32
  -3  -2  -1  217.74    6.84
  -3  -2  -1  219.44    7.06
  -3  -2   0  291.51    8.51
  -3  -2   1  519.75   14.04
  -3  -2   2  193.72    5.82
  -3  -2   2  195.29    6.12
  -3  -2   3  448.62   12.23
  -3  -2   3  443.53   12.46
  -3  -2   4   38.78    1.86
  -3  -2   4   37.23    2.36
  -3  -2   4   34.41    1.96
  -3  -2   5   49.45    2.47
  -3  -2   5   53.32    3.00
  -3  -2   5   52.81    2.28
  -3  -2   6  109.88    3.82
  -3  -2   6  104.26    4.10
  -3  -2   6  108.68    4.81
  -3  -2   7    4.08    0.88
  -3  -2   7    5.18    0.84
  -3  -2   7    2.11    1.03
  -3  -2   8   22.47    2.26
  -3  -2   8   20.36    1.54
  -3  -2   8   19.53    1.66
  -3  -2   9    1.14    1.18
  -3  -2   9    1.22    0.89
  -3  -2  10    3.19    1.50
  -3  -2  10    1.92    1.03
  -3  -2  10    2.16    1.65
  -3  -2  11   15.94    2.29
  -3  -2  11   11.66    2.44
  -3  -1 -11   16.83    2.99
  -3  -1 -10    5.94    2.13
  -3  -1  -6  169.32    5.42
  -3  -1  -5   -0.08    0.58
  -3  -1  -3   38.70    2.48
  -3  -1  -2  131.38    4.87
  -3  -1  -2  148.61    5.29
  -3  -1  -1  208.65    6.62
  -3  -1   0   79.36    3.18
  -3  -1   1  430.68   11.60
  -3  -1   1  401.08   10.80
  -3  -1   1  420.98   11.46
  -3  -1   2 1287.74   31.78
  -3  -1   2 1233.74   30.80
  -3  -1   3   69.64    2.88
  -3  -1   3   71.43    2.62
  -3  -1   4  633.84   17.94
  -3  -1   4  648.15   16.74
  -3  -1   4  630.89   17.79
  -3  -1   4  652.50   17.29
  -3  -1   5  200.18    6.27
  -3  -1   5  200.52    5.79
  -3  -1   5  192.71    6.94
  -3  -1   5  200.32    7.06
  -3  -1   6    0.77    0.58
  -3  -1   6    0.54    0.80
  -3  -1   6    0.75    0.45
  -3  -1   6    2.08    0.94
  -3  -1   7   66.33    3.69
  -3  -1   7   60.14    2.51
  -3  -1   7   70.18    3.88
  -3  -1   7   65.25    2.92
  -3  -1   8   62.92    4.01
  -3  -1   8   64.31    3.87
  -3  -1   8   69.46    3.07
  -3  -1   8   67.56    2.76
  -3  -1   9   34.85    2.18
  -3  -1   9   34.44    2.94
  -3  -1  10    0.92    0.93
  -3  -1  10    1.26    1.50
  -3  -1  11    1.35    1.56
  -3   0 -11   12.05    2.61
  -3   0 -10    0.99    1.58
  -3   0  -9    0.89    1.38
  -3   0  -8  106.06    5.56
  -3   0  -7   33.51    2.92
  -3   0  -6    1.65    1.04
  -3   0  -5  165.28    5.65
  -3   0  -5  163.86    5.34
  -3   0  -4  259.19    7.76
  -3   0  -3  277.46    9.02
  -3   0  -3  308.31    9.06
  -3   0  -2   33.95    1.97
  -3   0  -1   99.90    3.66
  -3   0  -1  103.74    3.94
  -3   0   0  177.48    5.36
  -3   0   0  173.98    5.73
  -3   0   0  176.20    5.34
  -3   0   1  310.01    9.21
  -3   0   1  328.50    9.29
  -3   0   1  325.88    8.72
  -3   0   2  100.06    3.48
  -3   0   2   97.16    3.78
  -3   0   3   82.94    2.76
  -3   0   3   87.58    3.37
  -3   0   4 1088.05   27.66
  -3   0   4 1108.09   29.00
  -3   0   4 1112.95   28.42
  -3   0   4 1127.14   29.29
  -3   0   5   92.66    2.84
  -3   0   5   88.84    4.13
  -3   0   5   94.32    4.12
  -3   0   5   93.19    3.42
  -3   0   6  146.15    4.74
  -3   0   6  135.98    4.13
  -3   0   6  151.11    5.88
  -3   0   6  151.75    5.87
  -3   0   7   34.51    1.88
  -3   0   7   33.05    2.64
  -3   0   7   32.54    1.47
  -3   0   8   11.82    1.85
  -3   0   8   13.13    1.22
  -3   0   8   12.91    1.83
  -3   0   9   14.39    2.01
  -3   0   9   13.77    2.18
  -3   0   9   10.74    1.22
  -3   0  10   42.17    3.39
  -3   0  10   38.46    3.53
  -3   0  11   15.08    2.45
  -3   1 -11    3.99    1.99
  -3   1 -10   41.30    3.74
  -3   1  -9   11.94    2.12
  -3   1  -8   32.85    2.98
  -3   1  -7  268.35    9.72
  -3   1  -6  121.46    4.63
  -3   1  -6  134.99    5.71
  -3   1  -5   18.59    1.81
  -3   1  -5   17.31    1.34
  -3   1  -4   37.60    2.14
  -3   1  -4   38.82    2.37
  -3   1  -4   34.00    1.91
  -3   1  -4   35.30    1.74
  -3   1  -3    3.75    1.07
  -3   1  -3    3.32    0.81
  -3   1  -3    4.76    0.59
  -3   1  -3    3.62    0.96
  -3   1  -2  107.00    4.23
  -3   1  -2  118.12    4.42
  -3   1  -2  112.45    3.28
  -3   1  -2  118.09    4.15
  -3   1  -1  646.61   16.61
  -3   1  -1  635.23   17.30
  -3   1   0   38.78    1.80
  -3   1   0   40.64    2.15
  -3   1   0   35.25    1.82
  -3   1   1 1388.82   35.17
  -3   1   1 1363.47   34.45
  -3   1   1 1379.32   34.80
  -3   1   2   97.07    3.77
  -3   1   2   96.01    3.32
  -3   1   3  255.09    7.65
  -3   1   4  805.37   20.11
  -3   1   4  810.01   22.10
  -3   1   4  808.52   21.09
  -3   1   4  831.04   21.77
  -3   1   5   61.86    2.49
  -3   1   5   63.29    3.35
  -3   1   5   57.63    3.10
  -3   1   6    1.05    0.92
  -3   1   6    1.37    0.54
  -3   1   6    0.92    0.91
  -3   1   7    4.11    1.28
  -3   1   7    3.92    0.69
  -3   1   7    2.06    0.94
  -3   1   8   16.24    2.07
  -3   1   8   15.91    2.09
  -3   1   8   16.81    1.26
  -3   1   9    6.02    1.72
  -3   1   9    8.96    1.85
  -3   1  10   -0.82    1.49
  -3   1  10    0.92    1.47
  -3   1  11    7.02    2.07
  -3   1  11    6.54    2.15
  -3   2 -11    0.35    1.74
  -3   2 -10   29.59    3.26
  -3   2  -9   40.71    3.47
  -3   2  -8    0.52    1.16
  -3   2  -7  103.92    5.23
  -3   2  -6   11.09    1.21
  -3   2  -6   12.41    1.77
  -3   2  -5   79.61    4.14
  -3   2  -5   88.23    3.26
  -3   2  -4  161.71    5.97
  -3   2  -4  174.15    6.28
  -3   2  -4  163.91    4.98
  -3   2  -3   64.06    2.74
  -3   2  -3   65.68    3.18
  -3   2  -3   63.02    2.13
  -3   2  -2  133.43    4.76
  -3   2  -2  121.09    3.63
  -3   2  -2  125.68    4.67
  -3   2  -2  121.17    3.27
  -3   2  -2  123.59    4.27
  -3   2  -1 2151.96   54.62
  -3   2  -1 2198.68   55.45
  -3   2  -1 2188.37   54.91
  -3   2  -1 2241.99   55.55
  -3   2   0  226.28    7.01
  -3   2   0  238.39    6.80
  -3   2   0  223.49    5.99
  -3   2   0  233.11    6.60
  -3   2   1   52.45    1.99
  -3   2   1   53.34    2.46
  -3   2   1   52.57    1.97
  -3   2   2   50.00    2.52
  -3   2   2   52.18    1.77
  -3   2   2   49.06    2.16
  -3   2   3  103.04    3.82
  -3   2   3  100.58    2.74
  -3   2   4  176.20    6.27
  -3   2   4  187.94    5.63
  -3   2   4  194.68    6.74
  -3   2   5   37.34    1.72
  -3   2   5   39.99    2.67
  -3   2   5   35.79    2.40
  -3   2   6   61.46    3.60
  -3   2   6   60.43    2.32
  -3   2   6   62.73    3.50
  -3   2   7   23.33    1.31
  -3   2   7   28.31    2.51
  -3   2   7   26.09    2.34
  -3   2   8    0.73    1.15
  -3   2   8    0.24    1.27
  -3   2   9    5.27    1.69
  -3   2   9    2.64    1.49
  -3   2  10    1.57    1.58
  -3   2  10    4.59    1.77
  -3   2  11    3.09    1.86
  -3   2  11    2.80    1.99
  -3   3 -11    1.04    1.74
  -3   3 -10    5.38    1.91
  -3   3  -9   -0.29    1.47
  -3   3  -8   -0.52    1.21
  -3   3  -7   81.22    4.53
  -3   3  -6    9.16    1.13
  -3   3  -6    8.25    1.48
  -3   3  -5  525.83   15.70
  -3   3  -5  523.57   14.16
  -3   3  -4    1.28    0.49
  -3   3  -4    2.19    0.29
  -3   3  -4    2.03    0.93
  -3   3  -4    2.69    0.94
  -3   3  -4    0.57    0.84
  -3   3  -3  293.28    7.89
  -3   3  -3  303.57    9.25
  -3   3  -3  293.67    7.93
  -3   3  -2  569.63   15.00
  -3   3  -2  577.25   15.51
  -3   3  -2  579.97   14.60
  -3   3  -2  556.58   15.45
  -3   3  -2  576.96   16.02
  -3   3  -1  169.06    5.21
  -3   3  -1  163.40    5.12
  -3   3  -1  178.51    5.87
  -3   3  -1  163.39    5.25
  -3   3  -1  159.44    4.56
  -3   3  -1  165.95    5.74
  -3   3   0 3383.26   83.64
  -3   3   0 3320.07   84.06
  -3   3   0 3447.61   84.49
  -3   3   0 3342.10   83.33
  -3   3   1  577.75   14.93
  -3   3   1  571.14   15.76
  -3   3   1  571.17   15.13
  -3   3   2  270.44    7.15
  -3   3   2  276.85    8.45
  -3   3   2  252.18    7.82
  -3   3   3   79.75    3.32
  -3   3   3   76.98    2.24
  -3   3   4  151.11    6.09
  -3   3   4  175.38    6.00
  -3   3   5  124.85    5.38
  -3   3   5  122.85    3.81
  -3   3   5  123.32    5.11
  -3   3   6    5.27    0.59
  -3   3   6    7.67    1.43
  -3   3   6    6.31    1.43
  -3   3   7  138.11    6.27
  -3   3   7  139.70    6.16
  -3   3   8   32.75    2.97
  -3   3   8   34.49    3.02
  -3   3   9   -1.73    1.58
  -3   3   9    0.28    1.40
  -3   3  10   16.18    2.51
  -3   3  10   17.67    2.72
  -3   4 -11    2.35    1.89
  -3   4 -10   -0.62    1.43
  -3   4  -9   44.19    3.68
  -3   4  -8   26.89    2.78
  -3   4  -7   23.38    2.46
  -3   4  -6   19.85    2.15
  -3   4  -6   18.90    1.50
  -3   4  -5   79.06    2.46
  -3   4  -5   71.15    2.35
  -3   4  -5   80.37    4.16
  -3   4  -5   78.38    3.04
  -3   4  -4   60.28    2.22
  -3   4  -4   61.46    2.46
  -3   4  -4   66.41    3.27
  -3   4  -4   63.97    3.40
  -3   4  -4   63.77    3.54
  -3   4  -3  193.95    5.70
  -3   4  -3  191.55    5.63
  -3   4  -3  190.16    6.62
  -3   4  -3  188.11    6.96
  -3   4  -2  179.03    5.59
  -3   4  -1  144.92    5.31
  -3   4  -1  132.82    4.51
  -3   4  -1  133.12    4.54
  -3   4  -1  136.96    4.66
  -3   4   0  178.02    5.56
  -3   4   0  179.22    5.60
  -3   4   0  180.04    6.00
  -3   4   0  186.65    5.54
  -3   4   1   47.38    1.94
  -3   4   1   49.06    2.58
  -3   4   1   44.63    2.04
  -3   4   1   47.05    2.23
  -3   4   2   44.52    2.61
  -3   4   2   39.59    1.67
  -3   4   2   45.04    1.92
  -3   4   2   44.79    2.29
  -3   4   3   13.71    1.37
  -3   4   3   14.20    0.80
  -3   4   3   11.91    1.51
  -3   4   4   40.64    2.58
  -3   4   5   38.52    1.48
  -3   4   5   40.61    2.91
  -3   4   5   42.86    2.81
  -3   4   6   44.01    3.25
  -3   4   6   46.70    3.18
  -3   4   7    0.24    1.07
  -3   4   7    0.25    1.22
  -3   4   8   40.08    3.47
  -3   4   8   42.89    3.50
  -3   4   9    1.82    1.77
  -3   4   9    1.21    1.50
  -3   4  10    2.70    1.78
  -3   4  10    0.65    1.72
  -3   5 -10   48.93    4.08
  -3   5  -9    1.46    1.56
  -3   5  -8    7.87    1.86
  -3   5  -7   60.92    3.99
  -3   5  -6    6.29    1.53
  -3   5  -5    8.34    1.10
  -3   5  -5    8.83    0.83
  -3   5  -5    6.00    1.36
  -3   5  -4   75.74    3.05
  -3   5  -4   90.22    4.37
  -3   5  -4   88.70    3.30
  -3   5  -4   90.01    4.08
  -3   5  -3   10.49    1.04
  -3   5  -3   10.63    1.50
  -3   5  -3   12.43    1.10
  -3   5  -2   24.49    1.64
  -3   5  -1   25.88    1.80
  -3   5   0   72.58    3.36
  -3   5   0   69.05    2.85
  -3   5   0   74.23    2.88
  -3   5   0   74.60    3.12
  -3   5   1   51.40    2.87
  -3   5   1   51.21    2.19
  -3   5   1   50.90    2.55
  -3   5   1   50.50    2.17
  -3   5   2  497.90   13.24
  -3   5   2  507.47   14.78
  -3   5   2  490.83   14.20
  -3   5   2  497.84   13.21
  -3   5   3   49.15    3.07
  -3   5   3   43.22    1.85
  -3   5   3   49.78    2.79
  -3   5   3   45.45    1.81
  -3   5   4  141.30    5.73
  -3   5   5   59.76    3.52
  -3   5   5   57.88    3.72
  -3   5   6   61.08    4.05
  -3   5   6   67.71    4.07
  -3   5   7  103.62    5.61
  -3   5   7  106.36    5.50
  -3   5   8   75.34    4.92
  -3   5   8   81.68    5.01
  -3   5   9    8.05    2.17
  -3   5   9    7.86    2.24
  -3   6 -10    8.79    2.27
  -3   6  -9   -1.22    1.65
  -3   6  -8   37.34    3.37
  -3   6  -7   21.49    2.48
  -3   6  -6   18.97    2.30
  -3   6  -5  310.60    9.05
  -3   6  -5  313.80   10.81
  -3   6  -4    2.13    1.09
  -3   6  -4    2.58    0.80
  -3   6  -3   93.61    4.65
  -3   6  -3   92.77    3.81
  -3   6  -2  529.80   14.99
  -3   6  -1    1.58    0.86
  -3   6   0  277.46    9.10
  -3   6   0  276.74    8.75
  -3   6   1    2.30    0.80
  -3   6   1    0.99    0.77
  -3   6   1    2.45    0.98
  -3   6   1    1.72    0.64
  -3   6   2    5.62    1.18
  -3   6   2    6.14    1.34
  -3   6   3   47.26    3.20
  -3   6   3   38.59    2.67
  -3   6   4   41.05    2.95
  -3   6   5    0.67    1.18
  -3   6   5   -0.51    1.23
  -3   6   6   11.57    2.11
  -3   6   6   13.87    2.08
  -3   6   7   28.38    3.01
  -3   6   7   35.94    3.36
  -3   6   8   -1.30    1.81
  -3   6   8    0.31    1.56
  -3   7  -9   13.53    2.44
  -3   7  -8    0.57    1.39
  -3   7  -7   43.24    3.50
  -3   7  -6   42.60    3.37
  -3   7  -5    7.34    1.64
  -3   7  -5    9.58    1.21
  -3   7  -4    5.19    1.49
  -3   7  -4    6.08    1.08
  -3   7  -3   56.55    2.98
  -3   7  -2    0.62    0.85
  -3   7  -1    0.51    0.87
  -3   7   0  157.76    6.34
  -3   7   0  159.30    6.08
  -3   7   1    7.52    1.50
  -3   7   1   12.93    1.58
  -3   7   2  169.18    7.04
  -3   7   2  177.14    6.74
  -3   7   3   81.43    4.60
  -3   7   3   82.47    4.29
  -3   7   4   49.00    3.43
  -3   7   5   71.82    4.58
  -3   7   5   75.00    4.48
  -3   7   6    7.06    1.91
  -3   7   6    5.48    1.90
  -3   7   7   25.54    3.16
  -3   7   7   22.82    2.98
  -3   8  -8   -0.60    1.58
  -3   8  -7   22.11    2.79
  -3   8  -6   32.17    3.14
  -3   8  -4   42.47    2.68
  -3   8  -3    4.73    1.20
  -3   8  -2   72.04    3.85
  -3   8  -1   25.33    2.32
  -3   8   0   12.70    1.86
  -3   8   0   10.91    1.69
  -3   8   1   25.34    2.53
  -3   8   1   22.08    2.15
  -3   8   2   42.56    3.30
  -3   8   2   35.65    2.85
  -3   8   3    0.27    1.35
  -3   8   3    1.36    1.36
  -3   8   4    1.00    1.36
  -3   8   4    0.29    1.48
  -3   8   5   68.54    4.49
  -3   8   6    2.68    1.76
  -3   8   6    4.18    1.91
  -3   9  -4    2.93    1.18
  -3   9  -3    1.38    1.24
  -3   9  -2    1.69    1.19
  -3   9  -1    4.09    1.42
  -3   9  -1    4.39    1.48
  -3   9   0   40.77    3.26
  -3   9   0   43.75    3.22
  -3   9   1    0.45    1.35
  -3   9   1    1.84    1.42
  -3   9   2    6.70    1.67
  -3   9   2    6.70    1.80
  -3   9   3    7.40    1.85
  -3   9   3    6.89    2.07
  -3   9   4   -0.28    1.51
  -3   9   4    2.58    1.79
  -3   9   5   16.91    2.65
  -3  10  -3   16.20    2.15
  -3  10  -2    1.68    1.40
  -3  10  -1    5.69    1.81
  -3  10   0   53.21    3.94
  -3  10   1   22.33    2.60
  -3  10   1   20.50    2.72
  -3  10   2   -0.93    1.68
  -3  10   2    1.34    1.43
  -2 -10  -2    1.41    1.37
  -2 -10  -1    9.12    1.83
  -2 -10   0    6.39    1.63
  -2 -10   1    4.15    1.52
  -2 -10   2   -0.22    1.21
  -2 -10   2    1.58    1.14
  -2 -10   3   78.76    4.39
  -2 -10   3   66.42    3.66
  -2 -10   4    6.19    1.68
  -2 -10   4   10.41    1.70
  -2 -10   5    3.23    1.64
  -2 -10   5    5.34    1.56
  -2 -10   6   43.80    3.56
  -2 -10   6   43.36    3.30
  -2  -9  -3    0.91    1.14
  -2  -9  -2   11.12    1.69
  -2  -9  -1    1.70    1.28
  -2  -9   0    3.27    1.37
  -2  -9   1    2.81    0.98
  -2  -9   1    2.75    1.25
  -2  -9   2   25.58    2.43
  -2  -9   2   29.40    2.17
  -2  -9   3   -0.62    1.18
  -2  -9   3   -0.31    0.97
  -2  -9   4    0.21    1.29
  -2  -9   4   -0.68    1.09
  -2  -9   5   28.22    2.41
  -2  -9   6    7.01    1.71
  -2  -9   6    7.86    1.64
  -2  -9   7   41.32    3.36
  -2  -9   7   42.80    3.22
  -2  -9   8   15.19    2.29
  -2  -9   8   18.97    2.38
  -2  -8  -4    8.62    1.56
  -2  -8  -3   19.60    2.04
  -2  -8  -2   76.84    3.90
  -2  -8  -1  129.19    5.42
  -2  -8   0    7.40    1.03
  -2  -8   0    4.84    1.28
  -2  -8   1    1.95    0.77
  -2  -8   1    1.23    1.03
  -2  -8   2    0.25    0.85
  -2  -8   2   -0.36    1.00
  -2  -8   3    2.53    0.98
  -2  -8   3    2.05    1.06
  -2  -8   4   48.49    2.88
  -2  -8   5   16.38    1.83
  -2  -8   5   20.80    2.15
  -2  -8   6   19.71    2.05
  -2  -8   6   18.12    2.05
  -2  -8   7   -0.40    1.18
  -2  -8   7    0.89    1.23
  -2  -8   8   12.99    2.06
  -2  -8   9   12.32    2.15
  -2  -8   9   12.09    2.17
  -2  -7  -5   -0.16    1.02
  -2  -7  -4    0.16    1.04
  -2  -7  -3    9.45    1.49
  -2  -7  -2   40.13    2.62
  -2  -7  -2   39.53    1.82
  -2  -7  -1   62.05    3.25
  -2  -7  -1   57.30    2.47
  -2  -7   0  493.94   13.86
  -2  -7   0  530.16   14.92
  -2  -7   1    0.93    0.72
  -2  -7   1    1.09    0.88
  -2  -7   2   42.61    2.67
  -2  -7   2   40.41    2.29
  -2  -7   3   85.03    3.71
  -2  -7   4   16.27    1.64
  -2  -7   4   15.97    1.83
  -2  -7   5   65.40    3.56
  -2  -7   5   63.81    3.35
  -2  -7   6    3.00    1.08
  -2  -7   6    3.68    1.18
  -2  -7   7    8.28    1.56
  -2  -7   8    1.06    1.25
  -2  -7   8    1.78    1.15
  -2  -7   9   -0.68    1.34
  -2  -7   9   -0.65    1.22
  -2  -7  10   -0.24    1.37
  -2  -7  10   -0.73    1.39
  -2  -6  -6   49.76    2.96
  -2  -6  -5   40.84    2.66
  -2  -6  -4   32.57    2.32
  -2  -6  -3   10.59    1.42
  -2  -6  -3   12.18    0.85
  -2  -6  -2  210.58    6.13
  -2  -6  -2  213.88    7.24
  -2  -6  -1   11.67    1.02
  -2  -6  -1   11.60    1.43
  -2  -6   0  245.64    8.07
  -2  -6   0  244.49    7.60
  -2  -6   0  251.38    7.37
  -2  -6   1   17.88    1.35
  -2  -6   1   17.63    1.61
  -2  -6   1   16.89    1.29
  -2  -6   2   69.99    3.04
  -2  -6   2   68.35    3.34
  -2  -6   2   68.25    2.61
  -2  -6   3    2.41    0.78
  -2  -6   3    2.33    0.85
  -2  -6   3    2.25    0.50
  -2  -6   4   52.80    2.77
  -2  -6   4   59.21    3.08
  -2  -6   4   56.81    2.80
  -2  -6   5  277.60    9.21
  -2  -6   5  295.74    9.11
  -2  -6   6   48.95    2.93
  -2  -6   7   19.31    1.90
  -2  -6   7   24.53    2.16
  -2  -6   8   12.65    1.70
  -2  -6   8   13.75    1.83
  -2  -6   9   14.78    1.93
  -2  -6   9   12.46    1.87
  -2  -6  10    1.54    1.21
  -2  -6  10    2.00    1.49
  -2  -5  -4  106.84    3.19
  -2  -5  -3    6.02    0.62
  -2  -5  -3    4.81    1.04
  -2  -5  -2   53.97    2.10
  -2  -5  -2   53.53    2.82
  -2  -5  -1  183.94    6.31
  -2  -5  -1  180.81    6.06
  -2  -5  -1  191.88    5.61
  -2  -5   0   82.54    3.05
  -2  -5   0   82.40    3.55
  -2  -5   0   80.68    3.18
  -2  -5   1  365.04   10.93
  -2  -5   1  372.91   10.26
  -2  -5   1  375.39   10.44
  -2  -5   2    6.72    0.85
  -2  -5   2    8.28    0.74
  -2  -5   3  175.05    5.65
  -2  -5   3  171.53    5.89
  -2  -5   3  166.19    4.54
  -2  -5   3  162.48    5.41
  -2  -5   4   15.02    1.46
  -2  -5   4   18.24    1.37
  -2  -5   4   21.07    1.57
  -2  -5   5    5.38    0.99
  -2  -5   5    3.71    0.81
  -2  -5   6    9.28    0.98
  -2  -5   6   11.06    1.34
  -2  -5   6    9.10    1.24
  -2  -5   7  307.89   10.13
  -2  -5   7  344.13   10.30
  -2  -5   8   24.78    2.10
  -2  -5   8   25.60    2.19
  -2  -5   9   11.82    1.61
  -2  -5   9   10.59    1.71
  -2  -5  10   52.29    3.41
  -2  -5  10   50.39    3.33
  -2  -5  11   10.75    1.88
  -2  -4  -4    7.51    0.69
  -2  -4  -3  431.08   11.45
  -2  -4  -2    1.92    0.78
  -2  -4  -2    1.77    0.47
  -2  -4  -1  332.75    9.19
  -2  -4  -1  333.31    9.57
  -2  -4  -1  332.30    9.94
  -2  -4   0  229.44    6.76
  -2  -4   0  241.14    7.31
  -2  -4   0  227.82    6.81
  -2  -4   1  366.77    9.85
  -2  -4   1  356.30   10.07
  -2  -4   2   27.42    1.56
  -2  -4   2   24.76    1.64
  -2  -4   2   25.94    1.20
  -2  -4   3   38.87    2.04
  -2  -4   3   38.15    2.07
  -2  -4   3   40.52    1.83
  -2  -4   4   15.00    1.30
  -2  -4   4   13.27    1.04
  -2  -4   5  681.92   17.90
  -2  -4   5  642.84   17.86
  -2  -4   5  647.34   17.21
  -2  -4   6    8.66    1.14
  -2  -4   6    8.86    1.15
  -2  -4   7  141.20    5.19
  -2  -4   7  129.59    5.06
  -2  -4   8   20.73    1.84
  -2  -4   8   25.01    2.15
  -2  -4   8   22.04    1.87
  -2  -4   9   30.00    2.36
  -2  -4   9   31.85    2.38
  -2  -4  10   29.51    2.43
  -2  -4  10   29.27    2.45
  -2  -4  11    1.20    1.31
  -2  -3  -5    7.53    0.68
  -2  -3  -2    3.61    0.78
  -2  -3  -1   19.58    1.18
  -2  -3  -1   19.32    1.34
  -2  -3   0  299.00    8.89
  -2  -3   0  308.66    8.45
  -2  -3   0  297.06    8.45
  -2  -3   1   84.30    2.75
  -2  -3   1   74.22    2.91
  -2  -3   1   82.69    2.72
  -2  -3   2  747.45   19.44
  -2  -3   2  731.59   19.30
  -2  -3   2  736.10   18.70
  -2  -3   3  407.47   11.32
  -2  -3   3  408.75   10.74
  -2  -3   4   87.20    3.27
  -2  -3   4   85.15    2.77
  -2  -3   4   83.78    3.29
  -2  -3   5    0.79    0.56
  -2  -3   5    0.55    0.52
  -2  -3   6  365.69   10.42
  -2  -3   6  355.78   10.51
  -2  -3   7    8.98    1.14
  -2  -3   7    7.18    1.07
  -2  -3   8   60.84    2.96
  -2  -3   8   51.65    2.83
  -2  -3   9   29.27    2.12
  -2  -3   9   24.31    2.01
  -2  -3  10   26.59    2.85
  -2  -3  10   24.36    2.15
  -2  -3  11    6.02    1.48
  -2  -2  -6   -0.05    0.52
  -2  -2  -5    0.70    0.43
  -2  -2  -3   76.03    3.18
  -2  -2  -2   84.86    3.27
  -2  -2  -1  279.91    8.21
  -2  -2  -1  302.72    8.46
  -2  -2   0  846.93   21.60
  -2  -2   0  827.25   21.47
  -2  -2   1  275.94    7.78
  -2  -2   1  262.47    7.38
  -2  -2   1  274.38    7.66
  -2  -2   2    0.72    0.41
  -2  -2   2    0.07    0.20
  -2  -2   2   -0.11    0.28
  -2  -2   3  161.89    4.97
  -2  -2   3  165.55    5.13
  -2  -2   4  578.14   15.17
  -2  -2   4  568.87   14.98
  -2  -2   4  544.54   15.64
  -2  -2   5   17.46    1.18
  -2  -2   5   18.75    1.59
  -2  -2   5   19.56    1.34
  -2  -2   6   72.60    3.53
  -2  -2   6   72.37    2.90
  -2  -2   6   75.42    3.07
  -2  -2   7   38.20    2.11
  -2  -2   7   36.38    2.02
  -2  -2   7   34.81    2.53
  -2  -2   7   39.06    2.82
  -2  -2   8    2.64    0.79
  -2  -2   8    3.41    0.96
  -2  -2   8    3.07    1.18
  -2  -2   8    3.94    1.46
  -2  -2   9    1.31    0.87
  -2  -2   9    0.88    0.77
  -2  -2   9    2.37    1.19
  -2  -2   9    2.90    1.42
  -2  -2  10    0.21    1.21
  -2  -2  10   -0.60    0.96
  -2  -2  10    2.37    1.56
  -2  -2  11    7.94    2.09
  -2  -2  12   39.88    4.13
  -2  -2  12   44.97    4.16
  -2  -1 -11    0.72    1.71
  -2  -1  -7  328.95    9.16
  -2  -1  -6  150.96    4.68
  -2  -1  -5  153.17    4.75
  -2  -1  -5  162.99    5.68
  -2  -1  -4  623.34   16.76
  -2  -1  -4  604.47   16.70
  -2  -1  -4  609.18   15.95
  -2  -1  -2 2985.55   74.89
  -2  -1  -1   36.54    1.76
  -2  -1  -1   35.58    1.88
  -2  -1   0  131.83    4.13
  -2  -1   1  718.10   18.46
  -2  -1   2    2.00    0.49
  -2  -1   2    1.66    0.42
  -2  -1   3  439.06   11.57
  -2  -1   3  433.61   12.31
  -2  -1   3  441.48   12.30
  -2  -1   3  450.73   11.91
  -2  -1   4   13.40    0.85
  -2  -1   4   14.03    1.29
  -2  -1   4   11.61    1.21
  -2  -1   4   12.40    0.97
  -2  -1   5  198.00    5.83
  -2  -1   5  203.55    6.84
  -2  -1   5  207.00    6.12
  -2  -1   6    0.74    0.50
  -2  -1   6    1.08    0.49
  -2  -1   6    1.47    0.72
  -2  -1   7    6.97    0.90
  -2  -1   7    7.28    1.29
  -2  -1   7    7.63    0.92
  -2  -1   8   12.28    1.84
  -2  -1   8   13.33    1.22
  -2  -1   8   13.99    1.80
  -2  -1   8   13.42    1.33
  -2  -1   9    7.78    1.64
  -2  -1   9    6.25    1.10
  -2  -1   9    4.85    1.28
  -2  -1  10   29.01    2.68
  -2  -1  10   29.57    2.14
  -2  -1  10   27.60    2.93
  -2  -1  11   11.55    2.38
  -2  -1  12   -0.37    1.81
  -2  -1  12    1.58    2.05
  -2   0 -11    4.02    1.93
  -2   0  -9   10.44    1.97
  -2   0  -8   42.14    3.23
  -2   0  -6    6.18    0.83
  -2   0  -5   58.70    2.66
  -2   0  -5   54.71    2.84
  -2   0  -5   61.47    2.41
  -2   0  -5   58.64    2.75
  -2   0  -4  476.13   13.29
  -2   0  -4  462.36   12.66
  -2   0  -4  488.22   13.16
  -2   0  -4  479.27   13.03
  -2   0  -3  203.17    6.25
  -2   0  -3  193.74    5.84
  -2   0  -2   50.79    1.90
  -2   0  -1 1952.93   48.96
  -2   0   0 1122.83   28.21
  -2   0   0 1108.08   28.19
  -2   0   0 1128.80   28.53
  -2   0   1    1.07    0.28
  -2   0   1    0.76    0.55
  -2   0   1    1.22    0.44
  -2   0   1    0.87    0.40
  -2   0   2    9.39    0.82
  -2   0   3  667.20   16.79
  -2   0   3  650.18   17.87
  -2   0   3  676.95   17.74
  -2   0   3  668.31   17.29
  -2   0   4  116.29    3.67
  -2   0   4  114.06    4.34
  -2   0   4  112.96    3.27
  -2   0   4  114.51    4.29
  -2   0   5    7.82    0.60
  -2   0   5   11.05    1.28
  -2   0   5    9.62    1.18
  -2   0   5    8.52    0.78
  -2   0   6  330.13   10.06
  -2   0   6  311.23    8.53
  -2   0   6  313.21    8.83
  -2   0   7   40.16    2.71
  -2   0   7   36.81    1.85
  -2   0   8   34.72    2.62
  -2   0   8   30.81    1.79
  -2   0   9    2.96    1.31
  -2   0   9    5.15    0.98
  -2   0  10    1.15    1.36
  -2   0  10   -0.29    1.36
  -2   0  11    5.61    1.93
  -2   1 -11    3.93    1.89
  -2   1 -10    2.64    1.52
  -2   1  -9    7.31    1.65
  -2   1  -8   19.39    2.18
  -2   1  -7   -0.81    0.86
  -2   1  -6   56.99    3.27
  -2   1  -5   75.85    3.20
  -2   1  -5   77.74    3.43
  -2   1  -5   79.61    3.74
  -2   1  -5   82.79    3.01
  -2   1  -5   75.74    3.14
  -2   1  -4  236.62    7.19
  -2   1  -4  226.45    7.65
  -2   1  -4  248.77    7.87
  -2   1  -4  241.86    7.43
  -2   1  -4  242.01    7.00
  -2   1  -4  236.56    6.93
  -2   1  -3   83.43    3.16
  -2   1  -3   88.25    3.38
  -2   1  -3   82.78    3.01
  -2   1  -3   86.89    3.62
  -2   1  -3   84.45    2.84
  -2   1  -2  404.66   11.09
  -2   1  -2  395.05   10.23
  -2   1  -1 1633.61   41.11
  -2   1  -1 1581.61   41.83
  -2   1  -1 1613.16   41.76
  -2   1   0 2765.03   68.71
  -2   1   0 2771.68   68.90
  -2   1   1 8843.80  215.87
  -2   1   1 8699.66  215.43
  -2   1   2   23.32    1.28
  -2   1   3    4.76    0.57
  -2   1   3    4.41    0.77
  -2   1   3    4.78    0.74
  -2   1   4  330.54    9.91
  -2   1   4  342.00    9.88
  -2   1   4  325.95    8.89
  -2   1   5    4.61    0.92
  -2   1   5    5.04    0.96
  -2   1   5    4.72    0.56
  -2   1   6  125.20    4.99
  -2   1   6  110.05    3.66
  -2   1   6  122.32    5.06
  -2   1   7    2.57    1.03
  -2   1   7    3.80    1.17
  -2   1   7    4.00    0.64
  -2   1   8    0.61    1.03
  -2   1   8    0.52    0.54
  -2   1   9   10.29    1.77
  -2   1  10   13.20    2.10
  -2   1  11    4.68    2.02
  -2   2 -11   -0.32    1.73
  -2   2 -10    1.45    1.55
  -2   2  -9    2.61    1.54
  -2   2  -8   27.70    2.59
  -2   2  -7    6.38    1.34
  -2   2  -6  133.54    4.95
  -2   2  -6  145.65    5.58
  -2   2  -6  152.66    4.88
  -2   2  -5   58.66    2.90
  -2   2  -5   58.34    3.19
  -2   2  -5   62.72    2.67
  -2   2  -4  801.29   20.67
  -2   2  -4  769.61   20.88
  -2   2  -4  791.27   21.19
  -2   2  -4  763.97   21.31
  -2   2  -4  781.79   20.31
  -2   2  -4  778.57   20.42
  -2   2  -3  507.25   13.87
  -2   2  -3  508.75   13.69
  -2   2  -3  487.91   12.37
  -2   2  -3  503.36   12.93
  -2   2  -3  485.16   13.89
  -2   2  -3  489.46   13.21
  -2   2  -2  151.45    4.77
  -2   2  -2  152.29    4.20
  -2   2  -2  152.23    4.25
  -2   2  -2  153.32    5.06
  -2   2  -1 5242.59  129.97
  -2   2  -1 5316.21  129.77
  -2   2  -1 5427.30  130.43
  -2   2  -1 5066.34  130.44
  -2   2  -1 5212.38  130.01
  -2   2   0    2.24    0.53
  -2   2   0    2.42    0.51
  -2   2   0    3.00    0.50
  -2   2   0    2.64    0.36
  -2   2   1 2833.28   70.74
  -2   2   1 2831.31   71.14
  -2   2   1 2863.87   70.41
  -2   2   2  273.95    7.03
  -2   2   2  280.96    7.92
  -2   2   3  255.95    8.08
  -2   2   3  271.33    7.96
  -2   2   4  175.89    5.96
  -2   2   4  161.40    4.65
  -2   2   4  169.30    5.81
  -2   2   5   23.70    1.06
  -2   2   5   21.33    1.86
  -2   2   5   24.69    1.90
  -2   2   6  148.21    4.27
  -2   2   6  144.20    5.87
  -2   2   6  152.63    5.93
  -2   2   7   12.16    0.85
  -2   2   7   12.03    1.70
  -2   2   7   13.28    1.73
  -2   2   8   11.21    1.84
  -2   2   8   14.15    1.90
  -2   2   9    0.27    1.30
  -2   2   9   -0.72    1.32
  -2   2  10    1.04    1.31
  -2   3 -11    0.62    1.54
  -2   3 -10   17.65    2.45
  -2   3  -9   20.10    2.41
  -2   3  -8    2.55    1.34
  -2   3  -7   26.10    2.37
  -2   3  -6   95.34    2.88
  -2   3  -6  101.91    4.19
  -2   3  -6  102.25    3.93
  -2   3  -6   96.07    4.57
  -2   3  -5   14.01    1.55
  -2   3  -5   12.17    1.47
  -2   3  -5   14.61    0.80
  -2   3  -5   16.14    1.27
  -2   3  -5   13.76    1.40
  -2   3  -4  201.30    6.37
  -2   3  -4  187.24    5.81
  -2   3  -4  200.15    6.53
  -2   3  -4  179.77    6.61
  -2   3  -3   37.23    1.50
  -2   3  -3   38.49    1.72
  -2   3  -3   40.38    2.14
  -2   3  -3   37.51    2.30
  -2   3  -2  176.90    5.58
  -2   3  -2  183.80    5.33
  -2   3  -2  190.99    5.94
  -2   3  -2  185.60    5.57
  -2   3  -1  334.07    9.29
  -2   3  -1  337.12    9.26
  -2   3  -1  340.79    9.29
  -2   3   0  141.14    4.71
  -2   3   0  148.13    4.37
  -2   3   0  146.89    4.42
  -2   3   1  852.23   22.86
  -2   3   1  878.15   22.00
  -2   3   1  881.34   22.12
  -2   3   1  849.32   22.51
  -2   3   2  398.08   10.29
  -2   3   2  399.54   11.21
  -2   3   3    0.45    0.61
  -2   3   4  274.85    8.94
  -2   3   4  276.96    8.87
  -2   3   4  279.30    7.27
  -2   3   5    0.28    0.21
  -2   3   5    0.16    0.72
  -2   3   5    0.17    0.74
  -2   3   6    4.17    1.22
  -2   3   6    5.08    1.25
  -2   3   6    3.33    0.34
  -2   3   7   25.64    2.45
  -2   3   7   27.27    2.45
  -2   3   8   74.73    4.43
  -2   3   8   73.49    4.45
  -2   3   9    9.96    1.97
  -2   3   9    9.80    1.85
  -2   3  10    0.32    1.65
  -2   3  10   -0.28    1.47
  -2   4 -11    7.56    2.07
  -2   4 -10   -0.83    1.24
  -2   4  -9  111.60    5.62
  -2   4  -8    1.85    1.25
  -2   4  -7   85.36    4.44
  -2   4  -6    1.91    1.03
  -2   4  -6    1.59    0.85
  -2   4  -6    0.92    0.50
  -2   4  -5    1.21    0.71
  -2   4  -5    1.57    0.49
  -2   4  -5    1.59    0.97
  -2   4  -5    1.92    0.95
  -2   4  -5    1.45    0.77
  -2   4  -4   93.52    3.45
  -2   4  -4   89.25    3.64
  -2   4  -4   82.40    4.04
  -2   4  -4   92.44    3.79
  -2   4  -3  104.55    4.42
  -2   4  -3  110.85    3.80
  -2   4  -3  107.37    4.08
  -2   4  -2  316.84    8.83
  -2   4  -2  307.23    8.89
  -2   4  -2  303.70    9.55
  -2   4  -2  313.64    8.86
  -2   4  -1   17.53    1.20
  -2   4  -1   15.63    1.24
  -2   4  -1   17.42    1.14
  -2   4   0    6.89    0.72
  -2   4   0    7.79    0.81
  -2   4   0    8.17    0.97
  -2   4   1    0.63    0.40
  -2   4   1   -0.17    0.45
  -2   4   1    0.35    0.59
  -2   4   1   -0.10    0.59
  -2   4   2   46.99    1.82
  -2   4   2   46.42    2.56
  -2   4   2   46.06    1.69
  -2   4   2   46.18    2.44
  -2   4   3  344.08    8.90
  -2   4   3  345.23   10.46
  -2   4   4    0.63    0.79
  -2   4   4    1.35    0.81
  -2   4   5   46.29    3.02
  -2   4   5   50.58    3.06
  -2   4   6  472.85   14.54
  -2   4   6  458.25   14.44
  -2   4   7   34.54    2.90
  -2   4   7   39.26    3.05
  -2   4   8  130.10    6.25
  -2   4   8  129.39    6.26
  -2   4   9    0.60    1.48
  -2   4   9    0.56    1.49
  -2   4  10    2.01    1.76
  -2   4  10    0.30    1.70
  -2   5 -11   61.95    4.38
  -2   5 -10   58.46    4.11
  -2   5  -9   32.95    3.02
  -2   5  -8  107.47    5.42
  -2   5  -7    6.67    1.53
  -2   5  -6    2.48    1.16
  -2   5  -5   25.44    1.90
  -2   5  -5   22.77    1.72
  -2   5  -5   20.55    1.66
  -2   5  -5   22.26    2.04
  -2   5  -4    5.96    0.98
  -2   5  -4    7.30    1.24
  -2   5  -4    6.27    1.12
  -2   5  -3  163.01    6.15
  -2   5  -2  119.94    4.38
  -2   5  -1   10.76    1.09
  -2   5  -1   10.63    1.19
  -2   5  -1   10.89    0.98
  -2   5   0  292.32    8.32
  -2   5   0  284.72    8.95
  -2   5   0  287.02    8.06
  -2   5   1  246.54    6.89
  -2   5   1  247.15    7.19
  -2   5   1  237.43    8.06
  -2   5   1  257.35    8.01
  -2   5   2   20.63    1.03
  -2   5   2   18.66    1.24
  -2   5   2   23.76    1.93
  -2   5   2   21.47    1.73
  -2   5   3   92.85    2.73
  -2   5   3   99.54    4.32
  -2   5   4   12.31    1.60
  -2   5   4   13.84    1.71
  -2   5   5   -0.62    1.10
  -2   5   5   -0.21    0.91
  -2   5   6    0.23    1.11
  -2   5   6    0.46    1.11
  -2   5   7   52.07    3.68
  -2   5   7   45.43    3.52
  -2   5   8   46.87    3.69
  -2   5   8   45.20    3.64
  -2   5   9    1.90    1.56
  -2   5   9    0.30    1.42
  -2   6 -10    6.06    1.91
  -2   6  -9    5.09    1.79
  -2   6  -8  165.24    7.14
  -2   6  -7   57.99    3.78
  -2   6  -6   63.02    3.76
  -2   6  -5    0.40    0.98
  -2   6  -4   61.42    3.54
  -2   6  -4   65.48    3.03
  -2   6  -3   16.72    1.48
  -2   6  -2  243.95    7.86
  -2   6  -1    3.56    0.89
  -2   6   0  116.26    3.89
  -2   6   0  116.49    4.84
  -2   6   1    1.61    0.54
  -2   6   1    0.84    0.79
  -2   6   1    2.31    0.83
  -2   6   1    3.36    1.01
  -2   6   2   11.55    1.53
  -2   6   2   11.69    1.54
  -2   6   2   12.93    1.21
  -2   6   2   13.48    0.89
  -2   6   3  106.31    4.86
  -2   6   4    0.61    0.94
  -2   6   4    1.31    1.18
  -2   6   5  127.96    5.99
  -2   6   5  131.60    5.97
  -2   6   6    4.94    1.60
  -2   6   6    4.61    1.56
  -2   6   7    6.13    1.78
  -2   6   7   10.68    2.13
  -2   6   8    6.82    2.03
  -2   6   8    6.68    2.01
  -2   6   9    1.64    1.75
  -2   6   9    0.34    1.87
  -2   7 -10    0.85    1.56
  -2   7  -9   -0.81    1.52
  -2   7  -8   11.82    2.03
  -2   7  -7    4.85    1.62
  -2   7  -6  419.59   13.64
  -2   7  -5    8.82    1.61
  -2   7  -3  339.68   10.53
  -2   7  -2    9.19    1.38
  -2   7  -1  465.80   13.99
  -2   7   0   17.06    1.86
  -2   7   1   42.98    2.95
  -2   7   1   40.20    2.86
  -2   7   2    1.93    1.06
  -2   7   2    1.99    1.15
  -2   7   3    0.42    1.03
  -2   7   4    3.46    1.38
  -2   7   4    6.45    1.50
  -2   7   5   12.16    2.03
  -2   7   5    9.14    1.84
  -2   7   6   22.85    2.71
  -2   7   6   22.05    2.69
  -2   7   7   11.52    2.27
  -2   7   7   10.86    2.21
  -2   7   8   12.31    2.51
  -2   7   8   10.63    2.47
  -2   8  -9    4.23    1.83
  -2   8  -8   30.51    3.06
  -2   8  -7    9.89    1.92
  -2   8  -4    7.90    1.38
  -2   8  -3    7.89    1.36
  -2   8  -2    5.05    1.33
  -2   8  -1   15.76    1.84
  -2   8   0   10.62    1.72
  -2   8   1    2.72    1.32
  -2   8   1    1.77    1.29
  -2   8   2    4.90    1.50
  -2   8   2    7.33    1.56
  -2   8   3    8.21    1.82
  -2   8   3    8.41    1.76
  -2   8   4   11.89    2.16
  -2   8   5    1.40    1.56
  -2   8   5   -1.50    1.81
  -2   8   6   -0.32    1.59
  -2   8   6    0.31    1.67
  -2   9  -5    0.54    1.07
  -2   9  -4   -0.39    1.07
  -2   9  -3    9.79    1.70
  -2   9  -2    5.19    1.44
  -2   9  -1    2.53    1.35
  -2   9   0   27.16    2.68
  -2   9   0   26.25    2.60
  -2   9   1  179.58    7.70
  -2   9   1  182.11    7.67
  -2   9   2   46.26    3.70
  -2   9   2   52.58    3.80
  -2   9   3   36.91    3.27
  -2   9   3   36.16    3.37
  -2   9   4   25.02    2.85
  -2   9   5   10.82    2.28
  -2   9   5    8.32    2.22
  -2  10  -4   16.79    2.19
  -2  10  -3    8.39    1.72
  -2  10  -2    0.74    1.24
  -2  10  -1    8.04    1.78
  -2  10   0   69.81    4.56
  -2  10   0   77.34    4.72
  -2  10   1   -0.58    1.48
  -2  10   1    1.97    1.56
  -2  10   2   42.82    3.79
  -2  10   2   47.59    3.82
  -2  10   3    2.71    1.69
  -2  10   3    4.24    1.92
  -2  11  -2    3.31    1.61
  -2  11  -1    4.34    1.82
  -1 -11   1   66.98    4.10
  -1 -11   2    2.84    1.60
  -1 -11   3   51.51    3.73
  -1 -10  -2    3.88    1.45
  -1 -10  -1    3.44    1.38
  -1 -10   0    1.38    1.29
  -1 -10   1   -0.20    1.15
  -1 -10   2    3.19    1.41
  -1 -10   2    3.04    1.19
  -1 -10   3    2.81    1.30
  -1 -10   3    3.78    1.53
  -1 -10   4   13.67    1.88
  -1 -10   4   11.43    1.95
  -1 -10   5   48.08    3.58
  -1 -10   5   47.51    3.34
  -1 -10   6   18.63    2.37
  -1  -9  -3   56.07    3.23
  -1  -9  -2   13.95    1.77
  -1  -9  -1    1.89    1.11
  -1  -9   0  167.23    6.49
  -1  -9   1   10.17    1.35
  -1  -9   1    7.32    1.51
  -1  -9   2    0.43    0.92
  -1  -9   2   -0.76    1.00
  -1  -9   3   50.91    3.29
  -1  -9   3   52.63    3.04
  -1  -9   4   13.78    1.74
  -1  -9   4    8.11    1.59
  -1  -9   5    4.38    1.38
  -1  -9   6   10.53    1.83
  -1  -9   6    7.67    1.65
  -1  -9   7    4.50    1.52
  -1  -9   7    0.50    1.33
  -1  -9   8   36.87    3.35
  -1  -9   8   39.53    3.32
  -1  -8  -4   12.51    1.55
  -1  -8  -3   10.57    1.50
  -1  -8  -2   49.51    2.88
  -1  -8  -1  113.78    3.97
  -1  -8  -1  106.79    4.64
  -1  -8   0   87.79    4.07
  -1  -8   0   85.40    3.43
  -1  -8   1   17.94    1.52
  -1  -8   1   21.73    1.99
  -1  -8   2   65.49    3.58
  -1  -8   2   70.65    3.23
  -1  -8   3   40.13    2.53
  -1  -8   3   45.89    2.89
  -1  -8   4   40.49    2.84
  -1  -8   4   39.44    2.58
  -1  -8   5   14.53    1.71
  -1  -8   6   12.30    1.70
  -1  -8   6   10.26    1.71
  -1  -8   7   14.60    1.91
  -1  -8   7   19.07    2.21
  -1  -8   8    1.69    1.34
  -1  -8   9    4.37    1.57
  -1  -8   9    6.21    1.84
  -1  -7  -4    0.51    0.83
  -1  -7  -3   44.13    2.53
  -1  -7  -2   87.10    3.79
  -1  -7  -2   84.46    2.93
  -1  -7  -1   19.58    1.70
  -1  -7  -1   15.92    1.16
  -1  -7   0    6.33    1.17
  -1  -7   0    5.99    0.84
  -1  -7   1  175.68    6.20
  -1  -7   1  166.05    5.58
  -1  -7   1  171.19    5.60
  -1  -7   2    2.41    0.74
  -1  -7   2    2.96    0.97
  -1  -7   3   45.19    2.72
  -1  -7   3   45.07    2.11
  -1  -7   3   44.75    2.49
  -1  -7   4  132.58    5.09
  -1  -7   5   12.75    1.50
  -1  -7   5    9.98    1.49
  -1  -7   6   12.07    1.57
  -1  -7   6   14.46    1.78
  -1  -7   7  140.16    5.99
  -1  -7   8    1.02    1.10
  -1  -7   8    1.95    1.31
  -1  -7   9    2.01    1.27
  -1  -7   9    0.47    1.43
  -1  -7  10   24.70    2.65
  -1  -7  10   23.22    2.70
  -1  -6  -5   37.16    2.24
  -1  -6  -4   48.35    2.58
  -1  -6  -3    0.29    0.33
  -1  -6  -3    1.39    0.78
  -1  -6  -2   12.06    1.30
  -1  -6  -2   11.72    0.81
  -1  -6  -1  355.75    9.69
  -1  -6  -1  356.59   10.54
  -1  -6   0   27.85    1.50
  -1  -6   0   26.91    1.86
  -1  -6   0   26.88    1.73
  -1  -6   1   29.09    1.63
  -1  -6   1   28.73    1.94
  -1  -6   1   29.33    1.63
  -1  -6   2  282.19    8.78
  -1  -6   2  282.85    7.88
  -1  -6   2  275.48    8.31
  -1  -6   3    0.43    0.61
  -1  -6   3    0.04    0.36
  -1  -6   3    0.71    0.46
  -1  -6   4  109.52    4.47
  -1  -6   4  107.58    4.24
  -1  -6   5  266.50    8.51
  -1  -6   5  266.81    8.73
  -1  -6   6   16.48    1.73
  -1  -6   7  185.26    7.03
  -1  -6   7  213.91    7.44
  -1  -6   8    1.17    1.11
  -1  -6   8   -0.37    1.12
  -1  -6   9    0.21    1.19
  -1  -6   9   -0.20    1.16
  -1  -6  10   32.56    2.84
  -1  -6  10   33.09    2.95
  -1  -6  11    1.26    1.55
  -1  -6  11    0.25    1.49
  -1  -5  -6    9.70    1.31
  -1  -5  -5   -0.45    0.77
  -1  -5  -4    0.22    0.77
  -1  -5  -3   17.81    1.44
  -1  -5  -3   18.51    0.79
  -1  -5  -2   29.78    1.25
  -1  -5  -2   31.58    1.86
  -1  -5  -1  124.91    4.38
  -1  -5  -1  115.87    4.27
  -1  -5  -1  120.06    3.70
  -1  -5   0  565.02   15.72
  -1  -5   0  572.40   15.42
  -1  -5   0  585.70   15.13
  -1  -5   1    0.62    0.53
  -1  -5   1    0.45    0.46
  -1  -5   2  839.07   22.45
  -1  -5   2  845.38   22.48
  -1  -5   2  837.33   22.11
  -1  -5   2  855.93   21.56
  -1  -5   3   10.33    1.01
  -1  -5   3   10.06    0.57
  -1  -5   3    8.89    0.63
  -1  -5   3   12.72    1.23
  -1  -5   4   23.73    1.66
  -1  -5   4   26.50    1.85
  -1  -5   4   28.90    1.83
  -1  -5   5  123.86    4.77
  -1  -5   5  124.08    4.63
  -1  -5   6   99.49    4.22
  -1  -5   6  100.17    4.03
  -1  -5   6   96.04    4.10
  -1  -5   7   78.20    3.73
  -1  -5   7   75.89    3.39
  -1  -5   7   65.37    3.42
  -1  -5   8   90.89    4.32
  -1  -5   8   83.41    4.10
  -1  -5   9    5.56    1.40
  -1  -5   9    6.11    1.47
  -1  -5  10   31.41    2.66
  -1  -5  10   28.07    2.59
  -1  -5  11    3.67    1.54
  -1  -5  11    3.61    1.60
  -1  -4  -3    0.11    0.20
  -1  -4  -3    0.58    0.54
  -1  -4  -2  242.97    6.49
  -1  -4  -2  250.94    7.41
  -1  -4  -2  237.85    7.43
  -1  -4  -1  100.48    3.10
  -1  -4  -1   99.52    3.66
  -1  -4  -1  102.85    3.65
  -1  -4   0    7.17    0.65
  -1  -4   0    7.95    0.87
  -1  -4   0    5.10    0.71
  -1  -4   1  896.85   22.41
  -1  -4   1  873.99   22.59
  -1  -4   1  859.52   22.96
  -1  -4   2  518.28   13.48
  -1  -4   2  526.29   13.34
  -1  -4   3  409.85   11.82
  -1  -4   3  441.86   11.72
  -1  -4   3  417.04   11.72
  -1  -4   4   52.59    2.49
  -1  -4   4   52.09    2.40
  -1  -4   5  200.49    6.46
  -1  -4   5  194.40    6.51
  -1  -4   5  198.35    6.36
  -1  -4   5  212.24    6.20
  -1  -4   6  177.97    6.13
  -1  -4   6  177.60    5.99
  -1  -4   6  176.91    6.02
  -1  -4   7  408.92   12.06
  -1  -4   7  413.05   12.17
  -1  -4   7  393.86   11.91
  -1  -4   8   12.19    1.47
  -1  -4   8   12.82    1.53
  -1  -4   8   13.62    1.72
  -1  -4   9   -0.67    0.92
  -1  -4   9   -0.22    1.20
  -1  -4   9    1.74    1.09
  -1  -4  10   13.72    1.88
  -1  -4  10   14.42    1.99
  -1  -4  11    1.65    1.41
  -1  -3  -5   25.93    0.91
  -1  -3  -4  188.97    4.95
  -1  -3  -3    9.09    0.55
  -1  -3  -3    9.64    1.10
  -1  -3  -2  192.98    6.01
  -1  -3  -2  194.93    5.27
  -1  -3  -1  155.04    4.35
  -1  -3  -1  155.55    4.91
  -1  -3  -1  148.34    4.73
  -1  -3   0 1325.17   33.03
  -1  -3   0 1317.39   33.43
  -1  -3   0 1306.62   33.11
  -1  -3   1  105.14    3.17
  -1  -3   1  114.67    3.47
  -1  -3   2 2599.13   64.91
  -1  -3   2 2559.23   65.03
  -1  -3   2 2646.96   64.86
  -1  -3   3   60.07    2.46
  -1  -3   3   62.04    2.02
  -1  -3   3   60.84    2.35
  -1  -3   4    7.51    0.81
  -1  -3   4    6.61    0.80
  -1  -3   4    5.93    0.75
  -1  -3   5   76.12    3.09
  -1  -3   5   78.73    3.10
  -1  -3   6    1.35    0.61
  -1  -3   6    3.86    0.80
  -1  -3   7   14.18    1.37
  -1  -3   7   17.84    1.79
  -1  -3   7   14.79    1.43
  -1  -3   8   33.77    2.25
  -1  -3   8   37.01    2.81
  -1  -3   8   37.82    2.98
  -1  -3   8   33.14    2.24
  -1  -3   9   39.25    2.61
  -1  -3   9   38.47    3.12
  -1  -3   9   39.55    3.23
  -1  -3   9   35.13    2.43
  -1  -3  10   -0.29    1.51
  -1  -3  10    1.69    1.08
  -1  -3  10    0.88    1.08
  -1  -3  10    3.00    1.59
  -1  -3  11    0.64    1.61
  -1  -3  11    1.89    1.56
  -1  -3  11    2.26    1.26
  -1  -2  -7  467.39   12.94
  -1  -2  -6    0.62    0.38
  -1  -2  -6   -0.37    0.74
  -1  -2  -5  113.30    3.29
  -1  -2  -4   68.22    3.06
  -1  -2  -4   73.27    3.35
  -1  -2  -4   75.68    2.26
  -1  -2  -2  121.96    4.02
  -1  -2  -1  326.51    8.84
  -1  -2   0  409.72   10.52
  -1  -2   0  378.98   10.74
  -1  -2   0  414.50   10.51
  -1  -2   1  516.96   12.69
  -1  -2   1  474.71   12.31
  -1  -2   2  101.06    3.20
  -1  -2   2   98.00    2.98
  -1  -2   3   61.28    2.24
  -1  -2   3   58.27    2.24
  -1  -2   3   58.02    2.08
  -1  -2   4  142.96    4.45
  -1  -2   4  135.08    4.39
  -1  -2   4  141.61    5.03
  -1  -2   5   23.50    1.61
  -1  -2   5   19.04    1.67
  -1  -2   5   23.75    1.40
  -1  -2   5   24.64    1.44
  -1  -2   6  204.64    6.42
  -1  -2   6  211.81    6.47
  -1  -2   6  204.31    6.81
  -1  -2   6  205.23    7.35
  -1  -2   7   33.23    2.18
  -1  -2   7   33.71    2.55
  -1  -2   7   33.96    2.02
  -1  -2   7   34.51    1.99
  -1  -2   8  108.40    4.32
  -1  -2   8  105.20    5.22
  -1  -2   8  113.90    4.71
  -1  -2   8  107.56    4.26
  -1  -2   9    5.53    1.57
  -1  -2   9    4.89    1.07
  -1  -2   9    2.97    1.02
  -1  -2   9    6.48    1.32
  -1  -2  10   10.92    2.23
  -1  -2  10   12.22    1.58
  -1  -2  10   13.93    2.26
  -1  -2  11   -0.67    1.66
  -1  -2  11    0.32    1.55
  -1  -2  12   18.36    2.92
  -1  -2  12   11.37    2.74
  -1  -1  -7  179.17    5.73
  -1  -1  -7  176.93    5.29
  -1  -1  -6  431.18   11.39
  -1  -1  -6  428.83   11.88
  -1  -1  -5  702.34   18.34
  -1  -1  -5  744.50   18.99
  -1  -1  -5  715.76   19.37
  -1  -1  -5  732.72   19.59
  -1  -1  -4  935.74   23.69
  -1  -1  -4  927.32   24.51
  -1  -1  -4  967.81   24.75
  -1  -1  -3  322.95    8.93
  -1  -1  -3  310.14    8.30
  -1  -1  -3  325.71    9.07
  -1  -1  -2 2805.96   69.90
  -1  -1  -1  404.96   10.47
  -1  -1  -1  379.94   10.25
  -1  -1   0  208.02    5.57
  -1  -1   1 2884.20   71.33
  -1  -1   2  193.15    5.40
  -1  -1   2  196.66    5.31
  -1  -1   2  193.36    5.65
  -1  -1   3 1260.59   31.73
  -1  -1   3 1262.49   31.62
  -1  -1   3 1261.33   32.13
  -1  -1   4    0.21    0.48
  -1  -1   4    0.17    0.33
  -1  -1   4    0.52    0.53
  -1  -1   4    0.10    0.28
  -1  -1   5  255.66    7.13
  -1  -1   5  235.50    7.03
  -1  -1   5  255.28    7.68
  -1  -1   5  249.19    8.03
  -1  -1   6   70.81    2.79
  -1  -1   6   75.70    2.86
  -1  -1   6   69.10    3.58
  -1  -1   6   71.37    3.24
  -1  -1   7  104.18    3.92
  -1  -1   7  108.14    4.45
  -1  -1   7  108.98    4.96
  -1  -1   7  110.84    3.93
  -1  -1   8   88.08    4.06
  -1  -1   8   81.82    4.50
  -1  -1   8   91.32    3.60
  -1  -1   9  138.04    5.67
  -1  -1   9  144.54    6.45
  -1  -1   9  134.21    5.04
  -1  -1  10   38.12    3.31
  -1  -1  10   33.73    2.32
  -1  -1  11    3.50    1.81
  -1  -1  11    2.15    1.83
  -1  -1  12    0.35    1.80
  -1  -1  12   -1.60    2.22
  -1   0 -11    0.31    1.55
  -1   0 -10    9.81    1.98
  -1   0  -7   66.62    2.79
  -1   0  -7   64.13    2.61
  -1   0  -7   59.38    2.48
  -1   0  -6   46.72    2.22
  -1   0  -6   50.87    2.11
  -1   0  -6   47.89    2.02
  -1   0  -5   86.50    2.92
  -1   0  -5   87.94    3.47
  -1   0  -5   85.82    2.93
  -1   0  -5   84.97    3.50
  -1   0  -5   90.35    3.23
  -1   0  -4  463.34   12.54
  -1   0  -4  464.66   12.17
  -1   0  -4  458.49   12.77
  -1   0  -4  485.59   12.27
  -1   0  -4  460.29   12.83
  -1   0  -3  274.78    7.40
  -1   0  -3  289.21    7.89
  -1   0  -3  288.95    7.98
  -1   0  -3  287.47    7.94
  -1   0  -3  281.19    7.56
  -1   0  -2 3356.41   83.95
  -1   0  -2 3374.66   83.67
  -1   0  -2 3428.18   83.83
  -1   0  -1   56.98    1.76
  -1   0   0 2449.87   59.80
  -1   0   0 2383.65   59.97
  -1   0   0 2419.08   59.79
  -1   0   1  494.71   12.64
  -1   0   2  133.17    3.69
  -1   0   2  128.75    4.01
  -1   0   2  128.52    3.43
  -1   0   3 1528.90   38.84
  -1   0   3 1534.41   38.07
  -1   0   3 1537.21   38.25
  -1   0   4  467.99   12.29
  -1   0   4  493.64   13.08
  -1   0   4  468.58   12.22
  -1   0   5   14.30    0.94
  -1   0   5   13.26    1.24
  -1   0   5   13.95    0.92
  -1   0   6   31.72    2.07
  -1   0   6   34.01    1.61
  -1   0   6   31.99    2.29
  -1   0   7   12.03    1.61
  -1   0   7   13.75    1.50
  -1   0   7   15.07    1.15
  -1   0   8   12.60    1.19
  -1   0   8   13.41    1.85
  -1   0   8   13.25    1.64
  -1   0   9    1.74    1.23
  -1   0   9    2.58    1.19
  -1   0   9    2.24    0.78
  -1   0  10   -0.28    1.36
  -1   0  10   -0.20    1.05
  -1   0  11    5.71    2.37
  -1   0  11    3.83    1.80
  -1   1 -11    6.50    1.84
  -1   1 -10   15.80    2.17
  -1   1  -9    0.92    1.11
  -1   1  -8   63.90    3.72
  -1   1  -7   22.40    1.99
  -1   1  -7   21.45    1.29
  -1   1  -6    7.01    0.83
  -1   1  -6    4.89    1.03
  -1   1  -6    5.51    0.87
  -1   1  -6    5.02    0.63
  -1   1  -6    6.86    1.03
  -1   1  -5    0.77    0.61
  -1   1  -5    1.19    0.66
  -1   1  -5    1.25    0.56
  -1   1  -5    0.09    0.28
  -1   1  -5    1.12    0.59
  -1   1  -5    0.82    0.46
  -1   1  -4 1149.42   28.47
  -1   1  -4 1133.84   28.68
  -1   1  -4 1099.35   28.07
  -1   1  -4 1102.42   28.78
  -1   1  -4 1125.81   29.26
  -1   1  -4 1151.56   28.85
  -1   1  -3  179.74    4.75
  -1   1  -3  181.86    5.39
  -1   1  -3  168.79    5.60
  -1   1  -3  180.94    5.31
  -1   1  -3  183.60    5.32
  -1   1  -3  185.88    5.19
  -1   1  -2   16.94    1.04
  -1   1  -2   19.02    1.09
  -1   1  -2   15.55    1.11
  -1   1  -2   20.88    0.97
  -1   1  -2   17.87    0.98
  -1   1  -2   18.37    1.18
  -1   1  -1 2260.38   56.65
  -1   1  -1 2350.19   57.14
  -1   1  -1 2311.98   56.62
  -1   1   0 1590.36   38.91
  -1   1   0 1593.11   39.01
  -1   1   0 1529.23   39.13
  -1   1   0 1560.82   38.81
  -1   1   1 1073.81   26.95
  -1   1   2 1707.93   42.64
  -1   1   2 1742.76   43.28
  -1   1   2 1737.95   43.25
  -1   1   3 1648.33   40.93
  -1   1   3 1565.25   40.92
  -1   1   3 1618.28   40.01
  -1   1   4    4.64    0.41
  -1   1   4    3.42    0.73
  -1   1   5  950.96   25.28
  -1   1   5  953.84   24.04
  -1   1   6  262.91    7.34
  -1   1   6  274.55    8.59
  -1   1   7    2.93    0.60
  -1   1   7    2.50    1.04
  -1   1   7    4.27    1.06
  -1   1   8  277.66    9.29
  -1   1   8  273.36    7.93
  -1   1   8  269.51    9.77
  -1   1   9    3.82    1.40
  -1   1   9    2.96    1.22
  -1   1  10   -0.29    1.45
  -1   1  10   -0.87    1.32
  -1   1  11   10.08    2.32
  -1   2 -11   20.99    2.63
  -1   2 -10   -1.04    1.38
  -1   2  -9   -0.46    1.24
  -1   2  -8  113.62    5.26
  -1   2  -7   41.94    2.38
  -1   2  -7   45.22    2.87
  -1   2  -7   39.83    1.81
  -1   2  -6  200.48    5.87
  -1   2  -6  210.26    6.61
  -1   2  -6  207.57    7.20
  -1   2  -5   12.38    1.05
  -1   2  -5   13.54    0.88
  -1   2  -5   13.52    1.14
  -1   2  -5   13.15    1.34
  -1   2  -5   15.44    1.29
  -1   2  -5   12.97    1.18
  -1   2  -4   24.24    1.45
  -1   2  -4   23.16    1.11
  -1   2  -4   27.75    1.44
  -1   2  -4   24.59    1.46
  -1   2  -4   26.77    1.54
  -1   2  -4   20.05    1.55
  -1   2  -3   37.81    1.42
  -1   2  -3   39.75    1.78
  -1   2  -3   39.87    1.80
  -1   2  -3   40.22    1.94
  -1   2  -3   40.00    1.75
  -1   2  -3   38.43    2.01
  -1   2  -3   37.22    1.65
  -1   2  -2  270.16    7.42
  -1   2  -2  277.71    7.61
  -1   2  -2  269.99    7.86
  -1   2  -1 2070.60   51.99
  -1   2  -1 2139.53   52.19
  -1   2  -1 2074.36   51.94
  -1   2   0  902.95   22.67
  -1   2   0  915.12   22.97
  -1   2   0  894.31   22.65
  -1   2   1   60.03    1.83
  -1   2   1   58.01    1.80
  -1   2   1   60.54    2.25
  -1   2   2  591.11   16.02
  -1   2   2  615.17   16.02
  -1   2   3  115.78    3.08
  -1   2   3  126.94    4.28
  -1   2   3  123.36    4.30
  -1   2   4  105.03    2.86
  -1   2   4  107.94    4.09
  -1   2   4  108.65    4.22
  -1   2   5  226.65    7.47
  -1   2   5  226.94    5.99
  -1   2   6   54.90    3.00
  -1   2   6   55.83    1.90
  -1   2   7   14.45    0.93
  -1   2   7   13.63    1.69
  -1   2   8    0.39    1.01
  -1   2   9    2.66    1.38
  -1   2   9    0.21    1.06
  -1   2  10   34.09    3.27
  -1   2  10   35.76    3.01
  -1   2  11    5.01    2.04
  -1   3 -11   11.93    2.24
  -1   3 -10   61.79    4.01
  -1   3  -9   72.66    4.19
  -1   3  -8   36.04    2.75
  -1   3  -7   69.36    2.66
  -1   3  -7   67.42    3.15
  -1   3  -7   68.12    3.67
  -1   3  -6  131.58    4.27
  -1   3  -6  136.39    4.77
  -1   3  -6  138.52    5.36
  -1   3  -5    0.10    0.64
  -1   3  -5    0.62    0.43
  -1   3  -5    0.68    0.58
  -1   3  -5    0.64    0.51
  -1   3  -4  844.22   22.75
  -1   3  -4  877.46   22.94
  -1   3  -4  894.43   22.56
  -1   3  -4  888.57   23.03
  -1   3  -4  916.67   22.93
  -1   3  -4  853.02   23.46
  -1   3  -3  119.70    4.17
  -1   3  -3  128.67    4.14
  -1   3  -3  136.57    4.29
  -1   3  -3  125.41    4.58
  -1   3  -2   19.12    1.42
  -1   3  -2   23.33    1.33
  -1   3  -2   22.69    1.21
  -1   3  -1  702.13   18.11
  -1   3  -1  706.11   18.61
  -1   3  -1  700.21   17.97
  -1   3   0  702.56   17.94
  -1   3   0  703.68   18.39
  -1   3   0  696.58   17.77
  -1   3   1    4.09    0.39
  -1   3   1    3.23    0.48
  -1   3   1    3.42    0.64
  -1   3   2   83.63    2.32
  -1   3   2   90.02    3.41
  -1   3   3  516.20   14.21
  -1   3   3  491.00   14.13
  -1   3   4   50.61    2.70
  -1   3   4   48.55    2.70
  -1   3   5   49.26    2.80
  -1   3   5   51.22    2.96
  -1   3   6   13.56    1.69
  -1   3   6   12.47    1.55
  -1   3   7  307.57   10.25
  -1   3   8    0.21    1.08
  -1   3   9   67.21    4.12
  -1   3  10   46.40    3.61
  -1   3  10   46.47    3.87
  -1   3  11    5.21    2.03
  -1   4 -11    8.56    2.01
  -1   4 -10    2.21    1.51
  -1   4  -9   55.84    3.57
  -1   4  -8   64.67    3.71
  -1   4  -7  171.67    6.62
  -1   4  -6    6.37    0.84
  -1   4  -6    6.42    1.15
  -1   4  -6    7.26    1.00
  -1   4  -5  381.82   10.74
  -1   4  -5  375.02   11.20
  -1   4  -5  385.24   10.82
  -1   4  -5  413.79   11.84
  -1   4  -4  590.53   15.28
  -1   4  -4  550.60   15.45
  -1   4  -4  547.43   15.03
  -1   4  -4  576.39   15.97
  -1   4  -3   15.69    1.14
  -1   4  -3   13.21    1.30
  -1   4  -3   11.52    1.17
  -1   4  -3   17.14    1.20
  -1   4  -2  410.30   10.70
  -1   4  -2  378.73   11.31
  -1   4  -2  381.91   10.83
  -1   4  -1  775.39   20.02
  -1   4  -1  784.28   20.27
  -1   4   0   93.88    2.94
  -1   4   0   91.18    3.18
  -1   4   0   91.44    3.58
  -1   4   1  763.90   19.16
  -1   4   1  713.13   19.89
  -1   4   1  733.89   18.71
  -1   4   2  258.34    6.76
  -1   4   2  268.34    8.28
  -1   4   3   19.38    1.63
  -1   4   3   14.78    1.48
  -1   4   4    3.18    0.99
  -1   4   4    1.86    0.83
  -1   4   5    0.73    0.82
  -1   4   5    1.73    0.90
  -1   4   6   19.56    2.02
  -1   4   6   14.61    1.85
  -1   4   7   28.93    2.65
  -1   4   7   30.03    2.60
  -1   4   8   33.69    2.82
  -1   4   8   29.47    2.90
  -1   4   9    4.87    1.71
  -1   4  10    3.06    1.77
  -1   5 -10   -1.00    1.40
  -1   5  -9    9.66    1.77
  -1   5  -8   -1.26    1.15
  -1   5  -7   72.02    3.94
  -1   5  -6  141.55    5.63
  -1   5  -6  134.01    4.79
  -1   5  -5   38.74    2.50
  -1   5  -4   -0.15    0.69
  -1   5  -4    1.02    0.59
  -1   5  -4    0.24    0.79
  -1   5  -3  865.56   23.79
  -1   5  -3  887.60   22.78
  -1   5  -2   76.02    2.90
  -1   5  -1  845.14   22.10
  -1   5  -1  875.67   22.48
  -1   5   0  194.29    5.61
  -1   5   0  190.70    5.96
  -1   5   0  193.94    6.53
  -1   5   1   92.67    3.37
  -1   5   1   87.35    3.90
  -1   5   1   92.96    2.93
  -1   5   2   20.62    0.95
  -1   5   2   20.54    1.82
  -1   5   3  654.27   18.43
  -1   5   3  637.91   18.38
  -1   5   4    1.28    0.88
  -1   5   4   -0.18    0.74
  -1   5   5    7.21    1.45
  -1   5   5    8.74    1.53
  -1   5   6   80.85    4.31
  -1   5   6   66.81    4.14
  -1   5   7    1.28    1.41
  -1   5   7    4.48    1.47
  -1   5   8    9.47    2.01
  -1   5   8   15.18    2.21
  -1   5   9   -1.58    1.59
  -1   5   9    1.96    1.55
  -1   6  -9  123.80    5.84
  -1   6  -8  229.35    8.50
  -1   6  -7   66.11    3.79
  -1   6  -6  451.50   13.84
  -1   6  -5   41.84    2.76
  -1   6  -4   28.04    1.54
  -1   6  -1  299.21    8.55
  -1   6   0  403.85   12.09
  -1   6   0  393.40   10.79
  -1   6   1   37.81    1.69
  -1   6   1   39.81    2.21
  -1   6   1   42.13    2.68
  -1   6   2  277.20    7.59
  -1   6   2  291.36    9.57
  -1   6   3    9.31    1.51
  -1   6   3    5.44    1.26
  -1   6   4   53.18    3.41
  -1   6   4   49.19    3.31
  -1   6   5   43.31    3.18
  -1   6   5   44.70    3.28
  -1   6   6   16.47    2.24
  -1   6   6   11.60    1.92
  -1   6   7   14.79    2.31
  -1   6   7   13.58    2.17
  -1   6   8    4.64    1.88
  -1   6   8    2.85    1.61
  -1   6   9   26.51    3.23
  -1   6   9   24.52    3.02
  -1   7  -9   25.06    2.64
  -1   7  -8   31.57    2.75
  -1   7  -7   35.05    2.86
  -1   7  -6  260.20    9.20
  -1   7   0    6.25    0.90
  -1   7   0    7.73    1.37
  -1   7   1   10.43    1.55
  -1   7   2    6.91    1.48
  -1   7   3   17.09    2.08
  -1   7   3   18.17    2.12
  -1   7   4   68.39    4.23
  -1   7   4   83.54    4.56
  -1   7   5   19.71    2.39
  -1   7   5   15.45    2.18
  -1   7   6   38.62    3.39
  -1   7   6   30.20    3.00
  -1   7   7   19.85    2.75
  -1   7   7   16.05    2.49
  -1   7   8    7.68    2.21
  -1   7   8    5.99    2.01
  -1   8  -1  305.45   10.37
  -1   8   0   69.95    4.00
  -1   8   1  223.52    8.36
  -1   8   1  209.87    8.32
  -1   8   2    0.96    1.15
  -1   8   2    0.25    1.19
  -1   8   3   35.32    3.09
  -1   8   4   39.01    3.35
  -1   8   4   39.25    3.33
  -1   8   5   80.85    4.99
  -1   8   5   78.83    4.89
  -1   8   6    0.93    1.67
  -1   8   6    0.31    1.69
  -1   8   7   12.70    2.61
  -1   8   7   14.52    2.71
  -1   9  -2    2.88    1.34
  -1   9  -1    1.40    1.28
  -1   9   0   22.38    2.45
  -1   9   1  140.44    6.63
  -1   9   1  156.31    7.02
  -1   9   2    2.18    1.49
  -1   9   2    2.79    1.53
  -1   9   3   87.19    5.11
  -1   9   4   46.51    3.84
  -1   9   4   46.18    3.91
  -1   9   5   18.50    2.81
  -1   9   5   16.47    2.69
  -1  10  -3    3.86    1.50
  -1  10  -2   26.55    2.77
  -1  10  -1    0.53    1.39
  -1  10   0    1.39    1.50
  -1  10   1   38.44    3.44
  -1  10   1   37.64    3.49
  -1  10   2    2.75    1.65
  -1  10   2    1.55    1.66
  -1  10   3    4.42    1.87
  -1  11  -3   52.75    3.89
  -1  11  -2    0.28    1.45
  -1  11  -1    2.08    1.54
  -1  11   0    0.93    1.67
  -1  11   0    1.61    1.78
   0 -11   0    3.37    1.56
   0 -11   1   -0.44    1.35
   0 -11   2   -0.23    1.54
   0 -11   3    7.89    1.88
   0 -11   4   10.21    1.96
   0 -11   4   10.16    2.11
   0 -10  -1    1.78    1.34
   0 -10   0   16.86    1.96
   0 -10   1   30.19    2.57
   0 -10   2    0.83    1.23
   0 -10   2    0.17    1.06
   0 -10   3   -0.44    1.19
   0 -10   3    1.28    1.14
   0 -10   4   22.35    2.26
   0 -10   4   23.87    2.52
   0 -10   5    0.50    1.36
   0 -10   5    0.22    1.28
   0 -10   6    9.71    2.01
   0 -10   6    7.16    1.93
   0 -10   7    0.26    1.40
   0  -9  -2   52.48    2.98
   0  -9  -1    1.11    1.04
   0  -9   0   -0.17    0.98
   0  -9   1    3.22    1.07
   0  -9   1    2.44    1.16
   0  -9   2   27.83    2.37
   0  -9   2   28.69    2.22
   0  -9   3    6.54    1.37
   0  -9   3    6.47    1.47
   0  -9   4   11.88    1.84
   0  -9   4   15.69    1.82
   0  -9   5   -0.58    1.11
   0  -9   5   -0.22    1.14
   0  -9   6    0.64    1.31
   0  -9   7    1.63    1.46
   0  -9   7    1.28    1.44
   0  -9   8    9.88    2.20
   0  -9   8   14.52    2.26
   0  -8  -3  102.52    4.18
   0  -8  -2    0.40    0.86
   0  -8  -1  782.23   20.53
   0  -8  -1  718.23   19.61
   0  -8   0    1.60    0.99
   0  -8   0    0.82    0.77
   0  -8   1  192.50    6.78
   0  -8   1  186.59    6.30
   0  -8   2  192.51    6.57
   0  -8   2  190.59    6.94
   0  -8   3   17.76    1.75
   0  -8   3   17.37    1.86
   0  -8   4  126.18    5.34
   0  -8   4  117.08    5.01
   0  -8   5   -0.35    1.08
   0  -8   6   18.97    2.23
   0  -8   6   27.95    2.40
   0  -8   7    5.55    1.61
   0  -8   7    6.74    1.51
   0  -8   8   13.22    2.14
   0  -8   9    3.04    1.56
   0  -8   9    4.27    1.79
   0  -7  -4   67.60    3.02
   0  -7  -3    2.74    0.89
   0  -7  -2  116.18    4.39
   0  -7  -2  112.49    3.67
   0  -7  -1   10.31    0.99
   0  -7  -1    9.98    1.24
   0  -7   0  187.85    6.02
   0  -7   0  202.41    6.64
   0  -7   1   25.45    1.88
   0  -7   1   23.05    1.64
   0  -7   2   36.26    2.31
   0  -7   2   36.84    2.14
   0  -7   3    2.10    0.93
   0  -7   3    2.45    0.76
   0  -7   3    1.79    0.80
   0  -7   4  303.84    9.85
   0  -7   4  309.77    9.67
   0  -7   5   24.12    2.06
   0  -7   6   42.23    2.90
   0  -7   6   39.78    2.72
   0  -7   7   71.56    4.08
   0  -7   8    2.11    1.30
   0  -7   8    3.40    1.38
   0  -7   9   43.21    3.38
   0  -7   9   42.04    3.26
   0  -7  10    2.03    1.52
   0  -7  10    0.80    1.51
   0  -6  -5   -0.52    0.65
   0  -6  -4   46.39    2.26
   0  -6  -3    2.15    0.77
   0  -6  -2  149.34    4.96
   0  -6  -2  139.45    4.21
   0  -6  -1   59.17    2.30
   0  -6  -1   60.97    2.74
   0  -6   0    6.73    0.95
   0  -6   0    7.04    0.80
   0  -6   1   57.34    2.55
   0  -6   1   68.56    3.00
   0  -6   2   51.44    2.69
   0  -6   2   58.50    2.60
   0  -6   3    3.99    0.85
   0  -6   3    3.87    0.90
   0  -6   3    4.34    0.72
   0  -6   4   16.27    1.50
   0  -6   4   16.06    1.06
   0  -6   5    0.56    0.72
   0  -6   5   -0.31    0.76
   0  -6   5    0.82    0.37
   0  -6   6  457.49   13.79
   0  -6   7   44.87    2.87
   0  -6   7   39.67    2.85
   0  -6   8   23.55    2.20
   0  -6   8   22.32    2.25
   0  -6   9   57.21    3.75
   0  -6   9   62.49    3.80
   0  -6  10   10.81    2.02
   0  -6  10   11.02    1.89
   0  -6  11   29.41    2.99
   0  -6  11   35.59    3.26
   0  -5  -5   22.10    1.42
   0  -5  -4   44.63    2.08
   0  -5  -3    8.68    0.93
   0  -5  -2    0.31    0.29
   0  -5  -2    0.81    0.56
   0  -5  -1   44.50    2.12
   0  -5  -1   44.67    1.74
   0  -5   0  109.94    3.84
   0  -5   0  100.08    3.41
   0  -5   1   25.07    1.79
   0  -5   1   23.15    1.53
   0  -5   1   22.94    1.34
   0  -5   2  476.52   13.37
   0  -5   2  464.73   13.12
   0  -5   2  472.96   12.87
   0  -5   3   84.61    3.06
   0  -5   3   89.79    3.44
   0  -5   3   96.89    3.84
   0  -5   4    2.17    0.67
   0  -5   4    1.70    0.72
   0  -5   4    2.04    0.86
   0  -5   4    1.97    0.44
   0  -5   5  296.96    9.13
   0  -5   5  286.05    7.61
   0  -5   6   20.36    1.83
   0  -5   6   19.26    1.69
   0  -5   7   60.49    3.38
   0  -5   7   67.02    3.41
   0  -5   8   12.82    1.70
   0  -5   8   21.83    2.08
   0  -5   9    8.91    1.55
   0  -5   9    9.07    1.62
   0  -5  10   -0.22    1.19
   0  -5  10    0.23    1.27
   0  -5  11   24.47    2.78
   0  -5  11   22.03    2.61
   0  -4  -6    1.21    0.66
   0  -4  -5    9.12    0.92
   0  -4  -4  116.93    3.88
   0  -4  -3   31.91    1.60
   0  -4  -2    5.45    0.68
   0  -4  -2    5.67    0.40
   0  -4  -1   93.97    2.80
   0  -4  -1   89.67    3.21
   0  -4   0   34.40    1.47
   0  -4   0   37.60    1.77
   0  -4   1  205.25    6.56
   0  -4   1  220.85    6.40
   0  -4   1  210.49    6.10
   0  -4   2   46.53    2.00
   0  -4   2   47.87    2.28
   0  -4   2   39.31    2.03
   0  -4   2   49.13    1.92
   0  -4   3  300.93    8.55
   0  -4   3  292.38    8.02
   0  -4   3  301.78    8.83
   0  -4   4  141.97    4.77
   0  -4   4  128.25    3.79
   0  -4   4  135.31    4.79
   0  -4   5  115.34    4.45
   0  -4   5  128.28    3.68
   0  -4   5  117.92    4.61
   0  -4   5  136.16    4.78
   0  -4   6   54.53    2.72
   0  -4   6   52.86    2.77
   0  -4   6   46.88    2.66
   0  -4   6   51.74    2.77
   0  -4   7   38.39    2.46
   0  -4   7   36.25    2.54
   0  -4   7   38.25    2.40
   0  -4   8    2.82    1.00
   0  -4   8    2.04    1.00
   0  -4   8    4.73    1.30
   0  -4   9    4.53    1.25
   0  -4   9    3.73    1.48
   0  -4   9    3.87    1.25
   0  -4  10   -1.06    1.29
   0  -4  10    0.20    1.06
   0  -4  11    0.87    1.37
   0  -3  -3  210.21    6.04
   0  -3  -2  266.02    7.34
   0  -3  -1  283.06    7.44
   0  -3  -1  263.74    6.99
   0  -3   0  422.33   11.14
   0  -3   0  417.12   10.84
   0  -3   1  104.45    3.23
   0  -3   1  106.85    3.57
   0  -3   1  102.82    3.41
   0  -3   2    9.19    0.73
   0  -3   2    6.68    0.57
   0  -3   2    7.71    0.86
   0  -3   3    4.33    0.63
   0  -3   3    4.01    0.76
   0  -3   3    4.03    0.43
   0  -3   4  110.71    3.94
   0  -3   4  115.80    4.03
   0  -3   4  114.24    3.35
   0  -3   4  116.00    3.94
   0  -3   4  112.87    4.09
   0  -3   5   15.38    1.38
   0  -3   5   15.63    0.94
   0  -3   5   13.94    1.20
   0  -3   5   18.84    1.44
   0  -3   5   16.69    1.35
   0  -3   6    0.33    0.56
   0  -3   6   -0.29    0.72
   0  -3   6    1.53    0.72
   0  -3   7   78.53    3.67
   0  -3   7   83.38    4.18
   0  -3   7   78.43    3.98
   0  -3   7   83.71    3.58
   0  -3   8   -0.21    1.07
   0  -3   8    2.40    0.93
   0  -3   8    1.93    1.16
   0  -3   8    2.31    1.03
   0  -3   9  110.43    4.91
   0  -3   9  107.09    5.48
   0  -3   9  106.45    5.57
   0  -3   9  116.60    4.86
   0  -3  10    7.68    1.90
   0  -3  10    8.67    1.52
   0  -3  10    8.47    2.09
   0  -3  11   -0.31    1.52
   0  -3  11    0.40    1.20
   0  -3  11   -0.33    1.56
   0  -3  12   61.38    4.73
   0  -2  -6   93.61    2.85
   0  -2  -6   94.54    3.19
   0  -2  -5  360.47    9.74
   0  -2  -5  356.70    9.24
   0  -2  -5  369.73   10.43
   0  -2  -4 1109.94   27.57
   0  -2  -4 1102.20   28.74
   0  -2  -4 1149.47   28.99
   0  -2  -3  635.24   16.82
   0  -2  -1  783.55   19.31
   0  -2  -1  764.90   19.68
   0  -2   0 1005.39   24.85
   0  -2   0  985.16   25.05
   0  -2   1   39.39    1.42
   0  -2   1   37.34    1.58
   0  -2   2  254.28    6.86
   0  -2   2  246.49    6.48
   0  -2   2  243.79    6.92
   0  -2   3   23.82    1.21
   0  -2   3   21.63    1.23
   0  -2   3   23.62    0.96
   0  -2   3   23.63    1.33
   0  -2   3   19.18    1.22
   0  -2   4  124.59    4.11
   0  -2   4  133.67    4.25
   0  -2   4  124.67    3.79
   0  -2   4  130.08    4.49
   0  -2   4  129.32    4.56
   0  -2   5   32.87    1.81
   0  -2   5   34.71    2.15
   0  -2   5   32.00    2.08
   0  -2   5   35.54    1.79
   0  -2   6   10.88    1.36
   0  -2   6   10.44    1.05
   0  -2   6   11.33    1.07
   0  -2   6   12.07    1.51
   0  -2   6   10.80    1.11
   0  -2   7   10.74    1.53
   0  -2   7   12.42    1.28
   0  -2   7   13.84    1.37
   0  -2   7   13.31    1.26
   0  -2   7   10.87    1.63
   0  -2   8    1.25    1.11
   0  -2   8    2.43    0.84
   0  -2   8    3.10    1.03
   0  -2   8    2.27    0.83
   0  -2   8    4.07    1.35
   0  -2   9   15.21    1.63
   0  -2   9   13.97    1.49
   0  -2   9   17.95    2.22
   0  -2   9   13.80    2.22
   0  -2  10   45.18    3.55
   0  -2  10   49.34    3.96
   0  -2  10   40.65    2.73
   0  -2  11    1.53    1.66
   0  -2  11    1.42    1.84
   0  -2  12    6.82    2.27
   0  -2  12    3.19    2.10
   0  -1  -7  492.13   13.40
   0  -1  -7  513.38   13.32
   0  -1  -6   62.38    2.76
   0  -1  -6   60.90    2.32
   0  -1  -6   60.33    2.19
   0  -1  -5 2209.17   54.75
   0  -1  -5 2183.76   54.97
   0  -1  -5 2224.60   55.51
   0  -1  -5 2206.70   55.73
   0  -1  -5 2213.92   56.09
   0  -1  -4  605.38   16.07
   0  -1  -4  604.65   16.26
   0  -1  -4  615.25   15.41
   0  -1  -4  608.72   15.65
   0  -1  -4  598.03   16.46
   0  -1  -3  361.37    9.24
   0  -1  -3  373.04    9.87
   0  -1  -2 5571.50  137.48
   0  -1   0  977.83   24.18
   0  -1   1  137.08    3.79
   0  -1   2  117.90    3.34
   0  -1   2  118.00    3.35
   0  -1   2  118.71    3.39
   0  -1   2  109.32    3.17
   0  -1   2  116.69    3.47
   0  -1   2  112.63    3.55
   0  -1   3  298.83    8.42
   0  -1   3  311.96    8.43
   0  -1   3  319.52    8.31
   0  -1   3  317.91    8.81
   0  -1   3  315.16    8.37
   0  -1   4   16.80    1.03
   0  -1   4   16.90    1.10
   0  -1   4   17.65    1.11
   0  -1   4   15.84    1.29
   0  -1   5  375.64   10.37
   0  -1   5  392.63   10.26
   0  -1   5  369.77   10.98
   0  -1   6    3.97    0.68
   0  -1   6    3.08    0.88
   0  -1   6    2.72    0.69
   0  -1   6    4.28    0.77
   0  -1   7  116.89    4.39
   0  -1   7  121.93    5.14
   0  -1   7  115.09    4.23
   0  -1   8   16.11    1.49
   0  -1   8   16.11    1.93
   0  -1   8   15.85    1.51
   0  -1   8   18.09    2.26
   0  -1   9    6.82    1.21
   0  -1   9    6.43    1.56
   0  -1   9    6.74    1.27
   0  -1   9    6.86    1.89
   0  -1  10    0.97    1.77
   0  -1  10   -1.36    1.51
   0  -1  10    0.30    0.92
   0  -1  11    0.92    1.59
   0  -1  11   -0.37    1.89
   0  -1  12    2.05    1.80
   0  -1  12    1.68    2.27
   0   0 -11    9.28    2.07
   0   0 -10    4.32    1.62
   0   0  -7   87.90    3.07
   0   0  -7   76.36    2.97
   0   0  -7   81.69    3.31
   0   0  -6    0.18    0.43
   0   0  -6    0.25    0.49
   0   0  -6   -0.25    0.57
   0   0  -6    0.52    0.71
   0   0  -5 1567.64   39.56
   0   0  -5 1578.33   39.92
   0   0  -5 1566.34   40.12
   0   0  -5 1579.87   39.66
   0   0  -5 1621.25   40.62
   0   0  -4   92.16    2.92
   0   0  -4   94.62    3.01
   0   0  -4   95.51    3.20
   0   0  -4   96.32    3.29
   0   0  -4   98.66    3.61
   0   0  -3 6391.12  157.85
   0   0  -3 6427.36  157.94
   0   0  -3 6411.22  158.09
   0   0  -3 6387.35  158.17
   0   0  -3 6465.02  158.46
   0   0  -2 9305.86  229.43
   0   0  -2 9310.97  229.49
   0   0  -2 9364.86  229.60
   0   0  -2 9386.35  229.64
   0   0  -1  129.98    3.34
   0   0  -1  120.99    3.34
   0   0   2 9334.35  227.04
   0   0   2 9008.78  227.16
   0   0   2 9272.84  227.25
   0   0   2 9352.45  227.46
   0   0   3 6346.03  156.44
   0   0   3 6416.88  156.79
   0   0   3 6301.85  156.14
   0   0   4   91.43    3.28
   0   0   4   95.93    3.63
   0   0   4   96.54    3.00
   0   0   5 1581.84   40.63
   0   0   5 1583.43   41.23
   0   0   5 1616.60   40.18
   0   0   6   -0.30    0.66
   0   0   6    1.14    0.64
   0   0   6    0.50    0.50
   0   0   7   79.29    3.45
   0   0   7   78.80    3.96
   0   0   7   76.15    3.05
   0   0   8    2.02    0.80
   0   0   8    3.75    1.22
   0   0   8    3.08    1.00
   0   0   9    1.17    0.85
   0   0   9    0.72    1.13
   0   0   9   -0.30    1.64
   0   0   9    0.94    0.96
   0   0  10    4.67    1.69
   0   0  10    2.08    1.80
   0   0  11   10.51    2.32
   0   0  11   14.71    3.05
   0   1 -11   -0.26    1.38
   0   1 -10    0.23    1.24
   0   1  -9    6.44    1.43
   0   1  -8   15.61    1.79
   0   1  -7  109.80    3.96
   0   1  -7  117.88    4.18
   0   1  -7  124.08    4.46
   0   1  -7  121.85    4.91
   0   1  -6    2.71    0.62
   0   1  -6    5.34    0.97
   0   1  -6    5.02    0.73
   0   1  -6    4.60    0.75
   0   1  -6    4.06    0.78
   0   1  -5  393.03   10.25
   0   1  -5  366.32   10.20
   0   1  -5  374.88   10.31
   0   1  -5  377.19   10.39
   0   1  -5  368.21   10.84
   0   1  -5  375.70   10.86
   0   1  -4   17.10    1.00
   0   1  -4   15.76    0.99
   0   1  -4   18.20    1.10
   0   1  -4   18.39    1.09
   0   1  -4   16.25    1.23
   0   1  -4   15.29    1.24
   0   1  -3  314.10    8.39
   0   1  -3  314.37    8.41
   0   1  -3  320.69    8.47
   0   1  -3  314.50    8.37
   0   1  -3  308.35    8.67
   0   1  -3  320.45    8.77
   0   1  -2  119.39    3.38
   0   1  -2  118.65    3.39
   0   1  -2  116.83    3.40
   0   1  -2  117.20    3.27
   0   1  -2  116.94    3.58
   0   1  -2  116.81    3.54
   0   1  -1  144.67    3.98
   0   1   0  994.68   24.52
   0   1   0  987.33   24.62
   0   1   1 2560.08   63.40
   0   1   2 5530.95  136.53
   0   1   3  362.37    9.96
   0   1   3  355.54   10.21
   0   1   3  368.52    9.33
   0   1   4  595.89   16.30
   0   1   4  607.14   16.70
   0   1   4  623.54   15.63
   0   1   5 2253.07   56.35
   0   1   5 2233.13   56.89
   0   1   5 2219.37   55.52
   0   1   6   59.82    2.86
   0   1   6   59.49    3.24
   0   1   6   59.71    2.29
   0   1   7  525.13   14.81
   0   1   7  504.55   15.47
   0   1   8   73.11    3.64
   0   1   8   74.78    4.21
   0   1   9   40.91    2.81
   0   1   9   45.02    3.37
   0   1  10   37.76    3.36
   0   1  10   38.78    3.90
   0   1  11   -0.32    1.64
   0   1  11   -1.23    2.16
   0   2 -11    0.51    1.37
   0   2 -10   47.96    3.40
   0   2  -9   10.93    1.70
   0   2  -8    4.95    1.27
   0   2  -7   13.38    1.52
   0   2  -7   12.10    1.14
   0   2  -7   11.52    1.23
   0   2  -6   12.84    1.33
   0   2  -6   11.66    1.05
   0   2  -6    9.75    1.00
   0   2  -6   10.14    1.03
   0   2  -5   31.23    1.66
   0   2  -5   33.17    1.69
   0   2  -5   37.58    1.78
   0   2  -5   35.41    1.66
   0   2  -5   32.15    1.92
   0   2  -5   29.88    1.91
   0   2  -4  117.29    3.95
   0   2  -4  123.38    4.00
   0   2  -4  127.71    3.82
   0   2  -4  126.68    3.98
   0   2  -4  126.23    4.33
   0   2  -4  122.87    4.27
   0   2  -3   22.36    1.18
   0   2  -3   22.54    1.21
   0   2  -3   21.17    1.18
   0   2  -3   23.84    1.05
   0   2  -3   22.58    1.34
   0   2  -3   21.24    1.27
   0   2  -2  250.53    7.00
   0   2  -2  250.09    6.53
   0   2  -1   39.78    1.42
   0   2  -1   35.38    1.47
   0   2   0  976.22   24.21
   0   2   0  963.26   24.42
   0   2   1  768.85   19.11
   0   2   2 1092.90   27.96
   0   2   3  634.33   16.93
   0   2   4 1142.44   29.62
   0   2   5  363.65   10.70
   0   2   5  364.72   11.15
   0   2   6   93.61    3.97
   0   2   6   95.36    4.43
   0   2   7 1420.95   37.12
   0   2   7 1401.17   37.76
   0   2   8   10.94    1.73
   0   2   8   12.10    1.56
   0   2   9  167.01    6.71
   0   2   9  176.96    7.54
   0   2  10   87.44    5.98
   0   2  10   83.24    5.11
   0   2  11   26.86    3.19
   0   3 -10    7.67    1.65
   0   3  -9  120.69    5.34
   0   3  -8    1.04    0.97
   0   3  -7   75.62    3.18
   0   3  -7   75.83    3.12
   0   3  -7   76.32    3.68
   0   3  -6    0.09    0.60
   0   3  -6    0.13    0.64
   0   3  -6    0.76    0.55
   0   3  -5   17.78    1.47
   0   3  -5   16.06    1.30
   0   3  -5   20.63    1.40
   0   3  -5   16.82    1.09
   0   3  -5   16.66    1.37
   0   3  -4  113.49    3.83
   0   3  -4  113.39    3.90
   0   3  -4  117.38    3.91
   0   3  -4  114.69    4.17
   0   3  -4  110.53    3.45
   0   3  -4  109.37    4.07
   0   3  -3    4.83    0.45
   0   3  -3    3.58    0.73
   0   3  -3    3.08    0.63
   0   3  -3    3.05    0.60
   0   3  -2    8.13    0.75
   0   3  -2    8.95    0.87
   0   3  -2    9.63    0.56
   0   3  -1  103.71    3.21
   0   3  -1  104.39    3.39
   0   3   0  420.52   10.77
   0   3   0  410.50   11.07
   0   3   1  264.86    6.92
   0   3   2  269.16    7.80
   0   3   2  244.64    7.86
   0   3   3  225.86    7.12
   0   3   4    3.29    0.78
   0   3   5   45.67    2.59
   0   3   6   73.12    3.62
   0   3   6   69.59    3.83
   0   3   7   11.65    1.74
   0   3   7   11.33    1.54
   0   3   8   62.15    3.62
   0   3   8   65.51    4.06
   0   3   9   96.37    4.92
   0   3   9  103.10    5.58
   0   3  10    3.10    1.79
   0   3  10    3.68    2.30
   0   3  11    4.80    2.07
   0   4 -10    0.21    1.16
   0   4  -9    2.88    1.15
   0   4  -8    2.93    1.12
   0   4  -7   33.80    2.10
   0   4  -7   39.36    2.49
   0   4  -6   56.55    2.66
   0   4  -6   52.21    2.16
   0   4  -6   52.30    2.80
   0   4  -5  127.39    4.74
   0   4  -5  124.74    4.49
   0   4  -5  126.61    3.81
   0   4  -4  129.05    4.68
   0   4  -4  135.33    4.87
   0   4  -3  304.53    8.65
   0   4  -3  306.12    8.99
   0   4  -2   47.63    2.03
   0   4  -2   47.83    2.17
   0   4  -1  205.35    5.89
   0   4  -1  204.77    6.17
   0   4   0   33.00    1.44
   0   4   0   34.20    1.74
   0   4   1   95.57    2.93
   0   4   2    5.60    0.89
   0   4   2    6.77    1.03
   0   4   3   36.91    2.27
   0   4   3   31.18    2.19
   0   4   4  120.02    4.83
   0   4   5   10.03    1.37
   0   4   6    2.86    1.04
   0   4   7  133.79    5.78
   0   4   8    0.26    1.22
   0   4   8   -0.21    1.14
   0   4   9    2.35    1.45
   0   4   9    1.64    1.32
   0   4  10    3.25    1.81
   0   4  10    3.88    2.30
   0   5  -8   19.97    1.97
   0   5  -7   57.63    3.24
   0   5  -6   20.79    1.76
   0   5  -6   18.56    1.62
   0   5  -5  286.01    8.98
   0   5  -4    1.25    0.68
   0   5  -2  482.29   13.06
   0   5  -1   21.58    1.31
   0   5  -1   21.89    1.57
   0   5   0  108.79    3.96
   0   5   0  105.73    3.48
   0   5   1   42.17    1.72
   0   5   2    0.30    0.69
   0   5   2    0.33    0.67
   0   5   3    8.02    1.37
   0   5   3    6.97    1.20
   0   5   4   42.62    2.78
   0   5   4   44.62    2.94
   0   5   5   22.89    2.12
   0   5   5   26.89    2.43
   0   5   6    9.87    1.64
   0   5   7    1.57    1.20
   0   5   8    0.96    1.21
   0   5   9    4.45    1.85
   0   5   9    4.67    1.68
   0   6  -9   59.92    3.54
   0   6  -8   19.04    1.93
   0   6  -7   41.33    2.69
   0   6  -6  487.33   14.37
   0   6  -1   59.95    2.54
   0   6   0    7.63    0.86
   0   6   1   61.27    2.40
   0   6   2  152.93    6.19
   0   6   2  148.46    6.05
   0   6   3    1.34    0.85
   0   6   3    1.47    0.97
   0   6   4   43.94    3.01
   0   6   4   40.35    3.02
   0   6   5    0.47    1.03
   0   6   5    0.44    1.02
   0   6   6   16.38    2.31
   0   6   6   14.54    2.09
   0   6   7   -0.29    1.41
   0   6   7    1.27    1.37
   0   6   8    4.86    1.67
   0   6   9    8.91    2.07
   0   7  -8    4.09    1.30
   0   7   0  187.39    5.92
   0   7   2  118.32    5.58
   0   7   3    1.56    1.08
   0   7   3    4.58    1.39
   0   7   4   65.96    4.03
   0   7   4   68.47    4.19
   0   7   5   21.99    2.56
   0   7   5   24.80    2.57
   0   7   6   43.94    3.54
   0   7   6   46.32    3.70
   0   7   7    7.27    1.97
   0   7   7    5.96    1.79
   0   7   8    2.73    1.92
   0   7   8    2.72    1.78
   0   8   1  780.56   22.64
   0   8   2    0.52    1.19
   0   8   3  103.26    5.41
   0   8   3  105.61    5.60
   0   8   4   20.19    2.53
   0   8   4   20.38    2.46
   0   8   5   13.45    2.33
   0   8   5   16.29    2.41
   0   8   6    2.55    1.79
   0   8   6    2.09    1.68
   0   8   7    9.19    2.30
   0   9   0   -0.75    1.35
   0   9   1    1.83    1.49
   0   9   2   58.68    4.30
   0   9   3   63.44    4.42
   0   9   3   69.89    4.66
   0   9   4    1.88    1.72
   0   9   4    2.12    1.59
   0   9   5    3.63    1.79
   0   9   5    5.76    1.97
   0  10  -1   30.36    2.98
   0  10   0   23.19    2.72
   0  10   1    2.95    1.70
   0  10   1    1.58    1.64
   0  10   2    0.33    1.76
   0  10   3   48.15    3.98
   0  10   3   46.30    4.06
   0  11  -2   -0.88    1.56
   0  11  -1    0.61    1.50
   0  11   0    5.05    1.93
   1 -11   0    2.90    1.49
   1 -11   1    3.30    1.56
   1 -11   2    0.94    1.44
   1 -11   3   57.08    3.90
   1 -10  -1   46.11    3.01
   1 -10   0    0.37    1.15
   1 -10   1    0.20    1.24
   1 -10   2   30.42    2.45
   1 -10   2   24.12    2.41
   1 -10   3    3.50    1.42
   1 -10   3    5.58    1.60
   1 -10   4   17.42    2.30
   1 -10   4   14.62    2.06
   1 -10   5    1.78    1.43
   1 -10   5    0.69    1.43
   1 -10   6    0.75    1.58
   1 -10   6    2.45    1.62
   1  -9  -2    3.24    1.10
   1  -9  -1  143.14    5.55
   1  -9   0   27.68    2.26
   1  -9   1    1.88    0.99
   1  -9   1    2.43    1.12
   1  -9   2    5.59    1.31
   1  -9   2    4.64    1.28
   1  -9   3   19.62    2.02
   1  -9   3   22.84    2.21
   1  -9   4    0.64    1.12
   1  -9   4   -0.38    1.11
   1  -9   5   -0.23    1.31
   1  -9   5    0.21    1.13
   1  -9   6    2.51    1.45
   1  -9   6    2.72    1.41
   1  -9   7    1.23    1.40
   1  -9   8   -0.53    1.55
   1  -9   8   -0.85    1.63
   1  -8  -3   35.71    2.16
   1  -8  -2    1.21    0.93
   1  -8  -1  201.74    6.80
   1  -8   0   73.66    3.49
   1  -8   0   71.07    3.23
   1  -8   1  314.57    9.69
   1  -8   1  289.37    9.24
   1  -8   2  105.77    4.69
   1  -8   2  109.43    4.55
   1  -8   2  112.93    4.84
   1  -8   3    4.07    1.09
   1  -8   3    4.91    1.25
   1  -8   3    5.78    1.24
   1  -8   4   53.43    3.25
   1  -8   4   48.09    3.05
   1  -8   5    5.46    1.35
   1  -8   5    6.18    1.50
   1  -8   6   39.03    3.01
   1  -8   7   16.05    2.09
   1  -8   7   17.43    2.30
   1  -8   8    0.26    1.30
   1  -8   9   16.06    2.43
   1  -8   9   16.39    2.53
   1  -7  -3   17.53    1.39
   1  -7  -2   13.87    1.31
   1  -7  -1    6.65    1.08
   1  -7   0    7.31    1.09
   1  -7   0    5.76    0.91
   1  -7   1  362.11   10.92
   1  -7   1  368.05   10.70
   1  -7   2   77.45    3.65
   1  -7   2   81.00    3.73
   1  -7   2   81.12    3.55
   1  -7   3  239.64    7.97
   1  -7   3  226.27    7.57
   1  -7   3  234.98    7.75
   1  -7   4  345.10   11.22
   1  -7   4  359.41   10.62
   1  -7   4  373.88   11.19
   1  -7   5  100.52    4.58
   1  -7   6  262.16    9.10
   1  -7   6  246.95    8.82
   1  -7   7   32.35    2.77
   1  -7   8   28.83    2.72
   1  -7   8   25.83    2.68
   1  -7   9   21.18    2.54
   1  -7   9   21.43    2.52
   1  -7  10   43.89    3.66
   1  -7  10   42.37    3.59
   1  -6  -4   52.37    2.23
   1  -6  -3    6.92    0.86
   1  -6  -2  284.56    8.30
   1  -6  -1   39.54    2.06
   1  -6   0  399.68   11.12
   1  -6   0  379.05   10.80
   1  -6   1  290.73    8.92
   1  -6   1  303.43    8.78
   1  -6   2  382.73   11.08
   1  -6   2  358.52   11.01
   1  -6   2  380.77   10.86
   1  -6   3    0.12    0.63
   1  -6   3    0.54    0.62
   1  -6   3    0.23    0.63
   1  -6   4   25.47    1.98
   1  -6   4   25.32    1.68
   1  -6   4   23.73    1.84
   1  -6   5   36.89    1.95
   1  -6   5   38.66    2.49
   1  -6   6  467.90   14.19
   1  -6   7   66.35    3.80
   1  -6   7   70.29    3.78
   1  -6   8  211.26    8.25
   1  -6   8  226.34    8.27
   1  -6   9  120.36    5.89
   1  -6   9  130.17    5.95
   1  -6  10    9.35    1.91
   1  -6  10    6.94    1.81
   1  -5  -5    9.61    0.79
   1  -5  -4   -0.11    0.42
   1  -5  -3  587.50   15.46
   1  -5  -2   22.43    1.32
   1  -5  -1   95.41    3.38
   1  -5   0  199.25    6.06
   1  -5   0  194.45    5.87
   1  -5   1  870.83   22.35
   1  -5   1  830.15   22.10
   1  -5   2   69.07    3.05
   1  -5   2   71.80    3.09
   1  -5   2   77.24    3.05
   1  -5   3  851.85   23.35
   1  -5   3  878.77   23.10
   1  -5   3  900.73   23.28
   1  -5   4   -0.24    0.59
   1  -5   4    0.86    0.57
   1  -5   5   39.73    2.49
   1  -5   5   37.66    1.89
   1  -5   6  133.86    5.43
   1  -5   6  135.06    4.45
   1  -5   6  136.00    5.35
   1  -5   7   77.60    3.92
   1  -5   7   71.77    3.75
   1  -5   8   -0.75    1.11
   1  -5   8   -0.40    1.09
   1  -5   9   13.94    1.90
   1  -5   9    8.20    1.71
   1  -5  10   -0.46    1.32
   1  -5  10   -0.25    1.49
   1  -5  11   31.05    3.02
   1  -4  -5    1.65    0.39
   1  -4  -4    2.03    0.41
   1  -4  -3   16.22    0.92
   1  -4  -2  272.69    7.50
   1  -4  -1  759.26   19.55
   1  -4   0   90.33    3.16
   1  -4   0   89.63    3.61
   1  -4   0   93.40    3.09
   1  -4   1  806.92   21.45
   1  -4   1  806.23   20.99
   1  -4   1  805.62   20.88
   1  -4   2  413.09   11.15
   1  -4   2  389.24   11.08
   1  -4   2  396.56   10.99
   1  -4   2  389.41   11.45
   1  -4   3   15.18    1.42
   1  -4   3   12.97    1.11
   1  -4   3   16.09    1.24
   1  -4   4  545.89   15.56
   1  -4   4  555.83   15.00
   1  -4   4  594.35   15.93
   1  -4   5  391.09   10.67
   1  -4   5  386.05   11.48
   1  -4   5  377.52   11.29
   1  -4   6    8.31    1.15
   1  -4   6    6.64    1.14
   1  -4   6    4.91    0.78
   1  -4   7  179.27    6.59
   1  -4   7  175.32    5.59
   1  -4   7  166.94    6.30
   1  -4   8   64.99    3.60
   1  -4   8   62.01    3.42
   1  -4   9   60.42    3.69
   1  -4   9   45.85    3.13
   1  -4  10    0.85    1.32
   1  -4  11   10.42    1.99
   1  -3  -6   14.60    0.75
   1  -3  -6   14.46    0.76
   1  -3  -5   45.42    1.54
   1  -3  -4   45.24    1.51
   1  -3  -3  501.93   12.75
   1  -3  -3  520.79   13.96
   1  -3  -2   87.11    2.65
   1  -3  -1    2.53    0.38
   1  -3   0  693.95   17.81
   1  -3   0  691.88   17.75
   1  -3   1  690.76   18.49
   1  -3   1  701.47   18.16
   1  -3   1  687.90   18.34
   1  -3   1  714.35   18.10
   1  -3   2   22.14    1.33
   1  -3   2   21.60    1.48
   1  -3   2   24.28    1.32
   1  -3   3  127.08    4.17
   1  -3   3  131.58    4.62
   1  -3   4  881.03   23.14
   1  -3   4  868.85   22.66
   1  -3   4  903.39   23.35
   1  -3   4  859.95   22.97
   1  -3   5   -0.21    0.53
   1  -3   5    0.89    0.75
   1  -3   5    0.59    0.53
   1  -3   5    0.46    0.44
   1  -3   6  123.12    4.92
   1  -3   6  130.10    5.35
   1  -3   6  129.34    4.45
   1  -3   6  136.09    5.19
   1  -3   6  131.84    4.88
   1  -3   7   66.70    3.43
   1  -3   7   71.94    3.97
   1  -3   7   71.07    3.03
   1  -3   7   65.32    3.55
   1  -3   7   71.93    3.41
   1  -3   8   35.01    2.61
   1  -3   8   35.87    3.02
   1  -3   8   33.09    2.68
   1  -3   8   35.65    2.47
   1  -3   9   59.36    4.24
   1  -3   9   71.38    4.16
   1  -3   9   69.21    3.69
   1  -3  10   56.94    3.98
   1  -3  10   65.11    4.58
   1  -3  10   55.49    3.47
   1  -3  11   16.42    2.47
   1  -3  11   10.26    2.50
   1  -2  -6   51.76    1.70
   1  -2  -5  221.43    5.79
   1  -2  -5  214.57    7.01
   1  -2  -4  101.84    2.83
   1  -2  -4  110.77    3.95
   1  -2  -4  103.74    4.06
   1  -2  -3  116.74    3.12
   1  -2  -3  122.99    4.14
   1  -2  -3  121.19    4.24
   1  -2  -2  561.83   14.27
   1  -2  -2  606.17   15.28
   1  -2  -1   60.82    1.82
   1  -2  -1   54.34    2.23
   1  -2   0  893.05   22.48
   1  -2   1 2087.62   51.51
   1  -2   1 2008.95   51.66
   1  -2   1 2126.86   51.49
   1  -2   1 2023.66   51.76
   1  -2   2  265.49    7.51
   1  -2   2  269.65    7.72
   1  -2   3   35.90    1.80
   1  -2   3   36.95    1.78
   1  -2   3   39.50    1.74
   1  -2   3   40.90    2.02
   1  -2   3   39.38    1.80
   1  -2   4   28.46    1.63
   1  -2   4   24.42    1.76
   1  -2   4   25.21    1.42
   1  -2   4   25.72    1.60
   1  -2   4   27.03    1.53
   1  -2   5   13.27    1.26
   1  -2   5   12.13    1.19
   1  -2   5   14.04    1.12
   1  -2   5   10.76    1.34
   1  -2   5   15.30    1.22
   1  -2   6  210.21    6.93
   1  -2   6  199.05    6.44
   1  -2   6  212.27    7.09
   1  -2   6  212.39    7.60
   1  -2   6  201.08    6.62
   1  -2   7   42.72    2.58
   1  -2   7   41.23    2.68
   1  -2   7   37.85    2.93
   1  -2   7   38.51    2.34
   1  -2   8  108.84    5.08
   1  -2   8  112.91    4.59
   1  -2   8  105.80    5.55
   1  -2   9   -1.14    1.27
   1  -2   9    0.80    0.96
   1  -2   9    1.73    1.58
   1  -2  10   -0.26    1.37
   1  -2  10   -0.33    1.63
   1  -2  11   20.92    2.68
   1  -2  11   22.71    3.22
   1  -1  -7    2.75    0.69
   1  -1  -7    2.60    0.50
   1  -1  -6  266.12    8.12
   1  -1  -6  264.25    7.30
   1  -1  -6  254.94    6.95
   1  -1  -5  934.87   23.94
   1  -1  -5  946.62   23.63
   1  -1  -5  952.35   24.76
   1  -1  -4    4.72    0.36
   1  -1  -4    4.59    0.52
   1  -1  -4    3.28    0.79
   1  -1  -4    6.15    0.86
   1  -1  -3 1649.67   41.62
   1  -1  -3 1647.83   41.74
   1  -1  -2 1674.43   42.80
   1  -1  -2 1740.23   42.82
   1  -1  -1 1028.77   25.82
   1  -1   0 1598.42   39.37
   1  -1   0 1587.94   39.30
   1  -1   0 1560.81   39.60
   1  -1   1 2284.74   56.87
   1  -1   2   19.17    1.06
   1  -1   2   17.17    1.03
   1  -1   2   19.52    1.19
   1  -1   2   19.28    0.95
   1  -1   2   17.95    1.00
   1  -1   3  179.41    5.51
   1  -1   3  182.75    4.83
   1  -1   3  179.53    5.41
   1  -1   3  181.53    5.42
   1  -1   3  183.78    5.36
   1  -1   3  189.54    5.95
   1  -1   4 1103.82   28.52
   1  -1   4 1098.04   27.72
   1  -1   4 1160.42   28.39
   1  -1   4 1120.82   28.54
   1  -1   4 1087.97   29.18
   1  -1   4 1062.16   28.25
   1  -1   5    2.17    0.55
   1  -1   5    0.78    0.62
   1  -1   5    0.53    0.38
   1  -1   5    0.09    0.48
   1  -1   5    1.08    0.71
   1  -1   6    5.58    0.84
   1  -1   6    4.29    0.96
   1  -1   6    6.57    0.76
   1  -1   6    6.37    1.29
   1  -1   7   23.08    2.01
   1  -1   7   24.11    1.50
   1  -1   7   24.47    1.72
   1  -1   7   23.98    2.38
   1  -1   8   65.97    2.87
   1  -1   8   64.41    3.70
   1  -1   8   63.97    4.22
   1  -1   9   -0.23    1.20
   1  -1   9   -0.31    1.44
   1  -1  10   16.42    2.77
   1  -1  10   15.97    2.29
   1  -1  11    8.62    2.52
   1  -1  11   13.01    2.29
   1   0  -7   15.09    1.03
   1   0  -7   15.30    1.20
   1   0  -6   32.82    1.66
   1   0  -6   35.27    1.50
   1   0  -6   34.20    2.01
   1   0  -6   35.39    1.96
   1   0  -5   13.48    0.97
   1   0  -5   15.64    0.86
   1   0  -5   17.05    1.31
   1   0  -4  468.94   12.61
   1   0  -4  485.99   12.35
   1   0  -4  494.85   13.10
   1   0  -3 1541.80   38.71
   1   0  -3 1559.88   38.43
   1   0  -3 1539.43   39.10
   1   0  -2  134.58    3.82
   1   0  -2  135.61    3.56
   1   0  -2  131.93    4.07
   1   0  -2  130.81    4.03
   1   0  -1  501.04   12.77
   1   0   0 2460.91   61.53
   1   0   0 2523.64   61.52
   1   0   1   54.56    1.68
   1   0   2 3344.20   82.37
   1   0   2 3400.46   82.93
   1   0   2 3245.56   83.29
   1   0   2 3354.02   82.80
   1   0   3  277.31    7.40
   1   0   3  283.10    7.98
   1   0   3  293.16    8.51
   1   0   3  279.10    7.93
   1   0   4  461.55   12.06
   1   0   4  455.70   12.62
   1   0   4  439.61   12.66
   1   0   5   93.67    3.23
   1   0   5   94.80    4.36
   1   0   5   92.37    3.77
   1   0   6   53.01    2.35
   1   0   6   52.54    3.33
   1   0   6   55.06    2.93
   1   0   7   62.71    2.80
   1   0   7   61.66    3.45
   1   0   8    4.45    1.22
   1   0   8    4.79    0.94
   1   0   8    7.12    1.78
   1   0   9    2.57    1.35
   1   0   9    4.45    1.85
   1   0  10    9.85    1.96
   1   0  10    9.11    2.43
   1   0  11    0.90    1.65
   1   0  11    3.72    2.35
   1   1 -10   35.90    2.82
   1   1  -9  136.58    5.70
   1   1  -8   85.21    3.99
   1   1  -7  105.62    3.64
   1   1  -7  109.25    4.18
   1   1  -7  108.60    4.04
   1   1  -7  107.01    4.35
   1   1  -6   74.27    2.91
   1   1  -6   77.52    2.76
   1   1  -6   71.38    3.12
   1   1  -6   76.96    2.96
   1   1  -5  249.86    7.30
   1   1  -5  255.93    7.10
   1   1  -5  254.15    7.65
   1   1  -5  258.56    7.25
   1   1  -5  257.24    7.93
   1   1  -4    0.06    0.45
   1   1  -4    0.80    0.63
   1   1  -4   -0.18    0.35
   1   1  -4    0.09    0.36
   1   1  -3 1241.78   31.39
   1   1  -3 1268.70   31.21
   1   1  -3 1261.64   31.67
   1   1  -3 1217.23   31.21
   1   1  -2  190.49    5.36
   1   1  -2  196.00    5.58
   1   1  -2  196.38    5.26
   1   1  -2  189.10    5.03
   1   1  -1 2776.18   68.72
   1   1   0  217.01    5.78
   1   1   1  389.48   10.49
   1   1   2 2571.43   67.74
   1   1   2 2812.75   67.47
   1   1   3  320.76    8.71
   1   1   3  311.84    9.13
   1   1   3  328.79    9.16
   1   1   4  947.36   24.11
   1   1   4  925.53   24.74
   1   1   5  730.72   19.03
   1   1   5  726.49   20.49
   1   1   5  705.16   19.72
   1   1   6  451.56   12.52
   1   1   6  443.84   14.19
   1   1   6  443.30   13.31
   1   1   7  182.77    6.15
   1   1   7  184.88    7.76
   1   1   7  184.03    6.95
   1   1   8  141.33    5.38
   1   1   8  141.50    7.00
   1   1   9   45.25    3.97
   1   1   9   45.11    3.41
   1   1  10    7.17    1.89
   1   1  10    8.74    2.53
   1   1  11   76.36    5.05
   1   1  11   80.77    6.04
   1   2 -10   14.12    1.88
   1   2  -9    5.34    1.34
   1   2  -8  115.88    4.76
   1   2  -7   32.09    1.81
   1   2  -7   34.78    2.11
   1   2  -7   36.10    1.89
   1   2  -7   32.60    2.10
   1   2  -6  206.86    6.26
   1   2  -6  206.13    6.67
   1   2  -6  205.35    6.10
   1   2  -6  213.80    6.65
   1   2  -5   24.97    1.47
   1   2  -5   22.35    1.36
   1   2  -5   25.48    1.66
   1   2  -5   21.74    1.14
   1   2  -5   21.52    1.67
   1   2  -5   24.70    1.46
   1   2  -4  143.51    4.40
   1   2  -4  137.29    4.27
   1   2  -4  136.98    4.60
   1   2  -4  134.41    3.83
   1   2  -4  143.22    4.81
   1   2  -4  130.64    4.24
   1   2  -3   63.56    2.31
   1   2  -3   65.97    2.57
   1   2  -3   61.33    2.34
   1   2  -3   57.56    2.59
   1   2  -3   64.04    2.18
   1   2  -2   97.69    3.17
   1   2  -1  499.28   12.97
   1   2   0  419.70   10.95
   1   2   1  357.13    9.83
   1   2   2  125.98    4.35
   1   2   3  622.64   16.49
   1   2   3  617.55   16.83
   1   2   4   71.57    2.91
   1   2   4   72.14    3.26
   1   2   5  115.78    4.18
   1   2   5  107.18    4.59
   1   2   6    1.02    0.72
   1   2   6    0.35    0.57
   1   2   7  496.50   14.11
   1   2   7  479.80   14.97
   1   2   8    1.57    1.17
   1   2   8    0.62    1.52
   1   2   8    2.89    1.07
   1   2   9  154.38    7.62
   1   2   9  134.98    6.48
   1   2  10   39.44    3.56
   1   2  10   40.59    4.09
   1   2  11   13.86    2.53
   1   2  11   10.77    2.97
   1   3  -9   34.37    2.49
   1   3  -8   33.62    2.27
   1   3  -7   14.53    1.42
   1   3  -7   12.59    1.05
   1   3  -6    2.21    0.86
   1   3  -6    2.23    0.70
   1   3  -6    2.14    0.50
   1   3  -5   74.15    3.02
   1   3  -5   79.56    3.32
   1   3  -5   78.71    2.42
   1   3  -5   79.40    3.07
   1   3  -4    7.33    0.76
   1   3  -4    6.27    0.86
   1   3  -4    6.28    0.93
   1   3  -4    8.70    1.14
   1   3  -4    7.07    0.90
   1   3  -3   59.07    2.25
   1   3  -3   61.41    2.46
   1   3  -2 2637.32   65.75
   1   3  -1  124.15    3.66
   1   3  -1  100.87    3.69
   1   3   0 1306.68   32.92
   1   3   0 1308.94   32.91
   1   3   2  182.49    6.16
   1   3   3   10.01    1.18
   1   3   3    7.41    0.94
   1   3   4  195.01    6.41
   1   3   4  190.46    6.78
   1   3   5   28.45    1.95
   1   3   5   28.09    2.17
   1   3   6   27.44    2.05
   1   3   6   27.15    2.35
   1   3   7    1.44    1.26
   1   3   7    1.07    0.95
   1   3   7    0.94    0.96
   1   3   8   11.99    1.90
   1   3   8   13.24    2.53
   1   3   8   10.58    1.56
   1   3   9   32.11    3.06
   1   3  10    1.52    1.73
   1   4  -9    1.11    0.94
   1   4  -8   15.74    1.61
   1   4  -7  415.53   12.10
   1   4  -6  178.14    5.91
   1   4  -5  203.26    6.33
   1   4  -5  200.71    6.69
   1   4  -4   51.34    2.28
   1   4  -4   48.96    2.52
   1   4  -3  417.98   11.54
   1   4  -3  416.68   11.70
   1   4  -2  482.43   13.02
   1   4  -1  823.75   21.74
   1   4  -1  860.41   22.13
   1   4  -1  843.88   21.14
   1   4   0    7.93    0.81
   1   4   0    6.09    0.71
   1   4   3    0.53    0.59
   1   4   4    1.87    0.88
   1   4   4    1.00    0.75
   1   4   5   69.95    3.49
   1   4   5   66.12    3.75
   1   4   6   36.08    2.55
   1   4   6   35.33    2.80
   1   4   7   30.13    2.69
   1   4   7   29.27    2.44
   1   4   8    7.12    1.71
   1   4   8    8.79    2.20
   1   4   8   12.94    1.82
   1   4   9   -0.29    1.31
   1   4   9    1.58    2.08
   1   4  10   11.90    2.39
   1   4  10   11.83    2.90
   1   5  -8   85.25    3.84
   1   5  -7   73.73    3.39
   1   5  -6   96.99    3.91
   1   5  -2  861.82   22.58
   1   5  -1    0.89    0.61
   1   5  -1    0.12    0.33
   1   5   0  618.72   16.36
   1   5   3   17.39    1.69
   1   5   4    0.52    0.80
   1   5   5    1.30    1.05
   1   5   5   -0.18    0.86
   1   5   6    5.69    1.53
   1   5   6    7.31    1.45
   1   5   7    2.96    1.78
   1   5   7    0.79    1.25
   1   5   7    1.48    1.17
   1   5   8    0.29    1.34
   1   5   8    1.49    2.04
   1   5   8    0.91    1.13
   1   5   9   20.26    2.74
   1   5   9   17.92    3.28
   1   6  -7  212.28    7.22
   1   6  -1   29.85    1.76
   1   6  -1   25.48    1.26
   1   6   0   26.71    1.65
   1   6   0   29.70    1.70
   1   6   3   -0.19    0.83
   1   6   4   52.36    3.34
   1   6   5   38.32    2.90
   1   6   6   19.01    2.19
   1   6   7    1.05    1.84
   1   6   7    1.16    1.36
   1   6   7    1.20    1.28
   1   6   8    2.24    1.63
   1   6   8    1.98    2.08
   1   6   8    2.85    1.53
   1   7  -1  168.21    4.98
   1   7   0    5.68    0.96
   1   7   1   21.53    1.83
   1   7   2   81.49    4.34
   1   7   3   37.48    3.02
   1   7   3   53.69    3.67
   1   7   4    1.56    1.29
   1   7   4    1.17    1.16
   1   7   5   35.17    3.28
   1   7   5   32.24    2.88
   1   7   6    4.25    2.04
   1   7   6    3.14    1.49
   1   7   7   15.23    2.92
   1   7   7   13.10    2.27
   1   8   2   54.70    3.90
   1   8   2   52.22    3.63
   1   8   2   58.95    3.46
   1   8   3   13.42    2.03
   1   8   3   14.07    2.06
   1   8   3   12.95    2.13
   1   8   4   13.18    2.24
   1   8   4    9.40    1.99
   1   8   4   13.35    2.15
   1   8   5    9.73    2.29
   1   8   5    9.85    2.06
   1   8   5    8.67    1.89
   1   8   6    2.28    1.59
   1   8   6    5.55    2.21
   1   8   6    6.20    1.86
   1   9   2   10.28    2.07
   1   9   2   12.04    2.23
   1   9   3   48.10    3.82
   1   9   3   54.46    4.30
   1   9   4   -0.33    1.56
   1   9   4    1.80    1.51
   1   9   5    6.13    2.01
   1   9   5    5.03    2.04
   1  10   2    3.12    1.76
   1  10   2    6.95    2.27
   1  10   3    5.18    2.02
   1  10   3    3.89    2.09
   2 -11   1    0.45    1.42
   2 -11   2    1.43    1.42
   2 -10   0   71.13    4.66
   2 -10   0   73.91    3.99
   2 -10   1   11.62    1.81
   2 -10   2    1.51    1.34
   2 -10   3    8.98    1.82
   2 -10   4   12.32    2.13
   2 -10   5   -0.79    1.49
   2 -10   6    2.65    1.53
   2 -10   6    4.51    1.86
   2  -9  -1  180.07    6.52
   2  -9   0   26.63    2.20
   2  -9   1    0.95    1.26
   2  -9   1    1.07    1.05
   2  -9   2    6.53    1.44
   2  -9   2    8.54    1.67
   2  -9   3    9.92    1.71
   2  -9   4    1.04    1.20
   2  -9   4    0.67    1.27
   2  -9   5    1.20    1.37
   2  -9   5   -0.22    1.31
   2  -9   6   -0.24    1.51
   2  -9   6    2.58    1.45
   2  -9   7    4.49    1.85
   2  -9   8   -0.85    1.65
   2  -9   8   -0.60    1.79
   2  -8  -2    7.03    1.11
   2  -8  -1    1.05    0.82
   2  -8   0   15.76    1.64
   2  -8   1   13.73    1.88
   2  -8   1   13.71    1.59
   2  -8   2    2.72    1.09
   2  -8   2    6.67    1.46
   2  -8   3    7.96    1.46
   2  -8   3   10.15    1.64
   2  -8   3    7.50    1.52
   2  -8   4   11.09    1.69
   2  -8   4   12.03    1.75
   2  -8   5   17.42    2.14
   2  -8   5   13.15    1.86
   2  -8   6   19.43    2.33
   2  -8   6   20.40    2.43
   2  -8   7    7.01    1.73
   2  -8   7    6.66    1.83
   2  -8   8   33.84    3.20
   2  -8   9    3.71    1.81
   2  -8   9    0.30    1.57
   2  -7  -3    0.53    0.63
   2  -7  -2    2.21    0.75
   2  -7  -1   44.91    2.38
   2  -7   0   19.10    1.64
   2  -7   1  453.48   13.27
   2  -7   1  459.18   14.01
   2  -7   2    7.58    1.26
   2  -7   2    7.92    1.27
   2  -7   2    9.89    1.49
   2  -7   3  360.44   11.05
   2  -7   3  348.00   10.99
   2  -7   3  340.49   10.85
   2  -7   4  152.07    6.17
   2  -7   4  162.89    6.00
   2  -7   4  158.91    6.17
   2  -7   5    7.84    1.58
   2  -7   5    9.78    1.57
   2  -7   6  410.81   13.03
   2  -7   7    2.82    1.32
   2  -7   8   10.67    1.91
   2  -7   8   12.83    2.07
   2  -7   9    1.32    1.48
   2  -7   9   -0.83    1.54
   2  -7  10   -0.31    1.63
   2  -6  -3  104.25    3.59
   2  -6  -2   15.13    1.18
   2  -6  -1    1.21    0.57
   2  -6   0  115.29    4.26
   2  -6   1    4.05    1.01
   2  -6   1    4.46    0.91
   2  -6   2  266.49    8.16
   2  -6   2  237.84    8.25
   2  -6   2  247.02    7.96
   2  -6   3   13.62    1.47
   2  -6   3   13.50    1.48
   2  -6   3   16.43    1.61
   2  -6   4   56.95    3.17
   2  -6   4   55.19    2.98
   2  -6   4   64.02    3.26
   2  -6   5    1.68    0.99
   2  -6   5    0.88    0.80
   2  -6   6   63.55    3.64
   2  -6   6   61.00    2.95
   2  -6   7   53.71    3.51
   2  -6   7   53.81    3.41
   2  -6   8  136.02    6.26
   2  -6   8  141.34    6.22
   2  -6   9    4.87    1.66
   2  -6   9    3.12    1.54
   2  -6  10    9.11    2.17
   2  -5  -4   11.58    0.77
   2  -5  -3   91.72    3.04
   2  -5  -2   21.96    1.28
   2  -5  -1  244.29    7.17
   2  -5   0  280.49    8.22
   2  -5   1   12.41    1.37
   2  -5   1   10.94    1.11
   2  -5   2  130.99    4.64
   2  -5   2  121.57    4.77
   2  -5   2  116.27    4.46
   2  -5   3  160.56    5.81
   2  -5   3  173.21    5.99
   2  -5   3  164.00    5.79
   2  -5   4    7.03    1.10
   2  -5   4    8.13    1.15
   2  -5   5   19.30    1.85
   2  -5   5   20.09    1.62
   2  -5   6    1.69    0.84
   2  -5   6    1.08    0.92
   2  -5   6    1.96    0.78
   2  -5   7    7.48    1.44
   2  -5   7    6.39    1.44
   2  -5   7    7.70    1.13
   2  -5   8  101.23    5.12
   2  -5   8  110.24    5.15
   2  -5   9   31.72    2.99
   2  -4  -4    0.59    0.26
   2  -4  -3  328.65    8.67
   2  -4  -2   47.23    1.83
   2  -4  -1    0.42    0.40
   2  -4  -1    1.17    0.77
   2  -4   0    7.60    0.77
   2  -4   1   15.81    1.19
   2  -4   1   18.99    1.53
   2  -4   1   13.37    1.44
   2  -4   2  296.98    8.84
   2  -4   2  299.25    9.11
   2  -4   2  300.92    9.25
   2  -4   2  298.60    8.81
   2  -4   3  109.23    4.12
   2  -4   3  108.04    4.16
   2  -4   3   97.94    3.99
   2  -4   4   88.85    3.65
   2  -4   5    0.83    0.66
   2  -4   5    2.07    0.81
   2  -4   5    2.69    0.75
   2  -4   6    0.31    0.76
   2  -4   6    1.16    0.82
   2  -4   6    0.46    0.68
   2  -4   7   87.84    4.35
   2  -4   7   90.17    3.77
   2  -4   7   86.41    4.19
   2  -4   8    2.09    1.20
   2  -4   8    0.22    1.13
   2  -4   8    1.32    0.89
   2  -3  -3    0.44    0.20
   2  -3  -3   -0.23    0.69
   2  -3  -2  391.83   10.19
   2  -3  -2  396.75   11.23
   2  -3  -1  858.61   22.02
   2  -3  -1  884.38   22.79
   2  -3  -1  865.00   22.67
   2  -3   0  131.90    4.61
   2  -3   0  142.49    4.24
   2  -3   0  125.38    4.70
   2  -3   1  317.32    9.05
   2  -3   1  328.68    9.53
   2  -3   2  182.67    5.72
   2  -3   2  178.82    5.97
   2  -3   2  180.49    6.02
   2  -3   3   37.07    2.10
   2  -3   3   39.83    2.32
   2  -3   4  191.67    6.35
   2  -3   4  189.49    6.19
   2  -3   4  192.72    6.56
   2  -3   4  184.53    6.22
   2  -3   5   12.28    1.32
   2  -3   5   12.28    1.37
   2  -3   5   16.71    1.37
   2  -3   6   99.42    4.47
   2  -3   6  109.69    4.18
   2  -3   6  100.16    4.20
   2  -3   6  100.19    4.28
   2  -3   7   26.75    2.28
   2  -3   7   29.61    2.04
   2  -3   7   32.00    2.34
   2  -3   8    1.32    1.00
   2  -3   8    0.71    0.84
   2  -3   9   15.44    1.96
   2  -3  10   17.62    2.30
   2  -3  11    0.56    1.47
   2  -2  -4  174.50    5.70
   2  -2  -4  153.76    5.54
   2  -2  -3  269.44    8.02
   2  -2  -2  268.72    7.89
   2  -2  -2  270.68    7.72
   2  -2  -1 2906.34   70.51
   2  -2  -1 2836.00   71.02
   2  -2  -1 2795.94   71.01
   2  -2  -1 2814.88   70.73
   2  -2   0    2.91    0.48
   2  -2   0    3.14    0.59
   2  -2   0    2.39    0.66
   2  -2   0    3.70    0.73
   2  -2   1 5536.34  132.86
   2  -2   1 5293.40  132.48
   2  -2   1 5304.58  133.28
   2  -2   2  154.16    5.13
   2  -2   3  477.59   13.35
   2  -2   3  486.38   12.76
   2  -2   3  479.28   13.35
   2  -2   3  486.05   13.52
   2  -2   4  797.18   21.22
   2  -2   4  774.90   20.95
   2  -2   4  791.85   20.62
   2  -2   5   62.96    2.86
   2  -2   5   60.08    2.77
   2  -2   6  139.98    5.18
   2  -2   6  145.66    5.30
   2  -2   7    5.37    1.16
   2  -2   7    6.22    1.52
   2  -2   7    5.60    1.09
   2  -2   8   24.17    2.23
   2  -2   8   23.97    2.73
   2  -2   8   23.82    2.05
   2  -2   9    0.31    1.63
   2  -2   9   -0.22    1.06
   2  -2  10    3.99    1.44
   2  -2  10    1.06    1.84
   2  -2  11   -0.56    1.61
   2  -2  11   -0.40    2.08
   2  -1  -6  111.97    3.09
   2  -1  -5    5.45    1.02
   2  -1  -4  347.85   10.09
   2  -1  -4  346.89   10.14
   2  -1  -3    4.08    0.74
   2  -1  -3    4.45    0.80
   2  -1  -2   21.09    1.21
   2  -1  -1 8886.52  215.56
   2  -1  -1 8738.49  215.72
   2  -1  -1 8654.40  215.38
   2  -1   0 2750.79   69.28
   2  -1   0 2853.25   69.51
   2  -1   1 1620.64   40.65
   2  -1   1 1668.57   41.54
   2  -1   1 1657.76   41.34
   2  -1   2  403.42   11.01
   2  -1   2  389.40   10.16
   2  -1   3   88.45    3.39
   2  -1   3   85.09    2.89
   2  -1   4  223.37    7.96
   2  -1   4  244.78    7.43
   2  -1   4  246.08    7.14
   2  -1   5   84.02    4.16
   2  -1   5   79.54    2.32
   2  -1   5   79.02    3.39
   2  -1   5   85.36    3.38
   2  -1   6   54.31    3.56
   2  -1   6   58.46    2.00
   2  -1   6   61.60    3.02
   2  -1   6   62.91    3.03
   2  -1   7   -0.16    0.84
   2  -1   7    1.50    1.35
   2  -1   7    0.40    0.43
   2  -1   7    0.74    0.83
   2  -1   8   22.33    2.13
   2  -1   8   19.83    2.56
   2  -1   9    7.92    1.62
   2  -1   9   12.78    2.41
   2  -1  10    0.76    1.35
   2  -1  10    0.37    1.77
   2  -1  11    6.01    1.87
   2  -1  11    6.23    2.42
   2   0  -7   32.22    1.90
   2   0  -7   34.65    1.49
   2   0  -6  302.69    8.91
   2   0  -6  314.41    8.32
   2   0  -5    8.75    0.64
   2   0  -5    8.32    1.11
   2   0  -4  107.84    3.24
   2   0  -4  119.53    4.15
   2   0  -4  108.18    4.05
   2   0  -3  666.56   17.70
   2   0  -3  665.34   17.59
   2   0  -2    8.38    0.51
   2   0  -2    9.37    0.82
   2   0  -1    0.74    0.37
   2   0  -1    0.69    0.54
   2   0  -1    1.16    0.33
   2   0  -1    0.81    0.45
   2   0   0 1099.18   28.03
   2   0   0 1145.09   28.03
   2   0   0 1086.77   28.39
   2   0   1 2018.05   50.04
   2   0   2   51.25    2.22
   2   0   2   47.82    1.82
   2   0   3  201.76    6.85
   2   0   3  200.90    5.33
   2   0   3  209.87    6.38
   2   0   3  198.99    5.95
   2   0   4  455.24   11.86
   2   0   4  477.52   13.03
   2   0   4  467.63   12.74
   2   0   4  460.23   13.76
   2   0   5   57.92    2.06
   2   0   5   58.15    2.84
   2   0   5   51.49    2.65
   2   0   5   59.55    3.46
   2   0   6    5.85    1.02
   2   0   6    5.88    1.43
   2   0   6    5.78    0.67
   2   0   6    7.01    1.07
   2   0   7   68.15    2.72
   2   0   7   73.27    3.69
   2   0   7   77.76    4.60
   2   0   8   42.33    3.00
   2   0   8   47.68    3.84
   2   0   9   10.00    1.78
   2   0   9   14.74    2.53
   2   0  10   29.80    2.87
   2   0  10   19.70    3.11
   2   0  11    4.10    1.78
   2   0  11    3.89    2.46
   2   1  -9    4.90    1.16
   2   1  -8   12.94    1.42
   2   1  -7    7.11    1.02
   2   1  -7    6.48    0.82
   2   1  -7    6.16    0.93
   2   1  -6    1.91    0.76
   2   1  -6    1.28    0.49
   2   1  -5  190.67    6.04
   2   1  -5  193.47    5.65
   2   1  -5  203.65    6.49
   2   1  -4   11.54    1.18
   2   1  -4   13.55    1.12
   2   1  -4   11.96    0.86
   2   1  -4   12.60    1.23
   2   1  -3  462.75   12.40
   2   1  -3  438.03   11.81
   2   1  -3  448.44   12.31
   2   1  -2    0.88    0.54
   2   1  -2    1.04    0.39
   2   1  -1  696.16   18.22
   2   1  -1  704.71   18.03
   2   1   0  135.56    4.17
   2   1   1   37.16    1.73
   2   1   2 2797.41   70.31
   2   1   2 2781.71   69.58
   2   1   3   72.24    3.09
   2   1   3   81.27    3.05
   2   1   4  632.80   16.37
   2   1   4  621.67   17.16
   2   1   4  624.91   17.04
   2   1   5  151.82    4.82
   2   1   5  161.58    5.68
   2   1   5  155.15    5.56
   2   1   6  146.52    4.85
   2   1   6  150.43    6.64
   2   1   6  152.61    5.74
   2   1   7  341.87    9.75
   2   1   7  332.04   10.82
   2   1   7  322.27   11.95
   2   1   8    3.19    1.63
   2   1   8    1.46    1.10
   2   1   9    2.64    1.48
   2   1   9    1.80    1.90
   2   1  10    0.27    1.36
   2   1  10   -0.40    1.90
   2   1  11    1.51    1.64
   2   1  11    0.45    2.27
   2   2  -8    4.73    0.99
   2   2  -7   36.72    1.93
   2   2  -7   36.45    1.84
   2   2  -7   33.78    1.94
   2   2  -6   68.25    2.77
   2   2  -6   73.33    2.59
   2   2  -6   69.09    2.73
   2   2  -5   17.40    1.37
   2   2  -5   16.50    1.19
   2   2  -5   17.44    1.55
   2   2  -5   17.77    1.04
   2   2  -4  549.08   14.72
   2   2  -4  561.53   15.05
   2   2  -4  530.35   14.42
   2   2  -4  513.54   13.99
   2   2  -4  564.37   13.87
   2   2  -3  168.09    5.24
   2   2  -3  167.46    5.44
   2   2  -3  166.02    5.10
   2   2  -3  158.52    5.41
   2   2  -3  165.26    4.60
   2   2  -2    0.43    0.26
   2   2  -1  268.99    7.26
   2   2   0  824.09   21.11
   2   2   1  286.36    8.10
   2   2   2   81.37    3.19
   2   2   2   87.58    3.65
   2   2   3   83.59    3.82
   2   2   3   79.22    3.36
   2   2   4  296.88    8.61
   2   2   4  309.79    9.97
   2   2   4  288.92    9.10
   2   2   5    0.88    0.76
   2   2   5    0.95    0.55
   2   2   5    0.85    0.97
   2   2   6    1.03    0.86
   2   2   6    0.64    0.65
   2   2   6   -0.25    1.15
   2   2   7    1.18    0.95
   2   2   7    1.43    0.76
   2   2   8   69.56    3.30
   2   2   8   61.33    3.88
   2   2   9   28.37    3.41
   2   2   9   25.30    2.65
   2   2  10    1.15    1.61
   2   2  10    1.27    2.10
   2   2  11   -1.27    1.57
   2   2  11    0.94    2.37
   2   3  -8   53.29    2.61
   2   3  -7    5.52    0.86
   2   3  -6  354.73    9.39
   2   3  -6  364.17    9.93
   2   3  -5    0.16    0.36
   2   3  -5    0.51    0.77
   2   3  -5    0.18    0.63
   2   3  -5    0.58    0.22
   2   3  -5    0.28    0.24
   2   3  -4   85.49    3.46
   2   3  -4   88.96    3.69
   2   3  -4   92.51    3.43
   2   3  -3  408.58   11.78
   2   3  -3  418.35   11.53
   2   3  -2  702.36   19.30
   2   3  -2  745.07   18.46
   2   3  -1   84.59    2.73
   2   3   0  305.74    8.48
   2   3   1   18.40    1.43
   2   3   1   20.86    1.33
   2   3   2    3.80    0.86
   2   3   3   39.96    2.56
   2   3   3   32.97    2.20
   2   3   4    3.75    0.92
   2   3   4    3.51    0.81
   2   3   4    5.38    1.16
   2   3   5    8.44    1.26
   2   3   5    8.53    1.15
   2   3   5    8.64    1.63
   2   3   6  126.77    4.89
   2   3   6  118.82    6.10
   2   3   6  134.27    5.62
   2   3   7    5.86    1.37
   2   3   7    5.98    1.19
   2   3   7    5.19    1.68
   2   3   8   11.69    1.93
   2   3   8   14.88    1.68
   2   3   8   11.52    2.30
   2   3   9   49.78    4.70
   2   3   9   62.53    4.15
   2   3  10    2.41    1.72
   2   4  -7  121.34    4.24
   2   4  -6    7.26    0.86
   2   4  -3   42.35    2.29
   2   4  -2   27.35    1.69
   2   4  -1  343.29    9.77
   2   4   1  328.21    9.76
   2   4   2    1.42    0.76
   2   4   3  432.33   13.10
   2   4   3  423.27   13.05
   2   4   4    6.74    1.27
   2   4   4    8.67    1.23
   2   4   4    6.80    1.41
   2   4   5   41.03    2.60
   2   4   5   43.85    3.30
   2   4   5   42.31    2.89
   2   4   6   -0.86    1.10
   2   4   6    0.49    0.85
   2   4   6    2.25    1.62
   2   4   7   -1.46    1.30
   2   4   7    0.86    1.04
   2   4   7    0.32    1.49
   2   4   8   -0.26    1.25
   2   4   8    1.49    1.22
   2   4   8    0.37    1.70
   2   4   9    1.66    1.99
   2   4   9    2.65    1.63
   2   4  10   22.39    3.90
   2   4  10   29.25    3.30
   2   5  -1  358.39   10.33
   2   5   0   81.78    3.19
   2   5   1  197.65    6.61
   2   5   2   53.54    3.01
   2   5   3    6.17    1.26
   2   5   3    4.30    1.20
   2   5   4  113.47    4.92
   2   5   4  120.57    5.55
   2   5   4  106.19    5.17
   2   5   5   82.65    4.12
   2   5   5   78.99    4.70
   2   5   5   78.05    4.44
   2   5   6   24.66    2.50
   2   5   6   26.42    2.34
   2   5   6   31.17    3.23
   2   5   7   18.38    2.31
   2   5   7   18.62    2.11
   2   5   7   23.30    3.01
   2   5   8    2.93    1.65
   2   5   8    3.90    1.45
   2   5   8    1.55    1.83
   2   5   9    0.87    1.97
   2   5   9    7.28    2.09
   2   6   0  243.59    7.42
   2   6   1    9.54    1.28
   2   6   2  224.87    7.88
   2   6   3   11.56    1.82
   2   6   3   12.35    1.78
   2   6   4   35.95    2.73
   2   6   4   37.24    3.09
   2   6   4   33.04    2.85
   2   6   5   49.97    3.31
   2   6   5   43.29    3.57
   2   6   5   44.53    3.39
   2   6   6   50.40    3.47
   2   6   6   52.13    4.18
   2   6   6   52.19    3.78
   2   6   7    2.05    1.36
   2   6   7    1.17    1.25
   2   6   7    3.98    2.01
   2   6   8    2.59    1.71
   2   6   8    4.19    1.58
   2   7   1   60.99    3.20
   2   7   2   46.64    3.01
   2   7   3    8.34    1.68
   2   7   3    8.92    1.68
   2   7   4    1.92    1.33
   2   7   4   -0.24    1.16
   2   7   4   -0.26    1.46
   2   7   5    0.57    1.31
   2   7   5    1.71    1.38
   2   7   5    3.25    1.80
   2   7   6    9.03    1.90
   2   7   6    8.95    1.97
   2   7   6    9.49    2.38
   2   7   7    1.61    1.65
   2   7   7    3.75    1.68
   2   7   7    4.99    2.32
   2   8   3   21.05    2.48
   2   8   3   18.10    2.30
   2   8   4    9.32    2.13
   2   8   4    7.53    1.78
   2   8   5    9.74    2.33
   2   8   5   10.28    2.08
   2   8   6    5.03    2.37
   2   8   6    2.33    1.77
   2   8   6    3.47    1.84
   2   9   2   10.45    1.92
   2   9   2    8.35    2.09
   2   9   3   -0.59    1.38
   2   9   3   -0.34    1.52
   2   9   4   15.16    2.55
   2  10   2    0.32    1.59
   2  10   2   -0.72    1.72
   3 -10  -1   23.74    3.17
   3 -10   0   53.95    4.24
   3 -10   1    2.27    1.41
   3 -10   2    0.67    1.31
   3 -10   3   14.82    2.18
   3 -10   4   -0.52    1.49
   3 -10   5    4.43    1.73
   3  -9  -1    0.60    1.50
   3  -9   0   37.06    3.33
   3  -9   0   41.87    2.82
   3  -9   1    5.76    1.45
   3  -9   1    2.89    1.62
   3  -9   2    5.63    1.43
   3  -9   2    2.52    1.49
   3  -9   3   -0.22    1.14
   3  -9   4    1.65    1.26
   3  -9   5   27.46    2.78
   3  -9   6   57.79    4.11
   3  -9   7    1.18    1.55
   3  -8  -1   24.87    1.96
   3  -8   0   10.64    1.97
   3  -8   0   12.29    1.55
   3  -8   1   24.72    2.11
   3  -8   1   23.31    2.52
   3  -8   2   74.76    3.87
   3  -8   2   68.05    4.14
   3  -8   3    4.31    1.32
   3  -8   3    4.58    1.41
   3  -8   4   46.88    3.30
   3  -8   4   51.95    3.37
   3  -8   5    0.47    1.12
   3  -8   6   31.35    2.94
   3  -8   8    0.59    1.69
   3  -7  -2  160.80    5.44
   3  -7  -1   10.21    1.22
   3  -7   0  149.44    5.56
   3  -7   0  159.60    6.68
   3  -7   1   -0.29    0.93
   3  -7   1   -0.21    1.12
   3  -7   2    0.97    0.89
   3  -7   2    0.62    1.18
   3  -7   3   59.56    3.40
   3  -7   3   60.81    3.64
   3  -7   4    5.47    1.32
   3  -7   4    3.23    1.21
   3  -7   5    7.90    1.52
   3  -7   5    7.35    1.43
   3  -7   7   54.95    3.78
   3  -7   8    2.21    1.48
   3  -7   9   13.83    2.49
   3  -6  -3   38.07    1.85
   3  -6  -2    6.00    0.87
   3  -6  -1    1.71    0.71
   3  -6   0  279.28    8.50
   3  -6   0  271.28    9.53
   3  -6   1    1.67    0.88
   3  -6   1    2.29    1.05
   3  -6   2  537.52   15.66
   3  -6   2  565.02   16.39
   3  -6   3   88.76    4.10
   3  -6   3   86.79    4.30
   3  -6   4    1.60    1.00
   3  -6   4    1.90    1.07
   3  -6   5  329.92   10.72
   3  -6   5  311.33   10.16
   3  -6   6   18.98    1.88
   3  -6   7   16.88    2.23
   3  -6   8   41.46    3.50
   3  -6   9   -0.58    1.61
   3  -5  -3   41.84    1.77
   3  -5  -2  486.90   13.10
   3  -5  -1   54.33    2.40
   3  -5   0   66.68    2.90
   3  -5   0   66.38    3.57
   3  -5   1   20.15    1.57
   3  -5   1   23.85    2.03
   3  -5   2   24.07    1.82
   3  -5   2   24.74    2.08
   3  -5   3    8.60    1.23
   3  -5   3    6.99    1.30
   3  -5   4   90.71    4.16
   3  -5   4   87.79    4.10
   3  -5   5   11.03    1.49
   3  -5   6    3.83    1.30
   3  -5   6    5.96    1.24
   3  -5   7   57.42    3.73
   3  -5   7   59.54    3.23
   3  -5   8   12.33    2.05
   3  -4  -2   43.08    1.81
   3  -4  -1   40.68    1.94
   3  -4  -1   48.39    2.47
   3  -4   0  181.79    5.74
   3  -4   0  181.29    6.59
   3  -4   1  137.93    4.75
   3  -4   1  129.97    5.25
   3  -4   2  168.93    5.83
   3  -4   2  172.90    6.29
   3  -4   3  184.99    6.44
   3  -4   3  188.22    6.72
   3  -4   4   65.29    3.32
   3  -4   5   70.48    3.73
   3  -4   5   74.75    3.57
   3  -4   6   19.61    2.02
   3  -4   6   19.86    1.82
   3  -4   7   22.08    1.94
   3  -4   8   23.53    2.10
   3  -3  -3   76.21    3.28
   3  -3  -2  262.95    8.05
   3  -3  -2  272.92    8.16
   3  -3  -2  256.00    7.80
   3  -3  -1  584.21   15.94
   3  -3  -1  596.96   15.82
   3  -3  -1  556.30   16.39
   3  -3   0 3430.42   84.61
   3  -3   0 3345.65   84.60
   3  -3   0 3329.88   85.43
   3  -3   0 3456.15   85.12
   3  -3   1  164.37    5.37
   3  -3   1  160.46    4.99
   3  -3   1  160.40    5.83
   3  -3   1  159.81    5.61
   3  -3   2  567.14   15.88
   3  -3   2  586.34   16.32
   3  -3   3  294.22    9.16
   3  -3   3  295.93    9.30
   3  -3   4    2.64    0.86
   3  -3   5  544.46   15.55
   3  -3   6   10.56    1.25
   3  -3   6   12.73    1.51
   3  -3   7   79.34    3.79
   3  -3   7   74.29    3.63
   3  -3   8    0.70    0.97
   3  -3   8    1.70    1.06
   3  -3   9    0.20    1.18
   3  -3   9   -0.37    1.07
   3  -3  10    5.84    1.68
   3  -2  -4  183.35    6.16
   3  -2  -3   93.54    3.84
   3  -2  -3  100.18    3.67
   3  -2  -2   52.84    2.33
   3  -2  -2   53.72    2.49
   3  -2  -2   49.86    2.17
   3  -2  -1   56.51    2.46
   3  -2  -1   51.60    2.35
   3  -2  -1   53.48    1.99
   3  -2   0  239.89    6.86
   3  -2   0  231.05    7.58
   3  -2   0  237.52    7.20
   3  -2   1 2200.78   55.03
   3  -2   1 2194.62   56.23
   3  -2   1 2229.45   55.85
   3  -2   2  124.12    3.61
   3  -2   2  121.41    4.72
   3  -2   2  125.53    4.64
   3  -2   3   63.13    2.18
   3  -2   3   62.71    3.04
   3  -2   4  164.84    5.91
   3  -2   4  165.20    5.09
   3  -2   5   88.37    3.95
   3  -2   5   91.39    3.50
   3  -2   6   11.11    1.25
   3  -2   6    8.57    1.26
   3  -2   7  114.43    4.85
   3  -2   7  109.01    4.63
   3  -2   8    1.24    1.01
   3  -2   8    0.18    0.94
   3  -2   9   42.43    3.05
   3  -2   9   43.09    3.10
   3  -2  10   25.22    2.64
   3  -1  -4  809.47   21.76
   3  -1  -4  809.79   21.60
   3  -1  -3  258.38    7.20
   3  -1  -3  248.14    7.51
   3  -1  -2   99.40    3.26
   3  -1  -2   98.96    3.64
   3  -1  -2   97.59    3.84
   3  -1  -2   91.81    3.24
   3  -1  -1 1344.16   34.81
   3  -1  -1 1351.33   35.33
   3  -1  -1 1362.22   34.23
   3  -1  -1 1406.18   34.66
   3  -1   0   35.46    1.68
   3  -1   0   37.96    1.88
   3  -1   0   37.48    1.20
   3  -1   1  640.37   16.66
   3  -1   1  664.37   17.34
   3  -1   2  111.31    3.24
   3  -1   2  119.36    4.27
   3  -1   2  110.21    4.30
   3  -1   2  115.62    3.20
   3  -1   3    3.72    0.52
   3  -1   3    4.50    0.92
   3  -1   4   35.21    2.24
   3  -1   4   37.18    1.80
   3  -1   5   18.72    1.63
   3  -1   5   16.35    1.32
   3  -1   6  131.68    5.23
   3  -1   6  128.46    4.85
   3  -1   7  302.20    9.56
   3  -1   7  267.01    9.11
   3  -1   8   33.34    2.62
   3  -1   8   35.07    2.59
   3  -1   9   15.67    1.98
   3  -1  10   40.24    3.23
   3  -1  11    4.68    1.82
   3   0  -4 1098.72   28.71
   3   0  -4 1084.65   28.47
   3   0  -3   80.25    2.56
   3   0  -3   84.03    3.19
   3   0  -3   84.59    3.34
   3   0  -2  107.67    3.79
   3   0  -2   97.63    3.37
   3   0  -2  103.58    3.78
   3   0  -2   95.00    2.99
   3   0  -1  324.68    9.31
   3   0  -1  319.24    8.85
   3   0  -1  338.51    8.88
   3   0  -1  338.38    9.60
   3   0   0  173.36    5.39
   3   0   0  193.39    5.95
   3   0   1   95.68    3.12
   3   0   2   31.83    1.36
   3   0   2   34.74    1.45
   3   0   3  289.85    7.70
   3   0   3  304.05    8.99
   3   0   3  290.54    8.21
   3   0   4  259.99    6.90
   3   0   4  269.65    8.45
   3   0   4  268.66    7.80
   3   0   5  156.50    4.37
   3   0   5  162.40    5.89
   3   0   5  160.27    5.47
   3   0   6    1.79    1.20
   3   0   6    1.90    0.83
   3   0   6    0.79    0.37
   3   0   6    1.62    0.87
   3   0   7   28.50    2.38
   3   0   7   28.90    2.26
   3   0   8   99.00    5.88
   3   0   8  105.87    4.90
   3   0   9    1.86    1.84
   3   0   9    0.22    1.21
   3   0  10    2.77    1.45
   3   0  10   -0.41    2.24
   3   0  11    8.70    2.75
   3   0  11   15.38    2.51
   3   1  -8   68.28    3.00
   3   1  -7   61.11    2.57
   3   1  -4  636.43   17.59
   3   1  -4  645.33   17.43
   3   1  -4  634.68   17.08
   3   1  -3   66.74    2.87
   3   1  -3   68.41    2.74
   3   1  -2 1271.53   32.77
   3   1  -2 1277.74   32.52
   3   1  -2 1268.05   32.60
   3   1  -1  400.93   11.37
   3   1  -1  420.90   11.43
   3   1   0   70.98    2.76
   3   1   0   72.53    2.91
   3   1   1  207.50    6.16
   3   1   1  216.59    6.62
   3   1   2  126.15    4.68
   3   1   2  140.49    4.44
   3   1   3   34.27    1.82
   3   1   4   32.25    1.53
   3   1   4   33.10    2.16
   3   1   4   34.63    1.98
   3   1   5    1.30    0.69
   3   1   5    0.31    0.41
   3   1   5    0.15    0.65
   3   1   6  170.92    5.21
   3   1   6  169.58    6.45
   3   1   6  165.40    6.22
   3   1   7   22.03    2.04
   3   1   7   26.40    2.92
   3   1   8   64.22    4.69
   3   1   8   55.95    3.51
   3   1   9    4.01    1.53
   3   1   9    1.93    1.91
   3   1  10    6.38    1.71
   3   1  10    4.74    2.43
   3   1  11   18.70    2.69
   3   1  11   16.21    3.55
   3   2  -7    3.72    0.61
   3   2  -7    4.51    0.90
   3   2  -6  109.17    3.91
   3   2  -6  101.67    3.12
   3   2  -5   52.59    2.25
   3   2  -4   37.36    2.27
   3   2  -4   34.64    2.16
   3   2  -4   35.62    1.71
   3   2  -3  431.44   12.35
   3   2  -3  437.56   11.75
   3   2  -2  169.91    5.81
   3   2  -2  180.67    5.35
   3   2  -1  495.40   13.80
   3   2  -1  508.39   13.49
   3   2   0  294.16    8.48
   3   2   1  217.69    6.74
   3   2   2  229.12    7.22
   3   2   3 1145.93   30.01
   3   2   3 1114.20   29.11
   3   2   3 1070.43   28.93
   3   2   4   10.82    1.22
   3   2   4    7.95    1.47
   3   2   5   34.72    1.89
   3   2   5   34.29    2.42
   3   2   5   36.36    2.34
   3   2   5   35.88    2.98
   3   2   6   59.23    2.71
   3   2   6   62.30    3.44
   3   2   6   68.50    4.43
   3   2   7    2.86    1.69
   3   2   7    2.55    1.17
   3   2   7    1.29    0.69
   3   2   8    0.22    1.14
   3   2   9    2.24    1.37
   3   2  10    0.85    1.55
   3   2  10   -1.79    2.32
   3   3  -7  191.08    5.41
   3   3  -7  190.15    5.71
   3   3  -6   21.66    1.02
   3   3  -6   17.39    1.08
   3   3  -5    0.33    0.77
   3   3  -5    0.22    0.34
   3   3  -4   37.27    1.43
   3   3  -3   -0.38    0.76
   3   3  -3   -0.04    0.31
   3   3  -2  159.95    4.74
   3   3  -1  473.81   12.69
   3   3   0  149.31    4.84
   3   3   1   72.74    3.03
   3   3   2    4.12    0.83
   3   3   3   72.33    3.86
   3   3   3   73.05    3.41
   3   3   3   73.29    3.54
   3   3   4    0.22    1.02
   3   3   4    0.16    0.73
   3   3   4    0.78    0.76
   3   3   5   81.56    3.57
   3   3   5   81.68    4.03
   3   3   5   87.72    4.86
   3   3   6   -0.19    0.88
   3   3   6    0.89    0.76
   3   3   6    0.29    1.35
   3   3   7   10.20    1.72
   3   3   7    8.23    1.22
   3   3   7    8.98    2.18
   3   3   8    2.43    1.32
   3   3   8    6.00    2.16
   3   3   9   -0.42    2.01
   3   3   9    2.17    1.49
   3   3  10   -0.30    1.59
   3   3  10    0.47    2.34
   3   4  -2    0.21    0.33
   3   4  -1  148.46    4.71
   3   4   0  175.33    5.61
   3   4   1    3.36    0.79
   3   4   2  153.39    5.95
   3   4   3   77.21    4.10
   3   4   3   74.67    3.83
   3   4   4    0.70    1.13
   3   4   4   -0.19    0.89
   3   4   5    4.23    1.22
   3   4   5    5.42    1.10
   3   4   5    4.04    1.61
   3   4   6    0.66    1.09
   3   4   6   -0.31    1.52
   3   4   6    1.41    0.96
   3   4   7    7.60    1.64
   3   4   7    6.12    1.28
   3   4   7    5.59    1.97
   3   4   8   22.00    2.59
   3   4   8   26.31    3.45
   3   4   9    2.65    1.57
   3   4   9    4.38    2.27
   3   5   2   50.41    3.09
   3   5   3   74.54    4.09
   3   5   3   73.41    4.15
   3   5   4   17.38    2.07
   3   5   4   27.10    2.66
   3   5   5    1.15    1.17
   3   5   5   -0.36    1.02
   3   5   5   -0.28    1.47
   3   5   6   36.61    2.71
   3   5   6   32.45    3.36
   3   5   6   36.58    3.03
   3   5   7    0.27    1.29
   3   5   7    0.99    1.11
   3   5   7    0.73    1.69
   3   5   8    2.10    1.69
   3   5   8    2.05    2.00
   3   5   9    8.26    2.23
   3   5   9    6.39    2.67
   3   6   2  385.39   12.19
   3   6   3   19.17    2.24
   3   6   3   17.04    2.23
   3   6   4   34.94    3.15
   3   6   4   35.53    2.79
   3   6   4   33.24    2.98
   3   6   5   14.86    2.14
   3   6   5   16.85    2.05
   3   6   5   13.51    2.44
   3   6   6    4.15    1.56
   3   6   6    5.05    1.46
   3   6   6    2.73    1.87
   3   6   7    4.76    1.78
   3   6   7    5.98    1.73
   3   6   7    2.31    2.05
   3   6   8    6.85    2.11
   3   6   8    6.00    2.78
   3   7   2   77.77    4.18
   3   7   3  121.58    5.79
   3   7   3  120.57    6.07
   3   7   4   44.73    3.38
   3   7   4   45.74    3.65
   3   7   4   46.65    3.71
   3   7   5   56.85    3.85
   3   7   5   57.76    4.20
   3   7   5   61.47    4.51
   3   7   6   37.63    3.16
   3   7   6   30.69    3.22
   3   7   6   32.53    3.63
   3   7   7    6.02    2.56
   3   7   7    6.57    2.21
   3   7   7   11.05    2.11
   3   8   3   13.44    2.35
   3   8   4    6.09    1.92
   3   8   4    6.25    1.80
   3   8   5   73.61    4.74
   3   8   5   73.96    5.01
   3   9   3    2.68    1.69
   3   9   3    3.49    1.94
   3   9   4   94.85    5.57
   3   9   4   86.37    5.69
   3  10   2   -0.32    1.60
   4 -10  -1    7.08    2.30
   4 -10   0   -1.01    1.90
   4 -10   1    2.40    1.50
   4 -10   1   -2.27    1.94
   4 -10   2    6.15    1.73
   4 -10   3   -0.25    1.54
   4 -10   4    1.09    1.56
   4  -9  -2    7.23    2.19
   4  -9  -1    1.30    1.64
   4  -9   0    8.35    1.51
   4  -9   0   12.03    2.37
   4  -9   1   19.68    2.19
   4  -9   1   18.60    2.71
   4  -9   2   87.83    4.59
   4  -9   2   89.72    5.26
   4  -9   3   32.24    2.90
   4  -9   4   -1.01    1.43
   4  -9   5   96.23    5.38
   4  -9   6    6.10    2.05
   4  -8  -2    4.98    1.86
   4  -8  -1    4.44    1.79
   4  -8  -1    3.37    1.17
   4  -8   0    1.96    1.02
   4  -8   0    3.92    1.57
   4  -8   1   60.82    3.45
   4  -8   1   57.92    4.12
   4  -8   2   48.14    3.19
   4  -8   2   44.25    3.52
   4  -8   3   37.00    2.94
   4  -8   3   47.00    3.58
   4  -8   4   14.86    2.04
   4  -8   4   14.72    2.19
   4  -8   5   18.30    2.35
   4  -8   6   69.61    4.50
   4  -8   7    0.30    1.71
   4  -7  -2   70.73    3.20
   4  -7  -2   76.12    4.71
   4  -7  -1  207.82    7.10
   4  -7  -1  225.51    8.83
   4  -7   0  150.25    5.72
   4  -7   0  161.86    6.99
   4  -7   1   78.16    3.86
   4  -7   1   81.81    4.71
   4  -7   2   20.04    2.00
   4  -7   2   23.95    2.50
   4  -7   3    2.94    1.20
   4  -7   3    2.14    1.28
   4  -7   4   10.88    1.75
   4  -7   4   17.30    2.12
   4  -7   5    1.41    1.31
   4  -7   5    0.21    1.25
   4  -7   6   23.77    2.68
   4  -6  -2   58.26    2.72
   4  -6  -2   56.53    3.83
   4  -6  -1  123.07    4.66
   4  -6  -1  135.12    6.10
   4  -6   0   26.71    1.94
   4  -6   0   23.03    2.36
   4  -6   1  178.11    6.44
   4  -6   1  182.51    7.37
   4  -6   2  343.46   10.77
   4  -6   2  339.36   11.51
   4  -6   3    1.78    1.02
   4  -6   3    0.88    1.14
   4  -6   4  371.95   11.89
   4  -6   4  358.13   11.94
   4  -6   5   94.52    4.84
   4  -6   5   83.63    4.41
   4  -6   6   50.87    3.28
   4  -6   7   17.51    1.99
   4  -5  -2   80.45    4.44
   4  -5  -1   10.59    1.60
   4  -5  -1   12.13    1.22
   4  -5   0   55.48    2.82
   4  -5   0   63.24    3.65
   4  -5   1  329.47    9.94
   4  -5   1  304.44   10.61
   4  -5   2   -0.31    0.77
   4  -5   2   -0.41    0.91
   4  -5   3   98.46    4.57
   4  -5   3  105.96    4.94
   4  -5   4  105.46    4.85
   4  -5   4   95.45    4.69
   4  -5   5   63.97    3.90
   4  -5   5   76.29    4.01
   4  -5   6  176.37    6.85
   4  -5   7   68.03    3.78
   4  -5   8   61.36    3.62
   4  -4  -2   19.87    2.06
   4  -4  -1    3.66    1.10
   4  -4   0  220.54    7.05
   4  -4   0  223.29    8.07
   4  -4   1   60.83    3.49
   4  -4   2   21.69    2.04
   4  -4   3  210.35    7.67
   4  -4   4   76.58    4.00
   4  -4   5  112.24    5.04
   4  -4   6   16.35    1.90
   4  -4   7    1.90    1.16
   4  -4   8   99.36    4.82
   4  -4   9   64.67    3.83
   4  -3  -3    0.95    0.78
   4  -3  -3    1.50    0.72
   4  -3  -2    9.31    1.17
   4  -3  -2    6.26    0.89
   4  -3  -1  120.85    4.48
   4  -3  -1  120.94    4.63
   4  -3   0  398.87   11.18
   4  -3   0  407.79   12.33
   4  -3   0  381.99   11.62
   4  -3   1    6.55    0.87
   4  -3   1    6.27    1.21
   4  -3   2    0.06    0.40
   4  -3   2    0.35    0.73
   4  -3   3   83.70    4.08
   4  -3   4   15.86    1.74
   4  -3   5   22.59    2.06
   4  -3   6   21.58    2.10
   4  -3   7    1.85    0.98
   4  -3   7    1.91    1.13
   4  -3   8   21.31    2.21
   4  -3   9    0.85    1.26
   4  -3  10    0.92    1.37
   4  -2  -4   10.08    1.07
   4  -2  -4    7.81    1.15
   4  -2  -3   10.39    1.36
   4  -2  -3    9.02    1.06
   4  -2  -3   10.26    1.10
   4  -2  -2  549.17   14.96
   4  -2  -2  539.91   15.58
   4  -2  -2  522.03   14.25
   4  -2  -2  538.19   14.70
   4  -2  -1  768.30   20.53
   4  -2  -1  769.97   20.58
   4  -2  -1  775.67   19.75
   4  -2   0  145.35    4.75
   4  -2   0  140.64    5.07
   4  -2   1   45.27    1.97
   4  -2   1   40.48    2.64
   4  -2   1   45.29    2.51
   4  -2   2   77.86    2.63
   4  -2   2   75.06    3.73
   4  -2   2   79.16    3.58
   4  -2   3  116.35    4.93
   4  -2   4   35.54    2.47
   4  -2   4   32.08    1.52
   4  -2   5   89.38    4.19
   4  -2   5   82.77    3.22
   4  -2   6   21.82    1.62
   4  -2   6   17.55    1.92
   4  -2   7   46.54    3.14
   4  -2   7   46.23    2.67
   4  -2   8   15.12    1.75
   4  -2   8   13.46    1.90
   4  -2   9   14.20    2.06
   4  -2  10   19.62    2.49
   4  -1  -4   26.12    1.45
   4  -1  -4   23.79    1.96
   4  -1  -4   25.88    1.79
   4  -1  -3   57.37    3.06
   4  -1  -3   59.18    2.63
   4  -1  -3   60.71    2.45
   4  -1  -2   30.24    1.89
   4  -1  -2   27.85    2.03
   4  -1  -2   26.79    1.47
   4  -1  -2   26.65    1.53
   4  -1  -1   54.97    2.58
   4  -1  -1   57.67    3.01
   4  -1  -1   61.90    2.56
   4  -1  -1   56.83    2.07
   4  -1   0 1114.46   28.87
   4  -1   0 1056.51   29.78
   4  -1   0 1152.15   29.17
   4  -1   0 1131.80   28.01
   4  -1   1   16.47    1.41
   4  -1   1   12.79    1.02
   4  -1   2   90.83    2.88
   4  -1   2   87.22    3.99
   4  -1   2   86.29    2.50
   4  -1   3  561.79   14.37
   4  -1   3  564.75   16.31
   4  -1   3  574.43   14.64
   4  -1   4   17.89    1.16
   4  -1   4   20.50    1.85
   4  -1   5  113.78    4.95
   4  -1   5  114.90    4.12
   4  -1   6  157.82    6.42
   4  -1   6  172.82    5.83
   4  -1   7    6.26    1.18
   4  -1   7    6.74    1.42
   4  -1   8   59.84    3.78
   4  -1   8   59.50    3.41
   4  -1   9    1.83    1.31
   4  -1   9    5.43    1.64
   4   0  -5    3.61    0.98
   4   0  -5    2.54    0.49
   4   0  -4   18.05    1.58
   4   0  -4   19.64    1.58
   4   0  -4   19.98    1.04
   4   0  -3    2.63    0.71
   4   0  -3    2.15    0.83
   4   0  -3    2.58    0.48
   4   0  -3    2.88    0.80
   4   0  -2    1.13    0.54
   4   0  -2   -0.22    0.41
   4   0  -2   -0.23    0.72
   4   0  -2   -0.65    0.70
   4   0  -1  174.70    5.69
   4   0  -1  173.96    5.27
   4   0  -1  165.79    5.13
   4   0  -1  185.79    6.20
   4   0   0   77.23    3.04
   4   0   0   76.03    3.48
   4   0   1  678.28   17.89
   4   0   1  687.86   18.87
   4   0   2   42.89    1.84
   4   0   2   42.45    1.75
   4   0   3  455.49   12.12
   4   0   3  470.20   13.69
   4   0   3  468.94   12.44
   4   0   4    7.05    0.89
   4   0   4    7.01    0.59
   4   0   4    7.39    1.19
   4   0   5    2.85    0.79
   4   0   5    2.23    0.35
   4   0   5    2.38    0.32
   4   0   5    4.48    1.14
   4   0   6  237.13    8.40
   4   0   6  232.35    7.65
   4   0   7    6.21    1.25
   4   0   7    6.15    1.42
   4   0   8    2.62    1.21
   4   0   8    4.05    1.43
   4   0   9    0.22    1.07
   4   0  10    4.65    1.56
   4   1  -6    3.46    0.94
   4   1  -6    3.66    0.39
   4   1  -6    3.57    0.41
   4   1  -5  240.61    7.69
   4   1  -4   56.54    2.84
   4   1  -4   60.14    2.86
   4   1  -3  186.09    6.15
   4   1  -3  193.89    6.33
   4   1  -2   68.95    3.18
   4   1  -2   67.60    2.88
   4   1  -2   76.11    3.24
   4   1  -1  472.97   13.48
   4   1  -1  497.70   13.72
   4   1   0  123.70    4.36
   4   1   0  123.87    4.65
   4   1   1  267.34    8.06
   4   1   1  295.62    8.80
   4   1   2  225.80    6.80
   4   1   2  239.61    7.68
   4   1   3  106.58    3.90
   4   1   4   67.32    2.99
   4   1   5    0.13    0.67
   4   1   5    0.74    0.45
   4   1   5   -0.18    0.83
   4   1   6   41.42    2.95
   4   1   6   44.64    2.69
   4   1   7  141.47    6.22
   4   1   7  147.43    5.90
   4   1   8   40.33    2.97
   4   1   9    0.23    1.24
   4   1  10    3.91    1.69
   4   2  -7  137.26    5.00
   4   2  -6  211.20    6.77
   4   2  -5  158.66    5.36
   4   2  -4   67.15    2.91
   4   2  -3  806.64   21.75
   4   2  -3  811.51   21.42
   4   2  -2  241.23    7.83
   4   2  -2  247.90    7.50
   4   2  -1  193.59    6.42
   4   2  -1  193.52    6.25
   4   2   0  137.07    4.90
   4   2   0  141.99    4.99
   4   2   1   86.16    3.65
   4   2   2   18.88    1.62
   4   2   3  160.03    5.92
   4   2   3  154.94    5.56
   4   2   4    2.43    0.87
   4   2   5    6.55    1.19
   4   2   5    6.92    0.92
   4   2   6   21.17    1.48
   4   2   6   20.46    2.00
   4   2   6   19.64    2.14
   4   2   7    4.32    1.23
   4   2   8    5.58    1.53
   4   2   9   -0.99    1.41
   4   2  10   23.22    2.88
   4   3  -6  316.22    8.96
   4   3  -5  141.29    4.52
   4   3  -4   75.45    2.81
   4   3  -3   14.81    1.10
   4   3  -2  234.48    7.03
   4   3  -1  149.06    5.01
   4   3   0  114.61    4.26
   4   3   1    2.42    0.75
   4   3   2  537.93   15.32
   4   3   3   34.72    2.41
   4   3   3   39.00    2.49
   4   3   4  126.35    5.30
   4   3   4  125.99    5.20
   4   3   5   53.46    2.74
   4   3   5   60.91    3.55
   4   3   5   51.24    3.19
   4   3   6    7.13    1.46
   4   3   6    7.83    1.14
   4   3   6   10.29    2.15
   4   3   7   27.13    3.31
   4   3   7   37.61    2.98
   4   3   8    7.56    1.71
   4   3   8    4.84    2.22
   4   3   9   56.40    4.06
   4   3   9   54.12    5.04
   4   4  -5  216.00    5.76
   4   4  -4    0.52    0.38
   4   4  -3   27.93    1.40
   4   4  -2   13.46    1.04
   4   4  -1   12.02    1.11
   4   4   0   51.59    2.54
   4   4   1  103.57    4.19
   4   4   2   22.68    1.90
   4   4   3   51.88    3.17
   4   4   3   47.46    2.95
   4   4   4  151.18    6.22
   4   4   5   22.53    1.93
   4   4   5   26.34    2.35
   4   4   5   24.03    2.78
   4   4   6   36.63    3.69
   4   4   6   40.99    2.62
   4   4   6   39.27    3.07
   4   4   7   11.88    2.01
   4   4   7   11.70    2.59
   4   4   8   13.05    2.19
   4   4   8   16.40    3.19
   4   4   9   24.70    2.93
   4   4   9   18.57    3.64
   4   5   3   -0.22    1.04
   4   5   4   11.98    1.85
   4   5   5   11.40    1.86
   4   5   5   15.40    1.77
   4   5   5   11.47    2.39
   4   5   6   27.60    2.72
   4   5   6   23.05    2.22
   4   5   6   24.18    3.10
   4   5   7    0.39    1.98
   4   5   7    3.56    1.58
   4   5   8   -1.75    2.36
   4   5   8    0.91    1.59
   4   6   3   76.18    4.49
   4   6   4    5.79    1.66
   4   6   5   42.31    3.75
   4   6   5   37.90    2.95
   4   6   5   34.97    3.12
   4   6   6    6.93    2.37
   4   6   6   11.41    2.12
   4   6   6    7.25    1.74
   4   6   7    4.54    1.86
   4   6   7    0.41    2.15
   4   7   3   26.30    2.83
   4   7   4    0.30    1.45
   4   7   5   15.08    2.39
   4   7   5   19.87    2.39
   4   7   6    3.82    1.86
   4   7   6    4.79    1.71
   4   7   6    3.40    2.18
   4   8   3    1.95    1.61
   4   8   4   73.40    4.68
   4   8   4   75.39    5.13
   4   8   5   27.15    3.26
   4   8   5   20.85    2.75
   4   9   3   -1.45    1.99
   5 -10   1   -1.08    1.99
   5  -9  -3   12.07    2.76
   5  -9  -2    0.37    1.77
   5  -9  -1    3.92    2.01
   5  -9   0   -1.04    1.90
   5  -9   1    9.52    1.94
   5  -9   1    5.34    2.00
   5  -9   2   23.88    2.55
   5  -9   2   22.93    3.06
   5  -9   3    1.04    1.52
   5  -9   3   -0.31    1.66
   5  -9   4    5.62    1.86
   5  -9   5   15.08    2.55
   5  -8  -4    8.99    2.43
   5  -8  -3    2.15    1.77
   5  -8  -2    9.55    2.34
   5  -8  -1   -0.65    1.53
   5  -8   0    3.34    1.36
   5  -8   0    0.32    1.59
   5  -8   1   18.63    2.15
   5  -8   1   18.55    2.66
   5  -8   2   -0.44    1.17
   5  -8   2    0.30    1.49
   5  -8   3    2.22    1.61
   5  -8   3    4.39    1.71
   5  -8   4   17.48    2.48
   5  -8   4   20.18    2.61
   5  -8   5    2.28    1.83
   5  -7  -4   66.20    4.83
   5  -7  -3    4.26    1.80
   5  -7  -2   37.41    3.49
   5  -7  -1   13.43    2.29
   5  -7   0   12.27    1.62
   5  -7   0   12.65    2.22
   5  -7   1    0.19    1.12
   5  -7   1   -0.86    1.46
   5  -7   2   44.26    3.09
   5  -7   2   41.14    3.50
   5  -7   3    1.13    1.29
   5  -7   3    1.37    1.40
   5  -7   4    2.95    1.50
   5  -7   4    4.97    1.65
   5  -7   5    2.25    1.62
   5  -7   6    2.41    1.50
   5  -6  -4   17.49    2.59
   5  -6  -3  223.27    9.25
   5  -6  -2   14.75    2.17
   5  -6  -1  205.49    8.53
   5  -6   0   46.63    3.61
   5  -6   1   25.34    2.64
   5  -6   2   88.91    4.99
   5  -6   3    5.63    1.64
   5  -6   4   71.00    4.29
   5  -6   5   -1.43    1.44
   5  -6   6   11.18    1.96
   5  -6   7    0.46    1.41
   5  -5  -2    1.03    1.21
   5  -5  -1   -0.25    1.18
   5  -5   0   92.70    4.98
   5  -5   1    1.71    1.23
   5  -5   2   -0.49    1.15
   5  -5   3   87.71    4.76
   5  -5   4   61.40    3.92
   5  -5   5    0.92    1.17
   5  -5   6   63.83    3.93
   5  -5   7   41.97    3.21
   5  -5   8    4.82    1.60
   5  -4  -4    0.77    1.30
   5  -4  -3   28.74    2.68
   5  -4  -1  443.80   14.23
   5  -4   0   13.87    1.88
   5  -4   1  344.45   10.18
   5  -4   1  359.33   11.84
   5  -4   2   -0.68    0.92
   5  -4   3   79.45    4.36
   5  -4   4  228.76    8.57
   5  -4   5   49.22    3.39
   5  -4   6  143.63    6.31
   5  -4   7   -0.90    1.33
   5  -4   8   20.50    2.34
   5  -4   9   18.81    2.33
   5  -3  -5    2.44    1.19
   5  -3  -4   92.83    4.85
   5  -3  -3   43.42    3.15
   5  -3  -3   49.05    2.46
   5  -3  -2   63.53    3.77
   5  -3  -2   62.41    2.65
   5  -3   0  900.25   23.39
   5  -3   0  844.15   24.77
   5  -3   1   13.54    1.21
   5  -3   1   14.44    1.77
   5  -3   2  136.36    4.49
   5  -3   2  147.96    6.17
   5  -3   3  125.79    5.62
   5  -3   4   31.28    2.61
   5  -3   5   50.89    3.36
   5  -3   6   15.68    2.09
   5  -3   7    4.95    1.57
   5  -3   8   10.26    1.91
   5  -3   9    1.47    1.36
   5  -3  10    8.99    2.09
   5  -2  -5  395.21   11.53
   5  -2  -5  417.82   13.18
   5  -2  -4   23.98    2.23
   5  -2  -4   25.49    1.76
   5  -2  -3  692.89   20.19
   5  -2  -3  706.06   18.75
   5  -2  -3  698.57   18.93
   5  -2  -2  239.03    8.56
   5  -2  -2  238.20    7.49
   5  -2  -2  237.91    6.97
   5  -2  -1  232.96    7.29
   5  -2  -1  218.89    8.10
   5  -2  -1  226.94    7.29
   5  -2  -1  221.88    6.27
   5  -2   0  323.04    9.55
   5  -2   0  332.55   10.03
   5  -2   1   26.45    1.56
   5  -2   1   22.73    2.19
   5  -2   2   21.50    1.27
   5  -2   2   22.48    2.14
   5  -2   3    0.39    0.36
   5  -2   3    0.20    0.86
   5  -2   4   31.89    1.35
   5  -2   4   36.31    2.72
   5  -2   5   57.04    3.47
   5  -2   5   49.41    2.16
   5  -2   6   58.99    3.67
   5  -2   7   10.55    1.84
   5  -2   8   27.49    2.76
   5  -2   9    0.50    1.29
   5  -2  10    1.34    1.45
   5  -1  -6    1.24    1.09
   5  -1  -5    5.83    1.27
   5  -1  -5    8.10    0.95
   5  -1  -4   51.15    3.16
   5  -1  -4   53.50    2.34
   5  -1  -3   46.65    2.95
   5  -1  -3   47.72    2.31
   5  -1  -3   46.93    2.19
   5  -1  -2   12.52    1.03
   5  -1  -2   12.26    1.17
   5  -1  -2   10.76    1.52
   5  -1  -1  205.82    6.72
   5  -1  -1  208.24    7.57
   5  -1  -1  206.31    6.57
   5  -1  -1  204.37    5.87
   5  -1   0   31.54    1.86
   5  -1   0   34.73    2.05
   5  -1   0   30.66    2.34
   5  -1   0   28.61    1.18
   5  -1   1  203.52    6.32
   5  -1   1  209.13    6.94
   5  -1   2   74.16    2.72
   5  -1   2   70.90    2.08
   5  -1   3    9.71    0.76
   5  -1   3    9.55    0.67
   5  -1   3   10.20    1.51
   5  -1   4  183.96    6.90
   5  -1   4  167.63    5.14
   5  -1   5   -0.09    0.53
   5  -1   5   -0.82    1.06
   5  -1   6   14.29    1.39
   5  -1   6   18.11    2.07
   5  -1   7   89.13    4.77
   5  -1   8   26.01    2.66
   5  -1   9   -1.30    1.34
   5  -1  10    7.12    2.00
   5   0  -9   39.95    3.07
   5   0  -8   15.83    2.01
   5   0  -7   32.36    2.56
   5   0  -6   36.36    2.64
   5   0  -5    0.87    0.45
   5   0  -5   -0.17    0.83
   5   0  -4   17.79    1.04
   5   0  -4   14.80    1.68
   5   0  -3  200.48    5.84
   5   0  -3  202.73    7.20
   5   0  -3  198.02    6.39
   5   0  -2   29.06    1.53
   5   0  -2   30.85    2.29
   5   0  -2   26.50    1.62
   5   0  -1    1.17    0.52
   5   0  -1    1.44    0.78
   5   0  -1    0.50    0.72
   5   0   0    0.12    0.43
   5   0   0    0.85    0.75
   5   0   0    0.66    0.78
   5   0   1  192.62    6.08
   5   0   1  191.40    7.01
   5   0   2  279.63    7.81
   5   0   2  256.90    7.43
   5   0   3   48.39    2.04
   5   0   3   48.60    2.08
   5   0   4  181.76    5.40
   5   0   4  187.39    7.21
   5   0   4  203.72    6.01
   5   0   5   81.72    4.30
   5   0   5   80.77    3.37
   5   0   6  137.54    6.10
   5   0   6  138.96    5.16
   5   0   7   20.22    1.86
   5   0   7   21.17    2.35
   5   0   8   11.26    1.98
   5   0   9   13.41    2.32
   5   1  -8   43.90    2.94
   5   1  -7  107.68    4.75
   5   1  -6  113.76    4.83
   5   1  -5   44.60    2.71
   5   1  -4   39.04    2.49
   5   1  -3  308.72    9.75
   5   1  -3  306.96    9.27
   5   1  -2   27.96    1.80
   5   1  -2   33.80    2.23
   5   1  -1   33.26    2.13
   5   1  -1   33.32    1.85
   5   1  -1   31.22    2.22
   5   1   0   47.86    2.55
   5   1   0   52.15    2.88
   5   1   1   37.12    2.11
   5   1   1   42.27    2.60
   5   1   2    4.41    0.84
   5   1   2    4.02    1.00
   5   1   3   79.88    3.18
   5   1   3   84.24    4.12
   5   1   3   85.86    3.37
   5   1   4    5.38    0.92
   5   1   5    0.13    0.76
   5   1   5    0.61    1.01
   5   1   6   17.49    1.74
   5   1   6   18.58    2.14
   5   1   7    8.56    1.47
   5   1   7   10.56    1.84
   5   1   8   14.88    1.93
   5   1   8   16.85    2.35
   5   2  -7   90.64    4.00
   5   2  -6    0.81    0.78
   5   2  -5  137.30    5.17
   5   2  -4   37.87    2.31
   5   2  -3  146.65    5.35
   5   2  -2  441.40   12.82
   5   2  -2  458.76   13.06
   5   2  -1  160.45    5.80
   5   2   0  419.00   12.58
   5   2   0  456.42   12.97
   5   2   1   21.55    1.69
   5   2   1   22.62    1.89
   5   2   2   36.30    2.15
   5   2   2   43.33    2.70
   5   2   3   19.23    1.66
   5   2   3   18.92    1.89
   5   2   4   19.39    1.74
   5   2   4   15.18    1.86
   5   2   5   17.59    1.77
   5   2   6    1.25    0.95
   5   2   6    3.19    1.35
   5   2   7    9.63    1.61
   5   2   7   11.61    1.91
   5   2   8   10.00    1.82
   5   3  -6  203.62    6.52
   5   3  -5    6.30    0.98
   5   3  -4    8.13    1.02
   5   3  -3    1.49    0.67
   5   3  -2   24.44    1.73
   5   3  -1   90.25    3.80
   5   3   0    1.49    0.77
   5   3   1  256.70    8.47
   5   3   2   47.00    2.85
   5   3   3   43.95    2.87
   5   3   3   37.21    2.57
   5   3   4  122.70    5.49
   5   3   4  125.95    5.26
   5   3   5    0.18    0.90
   5   3   5    1.30    1.17
   5   3   6    8.87    1.60
   5   3   7   11.14    1.94
   5   3   8    1.22    1.47
   5   3   9    4.05    1.73
   5   4  -4  465.75   12.66
   5   4  -3   62.14    2.68
   5   4  -2   86.47    3.48
   5   4  -1  391.52   11.41
   5   4   0  196.06    6.75
   5   4   1    2.24    0.92
   5   4   2  130.95    5.38
   5   4   3   11.11    1.59
   5   4   3   11.48    1.64
   5   4   4   75.45    4.22
   5   4   4   79.43    4.22
   5   4   5   41.89    3.05
   5   4   6   42.24    3.19
   5   4   7   27.83    2.79
   5   4   8    6.57    1.89
   5   5  -3  180.63    5.64
   5   5  -2   23.72    1.62
   5   5  -1  399.46   11.64
   5   5   0  106.97    4.43
   5   5   1  951.74   25.86
   5   5   2   11.78    1.66
   5   5   3  101.09    5.09
   5   5   4   76.32    4.41
   5   5   5    4.89    1.46
   5   5   6   23.81    2.62
   5   5   7   -0.83    1.64
   5   6   3   67.84    4.30
   5   6   4    6.00    1.80
   5   6   5    1.66    1.48
   5   6   5    2.84    1.39
   5   6   6   43.76    3.67
   5   7   3   15.52    2.43
   5   7   4   10.15    2.22
   5   7   5   -0.62    1.67
   5   7   5    1.51    1.60
   5   8   3   72.71    5.06
   5   8   4    9.63    2.40
   6  -9  -1   34.44    3.95
   6  -9   0   34.81    3.85
   6  -9   1   30.86    3.78
   6  -9   2   48.85    4.35
   6  -9   3    8.00    2.42
   6  -8  -4    1.62    2.16
   6  -8  -3    2.70    2.06
   6  -8  -2   49.23    4.42
   6  -8  -1    5.51    2.04
   6  -8   0    7.48    2.27
   6  -8   1    7.30    2.19
   6  -8   2   -0.34    1.61
   6  -8   3   30.95    3.35
   6  -8   4    7.53    2.11
   6  -7  -4    3.36    1.91
   6  -7  -3   11.73    2.38
   6  -7  -2    1.04    1.72
   6  -7  -1    3.74    1.86
   6  -7   0    8.61    2.11
   6  -7   1    3.58    1.81
   6  -7   2   -1.28    1.63
   6  -7   3   16.14    2.54
   6  -7   4   -0.89    1.45
   6  -7   5    6.90    1.92
   6  -7   6    3.62    1.68
   6  -6  -7   51.79    4.67
   6  -6  -6   13.97    2.66
   6  -6  -5   11.86    2.43
   6  -6  -3   19.61    2.78
   6  -6  -2   35.03    3.40
   6  -6  -1   29.52    3.19
   6  -6   0   23.96    2.90
   6  -6   1   42.46    3.69
   6  -6   2   89.26    5.32
   6  -6   3   -0.58    1.35
   6  -6   4    5.38    1.80
   6  -6   5   58.62    4.16
   6  -6   6    3.79    1.65
   6  -6   7    2.67    1.63
   6  -5  -8    1.92    2.07
   6  -5  -7    4.00    2.12
   6  -5  -6   13.52    2.58
   6  -5  -5    0.66    1.43
   6  -5  -4   11.92    2.28
   6  -5  -2   53.50    4.00
   6  -5  -1  191.51    8.27
   6  -5   0   72.29    4.64
   6  -5   1   67.94    4.45
   6  -5   2   54.27    3.95
   6  -5   3   84.59    4.95
   6  -5   4   54.90    3.93
   6  -5   5   11.71    2.07
   6  -5   6    9.47    1.86
   6  -5   7   26.64    2.84
   6  -5   8    4.49    1.76
   6  -4  -8    1.05    1.74
   6  -4  -7    5.34    1.97
   6  -4  -6   14.86    2.51
   6  -4  -5   69.06    4.61
   6  -4  -4    0.86    1.30
   6  -4  -3   75.95    4.68
   6  -4   0  163.45    7.25
   6  -4   1   20.54    2.46
   6  -4   2    0.26    1.23
   6  -4   3   21.41    2.47
   6  -4   4   34.98    3.07
   6  -4   5   76.33    4.56
   6  -4   6   20.37    2.53
   6  -4   7    4.17    1.61
   6  -4   8   14.63    2.33
   6  -4   9   20.92    2.63
   6  -3  -9   21.32    3.07
   6  -3  -8    4.79    1.82
   6  -3  -7    1.52    1.45
   6  -3  -6   23.28    2.68
   6  -3  -5    0.82    1.24
   6  -3  -4  144.00    6.67
   6  -3  -3   81.99    4.72
   6  -3  -2   76.62    4.55
   6  -3   1   56.22    2.65
   6  -3   1   47.86    3.57
   6  -3   2   42.67    3.27
   6  -3   3   -0.98    1.23
   6  -3   4   57.73    3.86
   6  -3   5   37.54    3.15
   6  -3   6   71.17    4.40
   6  -3   7   31.68    3.01
   6  -3   8   12.52    2.17
   6  -3   9    4.97    1.87
   6  -2  -9   42.15    3.84
   6  -2  -8   17.73    2.59
   6  -2  -7   16.75    2.36
   6  -2  -6   34.83    3.10
   6  -2  -5    3.94    1.33
   6  -2  -4  109.23    5.44
   6  -2  -3  149.40    6.62
   6  -2  -3  152.21    5.44
   6  -2  -2   95.14    5.02
   6  -2  -2  106.30    4.21
   6  -2  -2   96.07    3.47
   6  -2  -1   32.53    2.78
   6  -2  -1   35.05    1.50
   6  -2   0    2.10    1.25
   6  -2   1   28.21    1.79
   6  -2   2  177.15    5.62
   6  -2   2  184.48    7.38
   6  -2   3   63.19    3.93
   6  -2   4  165.46    7.01
   6  -2   5  205.60    8.20
   6  -2   6   57.95    3.90
   6  -2   7   78.39    4.68
   6  -2   8   15.32    2.37
   6  -2   9   23.43    2.87
   6  -1  -9   10.48    2.08
   6  -1  -8   -0.26    1.41
   6  -1  -7    6.39    1.63
   6  -1  -6    6.08    1.54
   6  -1  -5    0.23    1.17
   6  -1  -4  114.69    5.44
   6  -1  -3   68.15    3.99
   6  -1  -3   70.21    3.00
   6  -1  -3   70.66    3.04
   6  -1  -2    0.56    0.58
   6  -1  -2    0.54    0.68
   6  -1  -2    2.18    1.10
   6  -1  -1  156.52    5.54
   6  -1  -1  165.80    6.75
   6  -1  -1  159.88    4.80
   6  -1   0  105.76    4.23
   6  -1   0  113.29    5.27
   6  -1   0  108.17    3.23
   6  -1   1  180.34    5.77
   6  -1   1  187.40    7.19
   6  -1   1  169.14    4.49
   6  -1   2  145.42    4.84
   6  -1   3  260.79    9.47
   6  -1   4   22.72    2.39
   6  -1   5   39.96    3.21
   6  -1   6   92.69    5.04
   6  -1   7   18.69    2.44
   6  -1   8   36.41    3.31
   6  -1   9    4.33    1.82
   6   0  -8    0.23    1.22
   6   0  -7   36.25    2.90
   6   0  -6   -0.21    1.20
   6   0  -5   12.60    1.77
   6   0  -4    2.83    1.18
   6   0  -3   16.29    1.21
   6   0  -3   21.66    1.62
   6   0  -3   18.07    1.97
   6   0  -2  242.27    8.78
   6   0  -2  248.10    7.44
   6   0  -1    1.31    0.56
   6   0  -1    2.59    1.06
   6   0   0   94.57    3.24
   6   0   0   92.05    4.60
   6   0   1   20.63    1.66
   6   0   1   26.27    2.32
   6   0   2  104.54    3.89
   6   0   2  102.65    5.02
   6   0   2  102.50    3.43
   6   0   3   53.91    2.24
   6   0   4  204.63    6.30
   6   0   5    1.89    1.28
   6   0   6   19.62    2.34
   6   0   7   29.20    2.87
   6   0   8    8.68    2.00
   6   0   9    0.30    1.64
   6   1  -7  200.81    7.58
   6   1  -6    1.89    1.21
   6   1  -5   45.54    2.97
   6   1  -4  149.78    6.05
   6   1  -3    7.46    1.40
   6   1  -2   80.46    4.03
   6   1  -2   79.38    3.36
   6   1  -1    6.90    1.00
   6   1  -1    5.83    1.31
   6   1   0   32.45    2.48
   6   1   1   15.35    1.47
   6   1   1   16.51    1.85
   6   1   2   18.53    1.44
   6   1   2   20.59    1.62
   6   1   2   18.83    2.02
   6   1   3   45.30    3.14
   6   1   3   37.89    2.13
   6   1   4   29.15    1.91
   6   1   5   26.75    1.96
   6   1   6   31.11    2.92
   6   1   7    1.88    1.49
   6   1   8   43.01    3.70
   6   1   9   14.16    2.65
   6   2  -6  515.24   15.16
   6   2  -5   -0.32    0.93
   6   2  -4  149.33    5.76
   6   2  -3  146.24    5.69
   6   2  -2   93.19    4.26
   6   2  -1   21.62    1.96
   6   2   0    1.92    0.96
   6   2   1   65.06    3.60
   6   2   2    5.85    1.36
   6   2   3   27.81    2.50
   6   2   3   23.86    1.90
   6   2   4    2.03    0.91
   6   2   4    3.10    1.31
   6   2   5   22.33    2.00
   6   2   5   17.83    2.24
   6   2   6    0.72    0.98
   6   2   7   10.97    2.03
   6   2   8   -1.21    1.79
   6   3  -5   11.29    1.38
   6   3  -4   72.75    3.42
   6   3  -3    7.31    1.18
   6   3  -2   49.49    2.82
   6   3  -1    4.64    1.16
   6   3   0  254.58    8.61
   6   3   1    3.92    1.14
   6   3   2    0.57    0.90
   6   3   3   84.28    4.45
   6   3   3   84.18    4.12
   6   3   4    1.76    1.07
   6   3   4    1.80    1.20
   6   3   5    9.25    1.54
   6   3   5    8.99    1.88
   6   3   6   -0.41    1.16
   6   3   6    1.06    1.39
   6   3   7   13.85    2.07
   6   4  -4  229.04    7.22
   6   4  -3   27.34    1.91
   6   4  -2  264.77    8.45
   6   4  -1  181.96    6.56
   6   4   0  150.38    5.82
   6   4   1  389.09   12.22
   6   4   2   38.89    2.83
   6   4   3   56.31    3.54
   6   4   3   57.03    3.52
   6   4   4   19.07    2.16
   6   4   4   20.69    2.34
   6   4   5   50.31    3.61
   6   4   5   47.25    3.33
   6   4   6   -0.23    1.28
   6   4   7    1.01    1.42
   6   5  -3    1.06    0.77
   6   5  -2  173.85    6.07
   6   5  -1    3.83    1.07
   6   5   0   16.42    1.69
   6   5   1   42.71    2.87
   6   5   2    7.48    1.60
   6   5   3   47.63    3.42
   6   5   3   52.77    3.54
   6   5   4    2.96    1.55
   6   5   5   54.37    3.78
   6   5   6   -0.26    1.44
   6   6  -1    2.78    0.98
   6   6   0   29.98    2.37
   6   6   3   66.25    4.36
   6   6   4    5.93    1.85
   6   6   5   67.41    4.48
   6   7   3    5.27    1.91
   6   7   4   18.42    2.82
   7  -8  -2   14.55    3.00
   7  -8  -1   -0.40    1.90
   7  -8   0    6.73    2.39
   7  -8   1    1.17    2.00
   7  -8   2    4.54    2.26
   7  -8   3    9.83    2.54
   7  -8   4    4.19    2.26
   7  -7  -4    1.22    1.92
   7  -7  -3   40.31    4.07
   7  -7  -2   13.97    2.82
   7  -7  -1   -0.38    1.74
   7  -7   0   27.87    3.44
   7  -7   1   15.81    2.84
   7  -7   2    2.15    1.99
   7  -7   3   10.35    2.37
   7  -7   4    0.33    1.68
   7  -7   5    2.92    1.94
   7  -6  -6    3.64    2.33
   7  -6  -5   -0.39    1.82
   7  -6  -2    9.73    2.34
   7  -6  -1   19.42    2.79
   7  -6   0   37.86    3.67
   7  -6   1    5.52    1.97
   7  -6   2    1.01    1.61
   7  -6   3    7.22    2.11
   7  -6   4    3.19    1.71
   7  -6   5    0.63    1.72
   7  -6   6    0.31    1.73
   7  -5  -7   10.17    2.59
   7  -5  -6   -1.12    1.79
   7  -5  -5   26.61    3.26
   7  -5  -4    5.98    2.03
   7  -5  -3    0.34    1.53
   7  -5  -1   64.95    4.59
   7  -5   0   10.49    2.18
   7  -5   1  195.38    8.74
   7  -5   2   22.48    2.84
   7  -5   3   12.42    2.26
   7  -5   4  117.04    6.34
   7  -5   5    9.11    2.15
   7  -5   6   25.17    2.98
   7  -5   7    8.40    2.14
   7  -4  -7   11.51    2.51
   7  -4  -6   33.63    3.51
   7  -4  -5    4.01    1.76
   7  -4  -4   68.94    4.82
   7  -4  -3   12.41    2.28
   7  -4  -2    3.12    1.47
   7  -4   0   54.23    4.13
   7  -4   1    7.31    1.85
   7  -4   2   -1.49    1.48
   7  -4   3    0.30    1.42
   7  -4   4    4.70    1.79
   7  -4   5    0.29    1.48
   7  -4   6    2.35    1.69
   7  -4   7    8.28    2.11
   7  -4   8    5.40    2.08
   7  -3  -8    0.69    1.73
   7  -3  -7   37.49    3.73
   7  -3  -6    2.23    1.63
   7  -3  -5    0.31    1.47
   7  -3  -4    5.74    1.83
   7  -3  -3    4.43    1.74
   7  -3  -2   -0.87    1.37
   7  -3  -1   31.04    3.08
   7  -3   1   -0.28    1.18
   7  -3   2   35.52    3.17
   7  -3   3    2.53    1.48
   7  -3   4    6.21    1.67
   7  -3   5    0.85    1.38
   7  -3   6   37.28    3.38
   7  -3   7    0.88    1.57
   7  -3   8   75.55    4.94
   7  -2  -9   39.71    3.78
   7  -2  -8   19.85    2.83
   7  -2  -7   72.44    4.81
   7  -2  -6   66.96    4.54
   7  -2  -5   69.60    4.60
   7  -2  -4   57.15    4.04
   7  -2  -3   39.51    3.38
   7  -2  -2   62.16    4.22
   7  -2  -1    6.26    1.73
   7  -2   0  123.49    6.14
   7  -2   3   35.11    3.20
   7  -2   4   19.90    2.49
   7  -2   5   30.60    3.08
   7  -2   6   11.36    2.16
   7  -2   7  108.26    5.97
   7  -2   8    0.30    1.76
   7  -1  -8    2.03    1.50
   7  -1  -7   51.83    3.91
   7  -1  -6   -0.27    1.50
   7  -1  -5  103.34    5.44
   7  -1  -4  270.79   10.10
   7  -1  -3   30.83    2.88
   7  -1  -2  482.04   15.55
   7  -1  -1   47.28    3.50
   7  -1   0   54.18    3.77
   7  -1   1  133.09    6.26
   7  -1   4    3.44    1.47
   7  -1   5   14.67    2.24
   7  -1   6   14.97    2.36
   7  -1   7   22.50    2.78
   7  -1   8   17.68    2.69
   7   0  -7   60.12    4.04
   7   0  -6   -0.49    1.35
   7   0  -5   58.85    3.87
   7   0  -4    0.96    1.30
   7   0  -3    9.72    1.82
   7   0  -2  151.17    6.60
   7   0  -1   13.28    1.92
   7   0   0  182.56    7.47
   7   0   1   83.65    4.62
   7   0   2   98.76    5.18
   7   0   3  109.46    5.53
   7   0   5   73.95    4.56
   7   0   6   18.78    2.53
   7   0   7   23.83    2.88
   7   0   8   63.52    4.66
   7   1  -6  177.81    7.28
   7   1  -5  139.39    6.15
   7   1  -4  106.24    5.18
   7   1  -3   28.78    2.53
   7   1  -2  146.36    6.28
   7   1  -1  132.08    5.89
   7   1   0   36.45    2.89
   7   1   1   35.14    2.90
   7   1   2  139.39    6.16
   7   1   2  125.11    4.61
   7   1   3  138.86    6.37
   7   1   4   63.23    4.12
   7   1   6    3.10    1.73
   7   1   7   11.95    2.36
   7   1   8   43.24    3.90
   7   2  -5   86.32    4.36
   7   2  -4  113.44    5.09
   7   2  -3   56.49    3.41
   7   2  -2  289.87    9.86
   7   2  -1   -0.40    1.11
   7   2   0  180.13    7.14
   7   2   1    4.77    1.32
   7   2   2    2.04    1.29
   7   2   3   13.28    1.51
   7   2   3   12.92    1.93
   7   2   4    0.50    1.10
   7   2   5    9.36    1.97
   7   3  -4   91.72    4.29
   7   3  -3    2.37    1.02
   7   3  -2   56.84    3.32
   7   3  -1  109.15    4.97
   7   3   0  354.33   11.57
   7   3   1  146.95    6.25
   7   3   2  249.01    9.12
   7   3   3  179.03    7.34
   7   3   3  168.96    6.64
   7   3   4   -0.36    1.11
   7   3   4    0.25    1.35
   7   3   5  141.57    6.77
   7   3   6   23.51    2.87
   7   3   7    2.85    1.95
   7   4  -3   33.93    2.36
   7   4  -2   12.31    1.62
   7   4  -1    1.40    1.03
   7   4   0  152.89    6.26
   7   4   1   51.30    3.34
   7   4   2   -0.22    1.19
   7   4   3   15.06    2.04
   7   4   3   17.89    2.29
   7   4   4    0.43    1.16
   7   4   4   -1.29    1.45
   7   4   5   16.43    2.41
   7   4   6    2.75    1.88
   7   5  -2   25.91    2.11
   7   5  -1    4.87    1.27
   7   5   0   39.00    2.82
   7   5   1   -0.61    1.16
   7   5   2    2.67    1.36
   7   5   3   23.19    2.54
   7   5   3   28.51    2.84
   7   5   4    7.56    1.87
   7   5   4    4.86    1.70
   7   5   5    9.22    1.97
   7   6   0   14.36    1.91
   7   6   1   25.01    2.43
   7   6   3   28.49    3.04
   7   6   4   10.10    2.11
   8  -7  -2    8.10    2.52
   8  -7  -1    5.45    2.42
   8  -7   0    4.99    2.28
   8  -7   1    8.50    2.55
   8  -7   2    7.45    2.42
   8  -7   3    1.52    1.91
   8  -6  -4   15.94    3.03
   8  -6  -2    3.60    2.05
   8  -6  -1  106.43    6.60
   8  -6   0    1.56    1.77
   8  -6   1   11.50    2.65
   8  -6   2    1.12    1.85
   8  -6   3   -0.36    1.65
   8  -6   4   -0.36    1.85
   8  -6   5   12.61    2.68
   8  -5  -5    8.84    2.61
   8  -5  -4    7.43    2.29
   8  -5  -3   11.85    2.71
   8  -5  -1   -1.49    1.99
   8  -5   0   52.55    4.45
   8  -5   1    7.92    2.25
   8  -5   2    6.34    2.03
   8  -5   3    1.39    1.83
   8  -5   4   22.70    3.05
   8  -5   5    7.14    2.29
   8  -5   6    1.35    1.82
   8  -4  -6   -0.77    1.75
   8  -4  -5    1.50    1.88
   8  -4  -4   94.11    5.97
   8  -4  -3   -0.36    1.80
   8  -4  -2   65.68    4.87
   8  -4   1   35.69    3.55
   8  -4   2   -0.33    1.49
   8  -4   3    0.66    1.62
   8  -4   4   40.11    3.77
   8  -4   5    0.33    1.63
   8  -4   6   54.64    4.40
   8  -3  -7   15.49    2.94
   8  -3  -6    5.00    2.11
   8  -3  -5   17.37    2.83
   8  -3  -4    1.70    1.74
   8  -3  -3    1.34    1.66
   8  -3  -2   15.71    2.55
   8  -3  -1    7.25    1.99
   8  -3   0    7.77    1.98
   8  -3   2   11.79    2.27
   8  -3   3   78.38    5.12
   8  -3   4    0.95    1.55
   8  -3   5   99.42    5.86
   8  -3   6    3.89    1.89
   8  -3   7   16.78    2.86
   8  -2  -7   66.86    4.92
   8  -2  -6    4.29    1.86
   8  -2  -5   41.27    3.75
   8  -2  -4    5.07    1.87
   8  -2  -3   67.61    4.69
   8  -2  -2    4.06    1.74
   8  -2  -1  101.53    5.75
   8  -2   0   16.41    2.43
   8  -2   1   12.74    2.35
   8  -2   3   55.99    4.23
   8  -2   4    3.07    1.71
   8  -2   5   25.10    3.00
   8  -2   6   25.24    3.08
   8  -2   7   -0.33    1.86
   8  -1  -7    8.72    2.17
   8  -1  -6   31.65    3.27
   8  -1  -5   30.47    3.09
   8  -1  -4    1.19    1.43
   8  -1  -3   -1.76    1.61
   8  -1  -2  107.19    5.80
   8  -1  -1    6.29    1.82
   8  -1   0  162.08    7.44
   8  -1   1    9.18    2.02
   8  -1   2   51.86    3.91
   8  -1   4    6.00    1.87
   8  -1   5   15.67    2.52
   8  -1   6    7.92    2.19
   8  -1   7   14.94    2.62
   8   0  -7  105.71    5.80
   8   0  -6    3.11    1.72
   8   0  -5   13.84    2.31
   8   0  -4   24.35    2.77
   8   0  -3   24.00    2.70
   8   0  -2    0.27    1.25
   8   0  -1    0.27    1.36
   8   0   0   56.35    3.98
   8   0   1    0.82    1.31
   8   0   2   41.88    3.45
   8   0   3    0.85    1.36
   8   0   6   11.26    2.44
   8   0   7   26.04    3.18
   8   1  -6   17.13    2.33
   8   1  -5   -0.25    1.40
   8   1  -4    3.44    1.53
   8   1  -3    5.65    1.62
   8   1  -2    2.95    1.45
   8   1  -1   11.73    1.94
   8   1   0   46.56    3.49
   8   1   1   17.41    2.33
   8   1   2   62.11    4.15
   8   1   3    7.21    1.80
   8   1   4   11.24    2.14
   8   1   5   62.81    4.50
   8   2  -5    4.80    1.53
   8   2  -4    4.61    1.55
   8   2  -3   66.06    3.99
   8   2  -2   19.29    2.36
   8   2  -1   18.61    2.20
   8   2   0  254.49    9.49
   8   2   1   33.35    2.99
   8   2   2   16.07    2.28
   8   2   3   -0.54    1.39
   8   2   4    1.14    1.51
   8   2   5   -0.30    1.52
   8   2   6   10.10    2.22
   8   3  -3   12.38    1.79
   8   3  -2    4.15    1.36
   8   3  -1   52.59    3.51
   8   3   0   -0.46    1.22
   8   3   1  106.18    5.43
   8   3   2   12.15    2.07
   8   3   3    3.21    1.61
   8   3   4    1.70    1.65
   8   3   5    9.34    2.22
   8   4  -2    9.40    1.74
   8   4  -1   11.88    1.85
   8   4   0   15.24    2.09
   8   4   1    2.80    1.31
   8   4   2    4.24    1.65
   8   4   3    0.80    1.56
   8   4   4    0.57    1.50
   8   4   5   14.92    2.55
   8   5  -1    2.93    1.31
   8   5   0   11.27    1.89
   8   5   1   15.25    2.12
   8   5   2    0.50    1.37
   8   5   3   41.92    3.52
   8   5   4   12.03    2.32
   8   6   1    3.75    1.55
   8   6   2    4.65    1.78
   9  -6   0   15.00    3.05
   9  -6   1    7.08    2.49
   9  -5  -3    1.27    1.99
   9  -5  -2   14.71    2.91
   9  -5   0    0.41    2.00
   9  -5   1    2.37    1.96
   9  -5   2   -1.56    1.83
   9  -5   3    6.14    2.42
   9  -4  -4    0.81    2.07
   9  -4  -3    7.61    2.47
   9  -4  -2    3.56    2.02
   9  -4  -1    6.22    2.24
   9  -4   1    1.88    1.92
   9  -4   2   33.06    3.72
   9  -4   3    4.42    2.15
   9  -4   4   13.54    2.82
   9  -3  -5    1.93    2.09
   9  -3  -4    1.53    1.92
   9  -3  -3   14.70    2.77
   9  -3  -2    2.60    1.92
   9  -3  -1    1.09    1.86
   9  -3   0    1.44    1.72
   9  -3   3   40.04    3.95
   9  -3   4    0.71    1.69
   9  -3   5    4.63    2.15
   9  -2  -6    1.10    2.00
   9  -2  -5    1.09    1.90
   9  -2  -4    1.79    1.80
   9  -2  -3    5.28    2.01
   9  -2  -2    1.39    1.57
   9  -2  -1    1.37    1.67
   9  -2   0   15.29    2.54
   9  -2   1   14.59    2.51
   9  -2   4    0.69    1.62
   9  -2   5    2.10    1.96
   9  -1  -6   18.45    2.92
   9  -1  -5   -0.34    1.64
   9  -1  -4   22.58    3.03
   9  -1  -3   30.97    3.36
   9  -1  -2   -0.32    1.67
   9  -1  -1   14.78    2.48
   9  -1   0   10.60    2.15
   9  -1   1    0.64    1.54
   9  -1   2   -1.63    1.83
   9  -1   3    2.95    1.85
   9  -1   5   -0.68    1.92
   9   0  -6   34.83    3.51
   9   0  -5    1.23    1.62
   9   0  -4    1.21    1.64
   9   0  -3   13.85    2.37
   9   0  -2    8.42    2.10
   9   0  -1   -1.20    1.58
   9   0   0   39.28    3.55
   9   0   1    3.39    1.82
   9   0   2    1.87    1.66
   9   0   3   26.90    3.11
   9   0   4    2.29    1.88
   9   1  -5    8.02    2.04
   9   1  -4    8.28    2.03
   9   1  -3   28.01    2.99
   9   1  -2    1.12    1.42
   9   1  -1   14.41    2.27
   9   1   0    6.31    1.90
   9   1   1   25.23    2.96
   9   1   2    7.55    1.91
   9   1   3    9.32    2.20
   9   1   4    5.48    2.15
   9   1   5    9.96    2.50
   9   2  -4   12.43    2.08
   9   2  -3    4.31    1.76
   9   2  -2    3.61    1.68
   9   2  -1   88.26    5.00
   9   2   0    1.09    1.55
   9   2   1   84.81    5.05
   9   2   2    7.29    1.98
   9   2   3    4.87    1.92
   9   2   4   36.98    3.61
   9   3  -2    1.20    1.38
   9   3  -1   64.22    4.14
   9   3   0   15.04    2.25
   9   3   1    0.82    1.53
   9   3   2    0.28    1.55
   9   3   3    1.49    1.70
   9   3   4    1.57    1.76
   9   4  -1    8.69    1.83
   9   4   0   18.07    2.38
   9   4   1   -1.05    1.57
   9   4   2    2.78    1.73
   9   4   3   13.90    2.45
   9   5   1   10.32    2.09
  10  -3  -3    4.12    2.29
  10  -3  -2   -0.40    2.00
  10  -3  -1    2.79    2.18
  10  -3   0    3.16    2.11
  10  -3   1    0.78    1.91
  10  -2  -4    0.78    1.87
  10  -2  -3   41.73    4.18
  10  -2  -2    2.65    2.05
  10  -2  -1   29.82    3.56
  10  -2   0    0.75    1.73
  10  -2   1    4.50    2.26
  10  -2   2    0.75    1.83
  10  -1  -4    0.72    1.73
  10  -1  -3    2.14    1.98
  10  -1  -2    0.71    1.70
  10  -1  -1    8.15    2.32
  10  -1   0   -1.78    1.90
  10  -1   1    2.51    1.86
  10  -1   2    2.16    1.78
  10  -1   3   -0.36    1.88
  10   0  -4   -0.33    1.70
  10   0  -3   -1.33    1.90
  10   0  -2   -1.66    1.98
  10   0  -1   26.16    3.19
  10   0   0    2.36    1.78
  10   0   1   43.60    3.96
  10   0   2    2.08    1.82
  10   0   3    6.36    2.34
  10   1  -4   27.74    3.22
  10   1  -3    1.23    1.75
  10   1  -2   47.32    3.96
  10   1  -1   75.66    5.07
  10   1   0   98.66    5.82
  10   1   1   28.78    3.38
  10   1   2    4.35    2.06
  10   2  -3    9.05    2.22
  10   2  -2    1.16    1.64
  10   2  -1   28.07    3.18
  10   2   0   29.26    3.23
  10   2   1   74.49    5.01
  10   2   2   10.37    2.42
  10   3  -1   19.81    2.61
  10   3   0    9.58    2.26
   0   0   0    0.00    0.00
;
_shelx_hkl_checksum              72211
loop_
_space_group_symop_operation_xyz
'x, y, z'
'-x, -y, -z'
loop_
_atom_site_label
_atom_site_type_symbol
_atom_site_fract_x
_atom_site_fract_y
_atom_site_fract_z
_atom_site_U_iso_or_equiv
_atom_site_adp_type
_atom_site_occupancy
_atom_site_site_symmetry_order
_atom_site_calc_flag
_atom_site_refinement_flags_posn
_atom_site_refinement_flags_adp
_atom_site_refinement_flags_occupancy
_atom_site_disorder_assembly
_atom_site_disorder_group
F1 F 0.48412(13) 0.78733(11) 0.14882(12) 0.0479(3) Uani 1 1 d . . . . .
N1 N 0.61937(14) 0.42246(13) 0.22746(12) 0.0259(3) Uani 1 1 d . . . . .
N2 N 0.9221(2) 0.7190(2) 0.1783(2) 0.0582(5) Uani 1 1 d . . . . .
C1 C 0.8024(2) 0.64802(18) 0.18336(17) 0.0370(4) Uani 1 1 d . . . . .
C2 C 0.64845(18) 0.57268(16) 0.19248(15) 0.0285(3) Uani 1 1 d . . . . .
C3 C 0.5007(2) 0.64111(17) 0.18064(16) 0.0318(3) Uani 1 1 d . . . . .
C4 C 0.37689(19) 0.54005(18) 0.20831(16) 0.0324(3) Uani 1 1 d . . . . .
H4 H 0.2653 0.5586 0.2071 0.039 Uiso 1 1 calc R U . . .
C5 C 0.45282(17) 0.40553(16) 0.23820(15) 0.0261(3) Uani 1 1 d . . . . .
C6 C 0.36545(17) 0.26987(16) 0.28288(15) 0.0267(3) Uani 1 1 d . . . . .
C7 C 0.3633(2) 0.25694(19) 0.42942(17) 0.0372(4) Uani 1 1 d . . . . .
H7 H 0.4195 0.3317 0.4989 0.045 Uiso 1 1 calc R U . . .
C8 C 0.2776(2) 0.1327(2) 0.47190(19) 0.0450(4) Uani 1 1 d . . . . .
H8 H 0.2779 0.1236 0.5697 0.054 Uiso 1 1 calc R U . . .
C9 C 0.1919(2) 0.02256(18) 0.3696(2) 0.0416(4) Uani 1 1 d . . . . .
H9 H 0.1351 -0.0608 0.3985 0.050 Uiso 1 1 calc R U . . .
C10 C 0.19066(19) 0.03647(18) 0.22471(19) 0.0379(4) Uani 1 1 d . . . . .
H10 H 0.1318 -0.0369 0.1559 0.045 Uiso 1 1 calc R U . . .
C11 C 0.27712(18) 0.15974(17) 0.18111(17) 0.0315(3) Uani 1 1 d . . . . .
H11 H 0.2758 0.1685 0.0832 0.038 Uiso 1 1 calc R U . . .
C12 C 0.75518(18) 0.30906(17) 0.24294(17) 0.0319(3) Uani 1 1 d . . . . .
C13 C 0.8577(2) 0.3033(2) 0.1109(2) 0.0481(5) Uani 1 1 d . . . . .
H13A H 0.7870 0.2797 0.0236 0.072 Uiso 1 1 calc R U . . .
H13B H 0.9371 0.2234 0.1131 0.072 Uiso 1 1 calc R U . . .
H13C H 0.9131 0.4033 0.1133 0.072 Uiso 1 1 calc R U . . .
C14 C 0.8577(3) 0.3668(3) 0.3825(2) 0.0630(6) Uani 1 1 d . . . . .
H14A H 0.8944 0.4736 0.3831 0.095 Uiso 1 1 calc R U . . .
H14B H 0.9510 0.3022 0.3894 0.095 Uiso 1 1 calc R U . . .
H14C H 0.7928 0.3613 0.4635 0.095 Uiso 1 1 calc R U . . .
C15 C 0.6894(2) 0.1419(2) 0.2398(3) 0.0559(5) Uani 1 1 d . . . . .
H15A H 0.6312 0.1363 0.3247 0.084 Uiso 1 1 calc R U . . .
H15B H 0.7792 0.0720 0.2380 0.084 Uiso 1 1 calc R U . . .
H15C H 0.6164 0.1118 0.1547 0.084 Uiso 1 1 calc R U . . .
loop_
_atom_site_aniso_label
_atom_site_aniso_U_11
_atom_site_aniso_U_22
_atom_site_aniso_U_33
_atom_site_aniso_U_23
_atom_site_aniso_U_13
_atom_site_aniso_U_12
F1 0.0557(6) 0.0277(5) 0.0647(7) 0.0208(5) 0.0045(5) 0.0020(4)
N1 0.0251(6) 0.0238(6) 0.0299(6) 0.0070(5) 0.0034(5) -0.0022(4)
N2 0.0547(10) 0.0518(10) 0.0671(11) 0.0034(8) 0.0205(8) -0.0241(8)
C1 0.0411(9) 0.0326(8) 0.0374(8) 0.0042(6) 0.0098(7) -0.0087(7)
C2 0.0336(8) 0.0249(7) 0.0276(7) 0.0059(5) 0.0048(6) -0.0063(6)
C3 0.0412(8) 0.0230(7) 0.0323(7) 0.0089(6) 0.0018(6) 0.0000(6)
C4 0.0289(7) 0.0311(7) 0.0381(8) 0.0092(6) 0.0013(6) 0.0011(6)
C5 0.0253(7) 0.0270(7) 0.0263(7) 0.0056(5) 0.0011(5) -0.0027(5)
C6 0.0231(7) 0.0252(7) 0.0327(7) 0.0067(5) 0.0043(5) -0.0009(5)
C7 0.0482(9) 0.0317(8) 0.0315(8) 0.0045(6) 0.0050(7) -0.0068(7)
C8 0.0649(12) 0.0349(8) 0.0385(9) 0.0112(7) 0.0173(8) -0.0043(8)
C9 0.0428(9) 0.0277(8) 0.0578(11) 0.0115(7) 0.0192(8) -0.0035(7)
C10 0.0302(8) 0.0282(7) 0.0537(10) 0.0025(7) 0.0033(7) -0.0056(6)
C11 0.0294(8) 0.0310(7) 0.0340(8) 0.0052(6) 0.0015(6) -0.0025(6)
C12 0.0263(7) 0.0314(7) 0.0387(8) 0.0084(6) 0.0002(6) 0.0024(6)
C13 0.0410(10) 0.0512(10) 0.0557(11) 0.0130(9) 0.0147(8) 0.0131(8)
C14 0.0637(13) 0.0713(14) 0.0487(11) -0.0001(10) -0.0209(9) 0.0208(11)
C15 0.0396(10) 0.0336(9) 0.1004(16) 0.0231(10) 0.0152(10) 0.0092(7)
loop_
_atom_type_symbol
_atom_type_description
_atom_type_scat_dispersion_real
_atom_type_scat_dispersion_imag
_atom_type_scat_source
C C 0.0033 0.0016 'International Tables Vol C Tables 4.2.6.8 and 6.1.1.4'
H H 0.0000 0.0000 'International Tables Vol C Tables 4.2.6.8 and 6.1.1.4'
N N 0.0061 0.0033 'International Tables Vol C Tables 4.2.6.8 and 6.1.1.4'
F F 0.0171 0.0103 'International Tables Vol C Tables 4.2.6.8 and 6.1.1.4'
loop_
_geom_angle_atom_site_label_1
_geom_angle_atom_site_label_2
_geom_angle_atom_site_label_3
_geom_angle
_geom_angle_site_symmetry_1
_geom_angle_site_symmetry_3
_geom_angle_publ_flag
C5 N1 C2 106.86(12) . . ?
C5 N1 C12 130.74(11) . . ?
C2 N1 C12 122.37(12) . . ?
N2 C1 C2 175.19(19) . . ?
C3 C2 N1 107.51(12) . . ?
C3 C2 C1 124.97(14) . . ?
N1 C2 C1 127.29(14) . . ?
F1 C3 C2 123.12(14) . . ?
F1 C3 C4 126.87(14) . . ?
C2 C3 C4 110.00(13) . . ?
C3 C4 C5 106.07(13) . . ?
C3 C4 H4 127.0 . . ?
C5 C4 H4 127.0 . . ?
N1 C5 C4 109.56(12) . . ?
N1 C5 C6 126.43(12) . . ?
C4 C5 C6 123.92(13) . . ?
C11 C6 C7 119.10(13) . . ?
C11 C6 C5 120.86(13) . . ?
C7 C6 C5 119.94(13) . . ?
C8 C7 C6 120.11(15) . . ?
C8 C7 H7 119.9 . . ?
C6 C7 H7 119.9 . . ?
C9 C8 C7 120.34(15) . . ?
C9 C8 H8 119.8 . . ?
C7 C8 H8 119.8 . . ?
C10 C9 C8 119.85(14) . . ?
C10 C9 H9 120.1 . . ?
C8 C9 H9 120.1 . . ?
C9 C10 C11 120.20(15) . . ?
C9 C10 H10 119.9 . . ?
C11 C10 H10 119.9 . . ?
C6 C11 C10 120.38(14) . . ?
C6 C11 H11 119.8 . . ?
C10 C11 H11 119.8 . . ?
N1 C12 C14 108.28(13) . . ?
N1 C12 C15 112.22(12) . . ?
C14 C12 C15 111.20(16) . . ?
N1 C12 C13 108.17(12) . . ?
C14 C12 C13 111.32(16) . . ?
C15 C12 C13 105.63(15) . . ?
C12 C13 H13A 109.5 . . ?
C12 C13 H13B 109.5 . . ?
H13A C13 H13B 109.5 . . ?
C12 C13 H13C 109.5 . . ?
H13A C13 H13C 109.5 . . ?
H13B C13 H13C 109.5 . . ?
C12 C14 H14A 109.5 . . ?
C12 C14 H14B 109.5 . . ?
H14A C14 H14B 109.5 . . ?
C12 C14 H14C 109.5 . . ?
H14A C14 H14C 109.5 . . ?
H14B C14 H14C 109.5 . . ?
C12 C15 H15A 109.5 . . ?
C12 C15 H15B 109.5 . . ?
H15A C15 H15B 109.5 . . ?
C12 C15 H15C 109.5 . . ?
H15A C15 H15C 109.5 . . ?
H15B C15 H15C 109.5 . . ?
loop_
_geom_bond_atom_site_label_1
_geom_bond_atom_site_label_2
_geom_bond_distance
_geom_bond_site_symmetry_2
_geom_bond_publ_flag
F1 C3 1.3466(16) . ?
N1 C5 1.3778(18) . ?
N1 C2 1.4018(17) . ?
N1 C12 1.5114(18) . ?
N2 C1 1.148(2) . ?
C1 C2 1.416(2) . ?
C2 C3 1.362(2) . ?
C3 C4 1.382(2) . ?
C4 C5 1.385(2) . ?
C4 H4 0.9300 . ?
C5 C6 1.4834(19) . ?
C6 C11 1.388(2) . ?
C6 C7 1.393(2) . ?
C7 C8 1.388(2) . ?
C7 H7 0.9300 . ?
C8 C9 1.381(3) . ?
C8 H8 0.9300 . ?
C9 C10 1.378(2) . ?
C9 H9 0.9300 . ?
C10 C11 1.389(2) . ?
C10 H10 0.9300 . ?
C11 H11 0.9300 . ?
C12 C14 1.512(2) . ?
C12 C15 1.521(2) . ?
C12 C13 1.534(2) . ?
C13 H13A 0.9600 . ?
C13 H13B 0.9600 . ?
C13 H13C 0.9600 . ?
C14 H14A 0.9600 . ?
C14 H14B 0.9600 . ?
C14 H14C 0.9600 . ?
C15 H15A 0.9600 . ?
C15 H15B 0.9600 . ?
C15 H15C 0.9600 . ?
loop_
_geom_torsion_atom_site_label_1
_geom_torsion_atom_site_label_2
_geom_torsion_atom_site_label_3
_geom_torsion_atom_site_label_4
_geom_torsion
_geom_torsion_site_symmetry_1
_geom_torsion_site_symmetry_2
_geom_torsion_site_symmetry_3
_geom_torsion_site_symmetry_4
_geom_torsion_publ_flag
C5 N1 C2 C3 -0.99(15) . . . . ?
C12 N1 C2 C3 177.32(12) . . . . ?
C5 N1 C2 C1 173.75(14) . . . . ?
C12 N1 C2 C1 -7.9(2) . . . . ?
N1 C2 C3 F1 179.52(13) . . . . ?
C1 C2 C3 F1 4.6(2) . . . . ?
N1 C2 C3 C4 0.57(17) . . . . ?
C1 C2 C3 C4 -174.32(14) . . . . ?
F1 C3 C4 C5 -178.83(14) . . . . ?
C2 C3 C4 C5 0.08(17) . . . . ?
C2 N1 C5 C4 1.06(15) . . . . ?
C12 N1 C5 C4 -177.06(13) . . . . ?
C2 N1 C5 C6 -175.63(13) . . . . ?
C12 N1 C5 C6 6.2(2) . . . . ?
C3 C4 C5 N1 -0.72(16) . . . . ?
C3 C4 C5 C6 176.08(13) . . . . ?
N1 C5 C6 C11 -104.01(17) . . . . ?
C4 C5 C6 C11 79.75(19) . . . . ?
N1 C5 C6 C7 79.83(19) . . . . ?
C4 C5 C6 C7 -96.42(18) . . . . ?
C11 C6 C7 C8 1.8(2) . . . . ?
C5 C6 C7 C8 178.06(15) . . . . ?
C6 C7 C8 C9 -1.0(3) . . . . ?
C7 C8 C9 C10 -0.4(3) . . . . ?
C8 C9 C10 C11 0.8(3) . . . . ?
C7 C6 C11 C10 -1.3(2) . . . . ?
C5 C6 C11 C10 -177.55(14) . . . . ?
C9 C10 C11 C6 0.0(2) . . . . ?
C5 N1 C12 C14 -109.51(18) . . . . ?
C2 N1 C12 C14 72.62(18) . . . . ?
C5 N1 C12 C15 13.6(2) . . . . ?
C2 N1 C12 C15 -164.27(15) . . . . ?
C5 N1 C12 C13 129.73(16) . . . . ?
C2 N1 C12 C13 -48.14(18) . . . . ?
