#------------------------------------------------------------------------------
#$Date: 2020-04-08 02:28:59 +0300 (Wed, 08 Apr 2020) $
#$Revision: 250460 $
#$URL: file:///home/coder/svn-repositories/cod/cif/4/03/82/4038212.cif $
#------------------------------------------------------------------------------
#
# This file is available in the Crystallography Open Database (COD),
# http://www.crystallography.net/
#
# All data on this site have been placed in the public domain by the
# contributors.
#
data_4038212
loop_
_publ_author_name
'Helberg, Julian'
'Amp\&sler, Torsten'
'Zipse, Hendrik'
_publ_section_title
;
 Pyridinyl Amide Ion Pairs as Lewis Base Organocatalysts.
;
_journal_name_full               'The Journal of organic chemistry'
_journal_paper_doi               10.1021/acs.joc.0c00114
_journal_year                    2020
_chemical_formula_moiety         'C6 H5 F3 N2 O2 S'
_chemical_formula_sum            'C6 H5 F3 N2 O2 S'
_chemical_formula_weight         226.18
_chemical_name_common            353
_space_group_crystal_system      monoclinic
_space_group_IT_number           14
_space_group_name_Hall           '-P 2ybc'
_space_group_name_H-M_alt        'P 1 21/c 1'
_atom_sites_solution_hydrogens   mixed
_audit_block_code                C6H5F3N2O2S_xv531_zipse
_audit_creation_method           'APEX3 v2018.7-2'
_audit_update_record             27-Aug-19
_cell_angle_alpha                90
_cell_angle_beta                 106.212(2)
_cell_angle_gamma                90
_cell_formula_units_Z            4
_cell_length_a                   9.3732(7)
_cell_length_b                   7.5696(5)
_cell_length_c                   12.4533(8)
_cell_measurement_reflns_used    8865
_cell_measurement_temperature    105.(2)
_cell_measurement_theta_max      30.5283
_cell_measurement_theta_min      3.5168
_cell_volume                     848.44(10)
_computing_cell_refinement       'SAINT V8.38A (Bruker AXS Inc., 2017)'
_computing_data_collection       'APEX3 v2016.5-0, Bruker AXS (2016)'
_computing_data_reduction        'SAINT V8.38A (Bruker AXS Inc., 2017)'
_computing_molecular_graphics    'shelXle (C.B. Huebschle, rev 924)'
_computing_structure_refinement  'SHELXL-2018/3 (Sheldrick, 2018)'
_computing_structure_solution    'SHELXT 2014/5 (Sheldrick, 2014)'
_diffrn_ambient_temperature      105.(2)
_diffrn_detector_area_resol_mean 7.3910
_diffrn_measured_fraction_theta_full 0.993
_diffrn_measured_fraction_theta_max 0.996
_diffrn_measurement_device       'fixed-chi three-circle diffractometer'
_diffrn_measurement_device_type  'Bruker D8 Venture TXS'
_diffrn_measurement_method       'mix of phi and omega scans'
_diffrn_radiation_monochromator  'focusing mirrors'
_diffrn_radiation_type           MoK\a
_diffrn_radiation_wavelength     0.71073
_diffrn_reflns_av_R_equivalents  0.0431
_diffrn_reflns_av_unetI/netI     0.0273
_diffrn_reflns_Laue_measured_fraction_full 0.993
_diffrn_reflns_Laue_measured_fraction_max 0.996
_diffrn_reflns_limit_h_max       13
_diffrn_reflns_limit_h_min       -13
_diffrn_reflns_limit_k_max       10
_diffrn_reflns_limit_k_min       -10
_diffrn_reflns_limit_l_max       17
_diffrn_reflns_limit_l_min       -14
_diffrn_reflns_number            17191
_diffrn_reflns_point_group_measured_fraction_full 0.993
_diffrn_reflns_point_group_measured_fraction_max 0.996
_diffrn_reflns_theta_full        25.242
_diffrn_reflns_theta_max         30.505
_diffrn_reflns_theta_min         3.185
_diffrn_source                   'rotating anode (TXS)'
_diffrn_source_current           50
_diffrn_source_power             2.5
_diffrn_source_type              'Bruker TXS'
_diffrn_source_voltage           50
_exptl_absorpt_coefficient_mu    0.407
_exptl_absorpt_correction_T_max  0.98
_exptl_absorpt_correction_T_min  0.94
_exptl_absorpt_correction_type   multi-scan
_exptl_absorpt_process_details
;
SADABS-2016/2 - Bruker AXS area detector scaling and absorption correction
;
_exptl_crystal_colour            colourless
_exptl_crystal_density_diffrn    1.771
_exptl_crystal_density_method    'not measured'
_exptl_crystal_description       block
_exptl_crystal_F_000             456
_exptl_crystal_size_max          0.090
_exptl_crystal_size_mid          0.050
_exptl_crystal_size_min          0.040
_refine_diff_density_max         0.458
_refine_diff_density_min         -0.383
_refine_diff_density_rms         0.066
_refine_ls_extinction_method     none
_refine_ls_goodness_of_fit_ref   1.070
_refine_ls_hydrogen_treatment    mixed
_refine_ls_matrix_type           full
_refine_ls_number_parameters     131
_refine_ls_number_reflns         2573
_refine_ls_number_restraints     0
_refine_ls_restrained_S_all      1.070
_refine_ls_R_factor_all          0.0391
_refine_ls_R_factor_gt           0.0326
_refine_ls_shift/su_max          0.001
_refine_ls_shift/su_mean         0.000
_refine_ls_structure_factor_coef Fsqd
_refine_ls_weighting_details
'w=1/[\s^2^(Fo^2^)+(0.0370P)^2^+0.5851P] where P=(Fo^2^+2Fc^2^)/3'
_refine_ls_weighting_scheme      calc
_refine_ls_wR_factor_gt          0.0841
_refine_ls_wR_factor_ref         0.0892
_reflns_Friedel_coverage         0.000
_reflns_number_gt                2260
_reflns_number_total             2573
_reflns_threshold_expression     'I > 2\s(I)'
_cod_data_source_file            jo0c00114_si_002.cif
_cod_data_source_block           xv531
_cod_depositor_comments
;
The following automatic conversions were performed:

data item '_exptl_absorpt_correction_type' value 'Multi-Scan' was
changed to 'multi-scan' in accordance with the
/home/data/users/saulius/crontab/automatic-downloads/rss-feeds/ACS/lib/dictionaries/cif_core.dic
dictionary named 'cif_core.dic' version 2.4.2 last updated on
2011-04-26.

Automatic conversion script
Id: cif_fix_values 7556 2019-12-06 15:28:31Z antanas 
;
_cod_database_code               4038212
_shelx_estimated_absorpt_t_min   0.964
_shelx_estimated_absorpt_t_max   0.984
_shelx_space_group_comment
;
The symmetry employed for this shelxl refinement is uniquely defined
by the following loop, which should always be used as a source of
symmetry information in preference to the above space-group names.
They are only intended as comments.
;
_shelx_res_file
;

TITL xv531_0m_a.res in P2(1)/c
    xv531_0m_a.res
    created by SHELXL-2018/3 at 08:52:49 on 26-Aug-2019
REM Old TITL xv531_0m in P2(1)/c
REM SHELXT solution in P2(1)/c
REM R1 0.094,  Rweak 0.002,  Alpha 0.030,  Orientation as input
REM Formula found by SHELXT:  C6 F3 N2 O2 S
CELL  0.71073   9.3732   7.5696  12.4533   90.000  106.212   90.000
ZERR    4.000   0.0007   0.0005   0.0008    0.000    0.002    0.000
LATT  1
SYMM -X, 1/2+Y, 1/2-Z
SFAC C H F N O S
UNIT 24 20 12 8 8 4
TEMP -168
SIZE 0.04 0.05 0.09
L.S. 10
BOND $H
LIST 4
CONF
ACTA
SHEL 9.0 0.70
HTAB
EQIV $1 x, -y+3/2, z-1/2
HTAB N2 N1_$1
OMIT    -3   3   6  !     47.76          1.86      10.69       0.013       1.53
OMIT     0   3   6  !     50.88          9.84       8.22       0.030       1.56
OMIT     9   0   0  !    260.62         83.46       7.85       0.086       1.00
FMAP 2
PLAN -20
WGHT    0.037000    0.585100
FVAR       0.92128
C1    1    0.397143    0.271214    0.580799    11.00000    0.02043    0.02190 =
         0.03176    0.00504    0.00444    0.00297
C2    1    0.186561    0.605464    0.430440    11.00000    0.01659    0.01239 =
         0.01269   -0.00008    0.00433    0.00018
C3    1    0.199160    0.791156    0.427155    11.00000    0.02646    0.01250 =
         0.01416   -0.00099    0.00692    0.00043
AFIX  43
H3    2    0.211865    0.857723    0.493840    11.00000   -1.20000
AFIX   0
C4    1    0.193313    0.876173    0.329402    11.00000    0.02545    0.01203 =
         0.01686    0.00036    0.00676    0.00086
AFIX  43
H4    2    0.203144    1.001048    0.328733    11.00000   -1.20000
AFIX   0
C5    1    0.159505    0.607020    0.232953    11.00000    0.02390    0.01542 =
         0.01317   -0.00120    0.00542    0.00083
AFIX  43
H5    2    0.144611    0.545006    0.164381    11.00000   -1.20000
AFIX   0
C6    1    0.166016    0.514020    0.328466    11.00000    0.02211    0.01274 =
         0.01370   -0.00109    0.00628   -0.00011
AFIX  43
H6    2    0.156787    0.389000    0.326144    11.00000   -1.20000
AFIX   0
F1    3    0.485078    0.366773    0.661810    11.00000    0.02508    0.04139 =
         0.04987   -0.00295   -0.00736   -0.00526
F2    3    0.418755    0.101497    0.608751    11.00000    0.03377    0.02319 =
         0.05693    0.01127    0.00784    0.01151
F3    3    0.437687    0.297659    0.488052    11.00000    0.03089    0.05344 =
         0.04679    0.01312    0.02290    0.01221
N1    4    0.194274    0.533782    0.533604    11.00000    0.02469    0.01048 =
         0.01293    0.00026    0.00668   -0.00052
N2    4    0.173626    0.783769    0.233600    11.00000    0.02398    0.01531 =
         0.01265    0.00261    0.00583    0.00189
H2    2    0.177944    0.836157    0.173767    11.00000    0.03294
O1    5    0.178240    0.306373    0.667561    11.00000    0.03649    0.01585 =
         0.01677    0.00252    0.01090   -0.00130
O2    5    0.123621    0.213124    0.471190    11.00000    0.02680    0.01363 =
         0.01909   -0.00329    0.00516   -0.00295
S1    6    0.200835    0.330759    0.559069    11.00000    0.01930    0.01050 =
         0.01394    0.00016    0.00526   -0.00060
HKLF 4




REM  xv531_0m_a.res in P2(1)/c
REM wR2 = 0.089245, GooF = S = 1.07029, Restrained GooF = 1.07029 for all data
REM R1 = 0.032599 for 2260 Fo > 4sig(Fo) and 0.039079 for all 2573 data
REM 131 parameters refined using 0 restraints

END

WGHT      0.0370      0.5851

REM Instructions for potential hydrogen bonds
HTAB C4 O1_$1
EQIV $2 x, y+1, z
HTAB C4 O2_$2
EQIV $3 x, -y+1/2, z-1/2
HTAB C6 O1_$3
HTAB C6 O2
HTAB N2 N1_$1
HTAB N2 S1_$1

REM Highest difference peak  0.458,  deepest hole -0.383,  1-sigma level  0.066
Q1    1   0.1802  0.7009  0.4242  11.00000  0.05    0.46
Q2    1   0.2010  0.8330  0.3783  11.00000  0.05    0.44
Q3    1   0.1687  0.5748  0.2845  11.00000  0.05    0.42
Q4    1   0.3169  0.2958  0.5740  11.00000  0.05    0.41
Q5    1   0.1799  0.8237  0.2834  11.00000  0.05    0.41
Q6    1   0.1810  0.5579  0.3801  11.00000  0.05    0.40
Q7    1   0.1995  0.4430  0.5403  11.00000  0.05    0.38
Q8    1   0.1577  0.6935  0.2358  11.00000  0.05    0.37
Q9    1   0.1857  0.5742  0.4834  11.00000  0.05    0.32
Q10   1   0.4360  0.3642  0.7034  11.00000  0.05    0.24
Q11   1   0.1897  0.2926  0.6164  11.00000  0.05    0.24
Q12   1   0.1814  0.2538  0.5122  11.00000  0.05    0.24
Q13   1   0.4533  0.1698  0.6526  11.00000  0.05    0.23
Q14   1   0.2018  0.2093  0.6584  11.00000  0.05    0.23
Q15   1   0.2041  0.1872  0.5029  11.00000  0.05    0.22
Q16   1   0.4578  0.3261  0.5445  11.00000  0.05    0.22
Q17   1   0.3369  0.0457  0.5406  11.00000  0.05    0.22
Q18   1   0.2019  0.5720  0.5765  11.00000  0.05    0.21
Q19   1   0.4041  0.2030  0.4916  11.00000  0.05    0.21
Q20   1   0.0929  0.2732  0.5042  11.00000  0.05    0.20
;
_shelx_res_checksum              22979
_shelx_hkl_file
;
  -1   0   0   -0.10    0.20
   1   0   0    0.10    0.30
  -1   0   0   -0.20    0.30
   1   0   0   -0.20    0.30
   4   0   0  513.35   21.80
  -4   0   0  500.25   22.60
  -4   0   0  450.95   22.90
   4   0   0  472.05   23.50
   4   0   0  473.05   22.30
  -4   0   0  505.95   21.80
   5   0   0 9451.05  382.46
  -5   0   0 9999.00  384.06
   6   0   0 1750.02   73.49
  -6   0   0 1823.22   75.09
   6   0   0 1802.72   77.39
   6   0   0 1886.71   77.29
  -6   0   0 1820.72   73.49
  -6   0   0 1829.12   76.09
   7   0   0  112.79    9.50
  -7   0   0  134.89    9.80
   7   0   0  151.98   12.80
  -7   0   0  152.38   11.50
   8   0   0 2299.87   96.79
  -8   0   0 2179.78   93.49
  -9   0   0  240.38   17.10
  -9   0   0  192.98   14.20
   9   0   0  238.28   19.00
 -10   0   0  928.91   43.60
  10   0   0  928.41   49.99
 -10   0   0  947.11   47.30
 -11   0   0  137.19   14.10
 -11   0   0  134.99   12.20
  11   0   0  182.98   24.40
 -12   0   0   24.70    6.80
  12   0   0   32.80    9.80
   0  -1   0   -0.20    0.20
   0  -1   0    0.00    0.30
   0  -1   0    0.20    0.30
   0  -1   0    0.40    0.40
   0   1   0    0.50    0.30
   0   1   0   -0.20    0.30
   0   1   0    0.20    0.30
   0   1   0    0.00    0.30
   1  -1   0 1614.94   59.79
  -1   1   0 1454.05   59.49
   2  -1   0 1870.91   73.09
   2  -1   0 1911.51   74.89
  -2  -1   0 1893.31   74.29
   2  -1   0 1913.51   73.79
  -2   1   0 1955.80   74.89
  -3   1   0 3846.22  148.59
   4  -1   0 1426.56   56.29
   4  -1   0 1324.57   52.79
  -4  -1   0 1323.17   54.09
   4  -1   0 1224.18   53.59
  -4  -1   0 1365.26   55.09
  -4  -1   0 1387.76   53.99
  -4   1   0 1296.27   55.09
  -4   1   0 1240.08   53.89
   4   1   0 1350.56   53.89
   4   1   0 1367.16   54.19
  -4   1   0 1314.57   52.79
   4   1   0 1247.88   54.99
   5  -1   0  736.03   34.60
   5  -1   0  671.03   30.80
  -5  -1   0  727.33   32.00
  -5  -1   0  731.43   33.40
   5  -1   0  685.73   32.00
  -5  -1   0  722.73   32.50
  -5   1   0  751.02   31.30
  -5   1   0  707.63   33.50
   5   1   0  756.62   32.40
   5   1   0  736.23   34.00
   5   1   0  689.33   32.10
  -5   1   0  723.33   32.50
  -6  -1   0  121.29    9.00
   6  -1   0  123.29   11.00
   6  -1   0  134.69    8.80
  -6  -1   0  110.09    9.80
  -6  -1   0  122.39    9.50
  -6   1   0  136.29   10.10
  -6   1   0  125.59    8.60
  -6   1   0  113.69   10.10
   6   1   0  135.49   11.10
   6   1   0  112.39    9.00
  -7  -1   0   46.80    5.90
  -7  -1   0   49.00    6.50
   7  -1   0   48.90    7.50
   7  -1   0   59.29    6.90
  -7   1   0   51.79    6.60
  -7   1   0   62.39    6.10
   7   1   0   55.79    7.80
  -8  -1   0   76.09    7.60
   8  -1   0   59.99    6.90
  -8  -1   0   64.79    7.70
   8  -1   0   62.79    9.00
  -8   1   0   75.69    8.60
  -8   1   0   69.59    7.10
   8   1   0   89.79   10.30
  -9  -1   0   61.69    7.30
  -9  -1   0   64.49   10.20
   9  -1   0   65.69    9.50
  -9   1   0   55.29    6.70
  -9   1   0   56.89    9.60
   9   1   0   64.49    9.50
 -10  -1   0  135.59   12.00
 -10  -1   0  142.79   13.50
  10  -1   0  150.38   16.20
  10   1   0  130.59   15.10
 -10   1   0  137.59   11.30
 -10   1   0  149.09   13.90
 -11  -1   0  160.38   15.00
  11  -1   0  162.48   23.80
 -11  -1   0  164.98   14.10
 -11   1   0  142.29   12.80
 -11   1   0  166.78   15.50
  11   1   0  177.38   18.30
 -12  -1   0    0.40    3.60
 -12  -1   0   -1.40    3.40
  12  -1   0    4.00    5.30
  12   1   0    1.20    5.50
 -12   1   0   -7.60    3.50
 -12   1   0   -4.80    3.70
   1  -2   0   14.70    2.60
   1  -2   0   19.30    2.10
  -1  -2   0   21.20    2.60
  -1  -2   0   16.10    2.10
  -1  -2   0   19.80    2.40
   1  -2   0   19.20    2.20
  -1   2   0   20.90    2.30
   1   2   0   17.80    2.50
  -1   2   0   17.50    2.00
  -1   2   0   15.40    2.70
   1   2   0   19.40    2.40
   1   2   0   18.00    2.40
   1   2   0   15.70    2.00
   2  -2   0   33.10    3.90
   2  -2   0   39.10    3.50
  -2  -2   0   31.40    3.20
  -2  -2   0   36.90    3.70
  -2  -2   0   34.10    3.60
   2   2   0   29.70    3.30
   2   2   0   37.20    3.40
   2   2   0   36.80    3.70
  -2   2   0   35.50    4.00
  -2   2   0   34.40    3.30
   3  -2   0 1333.97   55.59
   3  -2   0 1212.38   53.59
  -3  -2   0 1379.96   54.79
  -3  -2   0 1276.57   54.09
   3  -2   0 1335.67   52.69
  -3  -2   0 1314.57   53.89
  -3   2   0 1411.26   52.99
   3   2   0 1369.66   54.39
   3   2   0 1347.07   54.09
   3   2   0 1396.66   54.89
  -3   2   0 1331.27   53.99
  -3   2   0 1333.47   55.49
   4  -2   0  112.99    6.90
   4  -2   0  101.09    7.50
   4  -2   0  106.89    9.00
  -4  -2   0  113.09    7.80
  -4  -2   0  114.99    8.40
  -4  -2   0  112.69    7.80
  -4   2   0  110.29    6.90
  -4   2   0  105.69    8.70
  -4   2   0  103.29    7.70
   4   2   0   98.09    7.70
   4   2   0   89.69    7.80
   4   2   0  112.09    7.90
  -5  -2   0  308.77   17.10
  -5  -2   0  324.67   17.40
   5  -2   0  324.47   15.90
   5  -2   0  313.57   17.10
  -5  -2   0  318.97   17.90
   5  -2   0  322.97   19.20
  -5   2   0  332.77   16.00
   5   2   0  332.37   18.60
   5   2   0  327.17   17.50
  -5   2   0  314.07   17.40
  -5   2   0  342.67   19.10
   5   2   0  320.47   17.40
   6  -2   0    4.60    3.10
   6  -2   0    0.70    1.70
  -6  -2   0    3.00    1.90
  -6  -2   0    4.30    2.20
  -6   2   0    3.70    2.40
   6   2   0    5.30    2.70
  -6   2   0    5.30    2.00
  -6   2   0    6.70    3.00
   6   2   0    2.90    2.00
  -7  -2   0    7.20    3.00
  -7  -2   0    6.00    2.90
   7  -2   0    7.90    4.20
   7  -2   0    4.50    2.30
  -7   2   0    8.90    3.50
  -7   2   0    3.80    2.00
   7   2   0    4.10    2.90
   8  -2   0   66.79    6.60
   8  -2   0   47.10    9.00
  -8  -2   0   61.09    7.30
  -8  -2   0   63.59    8.10
  -8   2   0   72.39    8.60
   8   2   0   63.29    9.10
  -8   2   0   67.19    6.80
   9  -2   0   38.70    8.80
  -9  -2   0   36.40    7.60
  -9  -2   0   46.00    8.20
  -9   2   0   46.00    8.70
  -9   2   0   41.00    6.50
   9   2   0   39.30    8.40
  10  -2   0  106.29   13.80
 -10  -2   0  120.19   12.20
 -10  -2   0  104.69   10.90
  10   2   0   93.89   12.90
 -10   2   0  105.89   11.40
 -10   2   0  107.19    9.40
 -11  -2   0    1.70    3.70
  11  -2   0    0.10    4.70
 -11  -2   0    3.00    3.80
 -11   2   0    0.90    3.10
  11   2   0   -4.60    3.20
  12  -2   0   32.50    9.60
 -12  -2   0   43.00    9.40
 -12  -2   0   42.50    9.00
  12   2   0   61.19   12.80
 -12   2   0   63.79   10.60
 -12   2   0   35.40    7.10
   0  -3   0    2.90    1.50
   0  -3   0    3.00    1.60
   0  -3   0    1.60    1.20
   0  -3   0    2.20    1.40
   0   3   0    7.30    2.30
   0   3   0    2.30    1.40
   0   3   0    2.70    1.30
   0   3   0    3.70    1.60
  -1  -3   0 1910.91   75.99
   1  -3   0 1899.21   75.19
   1  -3   0 2086.99   77.39
   1  -3   0 1969.10   76.79
  -1  -3   0 1802.42   76.09
   1  -3   0 1807.72   75.09
   1   3   0 1973.00   76.49
   1   3   0 1949.30   75.49
   1   3   0 1947.21   76.79
   1   3   0 1908.71   75.99
  -1   3   0 1978.20   77.19
  -1   3   0 1839.22   75.29
   1   3   0 1964.90   75.49
  -1   3   0 1911.81   75.09
   2  -3   0 1566.14   63.59
   2  -3   0 1639.34   63.29
  -2  -3   0 1611.54   63.79
   2  -3   0 1513.15   65.49
  -2  -3   0 1651.13   64.59
  -2  -3   0 1649.23   64.69
  -2   3   0 1659.73   63.29
  -2   3   0 1604.24   62.99
  -2   3   0 1528.75   65.39
  -2   3   0 1624.64   63.99
   2   3   0 1521.15   64.39
   2   3   0 1577.24   63.79
   2   3   0 1672.33   64.69
   3  -3   0    6.50    2.10
   3  -3   0    8.00    2.80
  -3  -3   0   11.50    3.00
  -3  -3   0    4.90    1.90
  -3  -3   0    9.70    2.50
  -3   3   0    7.50    2.40
  -3   3   0    8.10    2.00
  -3   3   0    8.10    2.90
   3   3   0    7.00    2.10
  -3   3   0    8.40    2.00
   3   3   0    7.20    2.20
   3   3   0   10.90    2.90
  -4  -3   0  303.67   16.20
  -4  -3   0  316.57   16.90
   4  -3   0  296.17   18.10
  -4  -3   0  306.47   17.10
   4  -3   0  282.67   15.90
   4   3   0  324.97   16.70
  -4   3   0  310.57   16.60
   4   3   0  314.77   17.00
  -4   3   0  290.77   17.70
  -4   3   0  317.57   15.00
   4   3   0  337.37   17.60
  -4   3   0  307.47   15.20
  -5  -3   0  386.06   20.60
  -5  -3   0  382.26   21.70
   5  -3   0  415.96   23.40
  -5  -3   0  404.86   21.30
   5  -3   0  424.46   19.20
   5  -3   0  404.36   20.80
   5   3   0  380.66   20.80
  -5   3   0  402.36   22.70
   5   3   0  401.06   21.50
   5   3   0  390.16   21.70
  -5   3   0  416.86   19.40
  -5   3   0  434.06   21.50
  -6  -3   0   27.40    5.20
   6  -3   0   28.70    6.40
  -6  -3   0   32.00    5.70
   6  -3   0   22.70    3.70
  -6   3   0   19.40    4.90
   6   3   0   20.90    4.80
  -6   3   0   24.40    5.10
  -6   3   0   27.30    4.50
   7  -3   0   15.50    4.10
   7  -3   0   12.10    4.60
  -7  -3   0   16.00    4.60
  -7  -3   0   16.90    4.70
  -7   3   0   13.40    3.50
   7   3   0   17.10    5.30
  -7   3   0   10.70    3.80
   8  -3   0   16.30    3.70
  -8  -3   0   26.50    5.90
   8  -3   0   13.40    5.50
  -8  -3   0   18.60    5.50
   8   3   0   13.70    5.00
  -8   3   0   19.40    4.30
  -8   3   0   25.00    5.80
  -9  -3   0   37.80    7.70
   9  -3   0   23.40    7.00
  -9  -3   0   28.90    6.90
  -9   3   0   30.60    7.30
   9   3   0   20.60    6.00
 -10  -3   0    0.20    4.00
  10  -3   0    4.60    4.60
 -10  -3   0    2.70    3.60
  10   3   0    4.20    3.70
 -10   3   0   -4.70    3.00
 -10   3   0   -0.40    2.40
 -11  -3   0    9.10    5.80
  11  -3   0   -1.10    4.10
 -11  -3   0    6.60    5.30
 -11   3   0   13.30    3.70
  11   3   0    6.10    4.30
 -11   3   0    8.50    4.30
 -12  -3   0   10.80    6.60
  12  -3   0    5.50    6.60
 -12   3   0   -0.60    5.10
  12   3   0    8.30    6.30
   0  -4   0  336.77   17.00
   0  -4   0  300.67   17.20
   0  -4   0  348.67   18.40
   0   4   0  350.96   18.40
   0   4   0  344.17   18.10
   0   4   0  343.27   16.70
   0   4   0  336.47   16.90
   0   4   0  379.86   17.10
  -1  -4   0  511.85   23.70
  -1  -4   0  509.55   24.10
   1  -4   0  494.15   22.80
   1  -4   0  525.15   25.00
   1  -4   0  525.05   23.10
   1  -4   0  495.55   24.20
  -1  -4   0  478.95   24.10
   1   4   0  500.85   23.00
  -1   4   0  496.05   24.70
  -1   4   0  494.75   22.80
  -1   4   0  525.05   23.30
   1   4   0  465.85   24.30
   1   4   0  491.15   22.90
   1   4   0  545.35   24.60
   1   4   0  502.25   23.70
  -2  -4   0   77.69    6.20
   2  -4   0   77.59    6.00
   2  -4   0   77.39    6.10
   2  -4   0   62.29    6.60
   2  -4   0   83.39   11.50
  -2  -4   0   69.49    6.50
  -2  -4   0   78.09    7.30
  -2   4   0   70.99    5.70
  -2   4   0   77.19    7.50
   2   4   0   81.19    6.30
  -2   4   0   76.39    6.30
   2   4   0   75.99    6.70
   2   4   0   72.19    6.60
  -3  -4   0  317.17   16.90
  -3  -4   0  286.67   16.60
   3  -4   0  307.37   15.90
   3  -4   0  318.47   17.80
  -3  -4   0  292.67   15.80
   3  -4   0  303.17   18.20
  -3   4   0  293.87   14.90
   3   4   0  284.67   15.90
  -3   4   0  324.17   15.50
   3   4   0  310.07   17.00
  -3   4   0  279.97   15.90
   3   4   0  281.07   16.50
  -3   4   0  297.87   17.80
   4  -4   0  575.34   29.40
   4  -4   0  543.05   26.20
  -4  -4   0  545.05   29.40
  -4  -4   0  510.65   27.10
  -4  -4   0  560.24   26.40
  -4   4   0  534.05   26.60
   4   4   0  551.94   27.60
   4   4   0  530.95   26.40
  -4   4   0  535.25   28.40
  -4   4   0  562.74   24.80
  -4   4   0  624.44   25.70
  -5  -4   0   20.80    4.50
   5  -4   0   24.20    6.30
  -5  -4   0   21.50    4.70
  -5  -4   0   25.30    5.20
  -5   4   0   19.30    3.80
  -5   4   0   25.40    5.40
  -5   4   0   15.00    3.30
   5   4   0   29.10    6.00
  -5   4   0   23.00    4.80
  -6  -4   0   49.60    6.30
  -6  -4   0   62.59    7.30
  -6  -4   0   50.99    6.50
   6  -4   0   58.09    8.40
  -6   4   0   51.99    8.90
  -6   4   0   52.59    5.20
  -6   4   0   55.39    5.60
  -6   4   0   49.80    6.50
   6   4   0   57.69    7.40
  -7  -4   0  164.48   12.90
   7  -4   0  166.28   15.50
  -7  -4   0  161.58   13.20
  -7   4   0  157.08   10.80
  -7   4   0  163.68   13.30
  -7   4   0  175.38   10.70
   7   4   0  173.88   14.10
  -8  -4   0   66.49   10.20
   8  -4   0   78.29   10.60
  -8  -4   0   59.99    9.30
  -8   4   0   63.49    6.50
  -8   4   0   71.09    8.70
   8   4   0   56.99   10.20
  -8   4   0   65.19    6.50
  -9  -4   0   -1.30    2.70
   9  -4   0    0.50    3.20
  -9  -4   0    2.60    3.20
  -9   4   0    7.20    3.90
   9   4   0    5.90    4.10
 -10  -4   0   54.19    9.80
 -10  -4   0   34.20    7.90
  10  -4   0   47.80   11.60
 -10   4   0   42.60    5.50
 -10   4   0   42.60    9.10
  10   4   0   49.99   10.20
 -11  -4   0   -2.30    3.60
 -11  -4   0    2.70    4.10
  11  -4   0    4.00    7.00
 -11   4   0   -1.30    3.90
 -11   4   0   -0.80    3.50
  11   4   0    0.60    3.40
   0  -5   0    9.10    2.90
   0  -5   0   11.70    2.90
   0  -5   0    9.40    2.90
   0   5   0    8.80    2.60
   0   5   0   12.90    3.00
   0   5   0    9.80    3.00
   0   5   0   11.70    2.80
   0   5   0    9.80    3.30
  -1  -5   0  823.52   36.10
   1  -5   0  750.92   36.00
   1  -5   0  793.32   33.90
   1  -5   0  770.62   33.90
  -1  -5   0  778.62   34.70
  -1  -5   0  742.03   35.10
   1  -5   0  711.93   35.10
  -1   5   0  710.43   35.80
   1   5   0  854.91   36.10
   1   5   0  687.63   34.10
   1   5   0  750.12   33.80
  -1   5   0  742.23   35.40
  -1   5   0  716.53   33.70
   1   5   0  810.92   34.10
   1   5   0  783.02   36.20
   2  -5   0  488.45   25.40
   2  -5   0  480.65   23.40
   2  -5   0  518.05   26.70
  -2  -5   0  491.65   24.70
  -2  -5   0  533.55   27.50
   2  -5   0  489.05   23.60
   2   5   0  510.15   23.90
   2   5   0  501.65   24.00
  -2   5   0  486.75   26.10
  -2   5   0  462.45   23.80
   2   5   0  480.85   25.10
   2   5   0  466.95   25.40
  -2   5   0  481.85   23.20
  -3  -5   0  407.76   23.30
   3  -5   0  442.16   24.50
  -3  -5   0  401.46   22.10
   3  -5   0  415.36   23.20
  -3   5   0  403.76   23.70
   3   5   0  435.96   23.10
  -3   5   0  435.26   20.50
  -3   5   0  373.16   21.70
  -3   5   0  431.06   20.70
  -4  -5   0  829.42   39.70
   4  -5   0  835.32   41.30
   4  -5   0  799.82   41.80
  -4  -5   0  833.62   40.00
  -4  -5   0  893.11   39.30
  -4   5   0  849.02   39.40
  -4   5   0  850.91   37.30
  -4   5   0  960.10   38.50
   4   5   0  932.61   41.00
  -4   5   0  854.81   42.10
   5  -5   0   10.20    4.30
  -5  -5   0    8.90    3.40
  -5  -5   0    8.20    3.80
  -5  -5   0    8.30    3.00
  -5   5   0    8.00    2.60
  -5   5   0    9.40    3.70
   5   5   0    8.10    3.20
  -5   5   0    7.00    3.50
  -6  -5   0  236.38   15.30
  -6  -5   0  210.28   15.30
   6  -5   0  196.48   17.10
  -6  -5   0  212.48   15.60
  -6   5   0  208.68   12.70
  -6   5   0  235.28   13.60
   6   5   0  218.18   16.10
  -6   5   0  209.08   15.10
  -7  -5   0  549.74   28.40
   7  -5   0  504.55   31.80
  -7  -5   0  507.45   28.80
  -7  -5   0  509.95   28.50
  -7   5   0  497.15   28.50
   7   5   0  512.35   29.70
  -7   5   0  501.15   24.70
  -7   5   0  551.04   25.80
  -8  -5   0  188.28   14.90
   8  -5   0  189.28   17.90
  -8  -5   0  177.58   14.90
  -8  -5   0  154.48   14.20
   8   5   0  197.58   16.70
  -8   5   0  176.18   12.00
  -8   5   0  170.08   14.70
   9  -5   0   95.59   13.40
  -9  -5   0   98.09   11.00
  -9  -5   0   96.19   12.40
  -9  -5   0  100.19   11.60
  -9   5   0  110.99   11.80
  -9   5   0  117.69    9.30
   9   5   0   90.29   12.00
  10  -5   0   37.10   10.30
 -10  -5   0   28.30    6.90
 -10  -5   0   16.60    6.10
 -10   5   0   22.50    5.10
 -10   5   0   21.50    6.60
  10   5   0   23.00    7.80
 -11  -5   0   52.19   10.40
  11  -5   0   39.70   11.80
 -11  -5   0   47.70    9.20
 -11   5   0   49.99   11.10
  11   5   0   46.00   11.10
 -11   5   0   46.10    6.50
   0  -6   0  419.36   22.30
   0  -6   0  453.45   24.20
   0   6   0  441.86   24.70
   0   6   0  391.66   23.80
   0   6   0  421.76   21.90
   1  -6   0  160.58   11.40
  -1  -6   0  161.58   12.60
  -1  -6   0  173.28   12.00
   1  -6   0  164.38   13.20
  -1   6   0  163.98   11.40
   1   6   0  145.99   12.50
   1   6   0  164.58   12.70
  -1   6   0  159.68   13.10
   1   6   0  163.28   11.30
   2  -6   0  549.74   29.40
   2  -6   0  529.15   26.00
  -2  -6   0  541.65   27.30
  -2   6   0  535.45   29.10
   2   6   0  498.75   28.10
   2   6   0  518.15   26.00
  -2   6   0  527.15   25.80
   2   6   0  544.05   28.10
  -2   6   0  499.55   26.10
  -3  -6   0  630.04   32.20
   3  -6   0  660.43   34.70
  -3   6   0  628.54   30.00
  -3   6   0  629.24   34.00
   3   6   0  667.13   31.40
  -3   6   0  654.23   30.50
  -3   6   0  661.83   31.70
   3   6   0  643.74   32.90
  -4  -6   0  339.47   19.90
  -4  -6   0  357.26   21.40
   4  -6   0  363.66   23.40
  -4  -6   0  361.36   21.10
  -4   6   0  335.17   20.20
  -4   6   0  357.76   19.20
   4   6   0  341.77   20.00
  -4   6   0  344.47   18.60
  -4   6   0  347.37   23.00
   4   6   0  363.66   21.70
  -5  -6   0  164.48   13.30
  -5  -6   0  177.88   13.10
  -5  -6   0  169.58   13.90
   5  -6   0  192.38   16.40
  -5   6   0  179.78   12.00
   5   6   0  186.18   14.50
  -5   6   0  168.38   15.00
  -5   6   0  166.18   11.30
  -5   6   0  152.28   12.80
   6  -6   0  205.78   17.70
  -6  -6   0  210.58   15.20
  -6  -6   0  197.88   15.50
  -6  -6   0  195.08   15.20
  -6   6   0  212.28   13.60
  -6   6   0  198.68   15.40
   6   6   0  194.78   15.90
  -7  -6   0  339.27   26.10
  -7  -6   0  376.86   22.70
   7   6   0  375.36   24.40
  -7   6   0  349.37   22.90
   8  -6   0  189.48   18.30
  -8  -6   0  157.28   13.80
  -8  -6   0  163.78   14.90
  -8  -6   0  160.78   15.10
  -8   6   0  162.78   15.10
  -8   6   0  173.48   12.10
   8   6   0  144.59   14.90
  -9  -6   0   32.70    7.90
  -9  -6   0   28.30    7.70
   9  -6   0   25.50    9.60
  -9   6   0   42.70    5.70
  -9   6   0   40.90    8.80
   9   6   0   45.70   10.10
 -10  -6   0   62.39   10.80
  10  -6   0  100.39   14.10
 -10  -6   0   70.19   11.50
 -10   6   0   64.49    7.40
  10   6   0   59.69   12.00
 -10   6   0   59.89   11.40
   0  -7   0    5.50    3.10
   0  -7   0    8.40    3.30
   0   7   0   10.70    3.50
   0   7   0    6.10    2.70
   1  -7   0  501.55   28.70
  -1  -7   0  493.25   27.70
  -1  -7   0  495.75   26.60
   1  -7   0  520.95   26.30
   1   7   0  462.85   27.50
   1   7   0  500.15   25.90
  -1   7   0  491.95   28.80
   1   7   0  510.35   28.90
  -1   7   0  484.95   25.90
   2  -7   0  686.33   36.60
   2  -7   0  691.83   33.20
  -2  -7   0  706.23   34.50
  -2   7   0  679.53   36.50
   2   7   0  666.43   32.90
  -2   7   0  662.63   33.30
   2   7   0  725.13   36.00
   2   7   0  580.44   44.00
   3  -7   0  392.86   25.20
  -3  -7   0  385.66   25.50
  -3  -7   0  394.36   23.30
   3   7   0  371.26   21.70
  -3   7   0  389.36   25.00
  -3   7   0  400.16   22.70
  -3   7   0  391.16   21.40
   3   7   0  375.16   23.60
  -4  -7   0  336.17   21.60
  -4  -7   0  323.17   21.20
   4  -7   0  350.76   24.20
  -4   7   0  312.27   22.80
  -4   7   0  342.87   21.20
   4   7   0  345.97   22.50
   4   7   0  338.17   20.50
  -4   7   0  382.06   20.30
  -5  -7   0   62.69    9.90
   5  -7   0   46.70    9.50
  -5  -7   0   51.79    8.00
  -5   7   0   51.59    6.50
   5   7   0   45.00    8.00
   5   7   0   56.79    8.60
  -5   7   0   55.89    9.10
  -6  -7   0  190.98   18.20
  -6  -7   0  209.78   16.70
   6  -7   0  197.28   18.30
  -6  -7   0  191.08   15.90
  -6   7   0  204.08   13.80
   6   7   0  209.08   18.30
  -6   7   0  203.08   16.20
  -7  -7   0  305.27   20.40
  -7  -7   0  289.77   21.60
   7  -7   0  284.27   23.50
  -7   7   0  276.97   20.60
  -7   7   0  312.37   18.00
   7   7   0  309.87   22.20
  -8  -7   0   56.19    9.70
   8  -7   0   78.19   14.60
  -8  -7   0   51.29    9.70
  -8   7   0   66.09   11.20
   8   7   0   76.99   13.00
  -8   7   0   72.99    7.30
   9  -7   0   90.89   16.10
  -9  -7   0   59.49   11.00
  -9  -7   0   51.09   10.20
  -9   7   0   62.59   11.60
  -9   7   0   65.99    8.50
   9   7   0   62.69   11.40
   0  -8   0   36.90    7.00
   0  -8   0   36.70    8.20
   0   8   0   47.40    7.80
   0   8   0   36.20    8.60
  -1  -8   0   58.09    8.60
   1  -8   0   63.89    8.00
   1  -8   0   53.69   10.60
  -1  -8   0   60.69    8.00
   1   8   0   65.09   11.20
   1   8   0   63.79    9.30
  -1   8   0   57.09    8.70
   1   8   0   65.49    8.10
  -1   8   0   58.09    8.80
   2  -8   0  137.19   11.70
  -2  -8   0  134.09   12.50
   2  -8   0  158.08   14.90
  -2   8   0  146.69   12.50
   2   8   0  158.58   12.60
   2   8   0  129.19   13.40
  -2   8   0  133.09   14.20
  -3  -8   0   31.70    7.30
  -3  -8   0   33.70    7.70
   3  -8   0   28.50    7.30
  -3   8   0   26.20    6.00
  -3   8   0   34.30    5.80
   3   8   0   17.80    5.50
   3   8   0   28.70    6.10
  -3   8   0   21.10    6.50
  -4  -8   0    8.80    4.20
   4  -8   0    2.60    4.70
  -4  -8   0   16.00    5.40
  -4   8   0   11.00    4.70
   4   8   0   12.90    4.50
   4   8   0    2.90    3.40
  -4   8   0   12.60    3.80
   5  -8   0   66.79   12.80
  -5  -8   0   63.39   10.50
  -5  -8   0   90.89   14.40
   5   8   0   57.19   10.30
  -5   8   0   57.09    9.80
  -5   8   0   51.79    8.40
   5   8   0   73.69    8.80
  -6  -8   0    0.80    3.50
   6  -8   0   -2.30    5.70
   6   8   0   -1.30    3.10
  -6   8   0    0.30    3.00
   6   8   0    4.00    3.30
  -6   8   0   -1.90    3.70
  -7  -8   0   36.60    8.50
   7  -8   0   40.20   10.00
   7   8   0   36.40    8.20
   7   8   0   29.20    7.90
  -7   8   0   37.90    8.40
  -7   8   0   51.99    6.80
  -8  -8   0   23.60    6.80
   8  -8   0   48.30   10.80
  -8   8   0   22.50    7.40
  -8   8   0   33.40    6.10
   8   8   0   25.70    7.80
   8   8   0   21.10    6.10
   0  -9   0   -6.00    4.40
   0   9   0   -3.10    3.60
   1  -9   0  147.99   13.20
  -1  -9   0  155.28   13.80
   1  -9   0  164.78   21.40
   1   9   0  159.48   14.10
  -1   9   0   99.29   21.30
  -1   9   0  187.58   15.20
   1   9   0  141.79   16.00
  -2  -9   0   67.69    8.70
   2  -9   0   36.90    9.20
   2  -9   0   59.39    9.50
   2   9   0   51.99   10.10
   2   9   0   40.80    7.90
  -2   9   0   66.29   10.10
   3  -9   0   -2.00    5.30
  -3  -9   0    2.20    3.30
  -3   9   0    6.70    4.10
   3   9   0    3.80    3.60
   3   9   0    2.30    4.00
  -3   9   0    5.20    3.70
   4  -9   0  104.69   14.50
  -4  -9   0  124.99   13.50
   4   9   0  114.69   12.00
  -4   9   0  115.49   11.80
  -4   9   0  116.59   12.50
   4   9   0  114.59   13.40
  -5  -9   0   11.20    4.50
   5  -9   0   14.90    8.10
  -5   9   0    5.00    4.40
   5   9   0    1.30    4.60
  -5   9   0    6.40    4.50
   5   9   0   15.00    5.70
  -6  -9   0    7.30    4.30
  -6   9   0   11.00    5.30
   6   9   0   14.80    6.70
   6   9   0   13.00    4.90
  -6   9   0    6.70    5.00
  -7  -9   0    5.40    5.20
   7   9   0    0.70    5.50
  -7   9   0    8.50    5.90
   7   9   0    7.40    4.70
  -7   9   0   -0.80    6.50
   0 -10   0  288.77   21.00
   0  10   0  283.87   20.60
  -1 -10   0   21.00    6.60
   1 -10   0   20.60    5.80
  -1  10   0   15.40    6.20
   1  10   0   15.40    6.10
  -2 -10   0   10.70    5.10
   2 -10   0   18.30    5.30
  -2  10   0   13.80    5.10
   2  10   0   12.20    5.90
  -2  10   0   16.40    6.30
  -3 -10   0  141.09   14.40
  -3  10   0  142.09   14.20
  -3  10   0  114.09   12.80
   3  10   0  151.68   16.30
  -4 -10   0   75.59   13.80
  -4  10   0   82.89   12.60
   4  10   0  101.89   13.30
   4  10   0   72.79   11.60
  -4  10   0   88.59   11.30
 -13   0   1    3.70    5.70
 -13   0   1   -6.00    3.40
  13   0  -1    6.70    7.00
 -12   0   1    9.60    4.70
 -12   0   1    0.60    3.60
  12   0  -1   -4.20    4.40
 -11   0   1   -3.10    3.00
 -11   0   1   -0.10    3.80
  11   0  -1    4.30    3.70
  10   0  -1    1.80    4.20
 -10   0   1    1.40    3.20
 -10   0   1    0.10    4.10
  -9   0   1    4.90    2.80
  -9   0   1   -0.50    2.00
   9   0  -1   -2.10    2.10
  -8   0   1    2.10    2.40
   8   0  -1   -1.90    2.50
  -8   0   1    0.40    1.90
   7   0  -1   -2.50    1.80
  -7   0   1    1.10    2.80
  -7   0   1   -0.50    1.50
  -7   0   1   -1.30    1.90
   7   0  -1   -1.00    1.90
   6   0  -1    0.70    1.40
  -6   0   1    0.10    2.00
   6   0  -1   -0.10    1.50
   6   0  -1   -0.70    1.40
  -6   0   1    1.60    1.40
  -5   0   1    2.40    2.00
   5   0  -1   -1.30    1.70
  -5   0   1    1.10    1.80
   5   0  -1    1.90    1.70
   5   0  -1   -0.30    1.30
  -5   0   1    1.60    1.50
  -4   0   1    4.30    1.80
  -4   0   1    0.20    1.60
   4   0  -1    2.10    1.60
  -4   0   1    2.50    2.00
   4   0  -1    0.80    1.50
   4   0  -1    2.60    1.90
  -3   0   1    1.80    1.10
  -3   0   1    1.30    1.50
  -3   0   1    0.90    1.20
   3   0  -1    0.00    0.90
   3   0  -1    3.40    1.80
   3   0  -1    1.70    1.30
   2   0  -1    0.60    1.20
   2   0  -1   -0.30    0.60
  -2   0   1    0.80    1.00
   2   0  -1    0.40    0.90
  -2   0   1   -0.20    0.90
  -2   0   1   -0.30    0.80
  -1   0   1   -0.50    0.30
   1   0  -1    0.40    0.40
   1   0  -1   -0.10    0.40
  -1   0   1   -0.30    0.30
  -1   0   1    0.40    0.30
   1   0   1    0.80    0.40
  -1   0  -1    0.50    0.50
  -1   0  -1    1.20    0.70
   1   0   1    0.70    0.60
   1   0   1    0.30    0.50
  -1   0  -1    0.80    0.50
   2   0   1    0.40    0.70
  -2   0  -1    0.00    0.80
   2   0   1    0.00    1.00
  -2   0  -1    1.70    1.20
   2   0   1    2.20    1.20
  -2   0  -1    1.40    0.90
  -3   0  -1    1.90    1.20
  -3   0  -1    2.60    1.30
  -3   0  -1    3.80    1.60
   3   0   1    4.00    1.60
   3   0   1    1.00    1.40
   3   0   1    3.00    1.50
  -4   0  -1   -2.10    1.10
  -4   0  -1    2.10    1.70
   4   0   1    2.00    1.90
   4   0   1    1.70    1.60
   4   0   1   -0.60    1.40
  -4   0  -1    0.10    1.50
  -5   0  -1    5.40    2.90
  -5   0  -1    1.50    1.50
   5   0   1    1.40    1.60
  -5   0  -1    3.40    1.90
   5   0   1    3.70    2.30
   5   0   1    3.80    1.80
   6   0   1    1.60    1.70
  -6   0  -1   -0.40    1.10
  -6   0  -1   -0.90    1.00
   6   0   1    2.50    2.40
  -6   0  -1    2.00    2.30
   7   0   1   -0.60    2.20
  -7   0  -1   -2.10    1.10
  -7   0  -1    0.10    1.60
   7   0   1    0.00    2.10
  -8   0  -1    4.00    2.40
   8   0   1    3.00    3.10
  -8   0  -1    4.60    3.40
  -9   0  -1    0.70    2.50
   9   0   1    0.40    3.00
 -10   0  -1    2.70    2.70
  10   0   1    3.40    4.90
 -10   0  -1    1.10    3.50
 -11   0  -1   -4.50    3.70
 -11   0  -1    0.00    3.40
  11   0   1    2.00    4.10
  12   0   1    0.60    5.80
 -12   0  -1   -8.80    3.40
 -12   0  -1   -6.20    3.20
 -12  -1   1    0.20    4.80
 -12  -1   1   13.50    4.80
  12  -1  -1    5.30    5.50
 -12   1   1    7.50    5.00
  12   1  -1   -9.20    4.30
 -12   1   1    1.20    3.50
  11  -1  -1  360.96   27.90
 -11  -1   1  397.46   25.40
 -11  -1   1  368.96   23.30
 -11   1   1  340.07   24.60
 -11   1   1  379.96   22.70
  11   1  -1  379.86   28.90
 -10  -1   1   53.59    8.60
  10  -1  -1   52.59   10.50
 -10  -1   1   57.89   11.50
  10   1  -1   44.30    9.60
 -10   1   1   43.90    6.90
  -9  -1   1   23.10    5.60
   9  -1  -1   28.30    7.50
  -9  -1   1   37.00    7.50
  -9   1   1   24.30    6.50
  -9   1   1   23.60    5.10
   9   1  -1   24.60    7.00
  -8  -1   1 1033.20   47.10
  -8  -1   1 1042.40   48.10
   8   1  -1 1098.99   51.39
  -8   1   1 1022.20   48.10
  -8   1   1 1019.50   46.40
  -7  -1   1  140.69   10.50
   7  -1  -1  118.09    9.40
   7  -1  -1  132.99   12.20
  -7  -1   1  134.39   10.70
  -7   1   1  129.69   10.60
  -7   1   1  132.89   11.60
  -7   1   1  138.49   10.00
   7   1  -1  128.49   11.90
   6  -1  -1 1043.40   47.70
  -6  -1   1 1065.29   49.60
  -6  -1   1 1108.39   47.80
  -6  -1   1 1164.08   48.60
   6  -1  -1 1085.29   47.00
   6  -1  -1 1131.69   50.89
  -6   1   1 1110.69   49.99
   6   1  -1 1091.29   48.00
   6   1  -1 1129.89   48.00
  -6   1   1 1151.08   47.40
  -6   1   1 1134.79   48.50
   6   1  -1 1149.29   50.69
   5  -1  -1 1014.30   40.00
  -5  -1   1  935.11   40.50
  -5  -1   1  944.71   42.00
  -5  -1   1  891.41   40.10
   5  -1  -1  953.50   42.80
   5   1  -1  922.11   42.20
  -5   1   1  933.51   39.70
   5   1  -1  969.40   40.40
  -5   1   1  935.41   42.00
  -5   1   1  900.01   40.40
   5   1  -1  917.21   40.30
   4  -1  -1  277.57   14.00
  -4  -1   1  286.17   14.70
  -4  -1   1  287.07   15.60
   4  -1  -1  303.87   14.80
   4  -1  -1  282.37   16.20
  -4  -1   1  293.47   14.80
   4   1  -1  281.47   14.70
  -4   1   1  298.57   14.30
   4   1  -1  263.77   14.30
  -4   1   1  266.27   15.50
   4   1  -1  292.47   16.00
  -4   1   1  290.37   14.80
   3  -1  -1 5352.06  206.38
   3   1  -1 5043.50  202.68
  -3   1   1 4930.31  203.38
   2  -1  -1  758.92   31.30
   2  -1  -1  750.52   31.20
  -2  -1   1  772.32   31.90
  -2  -1   1  758.22   31.50
  -2  -1   1  768.52   32.10
   2  -1  -1  790.72   32.40
   2   1  -1  773.52   31.60
   2   1  -1  766.42   33.80
  -2   1   1  807.82   31.30
  -2   1   1  793.02   31.40
  -2   1   1  735.33   32.00
   2   1  -1  808.22   32.20
  -1  -1   1  211.78    9.00
  -1  -1   1  219.28    9.60
   1  -1  -1  209.88    9.50
  -1  -1   1  198.38    9.90
   1  -1  -1  211.98    9.50
  -1   1   1  216.88    9.90
   1   1  -1  217.38   10.00
   1   1  -1  199.28    9.50
  -1   1   1  212.68    9.50
  -1   1   1  217.38    9.60
  -1   1   1  215.28    9.50
   1   1  -1  208.98    9.00
   0  -1   1 2207.28   87.39
  -1  -1  -1  136.39    6.50
   1  -1   1  147.39    6.70
   1  -1   1  129.99    7.30
  -1  -1  -1  148.09    6.70
  -1  -1  -1  149.69    7.10
  -1  -1  -1  141.39    7.00
  -1   1  -1  132.59    5.80
   1   1   1  136.99    7.00
  -1   1  -1  142.99    6.80
  -1   1  -1  145.89    7.50
   1   1   1  138.99    7.00
  -1   1  -1  133.49    5.80
   1   1   1  155.48    6.80
   2  -1   1 1112.99   43.80
  -2  -1  -1 1065.89   43.70
   2  -1   1 1181.68   42.60
  -2  -1  -1 1202.78   44.30
  -2  -1  -1 1110.49   43.80
   2  -1   1 1080.59   44.80
   2   1   1 1034.60   43.70
  -2   1  -1 1130.39   42.50
  -2   1  -1 1101.49   44.70
   2   1   1 1009.90   43.80
  -2   1  -1 1184.88   44.10
   2   1   1 1029.20   43.90
   3  -1   1  637.94   26.10
   3  -1   1  581.54   24.40
  -3  -1  -1  551.04   25.90
  -3  -1  -1  595.14   26.10
  -3  -1  -1  597.14   25.70
   3  -1   1  625.44   27.30
  -3   1  -1  622.24   24.60
   3   1   1  635.54   26.70
  -3   1  -1  594.64   26.80
   3   1   1  567.64   26.00
   3   1   1  580.54   25.60
  -3   1  -1  631.94   26.20
  -4  -1  -1  392.76   19.30
  -4  -1  -1  387.36   19.30
  -4  -1  -1  402.46   18.70
   4  -1   1  399.06   17.60
   4  -1   1  399.36   20.50
   4  -1   1  392.46   19.10
   4   1   1  402.16   18.80
  -4   1  -1  385.36   19.90
   4   1   1  417.06   20.20
   4   1   1  363.76   19.00
  -4   1  -1  389.76   17.50
  -4   1  -1  418.06   19.50
   5  -1   1   75.49    5.60
   5  -1   1   69.59    6.40
  -5  -1  -1   74.69    6.20
  -5  -1  -1   70.79    6.70
  -5  -1  -1   74.19    6.80
   5  -1   1   69.19    7.50
  -5   1  -1   82.89    5.80
  -5   1  -1   69.89    6.70
  -5   1  -1   75.09    8.10
   5   1   1   71.49    6.70
   5   1   1   69.89    7.10
   5   1   1   76.79    6.40
   6  -1   1  153.28    9.90
  -6  -1  -1  171.28   11.10
   6  -1   1  170.08   13.40
  -6  -1  -1  182.68   12.30
   6   1   1  179.58   13.10
   6   1   1  175.18   11.40
  -6   1  -1  190.58   10.60
  -6   1  -1  157.18   12.10
   7  -1   1  500.15   24.50
  -7  -1  -1  563.14   26.00
   7  -1   1  466.75   28.40
  -7  -1  -1  512.35   27.00
   7   1   1  537.45   28.90
  -7   1  -1  543.65   24.70
  -7   1  -1  509.95   27.10
   7   1   1  502.95   25.70
   8  -1   1    2.00    3.40
   8  -1   1    1.20    2.20
  -8  -1  -1    1.70    2.20
  -8  -1  -1    1.40    2.10
  -8   1  -1    0.50    2.40
  -8   1  -1    7.50    2.70
   8   1   1   -1.90    2.10
  -9  -1  -1   -2.00    1.90
   9  -1   1    1.10    3.60
  -9  -1  -1    3.50    2.90
  -9   1  -1   -1.00    2.50
  -9   1  -1   -2.90    1.70
   9   1   1    4.30    4.40
  10  -1   1  107.59   14.20
 -10  -1  -1  122.19   11.10
 -10  -1  -1  118.79   12.50
 -10   1  -1  107.19   12.10
 -10   1  -1  131.09   10.30
  10   1   1  121.49   14.40
 -11  -1  -1    6.60    4.80
  11  -1   1    0.00    4.50
 -11  -1  -1    8.20    4.00
 -11   1  -1    6.50    4.30
 -11   1  -1    9.10    3.30
  11   1   1    8.00    5.70
  12  -1   1   17.50    6.30
 -12  -1  -1   18.10    6.20
 -12  -1  -1   13.30    6.10
 -12   1  -1   30.50    8.60
  12   1   1   44.70   11.20
 -12   1  -1   26.60    6.60
  12  -2  -1    7.00    5.30
 -12  -2   1    4.60    5.00
 -12  -2   1    2.60    3.60
 -12   2   1    6.60    4.50
  12   2  -1   10.10    7.00
 -12   2   1   -0.30    4.40
 -11  -2   1  121.79   12.90
  11  -2  -1  109.39   15.00
 -11  -2   1  105.89   12.20
  11   2  -1   89.99   13.40
 -11   2   1   99.89   12.00
 -11   2   1  108.59   10.50
  10  -2  -1   13.90    6.00
 -10  -2   1   26.00    6.50
 -10  -2   1   21.60    6.40
 -10   2   1   26.50    7.20
  10   2  -1   30.80    7.80
 -10   2   1   13.90    4.70
   9  -2  -1    1.80    2.70
  -9  -2   1    4.90    3.60
  -9  -2   1    2.00    3.00
  -9   2   1    1.50    3.20
   9   2  -1    3.20    3.40
  -9   2   1   -2.40    1.30
  -8  -2   1  470.35   25.40
  -8  -2   1  461.55   25.10
   8  -2  -1  434.76   28.40
  -8   2   1  429.76   25.30
   8   2  -1  462.05   27.70
  -8   2   1  467.05   23.70
   7  -2  -1  819.12   40.30
   7  -2  -1  757.02   34.80
  -7  -2   1  784.82   36.60
  -7  -2   1  790.52   36.70
  -7   2   1  645.24   37.30
  -7   2   1  814.72   35.50
  -7   2   1  822.22   37.30
   7   2  -1  752.12   39.00
   6  -2  -1   64.89    8.00
   6  -2  -1   58.19    5.60
  -6  -2   1   53.89    6.10
  -6  -2   1   55.09    6.80
  -6  -2   1   51.49    5.80
  -6   2   1   41.20    4.90
  -6   2   1   49.80    6.80
  -6   2   1   55.39   11.20
   6   2  -1   47.60    6.10
   6   2  -1   55.99    7.20
  -5  -2   1  475.85   23.20
   5  -2  -1  457.35   22.70
  -5  -2   1  481.75   22.80
  -5  -2   1  439.76   25.50
   5  -2  -1  483.45   25.30
   5  -2  -1  462.35   21.80
  -5   2   1  489.65   22.20
   5   2  -1  401.76   23.40
   5   2  -1  469.35   23.30
   5   2  -1  488.85   23.00
  -5   2   1  489.05   24.80
  -5   2   1  472.25   23.20
  -4  -2   1 1383.86   62.59
  -4  -2   1 1521.25   61.49
   4  -2  -1 1523.35   61.69
   4  -2  -1 1578.44   64.09
   4  -2  -1 1576.44   60.99
  -4  -2   1 1534.45   62.19
  -4   2   1 1558.64   61.09
   4   2  -1 1476.85   62.09
   4   2  -1 1488.45   62.99
   4   2  -1 1520.55   61.59
  -4   2   1 1575.04   62.19
  -4   2   1 1525.05   63.59
  -3  -2   1   97.39    7.50
   3  -2  -1   93.59    6.60
   3  -2  -1  102.19    6.40
  -3  -2   1  102.99    6.70
   3  -2  -1  102.09    7.90
  -3  -2   1   97.09    6.90
   3   2  -1  101.79    7.20
  -3   2   1   92.99    6.30
  -3   2   1  127.69   10.90
  -3   2   1  101.39    7.00
   3   2  -1   98.29    6.70
   3   2  -1  105.99    7.60
  -2  -2   1   97.99    5.80
  -2  -2   1   95.69    6.80
  -2  -2   1   99.29    6.80
   2  -2  -1   97.29    7.00
   2  -2  -1  105.19    6.30
  -2  -2   1   96.09    6.40
   2   2  -1   96.09    6.40
   2   2  -1   90.99    5.80
  -2   2   1  100.89    6.10
   2   2  -1  107.39    7.00
  -2   2   1  105.59    7.20
  -2   2   1   97.29    6.20
  -2   2   1  103.09    6.10
   1  -2  -1  680.43   26.30
  -1  -2   1  632.64   26.90
   1  -2  -1  607.94   26.50
  -1  -2   1  659.93   26.40
   1  -2  -1  623.34   26.20
  -1  -2   1  646.84   27.20
   1   2  -1  630.14   26.30
  -1   2   1  633.64   26.10
  -1   2   1  622.94   26.70
   1   2  -1  593.04   27.90
   1   2  -1  626.24   27.10
  -1   2   1  623.04   26.10
   0  -2   1 1015.30   38.50
   0  -2  -1 1084.69   39.30
   0  -2   1 1010.20   38.80
   0  -2  -1  847.12   38.80
   0  -2   1  993.90   40.10
   0  -2  -1  995.00   39.40
   0  -2   1  996.20   39.90
   0   2  -1  928.01   38.40
   0   2  -1 1006.10   40.20
   0   2  -1  903.91   39.70
   0   2  -1  982.10   38.80
   0   2   1  997.10   39.20
   0   2   1 1024.00   39.30
   0   2   1  995.50   39.30
   0   2   1  944.21   39.00
   0   2   1  969.70   39.30
  -1  -2  -1  949.40   38.20
   1  -2   1  942.01   39.00
  -1  -2  -1  939.01   37.90
   1  -2   1  918.01   36.80
  -1  -2  -1  909.71   37.60
   1  -2   1  989.20   39.00
   1  -2   1 1033.50   37.60
  -1  -2  -1  897.01   37.60
   1   2   1  880.91   37.80
  -1   2  -1  973.30   37.50
  -1   2  -1  955.30   39.00
   1   2   1  946.81   38.20
   1   2   1  946.51   38.00
   1   2   1  933.21   37.70
  -1   2  -1  907.31   36.80
  -2  -2  -1  190.98   10.10
   2  -2   1  177.48    9.50
   2  -2   1  177.78   10.80
  -2  -2  -1  185.98    9.70
  -2  -2  -1  192.88    9.90
  -2  -2  -1  195.18   10.00
   2   2   1  191.78   10.10
  -2   2  -1  181.88    8.40
  -2   2  -1  187.08    8.60
  -2   2  -1  187.28   10.80
  -2   2  -1  184.88    9.70
   2   2   1  197.78   10.30
   2   2   1  174.18    9.70
  -3  -2  -1 3289.27  119.79
   3  -2   1 3007.00  119.19
  -3  -2  -1 2951.00  119.49
   3  -2   1 3039.80  117.29
   3  -2   1 3110.09  121.29
  -3   2  -1 2992.20  120.69
  -3   2  -1 2983.30  117.39
   3   2   1 3099.79  119.79
   3   2   1 3252.17  119.89
  -4  -2  -1  228.18   13.10
  -4  -2  -1  223.38   12.80
   4  -2   1  235.48   12.90
   4  -2   1  238.38   14.70
   4  -2   1  227.68   11.20
  -4  -2  -1  240.68   13.30
   4   2   1  249.88   13.80
  -4   2  -1  229.78   13.00
  -4   2  -1  221.18   13.90
   4   2   1  230.58   13.10
   4   2   1  228.08   13.20
  -4   2  -1  217.08   11.10
   5  -2   1   -0.10    1.70
  -5  -2  -1    1.70    1.70
   5  -2   1    2.20    2.10
   5  -2   1    1.30    1.30
  -5  -2  -1    1.40    1.70
  -5  -2  -1    1.50    1.60
   5   2   1    2.30    1.90
  -5   2  -1   -0.20    1.60
   5   2   1    0.60    1.40
  -5   2  -1    2.20    1.50
   5   2   1   -0.30    1.70
   6  -2   1 1504.45   65.69
  -6  -2  -1 1504.15   62.99
   6  -2   1 1520.15   59.79
  -6  -2  -1 1511.25   62.29
  -6   2  -1 1438.26   62.59
   6   2   1 1460.75   64.09
   6   2   1 1429.26   62.29
  -6   2  -1 1433.66   64.49
  -6   2  -1 1517.75   59.89
  -7  -2  -1   62.69    7.70
   7  -2   1   60.89    5.80
   7  -2   1   64.19    8.90
  -7  -2  -1   67.99    7.30
   7   2   1   59.09    7.90
  -7   2  -1   73.79    6.20
  -7   2  -1   69.79    7.90
  -8  -2  -1  154.68   12.90
   8  -2   1  140.39   10.10
   8  -2   1  139.39   14.10
  -8  -2  -1  162.68   12.00
  -8   2  -1  169.38   13.40
   8   2   1  147.19   13.70
  -8   2  -1  149.19   10.10
  -9  -2  -1  202.38   15.10
   9  -2   1  201.68   18.50
  -9  -2  -1  209.78   16.40
   9   2   1  215.78   18.30
  -9   2  -1  195.88   16.10
  -9   2  -1  231.28   13.50
 -10  -2  -1    2.60    3.50
  10  -2   1   -0.80    3.10
 -10  -2  -1   -0.40    3.20
 -10   2  -1   -0.60    2.20
  10   2   1    1.10    3.50
 -10   2  -1   -4.60    3.00
  11  -2   1   92.69   14.20
 -11  -2  -1   95.29   11.80
 -11  -2  -1  104.99   13.00
 -11   2  -1  119.89   13.00
 -11   2  -1  125.59    9.80
  11   2   1  122.19   15.30
  12  -2   1    2.10    5.10
 -12  -2  -1    0.20    4.30
  12   2   1    2.50    4.90
 -12   2  -1    3.70    5.60
 -12   2  -1   -5.70    4.30
 -12  -3   1   -2.80    4.40
 -12  -3   1    9.00    5.50
  12  -3  -1   -4.50    4.80
  12   3  -1   -1.00    5.10
 -12   3   1   -1.00    4.00
 -12   3   1    8.10    6.00
 -11  -3   1   95.09   11.50
 -11  -3   1  113.69   12.70
  11  -3  -1  100.59   14.20
  11   3  -1  119.89   15.00
 -11   3   1   97.29   10.30
 -11   3   1  100.29   12.60
 -10  -3   1   -1.00    2.30
  10  -3  -1    3.20    3.30
 -10  -3   1    0.60    4.30
 -10   3   1    1.90    2.50
 -10   3   1    3.80    4.50
  10   3  -1    3.50    3.60
  -9  -3   1   17.90    5.00
  -9  -3   1   21.80    6.00
   9  -3  -1   10.60    4.70
   9   3  -1   19.40    6.10
  -9   3   1   21.10    6.20
  -9   3   1   13.00    4.30
  -8  -3   1  323.87   20.00
   8  -3  -1  324.47   23.30
  -8  -3   1  344.97   20.60
  -8   3   1  295.97   20.00
   8   3  -1  315.67   21.70
  -8   3   1  333.27   18.60
   7  -3  -1   19.60    5.70
  -7  -3   1   25.90    5.50
   7  -3  -1   17.70    3.90
  -7  -3   1   20.50    4.80
  -7   3   1   14.50    4.50
   7   3  -1   22.50    5.40
  -7   3   1   19.70    4.80
  -7   3   1   19.60    4.20
  -6  -3   1  283.17   17.20
  -6  -3   1  304.47   17.10
   6  -3  -1  292.37   15.70
   6  -3  -1  307.87   19.90
   6   3  -1  269.57   17.90
  -6   3   1  273.27   17.00
  -6   3   1  307.37   16.20
  -6   3   1  265.97   19.60
   5  -3  -1   52.19    5.50
   5  -3  -1   57.39    7.20
  -5  -3   1   62.99    6.00
  -5  -3   1   58.69    6.70
  -5  -3   1   49.10    5.70
   5  -3  -1   50.79    4.90
   5   3  -1   58.59    6.70
  -5   3   1   51.69    5.20
  -5   3   1   53.19    6.90
   5   3  -1   42.20    5.30
  -5   3   1   55.89    6.10
   5   3  -1   70.99    6.80
   4  -3  -1  225.58   14.40
  -4  -3   1  203.28   13.20
  -4  -3   1  200.98   11.90
   4  -3  -1  210.38   12.30
  -4  -3   1  205.68   12.80
  -4   3   1  194.18   13.60
  -4   3   1  222.58   12.90
   4   3  -1  216.78   12.40
  -4   3   1  209.98   11.50
   4   3  -1  229.18   13.80
   4   3  -1  216.18   13.00
  -4   3   1  198.78   11.60
   3  -3  -1  890.01   41.10
  -3  -3   1  957.80   39.20
  -3  -3   1  909.91   40.60
  -3  -3   1  946.41   40.70
  -3  -3   1  931.41   40.10
   3  -3  -1  919.21   39.40
   3   3  -1  907.01   40.60
  -3   3   1  975.90   38.90
  -3   3   1  914.31   39.70
   3   3  -1  927.81   39.30
   3   3  -1  927.41   40.10
  -3   3   1 1029.60   41.90
  -3   3   1  933.61   39.10
  -2  -3   1 1434.26   56.79
  -2  -3   1 1433.56   57.79
  -2  -3   1 1434.86   58.49
   2  -3  -1 1276.87   58.29
  -2  -3   1 1471.25   58.69
   2  -3  -1 1379.06   57.09
  -2   3   1 1435.66   56.89
   2   3  -1 1401.96   56.79
   2   3  -1 1414.56   57.79
  -2   3   1 1477.45   58.79
  -2   3   1 1547.05   57.79
  -2   3   1 1398.06   56.99
   2   3  -1 1421.96   58.39
   1  -3  -1  601.94   24.80
  -1  -3   1  513.45   24.00
   1  -3  -1  542.75   23.40
   1  -3  -1  506.95   23.60
   1  -3  -1  554.14   23.20
  -1  -3   1  513.15   23.20
  -1  -3   1  504.85   24.20
  -1   3   1  527.95   23.20
   1   3  -1  542.85   23.40
   1   3  -1  523.65   22.60
  -1   3   1  503.45   23.00
   1   3  -1  524.15   24.50
   1   3  -1  518.95   24.10
  -1   3   1  502.05   24.00
   1   3  -1  534.65   22.70
   0  -3  -1  929.11   38.30
   0  -3   1  949.01   39.50
   0  -3   1  928.61   39.00
   0  -3   1  945.21   37.40
   0  -3   1  922.11   37.60
   0  -3  -1  902.01   37.90
   0  -3  -1  927.51   38.20
   0   3  -1  941.11   37.70
   0   3   1  918.71   37.90
   0   3  -1  925.51   39.20
   0   3  -1  927.81   39.40
   0   3   1  872.01   38.30
   0   3   1  885.41   37.80
   0   3  -1  920.51   37.40
   0   3   1  938.21   38.70
   0   3   1  919.31   38.20
  -1  -3  -1 4188.98  187.58
   1  -3   1 5085.29  192.48
  -1   3  -1 4789.02  191.98
   1   3   1 5012.40  188.98
  -2  -3  -1 1057.49   44.40
   2  -3   1 1082.69   43.10
  -2  -3  -1 1105.89   44.70
   2  -3   1 1086.79   46.00
   2  -3   1  922.31   43.50
  -2  -3  -1 1102.99   45.10
  -2  -3  -1  966.40   44.10
   2  -3   1 1108.59   46.60
  -2   3  -1 1136.79   44.40
   2   3   1 1069.19   44.60
   2   3   1 1223.48   45.20
   2   3   1 1106.39   45.20
  -2   3  -1 1068.09   46.10
  -2   3  -1 1026.50   42.90
  -2   3  -1 1128.49   43.00
  -3  -3  -1   37.00    4.20
   3  -3   1   31.00    3.80
  -3  -3  -1   37.50    4.30
   3  -3   1   34.60    5.20
  -3  -3  -1   32.70    3.90
  -3  -3  -1   36.70    4.30
   3   3   1   37.40    4.30
  -3   3  -1   34.20    3.30
   3   3   1   30.60    4.10
  -3   3  -1   34.60    3.10
  -3   3  -1   34.60    4.00
  -3   3  -1   32.10    4.80
   3   3   1   36.50    4.40
  -4  -3  -1 2636.24  103.99
  -4  -3  -1 2744.13  103.59
   4  -3   1 2560.24  103.09
  -4  -3  -1 2512.45  103.49
   4  -3   1 2629.24  106.19
  -4  -3  -1 2613.04  103.59
   4   3   1 2571.54  104.09
  -4   3  -1 2536.85  105.19
  -4   3  -1 2567.04  103.49
  -4   3  -1 2686.63  100.79
  -4   3  -1 2587.94  101.09
   4   3   1 2707.03  104.09
   4   3   1 2602.54  103.99
   5  -3   1  835.92   39.70
  -5  -3  -1  767.32   39.20
  -5  -3  -1  918.71   37.90
   5  -3   1  750.92   38.10
  -5   3  -1  862.01   34.50
   5   3   1  760.92   37.30
  -5   3  -1  789.62   36.90
  -5   3  -1  866.31   34.20
  -5   3  -1  768.62   38.30
  -6  -3  -1   62.89    6.90
   6  -3   1   54.49    7.90
   6  -3   1   56.29    5.20
  -6  -3  -1   59.79    6.90
  -6   3  -1   58.59    7.00
   6   3   1   64.79    7.40
  -6   3  -1   60.09    5.30
  -7  -3  -1 1051.59   47.20
  -7  -3  -1 1004.90   47.20
   7  -3   1 1033.40   43.30
   7  -3   1 1023.50   50.69
   7   3   1 1068.79   48.90
  -7   3  -1  921.01   46.40
  -7   3  -1 1102.39   43.90
  -8  -3  -1  100.59   10.40
   8  -3   1  104.49   12.10
  -8  -3  -1  101.69    9.90
  -8   3  -1  105.99   10.70
   8   3   1   99.29   11.10
  -8   3  -1  107.99    8.20
   9  -3   1   87.79   12.30
   9  -3   1   63.69    7.20
  -9  -3  -1   84.49    9.40
  -9   3  -1   86.99    7.30
  -9   3  -1   74.29    9.90
   9   3   1   78.59   10.50
 -10  -3  -1  332.47   22.80
 -10  -3  -1  346.17   25.00
  10  -3   1  323.47   26.10
  10   3   1  323.77   24.10
 -10   3  -1  331.87   18.50
 -10   3  -1  336.77   23.40
  11  -3   1    8.80    6.20
 -11  -3  -1   11.10    5.10
 -11  -3  -1   10.90    5.40
  11   3   1   11.10    5.70
 -11   3  -1    7.40    3.30
 -11   3  -1   12.70    4.80
 -12  -3  -1   41.20    8.40
 -12  -3  -1   55.29   10.00
  12  -3   1   23.20    9.50
  12   3   1   55.79   12.80
 -12   3  -1   34.80    8.10
 -12  -4   1  134.89   15.00
  12  -4  -1  154.88   20.60
 -12  -4   1  161.88   15.30
  12   4  -1  134.89   17.00
 -12   4   1  128.09   13.40
 -12   4   1  138.79   15.80
  11  -4  -1  136.09   17.30
 -11  -4   1  124.79   13.60
 -11  -4   1  143.69   14.00
 -11   4   1  132.39   12.00
 -11   4   1  125.99   13.80
  11   4  -1  155.98   16.30
  10  -4  -1  116.69   14.90
 -10  -4   1  121.09   12.90
 -10  -4   1  131.49   12.80
  10   4  -1  136.29   15.00
 -10   4   1  125.29   13.40
 -10   4   1  138.79   10.70
   9  -4  -1  850.71   47.30
  -9  -4   1  898.51   43.10
  -9  -4   1  901.21   43.60
   9   4  -1  887.11   45.50
  -9   4   1  818.92   39.40
  -9   4   1  719.83   46.30
  -8  -4   1   39.80    8.00
   8  -4  -1   47.10   10.30
  -8  -4   1   46.90    8.20
   8   4  -1   37.30    8.10
  -8   4   1   33.80    7.70
   7  -4  -1  872.71   45.10
  -7  -4   1  844.32   41.60
  -7  -4   1  897.01   41.00
   7   4  -1  818.52   42.70
  -7   4   1  857.11   38.50
  -7   4   1  853.61   41.70
  -7   4   1  922.81   39.50
   6  -4  -1 1342.17   61.29
  -6  -4   1 1322.87   58.29
  -6  -4   1 1297.57   56.89
  -6   4   1 1322.17   55.29
  -6   4   1 1292.77   60.19
  -6   4   1 1300.97   55.69
  -6   4   1 1354.86   58.29
   6   4  -1 1365.86   59.79
  -5  -4   1   14.30    4.30
   5  -4  -1   15.20    5.00
  -5  -4   1   11.00    3.60
   5   4  -1    9.10    3.50
  -5   4   1   12.30    4.00
  -5   4   1   14.20    3.60
  -5   4   1   14.20    3.20
  -5   4   1    6.70    3.40
  -4  -4   1 3248.07  146.59
  -4  -4   1 3793.12  145.39
  -4  -4   1 3788.82  146.89
   4  -4  -1 3889.81  146.49
   4  -4  -1 3667.83  148.69
  -4  -4   1 3727.43  147.19
  -4   4   1 3794.92  145.09
  -4   4   1 3814.52  144.59
   4   4  -1 3966.70  148.09
  -4   4   1 3765.82  146.29
   4   4  -1 3650.63  145.49
  -4   4   1 3623.64  148.09
  -3  -4   1   94.29    7.80
  -3  -4   1  104.09    8.50
  -3  -4   1   98.99    8.30
   3  -4  -1   77.89    6.70
  -3  -4   1   82.69    6.70
   3  -4  -1  100.09    9.50
   3   4  -1   81.79    7.70
  -3   4   1   98.59    7.00
   3   4  -1   95.49    7.20
  -3   4   1   92.79    7.40
  -3   4   1   91.79    8.40
  -3   4   1   88.59    6.90
   3   4  -1   80.89    7.50
  -2  -4   1    4.80    2.40
  -2  -4   1    4.80    1.80
  -2  -4   1    1.00    1.60
   2  -4  -1    3.20    1.70
  -2  -4   1    5.20    2.50
   2  -4  -1    3.50    2.20
   2  -4  -1    2.80    2.00
   2  -4  -1    3.30    2.00
  -2   4   1    3.40    2.00
  -2   4   1    5.10    2.60
   2   4  -1    1.60    1.70
  -2   4   1    4.30    1.90
   2   4  -1    1.80    1.70
   2   4  -1    3.60    1.90
   2   4  -1    3.20    2.10
  -1  -4   1 4347.86  165.58
   1  -4  -1 4029.20  164.98
  -1  -4   1 4717.43  165.78
   1  -4  -1 3954.70  164.18
   1  -4  -1 4205.88  163.58
  -1   4   1 4340.97  165.58
   1   4  -1 4057.59  165.48
  -1   4   1 4326.07  163.88
   1   4  -1 4330.37  163.98
   1   4  -1 4177.78  162.98
   0  -4   1  199.78   11.30
   0  -4  -1  195.28   11.80
   0  -4   1  218.58   11.40
   0  -4   1  204.48   12.60
   0  -4  -1  206.38   12.00
   0  -4   1  209.18   13.00
   0   4   1  198.08   11.50
   0   4   1  203.68   12.50
   0   4  -1  211.98   11.50
   0   4  -1  199.78   12.90
   0   4  -1  207.18   11.20
   0   4   1  201.88   12.30
   0   4  -1  229.38   13.30
   0   4   1  201.98   11.60
   0   4   1  213.18   11.90
   0   4  -1  195.08   11.10
  -1  -4  -1 2020.60   85.29
   1  -4   1 2237.28   84.59
   1  -4   1 2141.29   84.39
  -1  -4  -1 2120.89   85.79
   1  -4   1 2217.68   86.99
   1  -4   1 2103.99   87.19
   1   4   1 2163.78   86.39
  -1   4  -1 2161.88   84.79
   1   4   1 2198.98   85.39
  -1   4  -1 2200.38   87.49
   1   4   1 2127.79   85.19
  -1   4  -1 2108.79   84.29
   1   4   1 2181.58   85.99
   1   4   1 2099.79   85.69
   2  -4   1    6.70    2.60
   2  -4   1    8.20    3.00
  -2  -4  -1    9.10    2.50
   2  -4   1    7.30    2.00
   2  -4   1    8.70    2.40
  -2  -4  -1    9.00    2.60
  -2  -4  -1    7.90    2.60
  -2  -4  -1   11.40    3.00
   2   4   1   10.00    2.90
  -2   4  -1    7.80    2.60
   2   4   1    9.50    2.70
  -2   4  -1    7.50    3.00
  -2   4  -1    8.00    2.30
   2   4   1    8.80    2.80
  -3  -4  -1  216.58   13.00
  -3  -4  -1  197.08   13.00
  -3  -4  -1  220.28   12.90
   3  -4   1  202.38   12.10
  -3  -4  -1  226.58   13.00
   3  -4   1  206.28   14.60
   3  -4   1  223.48   14.40
  -3   4  -1  220.88   11.20
   3   4   1  199.58   12.60
   3   4   1  204.98   13.20
  -3   4  -1  214.68   12.70
  -3   4  -1  229.98   14.70
   3   4   1  206.68   12.90
  -3   4  -1  221.08   11.50
  -4  -4  -1 2636.84  102.29
  -4  -4  -1 2584.74  105.89
   4  -4   1 2665.53  105.79
   4  -4   1 2725.53  101.99
  -4   4  -1 2179.18  103.59
  -4   4  -1 2476.85  101.99
  -4   4  -1 2432.46   99.49
   4   4   1 2550.24  105.29
  -4   4  -1 2732.93   99.49
  -5  -4  -1  320.57   17.60
   5  -4   1  300.07   19.80
  -5  -4  -1  309.77   17.60
  -5  -4  -1  298.57   17.80
   5   4   1  258.77   17.40
  -5   4  -1  316.97   19.70
  -5   4  -1  282.87   14.50
  -5   4  -1  292.07   15.10
  -5   4  -1  340.27   18.30
  -6  -4  -1  678.73   33.20
  -6  -4  -1  669.43   32.40
  -6  -4  -1  664.83   32.60
   6  -4   1  672.13   36.00
  -6   4  -1  697.83   29.80
  -6   4  -1  649.93   32.80
  -6   4  -1  661.63   28.90
   6   4   1  617.74   33.10
  -7  -4  -1  256.47   16.90
   7  -4   1  231.78   18.70
  -7  -4  -1  248.68   16.50
  -7  -4  -1  288.17   20.90
  -7   4  -1  217.38   12.60
  -7   4  -1  215.18   12.90
   7   4   1  225.98   16.90
  -7   4  -1  229.18   16.40
  -8  -4  -1   65.09    8.30
   8  -4   1   73.19   10.80
  -8  -4  -1   79.09    9.30
  -8  -4  -1   72.39    8.60
  -8   4  -1   77.89    9.30
  -8   4  -1   80.49    6.70
   8   4   1   74.99    9.70
   9  -4   1  528.95   34.00
  -9  -4  -1  497.05   29.50
  -9  -4  -1  493.45   29.00
   9   4   1  533.35   31.30
  -9   4  -1  473.15   24.00
  -9   4  -1  490.35   29.50
  -9   4  -1  499.15   24.10
  10  -4   1   21.80    7.70
 -10  -4  -1   24.20    6.80
 -10  -4  -1   25.10    7.50
  10   4   1   28.00    8.00
 -10   4  -1   27.50    7.30
 -11  -4  -1   31.30    8.30
 -11  -4  -1   42.00    8.50
  11  -4   1   34.20    9.70
 -11   4  -1   56.29    6.70
 -11   4  -1   41.60    9.80
  11   4   1   38.00    9.70
  11  -5  -1   -1.60    6.20
 -11  -5   1    1.10    3.70
 -11  -5   1   -4.40    3.70
  11   5  -1   -4.10    3.80
 -11   5   1   -8.10    4.40
 -11   5   1    0.20    4.40
 -10  -5   1    4.60    4.30
  10  -5  -1    6.50    6.00
 -10  -5   1   10.90    4.70
  10   5  -1   -2.70    4.30
 -10   5   1   11.50    3.70
 -10   5   1   10.70    5.10
   9  -5  -1   88.39   12.50
  -9  -5   1  109.19   12.00
  -9  -5   1   89.49   11.70
  -9  -5   1   84.99    9.90
   9   5  -1   95.89   18.50
  -9   5   1   81.39    8.50
  -9   5   1   79.59   12.50
  -8  -5   1   94.39   10.60
  -8  -5   1  109.29   10.70
  -8  -5   1   99.69   11.30
  -8   5   1   96.69    9.00
   8   5  -1  109.39   12.20
  -8   5   1   95.29   10.90
  -7  -5   1   60.69    8.00
   7  -5  -1   64.39   11.40
  -7  -5   1   67.79    7.70
  -7   5   1   64.89    8.60
   7   5  -1   62.89    9.10
  -6  -5   1    5.50    3.20
   6  -5  -1   10.20    4.60
  -6  -5   1   10.00    3.70
  -6   5   1    6.60    2.80
  -6   5   1    5.70    2.70
   6   5  -1   12.00    4.30
  -6   5   1    6.30    2.90
  -6   5   1    7.70    4.10
  -5  -5   1  363.16   21.70
   5  -5  -1  390.26   24.10
  -5  -5   1  384.46   20.80
  -5   5   1  372.86   19.40
  -5   5   1  350.76   22.90
   5   5  -1  385.06   22.60
  -5   5   1  417.76   20.70
  -5   5   1  384.86   21.70
   4  -5  -1  579.14   31.00
  -4  -5   1  603.34   29.50
   4  -5  -1  564.94   30.10
  -4  -5   1  559.44   29.40
  -4  -5   1  588.74   28.00
  -4   5   1  593.14   27.80
  -4   5   1  588.84   27.30
  -4   5   1  596.64   29.00
   4   5  -1  568.24   30.90
  -3  -5   1   42.70    5.60
   3  -5  -1   48.40    6.30
  -3  -5   1   49.10    6.20
  -3  -5   1   64.19    6.00
   3  -5  -1   81.99   10.10
  -3   5   1   52.59    5.60
  -3   5   1   56.99    7.30
  -3   5   1   44.20    5.70
   3   5  -1   57.49    5.80
  -3   5   1   57.19    5.50
   3   5  -1   49.90    5.60
   3   5  -1   59.99    6.90
   2  -5  -1  147.19   10.30
  -2  -5   1  147.89   11.40
   2  -5  -1  156.78   11.40
  -2  -5   1  157.68   10.90
   2  -5  -1  169.38   12.40
   2  -5  -1  154.38   10.50
  -2  -5   1  141.99   11.40
  -2   5   1  162.28   10.50
  -2   5   1  157.88   10.70
   2   5  -1  160.88   10.30
   2   5  -1  163.98   11.30
   2   5  -1  151.48   11.50
   2   5  -1  156.48   10.20
   2   5  -1  181.88   13.90
  -2   5   1  164.38   12.20
   1  -5  -1  183.78   11.80
  -1  -5   1  206.08   13.20
   1  -5  -1  205.98   12.90
  -1  -5   1  190.18   11.90
   1  -5  -1  167.58   11.30
   1  -5  -1  204.98   13.30
  -1  -5   1  176.08   12.80
  -1   5   1  176.68   12.80
  -1   5   1  184.98   11.80
  -1   5   1  194.08   11.90
   1   5  -1  169.58   12.90
   1   5  -1  192.48   11.40
   1   5  -1  172.68   11.60
   1   5  -1  187.88   11.30
   1   5  -1  203.88   13.20
   0  -5   1  868.81   44.10
   0  -5   1 1055.99   44.40
   0  -5  -1  951.10   42.40
   0  -5  -1 1013.30   42.60
   0  -5   1 1016.70   41.90
   0   5   1  962.70   42.20
   0   5  -1  962.80   41.40
   0   5  -1  938.01   44.00
   0   5  -1  979.40   41.30
   0   5  -1  952.40   43.70
   0   5   1  972.50   41.90
   0   5   1  953.70   41.80
   0   5  -1  892.21   43.30
   0   5   1  949.11   43.10
   0   5   1 1029.40   43.90
   1  -5   1 2705.33  109.19
  -1  -5  -1 2819.32  107.79
   1  -5   1 2712.83  105.89
   1  -5   1 2731.73  114.39
  -1  -5  -1 2687.23  107.39
  -1  -5  -1 2388.36  109.19
   1  -5   1 2701.13  105.89
   1   5   1 2769.22  108.69
   1   5   1 2673.33  106.69
  -1   5  -1 2654.33  105.89
   1   5   1 2473.45  106.99
  -1   5  -1 2731.53  106.19
  -1   5  -1 2690.13  109.29
   1   5   1 2918.41  107.09
  -2  -5  -1  320.57   20.50
   2  -5   1  333.97   17.10
   2  -5   1  330.47   20.20
   2  -5   1  347.07   19.90
   2  -5   1  335.17   17.50
  -2  -5  -1  354.86   18.90
  -2   5  -1  326.77   19.90
  -2   5  -1  342.47   17.00
  -2   5  -1  352.26   18.00
   2   5   1  332.07   19.20
   2   5   1  329.67   18.00
   2   5   1  344.47   18.90
   3  -5   1   94.29    9.90
   3  -5   1  113.59   14.80
  -3  -5  -1   99.79    8.30
  -3  -5  -1   87.49    8.00
  -3  -5  -1   92.09    8.50
  -3   5  -1  111.09    8.60
  -3   5  -1   91.39    9.40
  -3   5  -1   87.79    6.80
   3   5   1   98.89    8.70
  -3   5  -1   88.99    7.00
  -4  -5  -1  663.33   31.00
   4  -5   1  640.44   34.00
   4  -5   1  605.84   32.90
  -4  -5  -1  599.84   31.30
  -4  -5  -1  654.03   31.00
  -4   5  -1  616.64   28.10
   4   5   1  614.64   31.20
  -4   5  -1  662.53   34.70
  -4   5  -1  680.83   31.20
  -4   5  -1  645.54   28.70
  -5  -5  -1 1379.36   60.69
  -5  -5  -1 1394.16   61.79
   5  -5   1 1483.25   65.39
  -5  -5  -1 1403.06   60.89
  -5   5  -1 1381.46   64.09
  -5   5  -1 1352.16   60.79
  -5   5  -1 1466.45   58.09
   5   5   1 1391.66   61.79
  -5   5  -1 1431.36   57.39
  -6  -5  -1  242.78   15.90
   6  -5   1  225.88   18.30
  -6  -5  -1  238.88   16.10
  -6  -5  -1  225.38   16.20
  -6   5  -1  240.68   13.40
   6   5   1  229.48   16.70
  -6   5  -1  228.08   15.90
  -6   5  -1  231.88   12.90
  -7  -5  -1   20.20    5.00
  -7  -5  -1   22.40    5.90
   7  -5   1   26.50    7.10
  -7  -5  -1   20.40    5.90
   7   5   1   18.10    5.50
  -7   5  -1   18.90    3.90
  -7   5  -1   17.60    4.00
  -7   5  -1   25.50    6.60
   8  -5   1  533.95   34.70
  -8  -5  -1  546.15   30.10
  -8  -5  -1  545.95   30.60
  -8   5  -1  543.15   26.10
  -8   5  -1  545.95   25.60
   8   5   1  539.65   39.80
  -8   5  -1  593.74   32.10
   9  -5   1   95.99   14.00
  -9  -5  -1   82.09   10.40
  -9  -5  -1  100.79   10.80
  -9   5  -1   79.09   12.00
   9   5   1   60.19   11.30
  -9   5  -1   73.69    6.90
 -10  -5  -1   26.00    7.10
  10  -5   1   27.20    7.70
 -10  -5  -1   23.40    6.60
  10   5   1   13.30    6.00
 -10   5  -1   22.10    4.90
 -10   5  -1   32.00    7.80
 -11  -5  -1    2.80    4.20
  11  -5   1   -3.30    5.40
 -11  -5  -1    6.10    5.20
  11   5   1   -1.00    6.40
 -10  -6   1   -6.40    2.90
 -10  -6   1   -2.30    3.10
  10  -6  -1    6.20    6.60
  10   6  -1   -4.50    3.10
 -10   6   1   -5.90    3.80
 -10   6   1   -2.90    3.80
  -9  -6   1  164.08   15.60
  -9  -6   1  138.29   13.40
   9  -6  -1  149.59   16.30
   9   6  -1  150.38   15.90
  -9   6   1  155.38   11.90
  -9   6   1  152.18   14.90
   8  -6  -1   40.20    9.70
  -8  -6   1   23.20    7.10
  -8  -6   1   32.70    8.50
  -8  -6   1   23.10    6.10
  -8   6   1   40.30    8.60
  -8   6   1   34.50    6.30
   8   6  -1   18.70    9.60
  -7  -6   1    5.80    3.60
  -7  -6   1   -0.40    2.10
   7  -6  -1    4.30    3.70
  -7   6   1   -0.30    2.70
   7   6  -1    9.30    4.80
  -7   6   1   -1.50    2.50
   6  -6  -1  213.08   18.20
  -6  -6   1  221.88   15.30
  -6  -6   1  212.88   16.40
   6   6  -1  220.18   17.10
  -6   6   1  220.48   14.40
  -6   6   1  212.98   16.00
  -6   6   1  221.68   19.80
   5  -6  -1   13.80    5.30
  -5  -6   1   11.90    4.10
  -5  -6   1   12.30    3.80
   5   6  -1   15.20    4.60
  -5   6   1    9.30    4.10
  -5   6   1   12.50    3.60
  -4  -6   1   31.20    5.70
   4  -6  -1   31.30    7.30
  -4  -6   1   32.40    6.40
   4   6  -1   28.50    5.40
   4   6  -1   24.70    5.50
  -4   6   1   32.00    6.30
  -4   6   1   25.70    6.10
  -3  -6   1    2.00    1.20
  -3  -6   1    1.90    1.90
   3  -6  -1   -0.80    1.80
   3   6  -1    3.40    2.20
  -3   6   1    2.00    2.80
   3   6  -1    1.10    1.60
  -3   6   1   -2.50    1.60
  -2  -6   1  203.08   14.20
  -2  -6   1  218.68   15.50
   2  -6  -1  261.97   17.00
   2  -6  -1  219.98   15.70
  -2   6   1  236.18   14.70
   2   6  -1  226.28   15.70
  -2   6   1  206.98   15.60
   2   6  -1  215.48   15.90
   2   6  -1  222.58   13.60
   1  -6  -1   -1.20    1.20
   1  -6  -1    1.20    1.80
  -1  -6   1    0.70    1.70
  -1  -6   1   -0.70    1.80
  -1   6   1    0.10    1.90
   1   6  -1   -0.90    1.50
   1   6  -1   -1.20    1.80
   0  -6  -1    2.20    1.80
   0  -6  -1   -1.00    0.90
   0  -6   1    0.60    1.00
   0  -6   1   -0.60    1.80
   0   6   1   -0.10    1.50
   0   6   1   -0.70    1.10
   0   6  -1    1.40    2.20
   0   6   1    0.10    1.30
   0   6  -1    0.30    1.20
   0   6  -1    0.10    1.50
   1  -6   1   36.00    7.10
  -1  -6  -1   31.80    5.90
   1  -6   1   29.70    5.10
  -1  -6  -1   35.60    6.80
  -1   6  -1   25.40    4.70
   1   6   1   20.80    4.80
  -1   6  -1   32.30    6.30
   1   6   1   32.90    6.30
  -1   6  -1   27.90    6.60
   1   6   1   28.00    5.60
  -2  -6  -1  496.25   25.40
   2  -6   1  485.55   23.40
  -2  -6  -1  451.45   24.80
   2  -6   1  463.35   26.90
  -2   6  -1  443.56   22.90
  -2   6  -1  475.65   26.90
   2   6   1  427.66   24.70
   2   6   1  497.55   26.30
  -2   6  -1  517.75   24.50
   2   6   1  435.76   23.70
   3  -6   1  117.09   11.70
  -3  -6  -1  106.69   10.00
  -3  -6  -1  103.09    9.50
  -3   6  -1   94.69    8.00
  -3   6  -1  115.19    8.50
  -3   6  -1  105.29   10.90
  -3   6  -1  107.89    9.30
   3   6   1  107.79    9.30
   3   6   1   96.99    9.50
  -4  -6  -1  325.07   20.10
  -4  -6  -1  346.87   19.60
   4  -6   1  257.37   20.40
  -4  -6  -1  320.07   19.00
  -4   6  -1  325.87   17.40
  -4   6  -1  334.67   17.20
  -4   6  -1  327.87   19.30
  -4   6  -1  310.47   21.40
   4   6   1  312.87   19.10
   4   6   1  329.57   20.10
  -5  -6  -1  262.27   17.40
  -5  -6  -1  267.97   18.20
   5  -6   1  239.68   19.40
  -5  -6  -1  293.67   17.90
  -5   6  -1  274.57   15.20
  -5   6  -1  247.68   14.40
  -5   6  -1  260.57   17.20
   5   6   1  239.28   17.40
  -6  -6  -1    1.60    2.80
   6  -6   1   -2.70    1.90
  -6  -6  -1    2.60    3.30
  -6  -6  -1    0.00    2.80
  -6   6  -1    4.50    3.40
  -6   6  -1    6.20    2.10
   6   6   1    5.40    3.40
  -6   6  -1   -0.70    2.30
  -7  -6  -1   16.60    4.70
  -7  -6  -1   30.20    7.10
  -7  -6  -1   25.40    6.30
   7  -6   1   19.40    7.20
  -7   6  -1   30.10    5.00
  -7   6  -1   30.80    6.70
  -7   6  -1   18.70    3.60
  -8  -6  -1    2.20    3.30
   8  -6   1    4.20    4.50
  -8  -6  -1   -1.60    2.80
  -8   6  -1    1.30    3.90
  -8   6  -1   -0.60    2.30
   8   6   1   -3.40    2.90
  -9  -6  -1   21.60    7.00
  -9  -6  -1   37.20    7.60
   9  -6   1   15.20    6.90
  -9   6  -1   32.10    7.50
  -9   6  -1   13.30    4.00
   9   6   1   26.40    8.10
  10  -6   1    7.00    8.10
 -10  -6  -1   -3.30    4.40
 -10  -6  -1   13.90    3.50
  10   6   1   -3.40    3.80
 -10   6  -1   -7.10    3.80
  -9  -7   1    9.20    4.90
   9  -7  -1    1.60    6.70
  -9  -7   1    5.20    4.70
  -9   7   1   10.00    4.90
  -9   7   1   11.50    6.50
   9   7  -1    3.40    4.40
  -8  -7   1   32.50    6.90
  -8  -7   1   42.60    9.30
   8  -7  -1   53.49   11.10
  -8   7   1   20.00    4.90
   8   7  -1   35.60    8.70
  -8   7   1   34.00    7.80
  -7  -7   1   92.89   11.30
  -7  -7   1   99.19   10.40
  -7  -7   1   79.29   11.50
   7  -7  -1  117.79   13.30
   7   7  -1   85.19   11.50
  -7   7   1  103.59   11.80
  -7   7   1   92.79    8.90
   6  -7  -1   43.60    9.70
  -6  -7   1   26.80    6.40
  -6  -7   1   36.90    7.80
  -6  -7   1   44.80    7.80
  -6   7   1   39.20    6.60
   6   7  -1   37.10    8.00
   5  -7  -1   77.19   10.90
  -5  -7   1   65.79    8.60
   5   7  -1   69.39    8.30
  -5   7   1   72.69    7.90
  -5   7   1   68.39   10.30
   5   7  -1   65.29    9.20
  -5   7   1   87.19   10.80
   4  -7  -1   31.90    8.00
  -4  -7   1   19.20    5.90
  -4   7   1   21.80    5.60
  -4   7   1   22.50    5.40
  -4   7   1   31.30    6.50
   4   7  -1   15.50    5.20
   4   7  -1   12.70    4.60
  -3  -7   1  207.28   15.30
   3  -7  -1  213.78   17.10
  -3  -7   1  214.08   16.10
   3   7  -1  196.98   13.70
  -3   7   1  203.08   14.20
  -3   7   1  194.98   16.30
  -3   7   1  214.68   15.10
   3   7  -1  184.68   15.40
   2  -7  -1  328.27   20.70
  -2  -7   1  263.17   17.40
  -2  -7   1  251.47   18.40
   2  -7  -1  272.77   17.20
  -2   7   1  259.37   17.20
  -2   7   1  257.67   19.10
   2   7  -1  262.47   16.40
   2   7  -1  279.47   19.20
   1  -7  -1    9.50    4.30
   1  -7  -1   10.90    3.90
  -1  -7   1    5.00    3.60
  -1  -7   1    6.80    3.10
   1   7  -1    8.50    4.20
   1   7  -1    9.00    3.70
  -1   7   1   12.40    5.00
   1   7  -1    7.60    2.90
  -1   7   1    6.70    2.90
   0  -7  -1  163.48   13.00
   0  -7   1  220.98   14.10
   0  -7   1  194.48   15.40
   0   7   1  201.78   20.60
   0   7  -1  191.98   15.60
   0   7  -1  189.48   13.00
   0   7   1  177.98   13.20
  -1  -7  -1  295.07   18.70
   1  -7   1  292.27   17.40
  -1  -7  -1  243.18   17.90
   1  -7   1  311.27   20.70
   1   7   1  326.87   18.40
   1   7   1  288.27   19.70
  -1   7  -1  293.37   17.60
  -1   7  -1  264.17   19.90
   1   7   1  306.87   19.70
  -2  -7  -1    1.10    2.30
   2  -7   1   -0.90    1.40
  -2  -7  -1   -0.70    2.40
   2  -7   1   -0.30    2.70
  -2   7  -1    2.10    3.00
   2   7   1   -0.80    1.80
   2   7   1    0.10    2.20
   2   7   1    1.70    2.50
  -2   7  -1   -0.50    2.20
  -3  -7  -1  145.69   12.50
  -3  -7  -1  147.79   12.70
   3  -7   1  127.39   13.30
   3   7   1  159.28   12.30
  -3   7  -1  139.19   10.60
  -3   7  -1  175.18   12.70
  -3   7  -1  159.18   14.50
   3   7   1  141.59   12.80
  -4  -7  -1   11.90    4.70
  -4  -7  -1   17.30    6.10
   4  -7   1    9.30    3.90
  -4   7  -1   14.30    4.30
   4   7   1   14.80    4.90
   4   7   1   18.90    5.20
  -4   7  -1   20.30    5.20
   5  -7   1   78.99   13.60
  -5  -7  -1   62.39    8.60
  -5  -7  -1   70.99    8.60
  -5   7  -1   70.29    8.70
   5   7   1   65.59    9.20
   5   7   1   66.29    8.60
  -6  -7  -1   42.20    8.10
  -6  -7  -1   38.00    7.90
   6  -7   1   34.10    8.60
  -6  -7  -1   22.30    6.10
  -6   7  -1   44.70    8.60
   6   7   1   36.80    7.70
  -7  -7  -1   10.20    5.40
   7  -7   1   15.90    6.90
  -7  -7  -1   14.10    4.90
  -7   7  -1   14.90    6.00
   7   7   1   12.50    5.80
  -8  -7  -1   61.89   10.80
   8  -7   1   69.69   14.90
  -8  -7  -1   78.59   11.90
   8   7   1   64.49    9.80
  -8   7  -1   51.19    9.60
  -9  -7  -1   -0.10    4.30
   9  -7   1    2.70    7.40
  -9  -7  -1   -2.50    3.20
  -9   7  -1   -0.60    4.20
   9   7   1    5.10    4.70
   8  -8  -1    1.20    7.60
  -8  -8   1   -8.40    3.70
   8   8  -1   -6.60    3.70
   8   8  -1   -0.50    2.70
  -8   8   1   -7.00    4.80
  -8   8   1    5.20    4.20
   7  -8  -1    9.60    7.30
  -7  -8   1   16.50    6.10
  -7   8   1   10.90    5.90
   7   8  -1    8.30    4.60
   7   8  -1    7.60    5.20
  -7   8   1   20.30    5.50
   6  -8  -1    2.00    4.20
  -6  -8   1   -1.40    2.60
  -6   8   1    3.30    3.30
   6   8  -1    3.30    3.90
   6   8  -1   -2.40    3.10
  -5  -8   1   67.09   10.00
   5  -8  -1   80.09   11.70
  -5  -8   1   67.29   10.80
   5   8  -1   53.29   13.50
  -5   8   1   65.49    8.50
  -5   8   1   74.09    9.60
   5   8  -1   86.99   17.80
  -4  -8   1   81.19   10.20
   4  -8  -1   85.89   11.60
   4   8  -1   91.89   11.30
   4   8  -1  102.19   10.40
  -4   8   1   88.49   11.80
  -4   8   1  118.69   12.10
  -4   8   1   92.09   10.00
  -3  -8   1   28.80    6.70
  -3  -8   1   13.80    4.80
   3  -8  -1   23.10    6.70
   3   8  -1   25.30    5.80
  -3   8   1   26.30    6.00
   3   8  -1   16.30    5.60
  -3   8   1   28.20    6.60
  -3   8   1   32.40    7.80
  -2  -8   1  176.58   14.30
   2  -8  -1  184.38   14.10
  -2  -8   1  186.28   16.10
   2  -8  -1  161.58   15.50
   2   8  -1  172.08   15.50
  -2   8   1  164.18   15.60
  -2   8   1  166.48   13.90
   2   8  -1  175.68   13.50
   1  -8  -1  166.08   13.40
  -1  -8   1  150.78   12.70
  -1  -8   1  139.99   13.70
   1  -8  -1  144.09   14.00
   1   8  -1  173.38   15.40
  -1   8   1  148.79   12.80
   1   8  -1  160.08   14.80
  -1   8   1  144.29   14.10
   1   8  -1  142.49   11.90
   0  -8   1   81.99   10.80
   0  -8   1   98.89    9.60
   0  -8  -1  103.59   10.30
   0   8  -1  100.79    9.60
   0   8   1   77.39   10.20
   0   8  -1   86.39   11.00
   0   8   1   91.99    9.70
   1  -8   1   83.39    8.70
  -1  -8  -1   95.49   10.00
   1  -8   1   71.49   10.40
  -1  -8  -1   71.89    9.40
   1   8   1   63.99   16.30
  -1   8  -1   77.49   10.60
   1   8   1   75.39    8.90
  -1   8  -1   83.79    8.90
   1   8   1   79.69   10.10
   2  -8   1   44.80    7.50
  -2  -8  -1   43.10    8.40
  -2  -8  -1   30.20    6.90
   2  -8   1   47.70    9.10
   2   8   1   34.00    6.80
  -2   8  -1   50.59   10.10
  -2   8  -1   40.40    7.40
   2   8   1   34.80    7.30
   3  -8   1   64.89   11.60
  -3  -8  -1   76.19   13.10
  -3  -8  -1   69.29   13.80
  -3   8  -1   86.79    8.50
  -3   8  -1   71.59    8.80
   3   8   1   71.39    9.80
   3   8   1   72.69    8.80
  -4  -8  -1    6.50    4.20
  -4  -8  -1    8.10    4.60
   4  -8   1   13.70    4.70
  -4   8  -1    8.20    3.10
   4   8   1    8.10    4.30
  -4   8  -1   16.40    5.20
   4   8   1    7.10    4.20
  -5  -8  -1   19.00    6.30
   5  -8   1   22.30    7.30
   5   8   1   24.20    6.20
  -5   8  -1   29.90    5.10
  -5   8  -1   32.60    7.10
   5   8   1   28.30    7.20
   6  -8   1   11.60    5.70
  -6  -8  -1   19.30    6.40
  -6   8  -1   20.70    4.50
   6   8   1   21.20    6.70
   6   8   1   10.80    5.10
  -6   8  -1   19.00    6.10
   7  -8   1   -4.70    5.50
  -7  -8  -1    3.60    3.40
  -7  -8  -1   11.80    5.50
   7   8   1    3.30    4.70
  -7   8  -1    4.10    4.70
  -7   8  -1    4.70    3.50
   7   8   1    0.00    3.40
  -8  -8  -1   71.19   14.50
  -8  -8  -1   80.99   12.90
  -8   8  -1  101.89   12.40
   8   8   1   89.29   13.10
   8   8   1   99.29   12.00
  -7  -9   1   18.40    6.90
  -7   9   1   43.10    9.90
   7   9  -1   19.20    6.30
  -7   9   1   41.70    9.40
   7   9  -1   15.00    6.40
  -6  -9   1    2.40    4.80
  -6   9   1    9.30    4.30
   6   9  -1   14.30    5.70
   6   9  -1    9.50    5.60
  -6   9   1   -1.60    4.70
  -5  -9   1  116.19   12.80
   5   9  -1   90.09   10.80
  -5   9   1  115.19   12.50
  -5   9   1  115.39   11.70
   5   9  -1   76.49   11.60
   4  -9  -1    1.20    4.90
  -4  -9   1    8.60    4.10
   4   9  -1    3.30    3.60
  -4   9   1    2.60    3.60
   4   9  -1    6.30    4.50
  -4   9   1    4.80    3.50
  -3  -9   1  304.67   21.30
   3  -9  -1  264.77   23.20
   3   9  -1  310.77   20.20
   3   9  -1  319.77   23.50
  -3   9   1  289.87   20.10
  -3   9   1  316.47   21.40
   2  -9  -1  105.79   13.50
  -2  -9   1  100.49   11.00
   2  -9  -1  122.49   12.10
  -2  -9   1   79.49   12.20
  -2   9   1   95.49   10.70
   2   9  -1   60.09   12.10
  -2   9   1  101.89   11.10
  -1  -9   1  203.28   18.50
  -1  -9   1  200.08   17.80
   1   9  -1  254.17   16.90
  -1   9   1  201.38   20.60
   1   9  -1  157.28   22.30
  -1   9   1  225.88   16.80
   0  -9   1  421.96   25.00
   0  -9   1  408.96   28.10
   0  -9  -1  431.56   25.90
   0   9   1  389.56   24.60
   0   9  -1  408.36   24.40
   0   9   1  393.66   28.00
  -1  -9  -1    1.30    5.30
   1  -9   1   12.40    4.30
   1  -9   1   10.90    5.90
  -1  -9  -1    5.60    4.00
   1   9   1    5.80    3.80
  -1   9  -1   12.00    4.70
   1   9   1    0.50    3.70
   2  -9   1  293.07   20.00
   2  -9   1  348.57   25.60
  -2  -9  -1  297.27   21.60
   2   9   1  342.17   21.70
   2   9   1  310.97   23.00
  -2   9  -1  326.07   29.80
  -3  -9  -1  201.38   17.20
   3  -9   1  186.28   18.50
  -3   9  -1  197.38   15.10
  -3   9  -1  208.38   16.60
   3   9   1  223.18   18.40
   3   9   1  207.68   16.30
   4  -9   1  104.69   14.00
  -4  -9  -1  103.29   11.90
  -4   9  -1  113.49   12.20
  -4   9  -1   73.59    9.70
   4   9   1   92.79   11.00
   4   9   1  106.49   12.70
   5  -9   1  164.18   28.90
  -5  -9  -1  129.49   13.80
  -5   9  -1  123.79   11.70
  -5   9  -1  144.29   13.80
   5   9   1  129.69   14.10
   5   9   1  147.39   13.50
  -6  -9  -1   -2.60    3.80
   6  -9   1    2.20    7.60
  -6   9  -1   -9.60    4.40
   6   9   1    0.70    3.60
   6   9   1    1.20    4.00
  -6   9  -1   10.60    4.10
  -5 -10   1  133.09   14.60
  -5  10   1  137.49   14.70
   5  10  -1  153.48   13.60
   5  10  -1  116.39   15.10
  -4 -10   1  270.17   21.10
  -4  10   1  290.97   21.20
   4  10  -1  253.07   22.00
  -4  10   1  192.68   18.00
   4  10  -1  291.97   19.70
  -3 -10   1    2.60    3.90
   3  10  -1    0.90    3.90
  -3  10   1    3.20    4.50
   3  10  -1    8.20    4.70
  -3  10   1    8.10    4.90
  -2 -10   1  584.54   34.70
   2  10  -1  642.04   34.20
  -2  10   1  621.74   35.10
  -1 -10   1  111.29   12.20
   1 -10  -1  135.69   13.50
  -1  10   1  137.09   13.70
   1  10  -1  118.89   12.10
   0 -10   1   35.60    7.70
   0 -10  -1   52.09   10.00
   0  10  -1   60.39   10.00
   0  10   1   63.89   10.80
  -1 -10  -1  410.76   27.40
   1 -10   1  428.76   26.50
   1  10   1  458.15   27.60
  -2 -10  -1   34.90    7.60
   2 -10   1   46.50    8.30
  -2  10  -1   34.40    7.80
   2  10   1   32.80    8.00
  -2  10  -1   42.50    8.60
  -3 -10  -1  225.68   19.40
   3  10   1  214.28   19.80
  -3  10  -1  240.28   18.00
  -3  10  -1  243.98   17.90
   3  10   1  230.98   18.20
  -4 -10  -1   62.09   13.60
  -4  10  -1   69.59   10.90
   4  10   1   68.39   12.30
   4  10   1   59.49   10.90
  13   0  -2  136.49   19.30
 -13   0   2  124.89   14.30
 -13   0   2  145.19   14.70
 -12   0   2  451.05   27.50
  12   0  -2  457.25   33.20
 -12   0   2  451.35   29.40
  11   0  -2   80.79   12.40
 -11   0   2   96.89   10.90
 -11   0   2   91.09   10.20
 -10   0   2  377.26   24.20
  10   0  -2  387.96   27.20
 -10   0   2  393.46   23.20
   9   0  -2  236.58   19.20
  -9   0   2  242.88   17.30
  -9   0   2  251.27   16.60
   8   0  -2  279.67   20.30
  -8   0   2  302.57   18.50
  -8   0   2  285.97   17.60
   7   0  -2   22.90    5.90
  -7   0   2   20.50    4.70
   7   0  -2   14.80    3.90
  -7   0   2   14.90    4.10
  -7   0   2   26.40    5.60
   6   0  -2  497.45   25.90
  -6   0   2  481.95   23.50
  -6   0   2  490.65   23.40
   6   0  -2  447.36   22.70
   6   0  -2  448.16   22.80
  -6   0   2  417.76   24.30
   5   0  -2 2281.57   92.79
  -5   0   2 2450.55   93.39
   5   0  -2 2312.37   92.79
  -5   0   2 2390.86   93.29
   5   0  -2 2301.97   95.29
  -5   0   2 2331.97   95.09
  -4   0   2 1497.45   62.79
  -4   0   2 1606.54   63.49
   4   0  -2 1664.83   65.39
   4   0  -2 1556.64   63.19
  -4   0   2 1565.14   64.79
   4   0  -2 1564.44   62.89
  -3   0   2  348.67   16.40
   3   0  -2  341.37   15.80
  -3   0   2  361.56   17.40
   3   0  -2  347.17   16.30
  -3   0   2  354.16   16.10
   3   0  -2  366.36   17.60
   2   0  -2 2075.99   83.09
  -2   0   2 2202.48   83.29
  -1   0   2  154.98    7.60
   1   0  -2  163.08    7.60
   1   0  -2  133.59    6.70
  -1   0   2  170.78    7.70
  -1   0   2  177.48    7.00
  -1   0  -2 2450.15   95.69
   1   0   2 2455.65   95.59
   2   0   2  726.83   28.30
  -2   0  -2  687.63   28.20
  -2   0  -2  715.63   29.10
  -2   0  -2  773.82   29.60
   2   0   2  654.63   29.20
   2   0   2  724.83   29.40
  -3   0  -2  754.62   32.00
  -3   0  -2  772.42   30.90
   3   0   2  723.53   32.00
   3   0   2  759.22   32.60
   3   0   2  779.42   31.00
  -3   0  -2  770.52   32.30
  -4   0  -2  995.90   47.30
  -4   0  -2 1250.07   48.50
   4   0   2 1164.08   46.40
   4   0   2 1109.99   48.70
  -4   0  -2 1198.78   46.30
   4   0   2 1192.48   48.00
  -5   0  -2  186.38   12.20
  -5   0  -2  201.78   11.00
   5   0   2  189.38   13.10
   5   0   2  188.48   11.00
  -5   0  -2  223.58   13.00
   5   0   2  233.08   13.10
  -6   0  -2 1327.97   56.59
   6   0   2 1289.37   65.59
  -6   0  -2 1320.97   53.89
   6   0   2 1304.47   54.09
   7   0   2  151.88   10.50
   7   0   2  149.88   12.90
  -7   0  -2  154.48   10.10
  -7   0  -2  151.98   12.00
   8   0   2  142.59   13.40
   8   0   2  128.09   10.10
  -8   0  -2  145.19   10.20
  -8   0  -2  124.89   11.70
  -9   0  -2  935.61   41.20
   9   0   2  852.11   46.60
  -9   0  -2  914.11   44.90
 -10   0  -2  315.67   22.50
 -10   0  -2  341.57   19.40
  11   0   2   62.49   12.20
 -11   0  -2   77.29   12.60
 -11   0  -2   65.59    8.40
  12   0   2  120.89   16.80
 -12   0  -2  165.58   13.50
 -13  -1   2    9.70    5.30
 -13  -1   2   12.50    4.80
  13  -1  -2    7.50    7.60
 -13   1   2   -5.10    5.30
 -13   1   2    4.80    6.10
  13   1  -2   15.10    6.70
 -12  -1   2   72.49    8.40
  12  -1  -2   50.29   14.30
 -12  -1   2   73.29    9.90
  12   1  -2   51.59   11.90
 -12   1   2   64.99   11.30
 -11  -1   2   -2.30    3.30
  11  -1  -2   -4.30    3.50
 -11  -1   2    3.20    4.00
 -11   1   2    2.40    2.90
 -11   1   2    0.00    3.10
  11   1  -2    3.30    5.00
  10  -1  -2  226.38   19.70
 -10  -1   2  236.88   17.60
 -10  -1   2  211.38   16.30
  10   1  -2  217.78   19.60
 -10   1   2  239.68   16.30
 -10   1   2  223.38   17.60
  -9  -1   2   21.90    5.80
   9  -1  -2   20.70    6.10
  -9  -1   2   20.30    5.60
  -9   1   2   17.40    5.70
   9   1  -2   14.90    5.70
  -9   1   2   31.30    6.10
   8  -1  -2  562.04   31.60
  -8  -1   2  533.95   28.20
  -8  -1   2  537.85   27.80
  -8   1   2  520.35   27.10
   8   1  -2  568.04   33.10
  -8   1   2  489.95   27.90
  -7  -1   2  621.64   30.10
   7  -1  -2  626.44   32.90
  -7  -1   2  566.84   31.30
   7  -1  -2  566.04   28.80
  -7   1   2  632.94   30.40
  -7   1   2  631.44   29.60
  -7   1   2  593.24   31.70
   7   1  -2  626.14   32.60
  -6  -1   2  316.47   17.00
   6  -1  -2  278.07   16.30
  -6  -1   2  277.47   18.80
  -6  -1   2  305.77   17.00
   6  -1  -2  307.37   18.90
  -6   1   2  289.07   16.70
  -6   1   2  293.57   16.40
  -6   1   2  307.97   18.50
   6   1  -2  290.47   16.40
   6   1  -2  310.17   18.80
   6   1  -2  300.47   16.90
   5  -1  -2 2699.83  106.79
  -5  -1   2 2702.63  107.29
   5  -1  -2 2745.03  106.69
  -5  -1   2 2710.33  108.89
  -5  -1   2 2718.23  106.89
   5  -1  -2 2952.10  110.09
  -5   1   2 2778.22  107.39
   5   1  -2 2594.54  106.99
   5   1  -2 2777.52  109.39
  -5   1   2 2820.72  106.99
  -5   1   2 2719.23  109.09
   5   1  -2 2342.87  106.09
  -4  -1   2 3341.97  137.29
   4  -1  -2 3426.86  135.59
   4  -1  -2 3621.04  135.79
   4  -1  -2 3643.44  138.19
   4   1  -2 3551.74  135.49
   4   1  -2 3521.75  136.19
   4   1  -2 3483.45  137.69
  -4   1   2 3514.45  137.59
  -3  -1   2 7952.60  309.37
   3  -1  -2 7694.53  308.67
  -3   1   2 8052.39  309.37
   3   1  -2 7977.10  308.97
  -2  -1   2 1821.32   78.59
   2  -1  -2 1887.61   78.59
   2  -1  -2 2033.90   78.19
   2   1  -2 2054.59   77.19
  -2   1   2 2076.29   78.89
   2   1  -2 2174.08   79.09
   2   1  -2 2052.79   78.29
   1  -1   2 1451.25   55.29
   1  -1   2 1457.85   56.49
  -1  -1  -2 1457.75   54.19
  -1  -1  -2 1322.97   54.09
   1   1   2 1449.35   55.99
  -1   1  -2 1481.65   56.39
   1   1   2 1441.66   54.79
  -1   1  -2 1421.26   55.29
  -2  -1  -2   13.20    2.30
  -2  -1  -2   15.10    1.80
  -2  -1  -2   13.20    2.50
   2  -1   2   14.70    2.90
   2  -1   2   12.40    2.10
   2  -1   2   12.20    1.00
  -2   1  -2   14.00    2.60
   2   1   2   11.80    2.20
  -2   1  -2   11.60    1.00
   2   1   2   13.70    2.50
   2   1   2   13.00    2.10
  -2   1  -2   15.50    2.40
   3  -1   2  444.76   21.10
  -3  -1  -2  437.16   19.50
   3  -1   2  488.65   18.20
  -3  -1  -2  407.06   20.10
  -3  -1  -2  434.56   19.60
   3  -1   2  421.36   19.90
   3   1   2  409.16   20.20
  -3   1  -2  443.86   20.60
   3   1   2  465.25   20.30
  -3   1  -2  427.96   20.10
  -3   1  -2  438.26   18.00
   3   1   2  441.66   19.70
  -4  -1  -2  536.45   24.30
   4  -1   2  544.05   26.10
   4  -1   2  506.25   24.40
  -4  -1  -2  553.64   25.10
   4  -1   2  547.55   22.60
  -4  -1  -2  524.75   23.90
  -4   1  -2  547.25   22.60
  -4   1  -2  537.25   24.90
  -4   1  -2  528.75   25.40
   4   1   2  524.45   24.90
   4   1   2  545.35   24.20
   4   1   2  537.55   25.20
  -5  -1  -2 1198.18   51.99
   5  -1   2 1212.28   49.20
  -5  -1  -2 1259.47   50.89
   5  -1   2 1286.57   54.09
   5  -1   2 1250.97   51.89
  -5  -1  -2 1290.57   51.89
   5   1   2 1220.88   50.89
  -5   1  -2 1208.78   52.59
   5   1   2 1142.89   52.39
   5   1   2 1166.38   51.89
  -5   1  -2 1226.48   49.20
  -5   1  -2 1246.38   52.19
  -6  -1  -2   91.29    8.40
   6  -1   2   91.19    9.40
   6  -1   2   89.29    6.80
  -6  -1  -2   94.59    7.70
   6   1   2  104.99    9.40
  -6   1  -2   91.09    8.50
  -6   1  -2  102.09    6.90
   6   1   2   96.69    9.30
   7  -1   2  252.97   18.20
  -7  -1  -2  248.08   15.00
   7  -1   2  248.58   13.90
  -7  -1  -2  272.07   16.90
  -7   1  -2  256.97   13.90
   7   1   2  252.97   17.60
  -7   1  -2  256.57   16.60
   7   1   2  241.98   15.30
   8  -1   2  181.08   16.20
   8  -1   2  212.08   12.80
  -8  -1  -2  202.68   15.30
  -8  -1  -2  200.78   13.50
   8   1   2  203.88   16.60
  -8   1  -2  213.28   12.60
  -8   1  -2  209.98   15.60
  -9  -1  -2  194.88   13.40
  -9  -1  -2  191.98   15.60
   9  -1   2  193.28   17.50
  -9   1  -2  208.28   12.50
  -9   1  -2  184.98   15.70
   9   1   2  184.58   17.20
  10  -1   2  647.74   46.20
 -10  -1  -2  580.54   31.10
 -10  -1  -2  612.84   34.50
  10   1   2  618.14   37.10
 -10   1  -2  650.53   30.20
 -10   1  -2  583.14   34.20
 -11  -1  -2   27.20    7.80
 -11  -1  -2   28.90    6.40
  11  -1   2   28.10    9.10
 -11   1  -2   39.30    8.90
  11   1   2   20.40    6.50
 -11   1  -2   26.10    4.60
 -12  -1  -2    1.30    5.50
 -12  -1  -2    2.60    4.70
  12  -1   2   -6.10    4.70
  12   1   2    1.80    4.50
 -12   1  -2   -7.20    4.50
  12  -2  -2   50.29   18.20
 -12  -2   2   45.00   10.10
 -12  -2   2   49.80    9.70
  12   2  -2   48.10   11.40
 -12   2   2   39.50    9.30
 -12   2   2   45.20    7.40
 -11  -2   2    8.10    5.30
 -11  -2   2    6.50    4.20
  11  -2  -2    3.50    5.10
 -11   2   2    6.10    3.90
 -11   2   2    2.10    3.20
  11   2  -2    5.20    4.70
  10  -2  -2   38.50   10.20
 -10  -2   2   41.30    8.60
 -10  -2   2   28.50    6.80
 -10   2   2   32.40    5.90
  10   2  -2   32.70    9.10
 -10   2   2   36.40    8.40
  -9  -2   2   32.70    7.00
  -9  -2   2   32.90    7.00
   9  -2  -2   32.30    7.60
  -9   2   2   28.30    6.60
  -9   2   2   38.30    6.70
   9   2  -2   34.10    7.90
   8  -2  -2   31.40    7.60
  -8  -2   2   35.30    6.80
  -8  -2   2   28.60    6.20
   8   2  -2   28.00    7.00
  -8   2   2   39.60    7.10
  -8   2   2   37.30    6.30
   7  -2  -2  377.86   23.50
  -7  -2   2  368.16   21.00
  -7  -2   2  369.96   20.50
   7  -2  -2  381.46   19.90
  -7   2   2  376.56   20.00
  -7   2   2  358.16   21.00
  -7   2   2  372.86   22.70
   7   2  -2  354.06   22.50
  -6  -2   2    8.80    2.80
   6  -2  -2    9.40    3.80
  -6  -2   2    6.20    2.50
  -6  -2   2    5.60    2.40
   6   2  -2    8.80    3.00
  -6   2   2    7.50    2.90
   6   2  -2    8.20    3.30
  -6   2   2   10.30    3.50
  -5  -2   2  138.69   10.20
  -5  -2   2  140.29    9.60
   5  -2  -2  150.78   11.70
   5  -2  -2  156.38   10.10
   5  -2  -2  188.68   10.40
  -5  -2   2  144.79   11.10
   5   2  -2  154.48   10.70
  -5   2   2  131.69   10.90
   5   2  -2  143.29    9.70
  -5   2   2  152.28   10.40
   5   2  -2  152.98   11.30
  -5   2   2  146.29    9.70
   4  -2  -2 1066.69   44.60
   4  -2  -2 1002.10   44.10
  -4  -2   2 1100.09   44.30
  -4  -2   2 1033.40   46.20
  -4  -2   2 1090.19   45.40
  -4   2   2 1066.59   46.50
   4   2  -2 1073.39   45.40
   4   2  -2 1064.49   44.30
   4   2  -2 1097.49   46.40
  -4   2   2 1080.69   44.70
  -4   2   2 1088.29   45.00
   3  -2  -2  282.17   16.00
   3  -2  -2  313.37   14.90
   3  -2  -2  319.97   15.10
  -3  -2   2  327.27   14.60
  -3  -2   2  293.57   16.00
  -3  -2   2  313.57   15.60
  -3   2   2  323.87   15.30
   3   2  -2  297.67   16.00
   3   2  -2  301.27   14.50
   3   2  -2  307.17   15.50
  -3   2   2  307.47   15.10
  -3   2   2  267.37   15.60
  -2  -2   2  966.40   37.60
  -2  -2   2  859.81   35.10
   2  -2  -2  860.11   36.00
  -2  -2   2  936.61   36.70
  -2   2   2  891.01   36.30
  -2   2   2  909.41   37.20
   2   2  -2  885.11   35.30
  -2   2   2  865.61   36.20
   2   2  -2  877.81   36.50
   2   2  -2  760.12   36.70
  -2   2   2  878.51   36.40
   1  -2  -2  203.28   10.30
   1  -2  -2  212.08   10.70
   1  -2  -2  188.28   10.30
  -1  -2   2  221.08   10.40
  -1  -2   2  216.58    9.40
  -1  -2   2  211.58   11.40
   1  -2  -2  222.98   10.40
  -1  -2   2  217.48   11.30
   1   2  -2  225.58   11.30
  -1   2   2  222.58   10.60
   1   2  -2  201.68    9.30
  -1   2   2  172.28   10.20
   1   2  -2  223.88   10.50
  -1   2   2  212.58   10.60
   1   2  -2  212.18    9.40
   0  -2  -2 1375.66   58.29
   0  -2  -2 1496.95   59.59
   0  -2  -2 1499.65   58.69
   0  -2   2 1505.15   60.09
   0  -2   2 1565.94   58.49
   0  -2   2 1500.95   57.99
   0   2   2 1524.45   59.39
   0   2   2 1686.93   59.19
   0   2  -2 1469.75   58.39
   0   2  -2 1586.54   58.19
   0   2   2 1486.95   59.49
   0   2  -2 1464.65   60.29
   0   2  -2 1480.75   60.09
   1  -2   2 1249.47   49.50
  -1  -2  -2 1104.79   47.20
  -1  -2  -2 1214.98   48.80
   1  -2   2 1212.18   46.70
   1  -2   2 1223.48   49.80
   1  -2   2 1191.08   47.60
  -1  -2  -2 1330.87   47.60
  -1  -2  -2 1255.37   48.70
   1   2   2 1223.28   48.80
   1   2   2 1203.18   47.70
   1   2   2 1186.18   47.80
  -1   2  -2 1249.77   47.90
   1   2   2 1226.58   48.60
  -1   2  -2 1189.08   49.40
  -1   2  -2 1186.68   46.70
  -2  -2  -2    0.90    1.10
  -2  -2  -2    0.90    1.30
   2  -2   2    0.30    1.30
   2  -2   2   -0.10    0.90
  -2  -2  -2    0.90    0.80
  -2  -2  -2    1.00    0.90
  -2   2  -2    1.20    0.60
   2   2   2    0.10    0.90
   2   2   2   -0.20    1.10
  -2   2  -2    1.10    0.50
  -2   2  -2   -0.30    1.20
   2   2   2    1.80    1.50
  -2   2  -2    1.20    1.20
  -3  -2  -2    4.20    1.60
  -3  -2  -2    4.20    1.80
  -3  -2  -2    3.90    1.80
   3  -2   2    3.60    1.60
   3  -2   2    7.10    2.90
  -3   2  -2    2.20    1.60
   3   2   2    6.50    2.40
   3   2   2    4.60    2.00
  -3   2  -2    5.60    2.00
  -3   2  -2    2.60    1.00
   3   2   2    3.80    1.50
  -3   2  -2    4.70    1.00
  -4  -2  -2   39.80    4.40
  -4  -2  -2   37.50    4.70
  -4  -2  -2   44.90    4.70
   4  -2   2   41.30    4.60
   4  -2   2   40.30    3.10
   4  -2   2   45.10    5.60
  -4   2  -2   40.00    4.60
   4   2   2   35.10    4.60
   4   2   2   37.60    4.40
  -4   2  -2   37.00    3.10
   4   2   2   43.40    4.80
  -4   2  -2   39.70    5.00
   5  -2   2  119.79    8.90
  -5  -2  -2  119.19    8.80
   5  -2   2  112.39   10.20
  -5  -2  -2  122.59    9.40
   5  -2   2  146.99    7.50
  -5   2  -2  116.69    9.10
   5   2   2  114.39    9.30
   5   2   2  116.69    8.90
  -5   2  -2  125.09   10.00
  -5   2  -2  118.39    7.00
  -6  -2  -2  562.54   28.40
  -6  -2  -2  582.94   27.70
   6  -2   2  553.54   24.80
   6  -2   2  546.75   30.30
   6   2   2  542.55   27.60
  -6   2  -2  565.14   24.80
   6   2   2  594.14   29.40
  -6   2  -2  612.84   28.90
   7  -2   2   28.30    7.40
   7  -2   2   18.40    3.40
  -7  -2  -2   19.30    5.10
  -7  -2  -2   19.60    4.30
   7   2   2   13.00    4.10
  -7   2  -2   17.10    3.40
  -7   2  -2   21.70    5.10
  -8  -2  -2   12.50    4.80
   8  -2   2    9.00    2.70
   8  -2   2    2.30    3.60
  -8  -2  -2   12.50    3.60
  -8   2  -2    8.50    4.10
  -8   2  -2    4.90    2.30
   8   2   2   13.10    5.30
   9  -2   2  175.38   12.20
  -9  -2  -2  197.38   18.70
  -9  -2  -2  210.58   15.00
   9  -2   2  221.68   19.20
   9   2   2  201.98   17.60
  -9   2  -2  208.08   16.40
  -9   2  -2  202.28   12.10
 -10  -2  -2   97.29    9.80
  10  -2   2   67.09   13.90
 -10  -2  -2  102.79   11.60
 -10   2  -2   91.39   11.20
  10   2   2   87.59   12.70
 -11  -2  -2   30.80    8.50
 -11  -2  -2   30.20    8.20
  11  -2   2   30.10    9.60
  11   2   2   20.90    7.50
 -11   2  -2   25.70    7.50
 -11   2  -2   45.20    5.60
 -12  -2  -2   24.40    7.70
 -12  -2  -2   21.30    7.00
  12  -2   2   23.00    8.70
 -12   2  -2   27.50    8.30
  12   2   2   52.19   14.30
 -12  -3   2   35.10    8.20
  12  -3  -2   30.20   12.30
 -12  -3   2   38.50    8.90
 -12   3   2   24.70    7.20
  12   3  -2   51.19   11.90
 -12   3   2   27.30    8.30
 -11  -3   2   24.20    7.10
 -11  -3   2   25.00    6.80
  11  -3  -2   13.60    8.70
  11   3  -2   16.60    7.00
 -11   3   2   17.10    5.20
 -11   3   2   21.20    7.00
 -10  -3   2    3.30    2.80
  10  -3  -2   -2.20    3.50
  10   3  -2    2.60    4.20
 -10   3   2    4.20    3.20
 -10   3   2    4.20    3.30
   9  -3  -2   -4.30    2.50
  -9  -3   2    1.90    3.50
  -9  -3   2    5.70    4.50
  -9   3   2    0.00    2.00
   9   3  -2   -0.90    2.60
  -9   3   2   -0.70    2.40
  -8  -3   2   26.00    5.90
   8  -3  -2   13.30    5.00
  -8  -3   2   26.40    5.90
  -8   3   2   25.40    6.10
   8   3  -2   23.20    6.20
  -8   3   2   22.50    5.00
   7  -3  -2   16.60    5.10
  -7  -3   2   14.40    4.50
  -7  -3   2   23.00    4.90
   7  -3  -2   22.60    4.50
   7   3  -2   17.40    4.90
  -7   3   2   16.30    4.60
  -7   3   2   12.70    4.40
  -7   3   2   19.20    4.50
   6  -3  -2   55.89    5.80
   6  -3  -2   54.89    8.10
  -6  -3   2   52.99    6.30
  -6   3   2   59.89    6.10
   6   3  -2   54.39    7.20
  -6   3   2   56.49    6.70
  -6   3   2   57.59    7.40
  -5  -3   2    3.80    2.50
   5  -3  -2   -0.30    1.60
  -5  -3   2    1.20    1.60
   5  -3  -2   -0.80    1.30
  -5  -3   2    1.10    1.60
   5  -3  -2    1.00    1.60
   5   3  -2    0.30    1.20
  -5   3   2    0.90    1.40
  -5   3   2    0.70    0.90
  -5   3   2   -0.40    1.60
   5   3  -2   -1.40    1.30
   5   3  -2   -1.40    1.70
  -4  -3   2  122.69    9.20
  -4  -3   2  138.69    8.70
   4  -3  -2  124.29    8.90
  -4  -3   2  142.29   10.60
   4  -3  -2  144.09   11.60
  -4   3   2  133.79    8.80
  -4   3   2  140.89    9.20
  -4   3   2  132.39    9.40
   4   3  -2  133.99    9.60
  -4   3   2  147.99   10.90
   4   3  -2  120.59    9.90
   4   3  -2  128.59    8.80
  -3  -3   2    8.00    2.70
  -3  -3   2   13.00    2.60
  -3  -3   2    8.00    2.70
   3  -3  -2    9.20    2.70
   3  -3  -2    7.70    2.80
  -3  -3   2   11.50    3.10
  -3   3   2    7.90    2.50
  -3   3   2   12.80    3.00
  -3   3   2    8.60    2.60
   3   3  -2   13.50    3.20
   3   3  -2   10.00    2.30
  -3   3   2   12.10    3.30
   3   3  -2    9.40    3.10
  -2  -3   2  561.24   24.10
  -2  -3   2  530.05   26.20
  -2  -3   2  575.14   26.70
   2  -3  -2  557.14   25.00
  -2  -3   2  585.74   25.50
  -2   3   2  567.64   25.30
  -2   3   2  571.44   25.10
   2   3  -2  587.84   25.60
  -2   3   2  554.84   25.30
   2   3  -2  578.24   26.40
  -2   3   2  572.74   26.30
   2   3  -2  549.35   24.20
   1  -3  -2    2.20    1.20
  -1  -3   2    3.60    1.70
   1  -3  -2    0.30    1.20
   1  -3  -2    1.30    1.40
  -1  -3   2    3.00    1.90
  -1  -3   2    1.30    1.60
   1  -3  -2    2.30    1.60
  -1   3   2    0.90    1.40
   1   3  -2    0.70    1.00
  -1   3   2    4.10    1.80
   1   3  -2    1.90    1.80
   1   3  -2    1.50    1.10
  -1   3   2    1.60    1.30
   1   3  -2    2.50    1.80
   1   3  -2    1.90    1.30
   0  -3   2  655.43   26.70
   0  -3   2  600.14   28.70
   0  -3  -2  635.44   28.20
   0  -3   2  654.23   27.10
   0  -3   2  655.73   29.40
   0  -3  -2  662.93   27.80
   0  -3  -2  610.84   27.20
   0   3  -2  643.64   27.10
   0   3  -2  657.13   29.20
   0   3  -2  671.03   29.50
   0   3   2  676.13   28.10
   0   3   2  671.53   28.10
   0   3   2  609.64   27.60
   0   3  -2  599.44   26.60
   0   3   2  691.73   28.10
   0   3   2  654.63   28.20
   1  -3   2 1513.75   61.89
  -1  -3  -2 1687.53   62.69
   1  -3   2 1555.04   64.39
  -1  -3  -2 1574.34   63.29
   1  -3   2 1607.44   65.09
  -1  -3  -2 1518.45   63.49
   1  -3   2 1570.84   61.59
  -1  -3  -2 1516.75   62.29
  -1   3  -2 1568.04   64.69
   1   3   2 1546.25   63.49
   1   3   2 1552.34   63.19
  -1   3  -2 1580.34   61.59
   1   3   2 1740.13   63.09
  -1   3  -2 1502.55   62.09
   1   3   2 1626.44   63.19
   1   3   2 1638.34   63.49
   2  -3   2  298.27   16.50
  -2  -3  -2  306.27   14.10
  -2  -3  -2  292.27   15.20
  -2  -3  -2  289.17   15.00
   2  -3   2  295.57   13.60
   2  -3   2  289.67   16.10
   2  -3   2  281.27   14.00
  -2  -3  -2  265.97   14.00
  -2   3  -2  308.97   14.50
   2   3   2  282.67   15.00
  -2   3  -2  314.17   13.10
  -2   3  -2  285.77   16.10
  -2   3  -2  258.77   13.20
   2   3   2  298.37   15.40
   2   3   2  275.77   14.30
  -3  -3  -2  741.23   31.60
  -3  -3  -2  594.24   31.10
  -3  -3  -2  716.23   31.20
  -3  -3  -2  647.04   30.00
   3  -3   2  744.33   30.60
   3  -3   2  673.03   32.90
  -3   3  -2  717.43   28.30
   3   3   2  735.53   31.60
  -3   3  -2  712.93   30.70
  -3   3  -2  715.13   32.80
   3   3   2  645.94   30.40
  -3   3  -2  716.53   28.10
   4  -3   2  167.38   12.80
  -4  -3  -2  168.28   11.30
  -4  -3  -2  173.48   10.80
  -4  -3  -2  178.88   11.60
   4  -3   2  180.78   11.10
  -4  -3  -2  198.18   12.20
  -4   3  -2  182.68    9.70
   4   3   2  171.38   11.50
   4   3   2  187.28   11.60
  -4   3  -2  178.38    9.10
  -4   3  -2  175.68   11.30
   4   3   2  185.98   11.90
  -5  -3  -2   22.30    4.70
  -5  -3  -2   18.50    4.30
   5  -3   2   16.40    4.60
  -5   3  -2   16.30    4.20
  -5   3  -2   17.80    2.80
  -5   3  -2   19.70    2.40
   5   3   2   23.60    4.70
  -5   3  -2   15.30    3.90
  -6  -3  -2   13.50    3.70
   6  -3   2   14.20    5.60
  -6  -3  -2    9.90    3.30
  -6   3  -2   11.70    2.50
   6   3   2   13.20    4.30
  -6   3  -2   10.40    2.50
  -6   3  -2   16.20    4.30
  -7  -3  -2   22.40    5.40
  -7  -3  -2   26.00    5.40
   7  -3   2   12.50    3.20
   7  -3   2   20.80    6.10
  -7   3  -2   18.40    3.30
   7   3   2   10.10    4.00
  -7   3  -2   23.50    5.60
  -8  -3  -2   -1.20    2.20
  -8  -3  -2    1.80    3.10
   8  -3   2   -0.80    1.70
   8  -3   2   -3.30    2.70
  -8   3  -2    0.30    1.30
  -8   3  -2    1.00    2.90
   8   3   2    0.60    2.60
   9  -3   2   24.40    7.90
  -9  -3  -2   -0.70    2.70
  -9  -3  -2   13.10    4.70
   9   3   2    2.70    4.90
  -9   3  -2    6.50    2.50
 -10  -3  -2    3.00    4.30
 -10   3  -2    5.50    2.50
 -10   3  -2   -1.20    2.30
  10   3   2    0.10    3.00
 -11  -3  -2   10.90    6.50
  11  -3   2    8.80    6.00
 -11  -3  -2   17.10    5.60
  11   3   2   14.70    6.30
 -11   3  -2    9.80    5.20
 -12  -4   2   -8.00    4.10
 -12  -4   2   -0.80    4.60
  12   4  -2   -5.80    4.70
 -12   4   2    4.40    5.00
 -12   4   2    0.70    4.50
 -11  -4   2    5.60    4.90
  11  -4  -2   10.70    6.70
 -11  -4   2   28.40    6.80
  11   4  -2   11.60    6.60
 -11   4   2   13.10    5.10
 -11   4   2   14.20    6.30
  10  -4  -2   18.80    5.50
 -10  -4   2   27.90    7.60
 -10  -4   2   23.30    6.40
  10   4  -2   17.40    8.20
 -10   4   2   12.40    6.10
 -10   4   2   13.90    4.40
   9  -4  -2    0.00    2.00
  -9  -4   2   -0.20    2.50
  -9  -4   2    1.00    3.40
  -9   4   2    4.30    3.20
   9   4  -2    5.50    4.10
  -8  -4   2  144.29   12.90
   8  -4  -2  144.09   14.90
  -8  -4   2  133.29   11.80
   8   4  -2  130.39   13.30
  -8   4   2  130.29   12.20
  -8   4   2  139.69   11.10
  -7  -4   2    0.90    2.30
  -7  -4   2    2.70    2.70
   7  -4  -2   -1.10    2.20
  -7   4   2    1.20    2.50
   7   4  -2    3.30    3.50
  -7   4   2    3.30    3.10
  -6  -4   2   35.20    5.80
   6  -4  -2   39.00    8.10
  -6  -4   2   27.10    5.60
  -6   4   2   34.90    7.00
  -6   4   2   41.90    4.90
  -6   4   2   30.20    5.70
   6   4  -2   29.20    6.20
  -6   4   2   36.70    6.50
  -5  -4   2  374.26   20.90
   5  -4  -2  379.06   22.70
  -5  -4   2  393.66   19.60
  -5  -4   2  374.16   21.50
   5   4  -2  358.26   21.60
  -5   4   2  391.66   19.90
   5   4  -2  358.46   19.70
  -5   4   2  356.06   19.00
  -5   4   2  369.86   22.30
  -5   4   2  398.26   21.00
  -4  -4   2   37.60    6.10
  -4  -4   2   38.90    4.40
  -4  -4   2   34.20    5.30
   4  -4  -2   57.79    9.90
  -4  -4   2   40.10    5.70
  -4   4   2   50.19    5.40
   4   4  -2   51.69    6.40
  -4   4   2   44.40    6.30
  -4   4   2   44.60    5.40
   4   4  -2   42.30    4.90
   3  -4  -2  324.97   18.00
   3  -4  -2  305.37   16.10
  -3  -4   2  297.77   16.60
  -3  -4   2  283.17   17.10
  -3  -4   2  307.47   15.30
  -3  -4   2  274.17   17.00
  -3   4   2  312.97   16.50
   3   4  -2  303.57   16.70
  -3   4   2  291.57   15.90
   3   4  -2  280.47   15.20
  -3   4   2  308.37   15.80
   3   4  -2  289.07   17.10
  -3   4   2  307.87   17.60
   2  -4  -2  386.46   19.30
  -2  -4   2  366.26   18.60
  -2  -4   2  365.86   19.80
   2  -4  -2  392.66   18.60
   2  -4  -2  365.86   18.60
   2   4  -2  365.06   17.40
  -2   4   2  368.06   18.30
  -2   4   2  335.77   19.20
   2   4  -2  366.96   17.50
   2   4  -2  347.07   18.50
  -2   4   2  366.56   18.50
  -1  -4   2  263.07   14.30
  -1  -4   2  269.47   16.00
   1  -4  -2  268.57   14.80
  -1  -4   2  273.07   15.80
   1  -4  -2  315.17   16.60
   1  -4  -2  265.37   14.60
   1   4  -2  262.87   15.70
  -1   4   2  296.77   15.00
   1   4  -2  268.27   13.50
   1   4  -2  280.47   14.60
   1   4  -2  269.57   16.10
  -1   4   2  272.37   14.70
   1   4  -2  268.87   13.60
  -1   4   2  294.57   15.70
   0  -4   2  236.98   12.20
   0  -4   2  226.68   14.10
   0  -4   2  230.68   12.40
   0  -4  -2  238.58   13.30
   0  -4   2  244.18   14.90
   0  -4  -2  250.57   15.30
   0  -4  -2  241.68   13.50
   0   4  -2  245.48   14.80
   0   4   2  232.48   13.40
   0   4  -2  248.58   12.70
   0   4   2  210.88   13.20
   0   4   2  234.98   13.40
   0   4  -2  236.68   12.20
   0   4  -2  240.58   14.50
   0   4   2  260.17   13.70
   0   4   2  252.67   13.40
  -1  -4  -2    2.90    2.20
   1  -4   2    2.60    1.50
  -1  -4  -2    1.00    1.10
   1  -4   2    0.90    1.80
   1  -4   2    3.60    2.30
  -1  -4  -2    3.10    1.70
   1  -4   2   -0.80    1.00
   1   4   2    2.00    1.80
   1   4   2    2.30    1.60
  -1   4  -2    4.70    2.50
  -1   4  -2    2.70    1.40
  -1   4  -2    1.70    1.40
   1   4   2    3.90    2.10
   1   4   2    2.00    1.60
   1   4   2    1.10    1.30
  -2  -4  -2   80.99    6.60
   2  -4   2   86.49    8.50
   2  -4   2   93.69    8.30
  -2  -4  -2   86.49    6.80
  -2  -4  -2   98.79    7.80
   2  -4   2   96.19    6.10
   2  -4   2   85.59    6.40
  -2  -4  -2   84.49    7.20
   2   4   2   84.49    7.20
  -2   4  -2   90.39    8.30
  -2   4  -2   99.49    7.10
   2   4   2   88.59    7.50
   2   4   2  100.89    7.40
  -2   4  -2   89.89    5.90
  -3  -4  -2   57.19    6.00
   3  -4   2   64.19    7.50
  -3  -4  -2   56.59    6.80
   3  -4   2   66.79    7.10
  -3  -4  -2   74.79    6.90
   3  -4   2   73.79    7.60
  -3   4  -2   72.89    7.70
  -3   4  -2   63.19    6.00
   3   4   2   67.19    7.70
   3   4   2   61.49    6.50
   3   4   2   78.79    6.70
  -3   4  -2   71.19    4.90
  -3   4  -2   62.69    4.90
   4  -4   2  300.77   16.60
  -4  -4  -2  302.27   17.60
  -4  -4  -2  290.37   17.10
   4  -4   2  298.07   19.40
  -4  -4  -2  312.07   16.40
  -4   4  -2  307.67   14.20
  -4   4  -2  314.77   19.20
   4   4   2  290.97   17.10
  -4   4  -2  309.37   17.10
  -4   4  -2  322.47   14.70
   5  -4   2    0.10    2.10
  -5  -4  -2    3.10    2.40
  -5  -4  -2    3.60    2.10
  -5  -4  -2    2.90    1.90
   5   4   2    2.60    2.40
  -5   4  -2    3.40    2.30
  -5   4  -2    3.40    1.50
  -5   4  -2    3.10    1.50
  -6  -4  -2  124.59   11.00
  -6  -4  -2  140.49   10.60
   6  -4   2  145.29   13.80
  -6  -4  -2  139.59   11.50
   6   4   2  136.19   11.60
  -6   4  -2  140.59    8.10
  -6   4  -2  139.59    8.40
  -6   4  -2  144.69   11.60
  -7  -4  -2   72.59    8.40
  -7  -4  -2   68.09    7.80
   7  -4   2   57.69   10.10
  -7  -4  -2   74.09    8.60
  -7   4  -2   65.19    5.30
   7   4   2   54.99    7.90
  -7   4  -2   70.99    8.50
  -7   4  -2   63.49    5.50
  -8  -4  -2   26.10    6.80
  -8  -4  -2   31.50    6.50
  -8  -4  -2   24.20    6.30
   8  -4   2   45.20   10.30
  -8   4  -2   24.50    3.70
   8   4   2   38.00    8.00
  -8   4  -2   35.30    7.20
  -8   4  -2   28.60    4.20
   9  -4   2    8.50    6.40
  -9  -4  -2    8.30    4.50
  -9  -4  -2    4.50    4.30
  -9   4  -2   13.00    2.40
   9   4   2    7.10    4.30
  -9   4  -2    0.80    3.60
  -9   4  -2    1.40    2.90
 -10  -4  -2    2.10    3.70
  10  -4   2    8.10    5.70
 -10  -4  -2    0.90    3.90
 -10   4  -2    1.10    3.70
  10   4   2    1.60    3.80
 -10   4  -2    4.80    2.60
 -11  -4  -2   23.70    6.90
 -11  -4  -2   30.90   11.50
  11  -4   2   12.70    7.90
 -11   4  -2   18.40    7.50
  11   4   2   38.60   10.00
 -11  -5   2   18.30    5.70
 -11  -5   2   14.20    6.70
  11  -5  -2   15.90    9.50
  11   5  -2   10.20    6.20
 -11   5   2   15.00    5.70
 -11   5   2   14.20    5.40
  10  -5  -2   94.29   13.10
 -10  -5   2   88.99   10.40
 -10  -5   2   92.59   11.70
 -10   5   2   75.49    9.10
  10   5  -2   74.79   14.00
 -10   5   2   62.49   11.00
   9  -5  -2  275.37   23.10
  -9  -5   2  279.77   20.70
  -9  -5   2  309.77   20.10
   9   5  -2  248.18   21.20
  -9   5   2  301.67   18.30
  -9   5   2  289.17   21.00
  -8  -5   2    0.00    3.20
  -8  -5   2    2.10    2.60
   8  -5  -2    3.90    3.20
  -8  -5   2   -2.50    2.10
  -8   5   2    6.50    3.00
  -8   5   2   -1.30    2.90
   8   5  -2    1.40    3.40
  -7  -5   2  681.43   35.60
   7  -5  -2  684.93   38.00
  -7  -5   2  701.43   33.40
  -7  -5   2  646.84   34.70
  -7   5   2  673.63   34.80
  -7   5   2  598.04   35.80
  -7   5   2  658.13   32.40
   7   5  -2  655.23   36.00
   6  -5  -2   60.89    9.00
  -6  -5   2   66.19    8.10
  -6  -5   2   56.79    7.80
  -6  -5   2   69.49    7.30
  -6   5   2   59.69    7.40
  -6   5   2   75.99    9.20
  -6   5   2   66.49    7.20
   6   5  -2   65.39    8.70
  -5  -5   2   22.60    5.50
   5  -5  -2   25.20    6.00
  -5  -5   2   30.50    6.20
  -5  -5   2   31.20    5.50
  -5   5   2   29.80    6.50
  -5   5   2   22.20    4.60
  -5   5   2   27.10    5.40
   5   5  -2   21.30    5.10
  -4  -5   2  922.91   42.00
  -4  -5   2  876.61   39.90
  -4  -5   2  928.61   43.20
  -4   5   2  913.61   43.60
  -4   5   2  890.21   40.20
  -4   5   2  916.61   40.90
   4   5  -2  928.31   43.10
  -4   5   2  919.41   41.70
  -3  -5   2   42.40    6.00
   3  -5  -2   38.70    6.00
  -3  -5   2   49.30    6.50
  -3  -5   2   49.99    5.20
  -3  -5   2   46.50    5.60
  -3   5   2   44.80    6.30
  -3   5   2   48.10    5.50
  -3   5   2   53.69    5.50
  -3   5   2   50.39    5.90
   3   5  -2   48.00    5.10
   3   5  -2   43.30    5.10
   3   5  -2   44.00    6.20
   2  -5  -2  436.86   22.90
  -2  -5   2  435.56   21.60
   2  -5  -2  344.07   21.30
   2  -5  -2  431.36   21.60
  -2  -5   2  407.46   22.60
  -2   5   2  401.06   20.90
   2   5  -2  413.36   21.50
  -2   5   2  391.66   21.60
   2   5  -2  427.36   22.90
   2   5  -2  419.56   21.70
   2   5  -2  421.16   20.10
  -2   5   2  436.56   23.10
  -1  -5   2  153.08   14.10
   1  -5  -2  161.08   10.90
   1  -5  -2  144.79   10.60
  -1  -5   2  156.48   12.00
  -1  -5   2  165.08   10.60
   1   5  -2  152.88   11.70
   1   5  -2  162.38   10.60
  -1   5   2  160.08   11.50
  -1   5   2  163.88   10.80
  -1   5   2  146.49   10.50
   1   5  -2  156.78    9.70
   1   5  -2  153.48   12.10
   1   5  -2  151.78    9.60
   0  -5   2  899.41   42.80
   0  -5   2  940.71   42.50
   0  -5   2  955.80   40.00
   0  -5  -2  963.10   41.40
   0  -5  -2  925.11   41.20
   0   5  -2  937.11   39.90
   0   5   2  916.01   41.10
   0   5  -2  929.71   43.10
   0   5  -2  913.11   39.40
   0   5   2  893.61   41.20
   0   5   2  950.00   43.40
   0   5  -2  862.21   42.20
   0   5  -2  947.21   39.50
   0   5   2  978.80   42.00
   0   5   2  913.81   40.60
   1  -5   2  233.48   15.90
   1  -5   2  233.08   15.50
  -1  -5  -2  273.07   14.70
   1  -5   2  243.58   13.20
  -1   5  -2  243.58   13.60
   1   5   2  251.87   14.70
  -1   5  -2  251.97   16.30
   1   5   2  232.18   14.80
   1   5   2  223.68   13.90
  -1   5  -2  236.98   13.10
   2  -5   2    8.40    2.40
   2  -5   2    4.90    2.50
   2  -5   2   10.00    2.70
  -2  -5  -2    6.40    2.50
  -2  -5  -2    8.70    2.80
   2  -5   2   12.70    4.10
   2   5   2    5.80    2.60
  -2   5  -2    9.40    2.60
  -2   5  -2    5.20    2.80
   2   5   2   10.00    3.20
  -2   5  -2   12.60    3.30
   2   5   2    7.50    2.80
  -3  -5  -2 2169.68   89.19
   3  -5   2 2071.59   90.39
   3  -5   2 2173.28   91.89
  -3  -5  -2 2163.58   88.39
   3  -5   2 2035.50   86.69
  -3  -5  -2 2251.67   87.69
  -3   5  -2 2307.07   85.69
  -3   5  -2 2323.67   88.09
  -3   5  -2 1995.20   96.49
  -3   5  -2 2146.99   85.19
   3   5   2 2174.98   88.39
   4  -5   2   -3.00    1.80
  -4  -5  -2   -0.10    1.60
  -4  -5  -2    2.40    2.50
  -4  -5  -2    2.80    2.00
   4  -5   2   -1.70    1.50
  -4   5  -2    2.70    1.70
  -4   5  -2    0.10    1.30
  -4   5  -2    2.50    2.10
  -4   5  -2    5.00    2.50
   4   5   2    2.60    1.90
   5  -5   2  135.39   16.60
  -5  -5  -2  100.69    9.50
  -5  -5  -2   97.59    9.80
  -5  -5  -2  108.19    8.90
   5  -5   2   97.89   11.40
  -5   5  -2   97.79    6.90
  -5   5  -2  117.79    7.70
   5   5   2  101.09    9.60
  -5   5  -2  112.39    9.80
   6  -5   2  798.62   41.60
  -6  -5  -2  769.52   35.90
  -6  -5  -2  780.02   37.50
  -6  -5  -2  754.72   37.90
  -6   5  -2  750.02   32.00
  -6   5  -2  764.52   32.60
   6   5   2  783.32   38.00
  -6   5  -2  657.63   36.20
  -7  -5  -2    3.60    3.20
   7  -5   2    7.00    3.00
  -7  -5  -2   11.30    4.10
  -7  -5  -2    2.80    3.50
  -7   5  -2    9.10    4.20
   7   5   2    3.60    2.90
  -7   5  -2    8.20    2.30
  -7   5  -2    6.20    2.40
  -8  -5  -2  364.36   23.10
  -8  -5  -2  347.17   21.30
   8  -5   2  361.06   26.90
  -8  -5  -2  345.17   26.00
   8   5   2  324.07   23.10
  -8   5  -2  375.36   17.50
  -8   5  -2  354.26   17.00
   9  -5   2   59.39   12.20
  -9  -5  -2   49.40    9.30
  -9  -5  -2   45.30    8.70
   9   5   2   50.79    9.90
  -9   5  -2   53.99    5.30
  -9   5  -2   65.29   10.80
  10  -5   2   92.79   14.10
 -10  -5  -2   72.69   11.70
 -10  -5  -2   67.59   11.10
  10   5   2   60.09   11.10
 -10   5  -2   73.39   12.20
  11  -6  -2  105.99   19.20
 -11  -6   2  160.08   16.20
  11   6  -2  106.69   15.00
 -11   6   2  136.09   14.60
 -11   6   2  143.89   15.50
  10  -6  -2   19.80    7.70
 -10  -6   2    8.50    4.70
 -10  -6   2    4.70    5.10
 -10   6   2   11.10    4.70
 -10   6   2    6.90    5.60
  10   6  -2   19.40    8.10
  -9  -6   2    6.70    3.90
  -9  -6   2    1.00    3.40
   9  -6  -2   15.50    5.90
   9   6  -2    2.90    5.00
  -9   6   2    5.50    4.60
  -9   6   2   -2.70    3.30
  -8  -6   2  534.95   32.50
   8  -6  -2  578.14   36.50
  -8  -6   2  606.14   36.20
   8   6  -2  547.15   33.80
  -8   6   2  612.14   30.50
  -8   6   2  571.94   32.90
   7  -6  -2    8.70    4.40
  -7  -6   2    6.70    3.60
  -7  -6   2    1.90    2.90
  -7  -6   2    6.30    4.00
   7   6  -2    4.10    3.40
  -7   6   2    4.40    3.10
  -7   6   2    4.90    3.30
  -6  -6   2  347.57   19.90
  -6  -6   2  318.77   21.70
   6  -6  -2  322.47   23.20
  -6  -6   2  324.37   21.20
  -6   6   2  329.27   23.00
  -6   6   2  327.67   20.90
  -6   6   2  350.36   19.80
   6   6  -2  276.97   20.70
  -5  -6   2  148.39   11.30
  -5  -6   2  144.69   13.00
   5  -6  -2  159.38   14.60
  -5  -6   2  144.89   12.30
  -5   6   2  142.19   12.30
   5   6  -2  155.28   13.60
  -5   6   2  137.39   13.40
  -5   6   2  134.69   11.10
   4  -6  -2    2.20    4.00
  -4  -6   2    7.90    3.50
  -4  -6   2    8.10    3.40
   4   6  -2    5.10    3.00
  -4   6   2    5.80    2.90
   4   6  -2    9.30    3.70
  -4   6   2   10.40    3.90
  -4   6   2    4.20    3.10
   3  -6  -2 1184.78   53.09
  -3  -6   2 1094.69   50.49
  -3  -6   2 1147.29   52.39
   3   6  -2 1180.58   49.20
   3   6  -2 1160.38   52.59
  -3   6   2 1077.29   50.19
  -3   6   2 1130.79   52.79
  -3   6   2 1104.79   49.90
   2  -6  -2   24.90    5.20
   2  -6  -2   20.20    5.00
  -2  -6   2   24.60    5.70
  -2  -6   2   22.70    4.90
   2   6  -2   32.80    5.30
   2   6  -2   27.60    6.30
  -2   6   2   19.80    4.70
  -2   6   2   32.00    6.00
   1  -6  -2  448.46   23.90
  -1  -6   2  464.85   23.60
  -1  -6   2  425.46   25.30
   1   6  -2  446.36   26.00
  -1   6   2  437.36   24.90
   1   6  -2  504.35   22.90
  -1   6   2  484.35   24.10
   1   6  -2  428.26   22.20
   1   6  -2  435.96   25.30
   0  -6  -2  153.68   11.80
   0  -6   2  194.38   14.40
   0  -6   2  164.28   11.30
   0  -6   2  184.28   15.50
   0  -6  -2  163.78   12.30
   0   6  -2  160.78   10.80
   0   6   2  162.88   12.80
   0   6  -2  193.18   11.60
   0   6  -2  172.28   13.90
   0   6   2  165.58   11.90
   0   6  -2  169.58   13.50
   0   6  -2  152.28   11.10
   0   6   2  182.18   13.10
   1  -6   2   43.40    7.90
   1  -6   2   42.40    5.10
   1  -6   2   33.90    6.80
  -1  -6  -2   50.79    6.00
  -1  -6  -2   43.40    7.20
  -1   6  -2   41.90    5.30
  -1   6  -2   40.20    7.40
   1   6   2   46.40    5.90
   1   6   2   46.20    6.10
   1   6   2   43.40    6.30
  -1   6  -2   38.80    5.00
   2  -6   2 1137.19   55.39
  -2  -6  -2 1284.57   54.89
   2  -6   2 1116.59   54.39
  -2  -6  -2 1166.98   53.29
   2  -6   2 1197.88   50.49
   2   6   2 1161.68   53.49
  -2   6  -2 1191.18   50.49
  -2   6  -2 1242.68   58.89
   2   6   2 1293.17   53.59
  -2   6  -2 1160.78   51.49
   2   6   2 1231.68   52.69
  -3  -6  -2   35.80    5.40
   3  -6   2   42.40    7.60
   3  -6   2   35.50    7.40
  -3  -6  -2   39.50    7.20
  -3   6  -2   33.20    4.30
   3   6   2   31.60    5.80
  -3   6  -2   29.70    4.80
  -3   6  -2   31.70    6.50
  -3   6  -2   46.20    6.00
   3   6   2   31.10    5.90
  -4  -6  -2  318.97   20.80
  -4  -6  -2  313.97   19.20
   4  -6   2  366.96   24.00
  -4  -6  -2  340.17   20.40
   4  -6   2  373.36   25.90
   4   6   2  328.37   20.50
   4   6   2  324.47   20.30
  -4   6  -2  382.66   20.60
  -4   6  -2  386.76   18.30
  -5  -6  -2  146.79   12.20
   5  -6   2  143.69   14.40
  -5  -6  -2  134.09   12.40
  -5  -6  -2  153.38   11.60
   5   6   2  135.89   12.10
  -5   6  -2  128.09    9.10
  -5   6  -2  155.68   12.30
  -5   6  -2  158.48    9.50
  -6  -6  -2   52.49    7.00
   6  -6   2   59.09   11.30
  -6  -6  -2   50.69    8.80
  -6  -6  -2   52.49    8.80
   6   6   2   50.19    8.90
  -6   6  -2   51.59    5.30
  -6   6  -2   62.29    8.00
  -6   6  -2   57.69    5.50
  -7  -6  -2  395.96   25.50
  -7  -6  -2  423.86   23.80
   7  -6   2  426.56   29.20
  -7  -6  -2  441.26   25.70
   7   6   2  393.86   25.30
  -7   6  -2  394.16   19.70
  -7   6  -2  408.76   25.20
  -7   6  -2  420.36   19.60
  -8  -6  -2   15.40    5.50
  -8  -6  -2   14.50    5.40
   8  -6   2   10.80    5.90
  -8   6  -2   15.50    5.80
  -8   6  -2    8.20    2.80
   8   6   2    7.50    4.20
   9  -6   2  133.29   16.60
  -9  -6  -2  146.69   14.80
  -9  -6  -2  145.79   14.40
  -9   6  -2  147.69   14.60
   9   6   2  140.89   15.10
  10  -6   2   30.80   10.50
 -10  -6  -2   24.50    6.30
 -10  -6  -2   26.50    7.90
 -10   6  -2   22.20    8.30
  10   6   2   22.50    9.10
  10  -7  -2    0.50   12.90
 -10  -7   2   -6.40    4.00
 -10   7   2    4.30    5.60
  10   7  -2   -4.00    4.10
 -10   7   2   -8.60    5.10
  -9  -7   2   43.40    9.20
   9  -7  -2   19.30    9.40
  -9  -7   2   27.80    6.90
  -9   7   2   21.70    6.90
   9   7  -2   35.30    9.40
  -9   7   2   38.40    8.90
  -8  -7   2   31.10    7.20
   8  -7  -2   24.80    7.70
  -8  -7   2   27.90    7.50
   8   7  -2   26.90    7.40
  -8   7   2   28.30    6.80
  -8   7   2   45.10    9.30
   7  -7  -2  139.19   15.40
  -7  -7   2  130.79   13.40
   7   7  -2  122.59   16.50
  -7   7   2  133.09   13.30
  -7   7   2  124.99   11.80
   6  -7  -2   14.60    6.60
  -6  -7   2    6.80    4.90
  -6  -7   2   12.70    4.30
  -6  -7   2   17.50    5.80
   6   7  -2   14.70    5.30
  -6   7   2    8.00    4.40
  -6   7   2   10.60    3.90
  -5  -7   2    1.70    3.40
  -5  -7   2    0.00    2.90
   5  -7  -2    6.10    4.10
   5   7  -2    8.60    3.60
  -5   7   2   -5.10    2.20
  -5   7   2    0.50    3.30
   5   7  -2    1.10    3.40
  -5   7   2    1.90    3.30
  -4  -7   2   87.29    9.70
   4  -7  -2   86.99   13.30
  -4  -7   2   86.99   10.40
   4   7  -2   90.09    8.70
  -4   7   2  114.69   11.90
   4   7  -2   85.89   10.20
  -4   7   2   75.79    9.20
  -4   7   2   78.59    8.70
   3  -7  -2    8.30    4.20
  -3  -7   2   15.70    5.10
  -3  -7   2    6.60    3.50
   3   7  -2    6.80    3.80
  -3   7   2   12.90    4.10
  -3   7   2    7.50    3.80
   3   7  -2   12.90    3.70
  -3   7   2   11.00    4.20
  -2  -7   2  346.77   22.10
  -2  -7   2  317.87   19.60
   2  -7  -2  336.87   20.00
  -2   7   2  331.87   21.80
   2   7  -2  291.77   18.00
  -2   7   2  328.17   20.00
   2   7  -2  328.17   21.60
  -1  -7   2  112.09    9.70
   1  -7  -2  107.69   10.00
  -1  -7   2  106.29   11.30
   1   7  -2  103.79   11.50
  -1   7   2  104.89    9.80
   1   7  -2  105.39    9.10
  -1   7   2  122.79   11.80
   1   7  -2  108.69   11.30
   0  -7  -2    4.90    2.90
   0  -7   2    7.40    3.00
   0  -7  -2    3.10    2.30
   0  -7   2   11.40    4.30
   0   7  -2   12.40    3.90
   0   7   2   15.10    4.40
   0   7   2    6.90    3.40
   0   7  -2    7.70    3.50
  -1  -7  -2  362.96   21.60
   1  -7   2  370.16   19.80
   1  -7   2  351.86   23.20
  -1  -7  -2  349.07   21.10
   1   7   2  370.26   21.00
   1   7   2  320.67   21.10
   1   7   2  357.36   22.30
  -1   7  -2  337.77   19.70
   2  -7   2  173.18   15.30
  -2  -7  -2  183.68   14.00
  -2  -7  -2  139.79   13.00
   2  -7   2  194.28   14.00
   2   7   2  163.18   12.90
   2   7   2  180.08   14.50
   2   7   2  171.68   13.90
  -2   7  -2  190.58   13.10
  -2   7  -2  174.08   15.20
  -3  -7  -2  209.18   16.50
  -3  -7  -2  240.38   16.10
   3  -7   2  250.17   19.40
  -3   7  -2  244.08   15.80
   3   7   2  223.28   16.50
   3   7   2  235.08   16.30
  -3   7  -2  235.58   14.20
   4  -7   2    0.00    3.20
  -4  -7  -2    4.90    3.50
  -4  -7  -2    5.40    3.00
   4   7   2    4.90    3.30
  -4   7  -2    5.60    3.60
   4   7   2    2.20    3.20
  -4   7  -2   -0.80    2.30
  -4   7  -2    4.40    2.30
  -5  -7  -2   69.99    9.60
   5  -7   2   97.29   11.90
  -5  -7  -2   89.59    9.50
  -5   7  -2   77.09    9.00
   5   7   2   94.29   12.20
  -5   7  -2  103.39    7.60
  -5   7  -2   84.29    7.70
   5   7   2   49.60   11.30
  -6  -7  -2  166.68   14.50
  -6  -7  -2  168.28   15.20
  -6  -7  -2  176.38   14.70
   6  -7   2  155.98   16.80
  -6   7  -2  162.68   11.10
   6   7   2  167.28   14.90
  -6   7  -2  170.38   11.00
  -6   7  -2  182.28   14.80
  -7  -7  -2    3.70    4.20
  -7  -7  -2    7.20    3.20
   7  -7   2    6.60    5.50
  -7   7  -2    9.00    4.60
  -7   7  -2   11.40    2.90
   7   7   2    1.20    3.30
  -8  -7  -2  113.69   12.70
  -8  -7  -2  119.79   13.30
   8  -7   2  133.59   18.10
  -8   7  -2  124.09   13.10
   8   7   2  111.39   13.00
   9  -7   2    2.20    5.20
  -9  -7  -2    1.90    4.30
  -9   7  -2    7.00    4.60
   9   7   2   -1.50    4.30
  -8  -8   2   38.40    7.80
  -8  -8   2   19.70    6.00
  -8   8   2   36.00    9.10
   8   8  -2   31.00    7.50
  -8   8   2   37.60    7.40
   8   8  -2   33.20    8.90
  -7  -8   2   35.60    8.00
   7  -8  -2   50.99   12.10
   7   8  -2   34.50    8.70
  -7   8   2   40.20    7.50
  -7   8   2   29.40    8.10
   7   8  -2   30.10    7.50
   6  -8  -2  250.17   22.80
  -6  -8   2  282.07   20.90
   6   8  -2  275.87   21.80
  -6   8   2  288.37   19.30
   6   8  -2  263.37   18.50
  -6   8   2  249.68   19.70
  -5  -8   2    1.50    3.10
   5  -8  -2   -3.00    4.40
  -5  -8   2   -0.30    3.50
   5   8  -2   -2.70    2.50
  -5   8   2    2.40    3.60
   5   8  -2    2.90    3.00
  -5   8   2    2.50    3.10
  -5   8   2    4.30    5.10
   4  -8  -2  128.19   24.20
  -4  -8   2   96.59   11.00
  -4  -8   2   85.59   11.00
   4   8  -2   92.59   11.70
  -4   8   2   86.79   11.20
   4   8  -2   88.69    9.30
  -4   8   2   89.99   10.00
  -4   8   2   90.99   10.90
   3  -8  -2  682.43   36.80
  -3  -8   2  630.54   36.00
  -3  -8   2  635.94   34.00
   3   8  -2  649.64   36.40
  -3   8   2  623.14   33.20
   3   8  -2  656.23   32.40
  -3   8   2  627.74   33.80
  -3   8   2  593.64   35.80
  -2  -8   2   90.59   11.20
   2  -8  -2   98.09   10.00
  -2  -8   2  115.19   10.80
   2   8  -2   80.89   10.60
   2   8  -2   88.59    9.00
  -2   8   2   88.59   10.70
  -2   8   2   69.79    9.40
   1  -8  -2  349.87   23.50
  -1  -8   2  333.47   21.00
  -1  -8   2  368.16   24.30
   1  -8  -2  342.67   21.90
   1   8  -2  352.66   24.40
  -1   8   2  333.17   23.50
  -1   8   2  379.96   22.30
   1   8  -2  352.26   24.00
   1   8  -2  315.77   19.80
   0  -8   2  288.97   18.40
   0  -8   2  258.47   20.60
   0  -8  -2  295.57   19.80
   0  -8  -2  328.87   21.10
   0   8   2  295.57   21.10
   0   8  -2  290.57   18.20
   0   8  -2  297.57   22.00
   0   8   2  289.37   19.20
   1  -8   2  157.68   15.50
  -1  -8  -2  167.28   15.10
  -1  -8  -2  174.38   14.30
   1  -8   2  169.58   12.60
   1   8   2  159.38   14.50
  -1   8  -2  184.78   13.40
   1   8   2  156.48   13.40
   1   8   2  146.89   14.20
  -1   8  -2  166.08   15.50
   2  -8   2  513.95   26.80
  -2  -8  -2  496.75   28.50
   2  -8   2  545.45   33.00
  -2  -8  -2  526.55   33.10
  -2   8  -2  558.44   28.40
   2   8   2  485.25   28.20
   2   8   2  485.85   29.30
  -3  -8  -2   -4.60    2.50
  -3  -8  -2    0.80    3.20
   3  -8   2    5.90    4.90
  -3   8  -2    1.60    3.50
  -3   8  -2    8.20    3.20
   3   8   2    6.00    5.00
  -4  -8  -2  211.18   15.90
  -4  -8  -2  206.18   17.20
   4  -8   2  220.68   19.70
  -4   8  -2  234.38   16.60
   4   8   2  196.18   15.80
  -4   8  -2  224.18   14.30
   4   8   2  197.88   16.60
  -5  -8  -2  177.68   16.20
   5  -8   2  208.78   19.50
   5   8   2  150.88   14.50
   5   8   2  187.38   16.20
  -5   8  -2  210.98   13.20
  -5   8  -2  170.68   15.40
   6  -8   2   51.69   13.10
  -6  -8  -2   34.70    8.70
   6   8   2   44.90    9.10
   6   8   2   33.30    7.90
  -6   8  -2   43.40    8.70
   7  -8   2  123.39   18.80
  -7  -8  -2  172.18   16.20
  -7   8  -2  149.39   15.20
   7   8   2  158.08   15.40
   7   8   2  149.59   15.50
   8  -8   2    3.70    7.80
  -8  -8  -2   12.50    5.20
  -8  -8  -2   15.20    6.30
  -8   8  -2   17.50    6.00
   8   8   2    9.90    5.70
   8   8   2   10.40    5.20
  -7  -9   2   -2.80    2.70
  -7   9   2   -3.30    4.60
  -7   9   2   -0.70    4.70
   7   9  -2    4.70    4.40
   7   9  -2   -5.20    3.70
  -6  -9   2   -0.20    3.20
  -6   9   2   -1.70    3.90
   6   9  -2   -2.00    3.40
  -6   9   2    0.70    3.90
   6   9  -2    5.10    5.50
  -5  -9   2   30.30    7.30
  -5   9   2   41.20    8.10
   5   9  -2   55.99    8.80
  -5   9   2   50.29    9.80
   5   9  -2   36.20    9.00
  -4  -9   2    6.70    4.50
  -4   9   2    2.20    4.10
   4   9  -2    7.30    3.90
   4   9  -2    4.30    5.60
  -3  -9   2    8.70    5.30
  -3  -9   2   11.90    4.50
   3   9  -2   20.20    6.20
   3   9  -2   10.10    8.90
  -3   9   2   25.00    6.50
  -2  -9   2   48.60    9.30
   2  -9  -2   53.39    9.30
  -2  -9   2   54.19   10.30
  -2   9   2   43.90    8.50
   2   9  -2   40.30    7.10
  -2   9   2   52.99    9.30
   2   9  -2   36.30    8.40
   1  -9  -2    3.40    3.00
  -1  -9   2    5.20    3.70
  -1  -9   2   -0.80    4.10
   1  -9  -2   -6.80    4.10
  -1   9   2   -1.90    3.70
  -1   9   2   -1.60    3.50
   1   9  -2   -1.60    2.40
   0  -9   2   23.00    7.50
   0  -9   2   15.10    4.30
   0  -9  -2    9.90    4.80
   0  -9  -2    5.80    5.40
   0   9   2   22.30    6.50
   0   9  -2   11.50    4.40
   0   9   2   15.40    5.90
   1  -9   2   26.00    7.60
   1  -9   2   28.70    6.60
  -1  -9  -2   38.10    8.20
  -1   9  -2   41.70    7.70
   1   9   2   25.40    6.50
   1   9   2   12.70    5.30
   2  -9   2   29.40    9.00
  -2  -9  -2   36.40    8.20
   2  -9   2   32.80    6.70
   2   9   2   26.10    6.70
  -2   9  -2   29.50    6.70
   2   9   2   37.70    8.70
   3  -9   2    1.70    3.20
  -3  -9  -2    1.40    3.70
  -3   9  -2    1.00    3.20
   3   9   2    1.90    3.50
   3   9   2    0.40    3.30
  -3   9  -2   -1.40    2.70
   4  -9   2    1.80    4.20
  -4  -9  -2    8.40    5.10
  -4   9  -2    2.10    3.10
   4   9   2    6.00    3.90
   4   9   2   12.10    4.90
  -4   9  -2    9.40    4.80
   5  -9   2   96.59   17.30
  -5  -9  -2   90.49   11.70
   5   9   2   84.09   11.60
  -5   9  -2  111.99   12.00
  -5   9  -2   88.99    9.30
   5   9   2   82.39   12.30
   6  -9   2   11.60   10.00
  -6  -9  -2    4.60    5.80
  -6   9  -2    8.50    5.10
   6   9   2   14.70    5.60
   6   9   2    9.10    5.10
  -5 -10   2    9.50    5.60
   5  10  -2    8.50    5.50
  -5  10   2   23.90    7.50
   5  10  -2   11.60    6.80
  -4 -10   2   16.10    6.00
   4  10  -2   24.70    7.50
  -4  10   2   17.80    6.50
  -4  10   2   17.60    6.80
   4  10  -2   23.30    6.90
  -3 -10   2  145.29   14.40
   3  10  -2  138.39   16.30
  -3  10   2  134.79   14.50
   3  10  -2  131.49   13.60
  -3  10   2  136.79   13.70
  -2 -10   2   -1.60    3.60
   2  10  -2    0.00    3.80
  -2  10   2    9.00    5.40
  -2  10   2    0.10    3.90
   1 -10  -2  141.59   13.80
  -1 -10   2  142.79   13.40
  -1  10   2  128.49   13.70
   1  10  -2  132.69   12.90
   0 -10  -2   28.70    7.40
   0 -10   2   13.40    5.70
   0  10   2   34.10    8.10
   0  10  -2   22.10    6.80
   1 -10   2   10.80    4.60
  -1 -10  -2    0.50    5.00
  -1  10  -2    5.80    4.00
   1  10   2    0.20    3.70
  -2 -10  -2  232.98   19.10
  -2  10  -2  194.78   18.10
   2  10   2  254.97   19.20
  -2  10  -2  226.88   18.10
  -3 -10  -2    3.60    3.30
   3  10   2    3.80    3.30
  -3  10  -2   -3.40    4.40
  -3  10  -2   -8.50    3.20
   3  10   2   -6.50    3.50
  -4 -10  -2   14.20    6.40
  -4  10  -2   11.90    5.90
  -4  10  -2   13.30    5.80
  13   0  -3   -8.40    6.00
 -13   0   3   -0.70    4.50
 -12   0   3    1.00    2.90
 -12   0   3    4.40    4.30
  12   0  -3    2.20    4.50
 -11   0   3   -5.00    3.50
 -11   0   3   -3.80    3.30
  11   0  -3   -2.80    3.50
 -10   0   3   -1.40    2.60
  10   0  -3    4.10    2.70
 -10   0   3   -1.10    2.80
  -9   0   3   -1.40    2.20
   9   0  -3    0.10    2.90
  -9   0   3   -1.40    2.60
  -8   0   3   -1.40    1.20
  -8   0   3   -2.60    1.00
   8   0  -3   -0.40    1.70
  -7   0   3    1.50    1.70
  -7   0   3    0.80    1.70
   7   0  -3    3.50    2.80
  -7   0   3   -1.10    2.10
  -6   0   3   -0.60    1.30
   6   0  -3    1.50    1.50
   6   0  -3    1.50    1.80
   6   0  -3    0.40    1.30
  -6   0   3    1.90    2.00
  -6   0   3   -2.20    1.60
  -5   0   3    0.50    1.70
   5   0  -3   -2.40    1.00
  -5   0   3    0.70    1.50
   5   0  -3    1.40    1.60
   5   0  -3    1.20    1.80
  -5   0   3    1.50    2.10
  -4   0   3    2.40    1.70
   4   0  -3    0.20    1.20
  -4   0   3    0.30    1.50
   4   0  -3    3.10    1.90
  -4   0   3    2.90    1.90
   4   0  -3    1.40    1.50
  -3   0   3    1.20    1.10
   3   0  -3    0.50    0.90
  -3   0   3    2.00    1.60
   3   0  -3    0.90    1.40
  -3   0   3    1.40    1.60
   3   0  -3   -0.30    1.00
   2   0  -3    0.10    1.00
   2   0  -3    0.20    0.80
  -2   0   3    0.30    0.60
  -2   0   3   -0.60    0.70
  -2   0   3    0.20    1.20
  -1   0   3   -0.20    0.80
   1   0  -3    0.70    0.50
   1   0  -3    1.00    1.00
  -1   0   3    1.30    0.60
   1   0  -3    0.00    0.60
  -1   0   3    0.80    0.80
   0   0  -3    2.20    0.70
   0   0  -3    1.40    0.90
   0   0   3    1.80    0.60
   0   0   3    2.50    0.90
   0   0   3    1.40    0.60
  -1   0  -3    0.90    0.50
  -1   0  -3    0.00    0.70
   1   0   3    0.10    0.50
   1   0   3    0.50    0.70
  -1   0  -3    0.00    0.60
   1   0   3    0.50    0.60
  -2   0  -3   -0.50    0.60
  -2   0  -3    0.60    0.70
   2   0   3    0.60    0.70
  -2   0  -3   -1.60    0.70
   2   0   3    2.70    1.20
   2   0   3    0.50    0.90
  -3   0  -3    0.00    1.40
  -3   0  -3    0.80    0.90
  -3   0  -3    1.70    1.20
   3   0   3    0.00    1.40
   3   0   3   -0.20    1.10
   3   0   3    0.70    1.10
   4   0   3    0.10    1.10
  -4   0  -3    0.30    1.00
  -4   0  -3    0.20    1.20
   4   0   3    1.50    1.70
   4   0   3    0.70    1.50
  -4   0  -3    0.70    1.00
  -5   0  -3   -0.20    1.80
   5   0   3   -0.20    1.20
   5   0   3   -0.90    1.00
   5   0   3   -0.50    1.30
  -5   0  -3    1.00    1.30
   6   0   3    0.00    1.40
   6   0   3   -2.20    1.40
  -6   0  -3   -2.10    1.00
  -6   0  -3   -0.80    1.30
   7   0   3    1.90    2.30
  -7   0  -3   -1.20    1.10
  -7   0  -3   -0.80    2.20
   7   0   3    1.20    2.50
  -8   0  -3    2.00    2.40
   8   0   3   -0.60    2.30
   8   0   3   -1.40    2.30
  -8   0  -3   -2.80    1.30
  -9   0  -3    2.60    3.40
   9   0   3    3.60    3.20
  -9   0  -3    0.00    1.70
 -10   0  -3    0.90    1.90
  10   0   3    0.80    3.70
 -10   0  -3   -1.20    3.00
  11   0   3   -5.50    2.60
 -11   0  -3   -2.30    3.20
 -11   0  -3    1.60    3.80
  12   0   3    1.70    5.90
 -12   0  -3   -4.10    4.90
 -12   0  -3   -5.90    3.50
  13  -1  -3   80.09   16.00
 -13  -1   3   75.89   13.10
 -13   1   3   71.39   11.20
 -13   1   3   78.49   13.00
  13   1  -3   74.89   14.40
 -12  -1   3   35.10    9.20
  12  -1  -3   49.30   13.00
 -12  -1   3   35.30    7.30
 -12   1   3   29.20    6.90
  12   1  -3   33.00   13.00
 -12   1   3   30.50    7.10
  11  -1  -3  120.79   14.40
 -11  -1   3  106.09   12.10
 -11   1   3  106.09   12.00
  11   1  -3  122.89   15.30
 -11   1   3  123.39   12.10
  10  -1  -3   32.10    8.40
 -10  -1   3   42.70    8.50
 -10  -1   3   35.90    7.80
 -10   1   3   44.00    7.80
 -10   1   3   39.80    8.20
  10   1  -3   32.80    8.20
  -9  -1   3   63.49    8.00
   9  -1  -3   52.59   10.30
  -9  -1   3   62.29    8.10
  -9   1   3   57.39    9.10
  -9   1   3   65.69    7.90
   9   1  -3   78.99   10.40
  -8  -1   3  636.54   31.80
  -8  -1   3  630.74   31.80
   8  -1  -3  647.84   35.20
  -8   1   3  637.14   31.60
  -8   1   3  597.04   33.90
   8   1  -3  608.94   34.40
  -8   1   3  635.74   32.00
  -7  -1   3   40.30    6.70
  -7  -1   3   39.40    7.60
   7  -1  -3   44.00    8.30
  -7  -1   3   30.80    5.70
   7   1  -3   30.60    6.30
  -7   1   3   32.10    6.10
  -7   1   3   29.40    5.50
  -7   1   3   36.10    7.00
  -6  -1   3    9.90    3.30
   6  -1  -3    6.60    2.70
   6  -1  -3   15.40    4.60
  -6  -1   3   11.70    3.40
   6  -1  -3    5.00    2.30
  -6  -1   3    8.80    3.10
  -6   1   3    7.40    3.00
  -6   1   3   13.20    3.50
   6   1  -3    2.90    2.50
  -6   1   3   17.00    4.00
   6   1  -3   10.60    4.10
   6   1  -3   10.90    3.20
   5  -1  -3  443.96   21.70
  -5  -1   3  446.96   21.40
   5  -1  -3  443.86   21.50
   5  -1  -3  425.96   23.50
  -5  -1   3  451.35   22.30
  -5  -1   3  452.15   23.60
  -5   1   3  433.06   23.40
   5   1  -3  473.15   24.00
   5   1  -3  450.15   21.30
   5   1  -3  461.45   24.20
  -5   1   3  466.05   22.00
  -5   1   3  434.76   21.90
  -4  -1   3   79.69    6.70
   4  -1  -3   66.09    5.60
  -4  -1   3   79.79    7.20
   4  -1  -3   76.29    7.20
   4  -1  -3   69.99    5.80
  -4  -1   3   76.09    5.70
   4   1  -3   88.79    7.50
   4   1  -3   55.99    5.80
  -4   1   3   66.99    6.10
  -4   1   3   79.39    7.20
  -4   1   3   71.49    5.90
   4   1  -3   74.19    5.50
   3  -1  -3  509.35   22.60
  -3  -1   3  507.25   22.90
   3  -1  -3  532.85   23.60
   3  -1  -3  497.55   21.90
  -3  -1   3  475.55   21.30
  -3  -1   3  486.05   23.50
  -3   1   3  520.25   22.20
   3   1  -3  475.15   21.30
  -3   1   3  516.65   23.60
   3   1  -3  505.75   23.50
  -3   1   3  517.75   22.90
   3   1  -3  515.45   22.80
   2  -1  -3  201.78   10.20
  -2  -1   3  188.28    8.70
  -2  -1   3  195.78   10.20
   2  -1  -3  184.48    9.40
  -2  -1   3  190.38   10.60
   2   1  -3  190.98   10.50
   2   1  -3  192.98   10.10
  -2   1   3  196.68   10.30
  -2   1   3  196.48    9.60
   2   1  -3  192.78    8.70
  -2   1   3  203.48   10.50
  -1  -1   3  646.34   26.70
  -1  -1   3  637.34   24.10
   1  -1  -3  639.04   26.40
   1  -1  -3  607.14   25.40
   1  -1  -3  621.84   25.60
  -1  -1   3  606.44   26.00
  -1   1   3  688.13   25.90
   1   1  -3  587.04   26.50
  -1   1   3  633.54   26.50
  -1   1   3  672.83   26.10
   0  -1  -3  175.28    8.50
   0  -1   3  178.38    8.90
   0  -1  -3  180.38    8.90
   0  -1   3  175.78    7.80
   0  -1   3  162.48    8.90
   0  -1   3  174.78    7.10
   0   1   3  171.08    8.40
   0   1   3  168.18    8.40
   0   1   3  178.78    7.10
   0   1  -3  152.98    8.60
   0   1  -3  179.08    7.20
   0   1  -3  185.28    7.80
   0   1   3  169.28    8.70
   1  -1   3  358.76   16.60
   1  -1   3  351.56   15.40
   1  -1   3  347.37   14.10
  -1  -1  -3  375.86   16.20
  -1  -1  -3  376.16   16.30
   1  -1   3  378.76   14.10
   1   1   3  386.76   16.20
  -1   1  -3  345.67   15.40
   1   1   3  357.06   16.20
   1   1   3  388.66   14.50
  -1   1  -3  363.06   16.30
   2  -1   3 3110.09  103.89
   2  -1   3 2673.33  107.39
  -2  -1  -3 2652.23  104.59
   2  -1   3 2983.60  106.69
   2   1   3 2706.83  106.39
   2   1   3 2520.95  105.69
  -2   1  -3 2689.83  106.99
   2   1   3 2788.92  107.09
   3  -1   3  586.04   25.90
   3  -1   3  596.34   23.40
  -3  -1  -3  588.04   26.30
  -3  -1  -3  588.64   25.40
  -3  -1  -3  610.04   24.80
   3  -1   3  602.14   27.10
   3   1   3  593.74   26.50
  -3   1  -3  575.14   23.20
   3   1   3  551.94   25.60
  -3   1  -3  629.64   26.30
  -3   1  -3  577.44   26.20
   3   1   3  588.74   25.50
  -4  -1  -3   36.60    3.80
  -4  -1  -3   41.00    4.10
   4  -1   3   43.50    4.60
  -4  -1  -3   35.30    5.30
   4  -1   3   42.00    5.10
   4  -1   3   38.20    3.10
   4   1   3   37.70    4.80
  -4   1  -3   40.60    4.50
  -4   1  -3   37.80    4.50
   4   1   3   36.30    4.50
  -4   1  -3   37.20    3.00
   4   1   3   39.60    4.30
  -5  -1  -3 1225.58   48.50
   5  -1   3 1124.39   51.09
   5  -1   3 1126.19   46.40
   5  -1   3 1168.28   49.70
  -5  -1  -3 1158.98   50.09
   5   1   3 1172.08   48.60
   5   1   3 1151.18   52.79
   5   1   3 1142.39   50.19
  -5   1  -3 1151.28   49.90
  -5   1  -3 1199.88   46.40
   6  -1   3  433.36   19.50
  -6  -1  -3  423.46   20.90
   6  -1   3  393.06   23.70
  -6  -1  -3  439.86   22.90
   6   1   3  450.75   23.30
  -6   1  -3  389.26   22.20
  -6   1  -3  423.96   19.20
   6   1   3  402.36   23.00
   7  -1   3   85.29   10.30
   7  -1   3   98.79    7.40
  -7  -1  -3  107.89    8.50
  -7  -1  -3   98.79    9.70
  -7   1  -3  114.29   10.00
   7   1   3   99.49   10.10
   7   1   3  109.89    9.20
  -7   1  -3  116.09    7.70
  -8  -1  -3   45.40    8.20
   8  -1   3   40.40    6.80
  -8  -1  -3   41.20    6.60
   8  -1   3   55.69   10.50
   8   1   3   46.60    9.00
  -8   1  -3   52.19    8.80
  -8   1  -3   45.50    5.00
  -9  -1  -3   85.19    8.20
   9  -1   3   91.79   12.00
  -9   1  -3   81.39    7.10
  -9   1  -3   80.39    9.90
   9   1   3   84.79   11.20
 -10  -1  -3   53.89    7.00
 -10  -1  -3   60.19   10.60
  10  -1   3   46.20   10.40
 -10   1  -3   58.39    5.90
 -10   1  -3   64.29   11.20
  10   1   3   44.60    9.30
  11  -1   3    3.20    4.40
 -11  -1  -3   14.30    5.20
 -11  -1  -3   12.40    4.90
 -11   1  -3    9.50    3.40
 -11   1  -3   -0.10    4.90
  11   1   3   -0.10    3.90
 -13  -2   3    5.40    5.00
  13  -2  -3    4.30    7.90
 -13  -2   3   -5.80    3.90
  13   2  -3   -3.40    7.10
 -13   2   3    1.00    4.70
 -13   2   3   -5.70    4.90
 -12  -2   3  170.88   15.70
 -12  -2   3  175.28   16.50
  12  -2  -3  171.08   19.40
 -12   2   3  162.08   14.80
 -12   2   3  156.28   15.70
  12   2  -3  157.58   18.20
 -11  -2   3  102.79   11.60
  11  -2  -3  111.09   14.30
 -11  -2   3   99.69   11.40
  11   2  -3   90.39   13.00
 -11   2   3  104.69   10.70
 -11   2   3   92.29   11.90
  10  -2  -3   29.60    7.90
 -10  -2   3   29.50    7.50
 -10  -2   3   29.80    7.00
 -10   2   3   35.60    7.30
  10   2  -3   41.30    9.10
  -9  -2   3  118.39   11.70
  -9  -2   3  135.79   11.50
   9  -2  -3  122.69   13.50
  -9   2   3  115.19   11.50
  -9   2   3  120.99   10.90
   9   2  -3  117.29   13.00
   8  -2  -3   95.19   11.20
  -8  -2   3   99.39    9.40
  -8  -2   3   91.19    9.50
  -8   2   3   87.49    8.60
  -8   2   3  105.19    9.90
  -8   2   3   88.49   10.30
   8   2  -3  102.29   11.50
  -7  -2   3  245.28   16.20
  -7  -2   3  235.28   21.90
   7  -2  -3  267.97   18.70
  -7  -2   3  250.37   15.60
  -7   2   3  237.98   17.40
  -7   2   3  252.77   15.80
   7   2  -3  282.17   18.50
  -7   2   3  276.57   16.80
   6  -2  -3  142.99   12.30
  -6  -2   3  156.18   12.50
  -6  -2   3  138.09   12.30
   6  -2  -3  133.39   10.10
  -6  -2   3  128.69    9.80
  -6   2   3  147.29   10.60
  -6   2   3  156.58   13.00
   6   2  -3  162.18   12.50
  -6   2   3  153.28   12.10
   6   2  -3  157.28   10.40
  -5  -2   3   32.50    3.90
   5  -2  -3   25.00    5.30
  -5  -2   3   42.30    5.80
  -5  -2   3   35.90    4.70
   5  -2  -3   33.60    4.50
   5  -2  -3   35.30    4.30
   5   2  -3   37.70    5.40
   5   2  -3   40.30    4.40
   5   2  -3   30.50    5.20
  -5   2   3   32.80    4.40
  -5   2   3   37.90    4.70
  -5   2   3   43.50    5.70
  -4  -2   3  134.49   10.30
   4  -2  -3  148.19    9.40
   4  -2  -3  164.78   11.10
   4  -2  -3  130.19    8.90
  -4  -2   3  147.79    9.80
  -4  -2   3  132.89    8.40
  -4   2   3  146.39   10.50
   4   2  -3  138.99    9.70
  -4   2   3  144.59    9.40
   4   2  -3  135.79    8.50
  -4   2   3  156.18    9.80
   4   2  -3  137.39   10.30
   3  -2  -3  973.80   40.30
  -3  -2   3  969.60   40.70
  -3  -2   3  986.80   39.00
  -3  -2   3 1004.60   41.90
   3  -2  -3  947.01   39.90
   3  -2  -3  965.40   41.50
   3   2  -3  923.51   40.60
  -3   2   3 1015.50   40.40
   3   2  -3  963.60   41.60
   3   2  -3  952.50   39.00
  -3   2   3  911.71   41.10
  -3   2   3  973.70   40.70
  -2  -2   3   23.80    3.60
  -2  -2   3   19.10    3.20
   2  -2  -3   21.50    3.10
   2  -2  -3   20.10    2.70
  -2  -2   3   23.50    2.10
   2   2  -3   21.80    3.50
  -2   2   3   18.80    3.40
  -2   2   3   23.90    3.10
  -2   2   3   25.00    3.10
   2   2  -3   25.10    3.50
  -2   2   3   22.60    3.10
   2   2  -3   19.40    2.20
  -1  -2   3 1545.65   64.49
  -1  -2   3 1618.14   66.29
  -1  -2   3 1621.74   65.99
   1  -2  -3 1715.13   64.19
   1  -2  -3 1543.25   64.39
   1  -2  -3 1649.63   64.89
  -1   2   3 1708.93   64.89
  -1   2   3 1698.03   65.59
  -1   2   3 1752.62   65.09
   1   2  -3 1698.63   64.79
  -1   2   3 1651.23   65.39
   1   2  -3 1596.74   62.99
   1   2  -3 1710.83   66.09
   1   2  -3 1634.54   62.99
   0  -2  -3  269.67   12.90
   0  -2  -3  254.47   11.30
   0  -2   3  239.38   11.20
   0  -2   3  248.88   13.30
   0  -2  -3  278.97   10.80
   0  -2   3  259.77   13.20
   0  -2   3  247.18   10.70
   0   2   3  248.78   12.60
   0   2  -3  272.17   11.50
   0   2   3  255.17   12.40
   0   2   3  249.68   11.20
   0   2  -3  260.47   13.30
   0   2   3  251.57   12.30
   0   2   3  276.77   11.50
   0   2  -3  217.98   12.60
   0   2  -3  237.88   10.80
  -1  -2  -3  106.09    6.80
   1  -2   3  101.59    7.30
   1  -2   3   99.39    4.50
   1  -2   3  107.39    7.60
  -1  -2  -3   99.19    6.40
  -1  -2  -3   87.89    4.30
  -1  -2  -3   89.19    4.20
   1  -2   3   84.09    6.60
   1   2   3  106.19    6.60
   1   2   3  101.89    6.60
   1   2   3  109.39    5.40
  -1   2  -3  103.59    7.10
  -1   2  -3   91.09    4.50
  -2  -2  -3 3599.54  138.59
   2  -2   3 3741.03  140.29
   2  -2   3 3692.73  142.59
   2   2   3 3674.23  141.29
   2   2   3 3758.72  141.59
  -2   2  -3 3519.65  141.89
  -3  -2  -3  218.28   10.50
  -3  -2  -3  206.38   12.10
   3  -2   3  177.48   11.00
   3  -2   3  209.38   13.10
  -3  -2  -3  217.48   10.40
  -3  -2  -3  210.28   11.90
   3   2   3  238.08   12.70
   3   2   3  240.98   11.80
   3   2   3  196.68   11.70
  -3   2  -3  223.48   11.80
  -3   2  -3  202.78   12.50
  -4  -2  -3  158.48   10.50
   4  -2   3  159.88    7.20
   4  -2   3  167.88   11.80
  -4  -2  -3  135.69    8.80
  -4  -2  -3  158.18   10.00
   4  -2   3  160.58   10.00
  -4   2  -3  162.88    7.20
   4   2   3  161.38   10.30
  -4   2  -3  157.78   10.90
   4   2   3  151.28   10.60
  -4   2  -3  177.68   10.60
   4   2   3  160.78   10.30
  -5  -2  -3  644.54   30.70
  -5  -2  -3  647.64   29.60
   5  -2   3  630.14   29.80
   5  -2   3  654.63   32.40
  -5   2  -3  655.73   30.50
  -5   2  -3  690.53   26.70
   5   2   3  635.94   29.80
   5   2   3  577.14   30.00
  -6  -2  -3  359.16   18.70
   6  -2   3  338.27   21.40
  -6  -2  -3  330.57   19.50
   6   2   3  311.17   19.40
  -6   2  -3  337.97   19.50
  -6   2  -3  351.86   15.50
   6   2   3  341.67   21.00
  -7  -2  -3  754.42   35.00
   7  -2   3  719.43   31.50
  -7  -2  -3  764.52   36.90
   7  -2   3  713.33   38.80
  -7   2  -3  783.92   37.00
  -7   2  -3  750.82   31.40
   7   2   3  725.43   37.10
   8  -2   3   65.69   11.60
  -8  -2  -3   57.19    6.90
  -8  -2  -3   49.60    8.70
   8  -2   3   39.50    4.70
  -8   2  -3   53.89    5.00
   8   2   3   53.29    9.40
  -8   2  -3   44.40    8.00
  -9  -2  -3   22.60    5.60
   9  -2   3   17.00    4.40
  -9  -2  -3   28.40    6.50
   9  -2   3   20.30    7.90
   9   2   3   19.80    7.80
  -9   2  -3   19.40    7.00
  -9   2  -3   24.30    4.00
 -10  -2  -3  431.96   24.80
 -10  -2  -3  413.76   27.10
  10  -2   3  419.06   30.00
 -10   2  -3  414.46   20.90
 -10   2  -3  456.65   28.00
  10   2   3  456.35   29.70
  11  -2   3   -0.60    5.10
 -11  -2  -3   12.30    5.30
  11   2   3   13.20    6.30
 -11   2  -3    8.70    5.30
 -12  -3   3   -2.80    3.80
  12  -3  -3   -2.20    5.70
 -12  -3   3   -4.20    3.80
 -12   3   3   -0.50    4.30
 -12   3   3   -2.20    3.30
  12   3  -3   -7.50    4.10
  11  -3  -3  376.56   28.10
 -11  -3   3  374.36   24.40
 -11  -3   3  338.57   23.30
 -11   3   3  315.87   21.60
 -11   3   3  353.36   24.60
  11   3  -3  331.57   29.10
  10  -3  -3    5.80    5.40
 -10  -3   3    1.50    4.40
 -10   3   3    1.70    3.40
  10   3  -3    7.70    4.90
 -10   3   3    5.40    3.30
  -9  -3   3   22.20    5.20
   9  -3  -3   12.50    4.90
  -9  -3   3   23.00    6.50
  -9   3   3   20.80    4.90
  -9   3   3   18.10    5.20
   9   3  -3   21.40    6.30
   8  -3  -3  896.21   45.30
  -8  -3   3  850.61   40.30
  -8  -3   3  849.52   41.70
  -8   3   3  784.22   43.20
   8   3  -3  879.21   44.00
  -8   3   3  827.32   41.50
  -8   3   3  894.31   40.50
   7  -3  -3   73.59    9.60
  -7  -3   3   56.69    7.10
  -7  -3   3   63.89    6.90
   7   3  -3   58.89    8.10
  -7   3   3   65.29    7.50
  -7   3   3   55.79    8.20
  -7   3   3   76.79    8.80
  -6  -3   3   53.49    6.60
  -6  -3   3   36.00    6.80
  -6  -3   3   44.50    5.20
   6  -3  -3   40.90    5.20
   6  -3  -3   50.99    7.30
  -6   3   3   34.10    6.50
   6   3  -3   49.90    6.90
   6   3  -3   48.10    5.60
  -6   3   3   49.60    5.80
  -6   3   3   45.20    6.90
  -5  -3   3  354.86   18.10
   5  -3  -3  352.96   18.60
   5  -3  -3  349.37   21.60
  -5  -3   3  317.67   23.70
  -5  -3   3  377.36   20.00
  -5   3   3  365.76   19.40
  -5   3   3  341.97   20.60
  -5   3   3  362.66   19.10
   5   3  -3  386.96   21.30
  -4  -3   3  213.68   12.20
  -4  -3   3  241.68   15.10
  -4  -3   3  243.88   14.20
   4  -3  -3  234.78   15.00
   4  -3  -3  222.88   13.20
   4  -3  -3  229.98   13.30
   4   3  -3  251.47   15.10
  -4   3   3  243.88   13.90
  -4   3   3  229.18   14.80
   4   3  -3  233.78   14.10
   4   3  -3  227.98   12.60
  -4   3   3  228.68   13.30
  -4   3   3  247.18   13.90
   3  -3  -3   28.10    4.30
  -3  -3   3   33.50    3.30
  -3  -3   3   31.90    4.30
  -3  -3   3   34.70    4.90
  -3  -3   3   36.40    5.90
  -3   3   3   32.80    4.00
   3   3  -3   31.10    4.70
  -3   3   3   31.60    4.20
  -3   3   3   29.80    4.50
   3   3  -3   34.60    3.50
  -3   3   3   30.00    4.60
   3   3  -3   33.50    5.00
  -2  -3   3  237.08   13.80
  -2  -3   3  227.48   12.50
  -2  -3   3  243.88   14.10
   2  -3  -3  236.08   12.50
  -2  -3   3  233.48   11.20
   2  -3  -3  268.27   13.50
   2   3  -3  223.58   11.20
  -2   3   3  233.48   12.70
   2   3  -3  232.18   12.70
   2   3  -3  222.48   13.40
  -2   3   3  254.47   13.00
  -2   3   3  229.88   12.80
  -2   3   3  198.08   12.70
   1  -3  -3  346.17   15.40
   1  -3  -3  300.67   15.10
  -1  -3   3  304.37   16.20
   1  -3  -3  291.77   14.40
   1  -3  -3  286.37   15.40
  -1  -3   3  286.17   14.50
  -1  -3   3  307.97   16.60
   1   3  -3  308.97   14.80
   1   3  -3  294.27   16.30
  -1   3   3  299.97   15.40
  -1   3   3  332.37   15.40
   1   3  -3  292.57   13.50
   1   3  -3  288.47   13.40
  -1   3   3  317.57   15.30
   1   3  -3  309.07   16.30
   0  -3  -3   40.50    3.50
   0  -3   3   43.60    5.10
   0  -3   3   46.30    3.80
   0  -3  -3   44.80    3.90
   0  -3  -3   47.30    4.60
   0  -3   3   41.10    3.30
   0  -3   3   46.70    5.10
   0   3   3   42.00    4.20
   0   3   3   39.40    4.00
   0   3  -3   47.70    3.90
   0   3   3   39.60    3.80
   0   3   3   43.10    4.20
   0   3   3   46.40    4.50
   0   3  -3   50.59    5.20
   0   3  -3   49.30    5.30
   0   3  -3   53.69    3.70
  -1  -3  -3 1018.20   42.20
  -1  -3  -3 1022.40   42.20
  -1  -3  -3 1053.29   44.60
   1  -3   3  998.70   45.30
   1  -3   3 1127.19   46.20
   1  -3   3 1129.89   42.80
  -1  -3  -3 1042.00   44.20
   1  -3   3 1104.59   42.60
   1   3   3 1044.80   44.20
  -1   3  -3 1102.69   42.80
   1   3   3 1112.29   43.40
  -1   3  -3 1072.29   42.60
   1   3   3 1084.39   44.60
   1   3   3 1034.50   42.80
   1   3   3 1040.70   44.20
  -1   3  -3 1015.30   45.30
  -2  -3  -3  482.45   21.90
  -2  -3  -3  554.34   24.70
  -2  -3  -3  501.05   24.10
   2  -3   3  539.55   25.60
   2  -3   3  550.74   26.00
   2  -3   3  548.25   23.10
  -2  -3  -3  523.95   22.30
   2   3   3  537.05   24.60
  -2   3  -3  505.05   20.90
   2   3   3  504.55   22.90
  -2   3  -3  546.15   21.10
   2   3   3  499.95   24.50
  -2   3  -3  503.55   25.20
  -2   3  -3  520.45   23.10
  -3  -3  -3  515.25   24.90
  -3  -3  -3  518.75   22.70
   3  -3   3  528.35   23.90
   3  -3   3  502.15   26.60
  -3  -3  -3  504.95   24.80
  -3  -3  -3  545.65   23.10
  -3   3  -3  565.24   26.70
  -3   3  -3  525.85   20.80
   3   3   3  505.15   24.90
  -3   3  -3  547.95   24.30
  -3   3  -3  528.25   21.00
   3   3   3  552.24   24.20
   3   3   3  485.35   24.90
  -4  -3  -3  148.59   12.00
   4  -3   3  168.28   10.30
   4  -3   3  170.18   12.50
  -4  -3  -3  150.08   10.40
  -4  -3  -3  143.59    8.90
   4   3   3  144.09   10.40
  -4   3  -3  134.39   10.90
  -4   3  -3  145.39    6.70
  -4   3  -3  162.78    7.00
   4   3   3  138.59   12.60
  -4   3  -3  137.79    9.90
  -5  -3  -3  436.66   21.80
   5  -3   3  444.56   25.80
  -5  -3  -3  455.55   24.00
  -5   3  -3  508.65   24.10
  -5   3  -3  470.55   19.00
   5   3   3  441.86   23.40
  -5   3  -3  488.75   19.20
   6  -3   3  637.24   34.00
  -6  -3  -3  641.44   30.80
  -6  -3  -3  622.84   31.30
   6   3   3  596.94   30.90
  -6   3  -3  631.24   31.10
  -7  -3  -3   -0.10    2.20
   7  -3   3   -2.70    2.30
  -7  -3  -3   -1.30    2.20
   7   3   3    0.30    2.10
  -7   3  -3   -1.00    1.20
  -7   3  -3    1.60    1.40
  -8  -3  -3   15.50    4.90
  -8  -3  -3   17.40    5.30
   8  -3   3   12.10    5.40
   8   3   3   12.70    4.70
  -8   3  -3   16.40    2.80
  -8   3  -3   14.60    2.80
  -8   3  -3    9.80    4.60
  -9  -3  -3  161.18   14.70
  -9  -3  -3  176.78   14.10
   9  -3   3  213.78   19.50
  -9   3  -3  182.18   15.50
  -9   3  -3  183.98   10.40
  -9   3  -3  187.28   10.30
   9   3   3  176.38   15.80
 -10  -3  -3    4.80    4.10
  10  -3   3   28.60    9.40
  10   3   3   12.10    5.60
 -10   3  -3    8.90    2.90
 -10   3  -3   14.90    5.70
 -11  -3  -3   41.20    7.80
  11  -3   3   63.19   12.40
 -11  -3  -3   41.20    9.90
  11   3   3   54.29   10.50
 -11   3  -3   72.49   12.10
 -12  -4   3   62.99   10.50
  12  -4  -3   44.90   11.30
 -12  -4   3   81.09   10.50
 -12   4   3   85.29   10.50
 -12   4   3   44.00   12.50
  12   4  -3   76.99   14.70
 -11  -4   3   18.40    6.10
 -11  -4   3    5.80    3.90
  11  -4  -3   14.80    7.10
 -11   4   3   13.70    5.70
 -11   4   3   14.80    6.40
  11   4  -3   20.80    8.50
  10  -4  -3  129.79   15.20
 -10  -4   3  106.09   12.20
 -10  -4   3  116.19   11.80
 -10   4   3  101.59   11.90
 -10   4   3   97.49   10.60
  10   4  -3  108.19   14.00
   9  -4  -3   98.89   11.50
  -9  -4   3  103.69   11.40
  -9  -4   3   88.39    9.90
  -9   4   3   90.29    9.10
   9   4  -3   95.59   12.40
  -8  -4   3    1.80    2.30
  -8  -4   3    0.50    2.60
   8  -4  -3   -1.10    1.80
  -8   4   3   -0.90    2.00
  -8   4   3    2.90    2.50
  -7  -4   3  233.08   16.40
   7  -4  -3  245.08   18.80
  -7  -4   3  226.18   15.10
   7   4  -3  262.97   18.80
  -7   4   3  218.98   16.00
  -7   4   3  244.48   15.80
  -7   4   3  247.48   20.80
  -6  -4   3   32.10    5.40
   6  -4  -3   28.40    6.80
  -6  -4   3   26.00    5.50
   6   4  -3   23.30    5.90
  -6   4   3   26.30    5.90
  -6   4   3   36.20    6.40
  -5  -4   3   77.69    6.90
  -5  -4   3   81.69    8.10
  -5  -4   3   74.99    8.50
  -5  -4   3   81.59    8.70
   5   4  -3   73.69    6.90
  -5   4   3   89.09    7.50
  -5   4   3   85.79    9.20
   5   4  -3  103.29    9.70
  -5   4   3   90.49    7.90
  -5   4   3   81.29    8.00
  -4  -4   3   61.99    7.30
  -4  -4   3   61.89    6.70
  -4  -4   3   63.39    5.60
   4  -4  -3   75.89    8.00
  -4  -4   3   60.39    7.20
  -4   4   3   78.29    6.80
   4   4  -3   72.29    7.60
  -4   4   3   54.89    8.60
  -4   4   3   71.59    6.80
   4   4  -3   65.39    6.00
  -3  -4   3  323.07   17.20
  -3  -4   3  314.97   15.50
   3  -4  -3  292.77   16.50
  -3  -4   3  303.67   18.30
  -3  -4   3  308.37   18.30
  -3   4   3  331.37   17.30
  -3   4   3  316.87   18.10
  -3   4   3  313.67   16.70
   3   4  -3  328.47   18.50
  -3   4   3  309.67   17.10
   3   4  -3  312.67   17.30
   3   4  -3  314.57   15.70
  -2  -4   3   71.89    7.40
   2  -4  -3   82.49    7.20
   2  -4  -3   75.39    6.40
   2  -4  -3   72.29    6.70
   2  -4  -3   87.79    7.00
  -2  -4   3   79.39    6.70
  -2  -4   3   71.29    7.30
   2   4  -3   80.29    7.60
  -2   4   3   81.19    7.30
   2   4  -3   86.49    5.90
  -2   4   3   79.39    6.80
   2   4  -3   79.69    6.70
  -2   4   3   76.29    6.80
  -2   4   3   81.89    6.80
   2   4  -3   76.99    5.60
  -1  -4   3    0.60    1.00
   1  -4  -3    2.90    1.70
   1  -4  -3    1.70    1.30
  -1  -4   3   -0.10    1.30
   1  -4  -3   -1.00    1.20
  -1  -4   3    3.60    2.40
   1  -4  -3   -0.40    1.40
   1   4  -3    3.50    1.90
   1   4  -3    5.20    1.70
   1   4  -3    0.30    1.40
  -1   4   3    2.30    2.00
   1   4  -3    2.70    1.30
  -1   4   3    1.40    1.40
  -1   4   3    0.50    0.90
   1   4  -3    1.90    1.60
   0  -4   3 2141.09   88.89
   0  -4  -3 2252.87   86.29
   0  -4   3 2215.68   85.39
   0  -4   3 2087.49   89.29
   0  -4   3 2233.38   85.99
   0  -4  -3 2159.88   87.89
   0  -4  -3 2233.88   86.79
   0   4   3 2210.08   87.89
   0   4   3 2225.38   87.09
   0   4  -3 2223.28   89.69
   0   4   3 2209.08   87.49
   0   4  -3 2177.58   85.49
   0   4   3 2153.58   87.29
   0   4  -3 2261.17   89.29
   0   4  -3 2130.09   85.99
   0   4   3 2156.48   87.19
  -1  -4  -3  175.18   10.10
   1  -4   3  188.88   12.50
  -1  -4  -3  191.88   10.20
   1  -4   3  164.78   12.40
   1  -4   3  188.28   10.00
  -1  -4  -3  167.68   11.40
   1  -4   3  170.68    9.40
   1   4   3  190.38   11.10
   1   4   3  177.38   11.40
  -1   4  -3  171.48    9.50
   1   4   3  195.08   11.50
   1   4   3  169.98   11.00
   1   4   3  178.78   10.60
  -1   4  -3  193.48   10.30
  -1   4  -3  175.28   12.30
   2  -4   3  700.23   32.70
   2  -4   3  690.13   28.00
  -2  -4  -3  642.24   29.00
  -2  -4  -3  689.13   31.40
   2  -4   3  648.64   29.10
  -2  -4  -3  692.63   31.00
   2  -4   3  710.43   33.20
   2   4   3  667.53   31.30
   2   4   3  671.23   31.00
   2   4   3  682.43   29.90
  -2   4  -3  668.93   29.60
  -2   4  -3  629.24   27.60
  -2   4  -3  670.03   32.60
   3  -4   3  898.61   42.10
   3  -4   3  901.11   41.30
   3  -4   3  866.01   43.80
  -3  -4  -3  876.91   37.10
  -3  -4  -3  880.91   39.50
   3   4   3  893.21   38.80
  -3   4  -3  897.81   38.50
  -3   4  -3  893.51   35.40
  -3   4  -3  878.91   41.10
  -3   4  -3  840.92   36.10
   4  -4   3  430.86   21.60
  -4  -4  -3  434.16   22.80
   4  -4   3  441.76   25.30
  -4  -4  -3  417.36   20.40
  -4  -4  -3  430.06   22.90
   4   4   3  406.56   21.70
  -4   4  -3  438.66   22.10
  -4   4  -3  476.35   29.70
  -5  -4  -3 1069.99   48.20
   5  -4   3  897.61   60.89
  -5  -4  -3 1116.09   48.50
  -5  -4  -3 1072.69   45.50
   5   4   3 1111.69   47.90
  -5   4  -3 1120.19   47.90
   6  -4   3  178.78   15.70
  -6  -4  -3  184.38   12.10
  -6  -4  -3  194.58   14.10
  -6  -4  -3  197.28   14.20
  -6   4  -3  191.08   13.70
   6   4   3  206.98   14.30
  -7  -4  -3   10.30    3.50
  -7  -4  -3    9.70    4.30
   7  -4   3   16.90    5.30
  -7  -4  -3    8.60    3.90
  -7   4  -3    6.30    3.80
   7   4   3    5.40    3.20
  -7   4  -3    9.90    3.10
  -8  -4  -3  270.07   20.60
  -8  -4  -3  238.38   17.40
   8  -4   3  246.98   21.40
  -8  -4  -3  265.97   18.40
  -8   4  -3  238.78   11.20
  -8   4  -3  211.48   16.90
  -8   4  -3  230.98   11.70
   8   4   3  231.98   18.30
   9  -4   3   96.79   16.60
  -9  -4  -3   88.99   10.30
  -9  -4  -3   82.29   10.60
  -9   4  -3   76.39   11.80
  -9   4  -3   83.99    5.30
   9   4   3   68.89   10.20
 -10  -4  -3  103.29   11.80
  10  -4   3  114.69   15.80
 -10  -4  -3  104.49   12.00
 -10   4  -3  107.79   11.90
  10   4   3   80.49   11.30
 -11  -4  -3   -1.70    4.80
  11  -4   3    2.20    6.50
 -11  -4  -3   13.20    6.20
  11   4   3   13.20    6.90
 -11   4  -3   12.90    6.20
 -11  -5   3  170.08   16.30
  11  -5  -3  176.98   19.10
 -11  -5   3  136.99   13.90
  11   5  -3  156.48   18.20
 -11   5   3  155.68   14.70
 -11   5   3  146.89   15.50
 -10  -5   3   35.00    7.80
  10  -5  -3   47.30    7.80
 -10  -5   3   40.40    9.10
  10   5  -3   32.50    9.50
 -10   5   3   30.70    7.20
 -10   5   3   36.60    8.80
   9  -5  -3   84.29   14.50
  -9  -5   3   68.69   11.50
  -9  -5   3   67.79    8.80
  -9  -5   3   76.69   10.80
   9   5  -3   75.79   11.50
  -9   5   3   76.09   12.00
  -9   5   3   63.59    8.50
  -8  -5   3   63.49   10.30
   8  -5  -3   65.09   11.60
  -8  -5   3   66.19    7.80
  -8  -5   3   44.50    8.70
  -8   5   3   67.89    8.70
   8   5  -3   54.19   10.20
  -8   5   3   65.99    7.50
  -7  -5   3   72.59    9.10
  -7  -5   3   61.79    7.20
   7  -5  -3   92.59   11.40
  -7   5   3   58.39   10.30
   7   5  -3   81.69   10.30
  -7   5   3   71.79    8.20
  -7   5   3   67.49    8.40
  -6  -5   3   34.80    6.70
  -6  -5   3   54.79    6.10
   6  -5  -3   47.50    9.00
  -6  -5   3   48.40    8.00
  -6   5   3   46.10    7.30
  -6   5   3   54.59    8.50
  -6   5   3   52.49    9.10
   6   5  -3   55.09    8.00
  -5  -5   3    1.20    2.20
  -5  -5   3   -0.80    2.60
  -5   5   3    3.90    3.30
  -5   5   3    0.30    2.10
   5   5  -3   -0.20    2.20
  -5   5   3    1.40    2.00
  -4  -5   3    9.30    3.50
  -4  -5   3    9.00    3.90
   4  -5  -3    8.60    3.80
  -4  -5   3    6.00    2.30
   4   5  -3    4.70    2.30
  -4   5   3    4.20    2.90
  -4   5   3    3.20    2.40
   4   5  -3    2.30    2.30
  -3  -5   3  186.28   14.20
  -3  -5   3  183.98   13.70
  -3  -5   3  183.78   13.80
   3   5  -3  205.38   14.10
  -3   5   3  166.48   12.10
  -3   5   3  183.78   12.50
  -3   5   3  192.48   13.70
   3   5  -3  185.38   11.10
   3   5  -3  183.88   11.50
  -2  -5   3  310.07   18.70
  -2  -5   3  299.87   16.50
   2  -5  -3  290.77   17.00
   2  -5  -3  304.57   17.60
  -2  -5   3  275.07   18.00
  -2   5   3  313.77   18.10
   2   5  -3  285.47   18.00
  -2   5   3  284.57   16.70
   2   5  -3  305.87   16.80
   2   5  -3  293.27   15.20
   2   5  -3  281.87   14.90
   1  -5  -3   13.70    3.70
  -1  -5   3   16.10    4.30
   1  -5  -3   13.00    3.10
  -1  -5   3   15.50    3.50
  -1  -5   3   12.90    4.10
   1   5  -3   10.90    3.30
  -1   5   3   14.70    3.80
   1   5  -3   13.80    3.30
   1   5  -3   22.40    5.60
   1   5  -3   12.80    3.10
  -1   5   3   19.80    5.00
   1   5  -3   17.10    3.20
   0  -5   3  278.67   17.30
   0  -5  -3  309.07   16.10
   0  -5   3  294.07   18.20
   0  -5   3  266.87   14.60
   0   5  -3  281.17   17.60
   0   5  -3  255.67   17.30
   0   5  -3  270.37   14.80
   0   5  -3  287.77   14.60
   0   5   3  259.37   17.70
   0   5  -3  271.87   14.30
   0   5   3  278.17   16.20
   0   5   3  300.37   22.30
  -1  -5  -3 2405.56   99.49
   1  -5   3 2498.55  101.79
   1  -5   3 2433.36   96.59
   1  -5   3 2393.36  100.69
  -1  -5  -3 2482.85   97.69
   1  -5   3 2429.36   96.49
  -1   5  -3 2578.34  101.99
   1   5   3 2382.46   98.29
   1   5   3 2416.96   98.99
   1   5   3 2505.35   98.89
  -1   5  -3 2552.64   97.19
  -1   5  -3 2444.46   96.49
   2  -5   3  196.88   14.40
  -2  -5  -3  190.98   13.50
   2  -5   3  214.08   15.40
  -2  -5  -3  177.88   11.60
   2  -5   3  223.08   12.30
   2  -5   3  211.18   11.20
  -2   5  -3  208.68   11.20
  -2   5  -3  201.68   12.20
   2   5   3  207.58   12.90
   2   5   3  228.08   13.90
   2   5   3  230.28   13.80
  -2   5  -3  198.88   14.80
   3  -5   3  198.58   14.50
   3  -5   3  176.78   11.20
  -3  -5  -3  173.38   12.40
   3  -5   3  185.78   14.90
  -3  -5  -3  187.68   11.40
  -3  -5  -3  193.08   13.30
  -3   5  -3  169.98    9.60
   3   5   3  195.88   12.40
  -3   5  -3  173.68   14.00
  -3   5  -3  165.78   11.50
  -3   5  -3  176.48    9.90
  -4  -5  -3 1546.15   67.19
  -4  -5  -3 1544.45   66.69
   4  -5   3 1550.54   70.29
   4  -5   3 1644.04   69.69
  -4  -5  -3 1577.54   64.19
  -4   5  -3 1575.74   61.49
   4   5   3 1457.25   65.39
  -4   5  -3 1583.94   61.79
  -4   5  -3 1562.74   65.69
  -5  -5  -3  113.59   10.70
  -5  -5  -3  116.19    8.90
   5  -5   3  106.29   11.50
   5  -5   3  119.29   12.40
  -5  -5  -3  133.99   11.10
   5   5   3  110.29   10.10
  -5   5  -3  101.79    9.60
  -5   5  -3  121.99    6.70
  -5   5  -3  120.79    7.10
  -6  -5  -3  603.14   30.00
  -6  -5  -3  629.04   33.10
  -6  -5  -3  613.14   33.20
   6  -5   3  663.23   37.10
  -6   5  -3  646.04   26.40
   6   5   3  659.93   33.10
  -6   5  -3  669.83   33.10
  -6   5  -3  644.04   26.70
  -7  -5  -3   69.39    9.00
   7  -5   3   57.99   11.00
  -7  -5  -3   53.39    6.80
  -7   5  -3   63.79    8.30
   7   5   3   54.89   12.00
   8  -5   3   52.79   11.70
  -8  -5  -3   51.59    9.50
  -8  -5  -3   39.70    7.90
   8   5   3   54.09   10.00
  -8   5  -3   56.19   11.50
  -9  -5  -3  477.45   28.60
  -9  -5  -3  478.05   28.80
   9  -5   3  447.26   40.00
  -9   5  -3  508.65   29.30
   9   5   3  371.66   26.80
 -10  -5  -3   18.40    5.60
  10  -5   3   23.20    8.70
 -10  -5  -3    9.00    4.50
 -10   5  -3   13.50    6.70
  10   5   3   13.60    5.60
 -11  -6   3    4.90    4.40
  11  -6  -3   -7.60   10.30
 -11  -6   3    9.60    3.70
 -11   6   3    4.40    5.70
 -11   6   3    5.60    6.30
  11   6  -3    0.30    5.80
 -10  -6   3   -2.60    4.00
 -10  -6   3   -5.30    2.60
  10  -6  -3   -0.90    6.00
 -10   6   3   -0.70    4.30
 -10   6   3   -4.10    3.30
  10   6  -3   -6.70    4.30
  -9  -6   3    7.00    3.70
  -9  -6   3   10.40    4.40
   9  -6  -3    2.90    5.70
  -9  -6   3    9.50    5.30
  -9   6   3   11.00    5.80
  -9   6   3    8.20    5.10
   9   6  -3    1.60    4.80
  -8  -6   3   44.80    7.90
  -8  -6   3   52.19   10.00
  -8  -6   3   31.60    7.00
   8  -6  -3   61.59   12.20
   8   6  -3   48.70    9.70
  -8   6   3   54.29    9.80
  -8   6   3   44.10    8.00
   7  -6  -3    1.70    4.10
  -7  -6   3    4.90    4.20
  -7  -6   3    9.40    4.20
  -7  -6   3   12.10    5.50
  -7   6   3    5.50    2.90
  -7   6   3   13.30    5.80
  -7   6   3    5.20    3.90
   7   6  -3    4.90    3.80
   6  -6  -3   11.90    5.10
  -6  -6   3   18.30    8.50
  -6  -6   3   10.80    4.60
  -6  -6   3   11.30    4.00
   6   6  -3    5.20    2.40
  -6   6   3   15.20    4.20
  -6   6   3    5.10    4.20
  -6   6   3   14.80    4.80
  -5  -6   3   79.99    7.80
  -5  -6   3   85.89    9.40
  -5  -6   3   80.19    9.60
   5   6  -3   83.79   10.00
  -5   6   3   76.49    9.60
  -5   6   3   62.09    8.10
  -5   6   3   92.59    9.00
  -4  -6   3   41.20    7.20
  -4  -6   3   27.30    6.20
   4  -6  -3   33.60    6.50
  -4   6   3   30.30    6.90
   4   6  -3   30.50    6.90
  -4   6   3   33.50    6.40
   4   6  -3   34.70    5.40
  -4   6   3   34.10    6.20
  -3  -6   3    2.80    2.30
  -3  -6   3    0.80    1.70
   3  -6  -3    1.10    1.40
  -3   6   3    1.00    2.40
   3   6  -3   -1.90    1.60
   3   6  -3    0.30    2.20
  -3   6   3    0.30    1.80
  -3   6   3    0.70    1.90
  -2  -6   3  201.78   15.20
   2  -6  -3  192.58   14.20
  -2  -6   3  192.98   13.20
   2  -6  -3  187.58   13.50
   2   6  -3  194.38   12.10
   2   6  -3  216.28   12.50
   2   6  -3  204.18   15.20
  -2   6   3  197.78   14.70
  -2   6   3  197.58   13.60
  -1  -6   3    2.40    1.90
   1  -6  -3    2.30    2.00
  -1  -6   3   -1.60    2.00
   1  -6  -3   -0.80    1.70
  -1   6   3   -1.30    1.20
  -1   6   3   -1.70    1.70
   1   6  -3    0.20    1.40
   1   6  -3   -0.30    1.40
   1   6  -3    2.20    3.00
   1   6  -3    0.00    1.60
   0  -6  -3   89.19    8.60
   0  -6  -3   84.99    8.50
   0  -6   3   94.39    7.70
   0  -6   3   95.39    9.80
   0  -6   3   84.99    9.60
   0   6   3   97.89    8.70
   0   6   3   97.49    9.20
   0   6  -3   88.59    7.40
   0   6  -3   94.29    9.70
   0   6  -3   84.19    7.00
   0   6  -3   81.29    9.50
   0   6  -3   78.19    7.40
   1  -6   3   13.00    4.50
  -1  -6  -3    6.00    2.30
   1  -6   3    9.10    2.80
   1  -6   3    7.40    2.70
   1  -6   3    8.50    3.80
  -1  -6  -3    8.20    2.80
  -1   6  -3   11.60    3.10
   1   6   3    9.60    3.50
   1   6   3   10.00    3.60
  -1   6  -3    8.90    3.00
   1   6   3    6.30    3.00
  -1   6  -3   11.70    4.60
  -2  -6  -3    4.00    2.70
   2  -6   3    3.20    2.10
  -2  -6  -3    3.70    2.20
   2  -6   3    0.30    2.80
   2  -6   3    3.80    3.00
  -2   6  -3    7.20    3.30
  -2   6  -3    5.80    2.70
   2   6   3    8.40    3.20
   2   6   3    5.40    2.70
   2   6   3    6.50    2.70
  -2   6  -3    0.30    1.60
  -3  -6  -3    3.50    2.20
   3  -6   3    3.70    3.10
  -3  -6  -3    0.40    2.90
   3  -6   3    5.00    3.60
   3   6   3    3.40    2.30
  -3   6  -3    4.90    2.70
  -3   6  -3    3.40    1.90
  -3   6  -3    4.50    2.00
   3   6   3    5.30    3.10
  -4  -6  -3  344.07   21.40
   4  -6   3  345.47   23.00
   4  -6   3  367.96   24.30
  -4  -6  -3  340.57   18.80
  -4  -6  -3  346.57   21.00
  -4   6  -3  333.57   19.80
   4   6   3  353.26   21.20
   4   6   3  327.97   20.20
  -4   6  -3  353.36   16.90
  -4   6  -3  364.46   17.30
   5  -6   3   14.20    5.40
   5  -6   3    9.40    4.60
  -5  -6  -3   18.40    3.90
  -5  -6  -3   17.20    5.30
  -5  -6  -3   16.50    4.60
  -5   6  -3   11.70    2.90
   5   6   3   13.70    4.50
  -5   6  -3   15.60    4.10
  -5   6  -3   18.80    3.30
  -6  -6  -3    1.30    3.40
  -6  -6  -3    3.70    2.80
   6  -6   3    3.50    4.60
  -6  -6  -3    2.90    3.20
  -6   6  -3    5.20    2.00
  -6   6  -3    3.70    3.20
   6   6   3    1.40    4.40
  -6   6  -3    3.40    1.90
   7  -6   3  302.47   24.80
  -7  -6  -3  333.97   21.90
  -7  -6  -3  317.87   22.10
   7   6   3  351.66   22.20
  -7   6  -3  315.37   21.40
  -8  -6  -3    2.80    4.30
   8  -6   3    0.90    5.00
  -8  -6  -3   14.70    4.70
   8   6   3    5.20    3.70
  -8   6  -3   15.50    5.40
  -9  -6  -3    6.00    4.70
   9  -6   3    5.10    6.40
  -9  -6  -3    7.50    4.50
   9   6   3    1.70    4.00
  -9   6  -3   25.60    6.90
 -10  -7   3   -3.10    4.70
 -10  -7   3    5.80    3.40
  10   7  -3   -4.90    4.70
 -10   7   3   -1.70    4.70
 -10   7   3   -0.60    3.90
   9  -7  -3  -11.40    7.50
  -9  -7   3   -5.80    2.90
  -9  -7   3    3.20    4.40
  -9   7   3   -7.00    3.10
   9   7  -3   -3.60    3.00
  -8  -7   3   11.50    4.40
  -8  -7   3    4.60    4.10
   8  -7  -3    6.70    6.90
  -8   7   3   10.40    4.20
  -8   7   3   16.00    5.80
   8   7  -3   -1.00    3.80
  -7  -7   3   12.30    5.70
  -7  -7   3   31.10    7.90
  -7  -7   3   24.20    5.80
   7  -7  -3   23.60    7.40
  -7   7   3   30.00    7.00
  -7   7   3   35.60    8.00
   7   7  -3   18.30    6.30
   6  -7  -3   50.39    9.40
  -6  -7   3   52.39    9.50
  -6  -7   3   50.29    8.00
  -6  -7   3   68.39   10.40
  -6   7   3   64.69   10.20
   6   7  -3   53.69    8.40
  -6   7   3   54.49    9.30
  -6   7   3   43.10    9.70
   6   7  -3   74.19   10.60
  -5  -7   3   32.70    6.90
  -5  -7   3   49.60    9.60
   5  -7  -3   34.80    9.20
   5   7  -3   31.30    7.50
  -5   7   3   42.50    7.70
   5   7  -3   34.90    6.60
  -5   7   3   40.20    7.70
  -5   7   3   30.10    6.80
  -4  -7   3  180.78   14.30
  -4  -7   3  180.88   15.50
   4  -7  -3  191.18   16.30
   4   7  -3  170.28   12.40
  -4   7   3  186.08   14.30
   4   7  -3  176.78   15.40
  -4   7   3  175.58   15.50
  -4   7   3  187.48   14.70
  -3  -7   3  141.89   13.40
  -3  -7   3  143.79   12.00
   3   7  -3  151.58   10.80
  -3   7   3  127.29   11.40
  -3   7   3  139.59   12.20
  -3   7   3  129.09   13.00
   3   7  -3  138.29   13.10
   2  -7  -3  115.59   10.90
   2  -7  -3  122.49   11.80
  -2  -7   3  119.69   10.50
  -2  -7   3  115.69   12.00
  -2   7   3  131.29   11.40
   2   7  -3  125.39   12.40
   2   7  -3  149.49   10.40
  -2   7   3  121.79   12.00
  -1  -7   3  440.86   23.20
  -1  -7   3  419.56   26.30
   1  -7  -3  406.16   24.10
   1  -7  -3  443.46   24.70
   1   7  -3  367.56   30.20
   1   7  -3  419.16   26.00
   1   7  -3  412.46   21.90
  -1   7   3  429.56   25.20
  -1   7   3  456.55   24.30
   0  -7  -3   49.00    8.10
   0  -7  -3   60.99   13.00
   0  -7   3   40.10    5.50
   0  -7   3   51.89    9.70
   0   7   3   45.70    7.50
   0   7  -3   57.89    9.60
   0   7  -3   42.40    5.50
   0   7   3   47.60    7.20
   1  -7   3   93.19   11.00
  -1  -7  -3   80.19    9.00
  -1  -7  -3  117.29   10.90
   1  -7   3  110.89    8.90
   1   7   3   88.49    9.70
  -1   7  -3  101.19   11.30
  -1   7  -3  103.99    8.80
   1   7   3  100.29    9.60
   1   7   3  106.29   10.50
  -2  -7  -3  304.77   19.80
  -2  -7  -3  276.77   17.70
   2  -7   3  286.37   16.50
   2  -7   3  310.67   21.90
  -2   7  -3  287.87   16.60
   2   7   3  320.07   19.30
  -2   7  -3  304.47   17.80
   2   7   3  295.67   19.10
  -3  -7  -3    2.10    2.20
   3  -7   3    2.50    3.10
  -3  -7  -3    1.50    3.30
  -3   7  -3   -1.60    1.40
   3   7   3    2.20    2.80
   3   7   3    1.90    2.20
  -3   7  -3   -2.60    2.00
  -3   7  -3    0.20    2.40
   4  -7   3    4.30    4.30
  -4  -7  -3    5.90    3.00
  -4  -7  -3    6.30    3.30
   4   7   3    4.90    3.40
   4   7   3    5.50    3.00
  -4   7  -3    9.60    3.40
  -4   7  -3    4.00    2.50
  -5  -7  -3   46.40    8.80
  -5  -7  -3   35.90    7.70
  -5  -7  -3   42.60    7.20
   5  -7   3   46.20    9.60
  -5   7  -3   45.00    8.30
   5   7   3   41.80    7.90
  -5   7  -3   47.60    5.30
   5   7   3   40.00    8.00
  -5   7  -3   49.30    4.80
   6  -7   3    3.80    4.30
  -6  -7  -3   12.90    4.60
  -6  -7  -3    6.50    4.70
  -6   7  -3   10.60    2.60
  -6   7  -3   12.80    4.90
   6   7   3   20.90    5.90
  -7  -7  -3   93.59   10.70
  -7  -7  -3   91.59   11.30
   7  -7   3   94.39   16.10
  -7   7  -3   90.19   10.70
   7   7   3   82.29   10.40
   8  -7   3   10.70   11.70
  -8  -7  -3    1.70    5.10
  -8  -7  -3   11.80    5.80
   8   7   3    7.00    4.80
  -8   7  -3    7.30    5.30
  -9  -8   3   11.90    4.90
  -9   8   3   23.90    8.70
   9   8  -3   27.30    8.40
  -8  -8   3   26.70    8.10
  -8  -8   3   27.50    6.90
   8   8  -3   17.50    6.30
   8   8  -3   21.20    6.10
  -8   8   3   14.90    5.80
  -8   8   3   34.60    8.50
  -7  -8   3   59.19   10.60
   7   8  -3   47.00    9.80
   7   8  -3   54.19    8.90
  -7   8   3   64.49   10.20
  -7   8   3   67.19   10.80
  -6  -8   3    9.30    5.20
   6  -8  -3    1.60    5.00
  -6  -8   3    6.80    3.20
   6   8  -3   -4.50    2.70
  -6   8   3    0.80    3.90
  -6   8   3    0.00    3.40
  -5  -8   3  277.07   22.30
   5  -8  -3  252.07   21.80
  -5  -8   3  307.77   21.20
   5   8  -3  298.27   18.80
   5   8  -3  313.97   22.80
  -5   8   3  337.77   22.10
  -5   8   3  282.37   20.10
  -5   8   3  283.87   22.90
  -4  -8   3   88.19   11.80
   4  -8  -3  110.89   12.20
   4   8  -3   95.49    9.30
   4   8  -3  108.99   12.60
  -4   8   3   85.89   10.50
  -4   8   3   91.89   10.90
  -4   8   3   74.19   10.90
  -3  -8   3   10.80    4.60
  -3  -8   3    3.40    3.50
   3   8  -3   16.50    4.50
  -3   8   3    2.20    3.30
   3   8  -3   15.10    5.90
  -3   8   3    7.60    4.30
   2  -8  -3  394.16   24.00
   2  -8  -3  377.56   24.20
  -2  -8   3  364.56   25.40
  -2  -8   3  387.76   22.90
  -2   8   3  337.87   22.70
  -2   8   3  415.16   24.20
   2   8  -3  361.06   24.90
   2   8  -3  373.46   21.20
  -1  -8   3   94.49   11.80
   1  -8  -3  118.69   12.10
   1  -8  -3  115.29   11.30
  -1  -8   3   98.59   10.00
  -1   8   3   75.99   10.20
  -1   8   3   97.59   10.50
   1   8  -3   85.59   11.20
   1   8  -3   91.19    9.00
   1   8  -3   93.39   11.40
   0  -8  -3   78.99    9.50
   0  -8   3   76.29   10.60
   0  -8  -3   60.19    9.50
   0  -8   3   75.29    8.00
   0   8  -3   88.99    8.50
   0   8   3   75.79    9.60
   0   8   3   72.89    9.10
   1  -8   3   38.40    6.40
  -1  -8  -3   42.20    8.10
  -1  -8  -3   21.30    5.40
   1  -8   3   34.10    7.80
   1   8   3   38.10    7.60
   1   8   3   43.10    8.10
  -1   8  -3   31.60    6.10
  -2  -8  -3   50.49    9.00
   2  -8   3   39.10    8.40
  -2  -8  -3   39.30    7.60
   2  -8   3   42.00    6.70
   2   8   3   29.70    8.60
  -2   8  -3   48.70    7.80
   3  -8   3   72.39   14.90
  -3  -8  -3   58.49   10.30
  -3  -8  -3   78.19    9.30
   3   8   3   63.49    8.60
   3   8   3   52.09    9.10
  -3   8  -3   63.09    6.80
  -3   8  -3   56.99    7.70
   4  -8   3   18.60    6.40
  -4  -8  -3   13.40    5.50
  -4   8  -3   19.60    6.10
   4   8   3   20.30    6.10
   4   8   3   15.90    5.20
  -5  -8  -3    7.20    5.10
   5  -8   3   12.70    5.80
  -5   8  -3    9.90    2.90
   5   8   3   12.20    5.60
   5   8   3   10.40    4.20
   6  -8   3    4.50    7.40
  -6  -8  -3   -2.20    3.50
   6   8   3    1.70    3.30
   6   8   3    2.90    3.60
  -6   8  -3   -2.20    3.10
  -6   8  -3   10.80    4.50
  -7  -8  -3    6.20    4.60
   7  -8   3   19.90    9.80
   7   8   3    9.50    4.40
  -7   8  -3   16.30    6.60
   7   8   3   13.90    6.10
  -7  -9   3   56.49   13.30
   7   9  -3   49.99   12.00
  -7   9   3   52.59    9.90
   7   9  -3   75.09    9.40
  -6  -9   3  328.57   23.70
   6   9  -3  347.67   26.50
  -6   9   3  362.26   24.90
   6   9  -3  306.37   21.10
  -6   9   3  339.27   23.40
  -5  -9   3   20.30    6.30
  -5   9   3   24.70    6.60
   5   9  -3   16.50    5.70
   5   9  -3   14.50    7.10
  -5   9   3   29.80    7.50
  -4  -9   3  289.37   21.40
   4   9  -3  323.77   25.60
  -4   9   3  311.37   21.90
  -4   9   3  323.87   22.80
  -3  -9   3  404.96   25.40
  -3  -9   3  419.36   28.30
  -3   9   3  408.46   25.60
   3   9  -3  373.56   27.60
  -3   9   3  411.56   25.90
   2  -9  -3    0.40    3.20
  -2  -9   3    0.90    3.00
  -2  -9   3   -4.00    4.70
  -2   9   3    7.30    3.70
  -2   9   3    0.70    3.80
   2   9  -3    7.80    5.40
   2   9  -3    3.60    3.10
  -1  -9   3  482.35   31.10
   1  -9  -3  452.25   28.40
  -1  -9   3  490.55   27.50
  -1   9   3  442.16   34.20
   1   9  -3  472.55   26.20
  -1   9   3  480.75   28.30
   0  -9   3   79.19   12.30
   0  -9  -3   89.99   10.80
   0  -9   3   96.79   10.00
   0   9   3   87.09   11.00
   0   9   3  102.69   11.30
   0   9  -3  116.79   10.40
  -1  -9  -3   49.20    9.40
   1  -9   3   65.19   12.70
   1  -9   3   47.40    7.90
   1   9   3   38.20    7.90
  -1   9  -3   51.49    8.40
   1   9   3   65.19   10.30
   2  -9   3  193.88   14.20
   2  -9   3  214.28   20.30
  -2  -9  -3  194.68   16.90
   2   9   3  156.38   14.60
  -2   9  -3  192.08   15.00
  -3  -9  -3   -1.50    3.50
   3  -9   3   15.90    5.50
   3   9   3    6.00    4.40
  -3   9  -3   15.50    8.10
   3   9   3    2.30    4.20
  -3   9  -3   10.00    2.70
  -4  -9  -3  234.38   19.60
   4  -9   3  235.18   21.70
   4   9   3  226.48   18.90
  -4   9  -3  262.17   18.70
  -4   9  -3  257.47   16.00
   4   9   3  223.68   18.30
   5  -9   3    1.20    6.40
  -5  -9  -3    0.80    3.30
   5   9   3   -2.60    3.80
  -5   9  -3    1.50    3.60
  -5   9  -3    4.90    4.70
   5   9   3   -6.40    4.20
  -6  -9  -3   87.99   11.60
   6  -9   3   63.19   15.70
   6   9   3   46.50    9.70
   6   9   3   59.59   11.20
  -6   9  -3   52.29    9.40
  -5 -10   3  109.69   14.90
  -5  10   3  113.79   13.30
   5  10  -3   76.49   11.70
  -4 -10   3  220.48   18.40
  -4  10   3  229.78   19.30
   4  10  -3  205.28   20.00
  -4  10   3  207.18   18.00
  -3 -10   3   33.80    7.40
   3  10  -3   38.70    8.10
  -3  10   3   34.10    7.80
   3  10  -3   23.70    7.60
  -3  10   3   34.70    8.00
  -2 -10   3  327.37   22.60
  -2  10   3  339.07   23.70
  -2  10   3  315.97   23.20
   2  10  -3  320.07   21.20
  -1 -10   3   24.00    7.00
   1 -10  -3   12.30    5.80
  -1  10   3   27.20    7.60
   1  10  -3   19.30    6.60
   0 -10  -3   86.99   11.20
   0 -10   3   71.89    9.00
   0  10  -3   79.49   10.40
   0  10   3   90.59   11.40
  -1 -10  -3  199.58   17.70
   1 -10   3  188.28   15.40
   1  10   3  209.28   17.30
  -1  10  -3  170.68   15.40
  -2 -10  -3   25.30    6.70
  -2  10  -3   16.60    6.20
  -2  10  -3   22.40    6.10
   2  10   3   23.10    6.60
  -3 -10  -3  165.28   19.50
  -3  10  -3  185.08   16.20
   3  10   3  189.58   20.10
 -13   0   4   14.00    6.90
  13   0  -4   28.40   10.10
 -13   0   4   37.90    9.40
 -12   0   4   -1.80    3.90
 -12   0   4    0.10    4.40
  12   0  -4    6.10    6.50
 -11   0   4  319.97   22.50
  11   0  -4  326.07   25.50
 -11   0   4  324.07   22.20
 -10   0   4   18.90    5.50
  10   0  -4   24.20    7.20
 -10   0   4   27.10    6.70
   9   0  -4  189.18   16.60
  -9   0   4  181.48   14.20
  -9   0   4  154.18   13.10
  -8   0   4  147.99   13.40
   8   0  -4  157.38   14.10
  -8   0   4  132.69   11.50
  -8   0   4  139.19   11.40
  -7   0   4  108.49    9.60
  -7   0   4  113.69   10.70
   7   0  -4  105.69   10.80
  -7   0   4   87.69    8.50
  -6   0   4 2019.70   84.99
  -6   0   4 1985.20   81.79
  -6   0   4 2063.09   83.19
   6   0  -4 2120.79   85.49
   6   0  -4 2014.80   81.49
   6   0  -4 1934.51   82.29
   5   0  -4   22.80    4.70
   5   0  -4   29.80    3.80
  -5   0   4   30.20    5.30
  -5   0   4   26.60    4.20
  -5   0   4   31.60    5.00
   4   0  -4 1099.99   42.80
   4   0  -4 1021.40   44.00
  -4   0   4 1018.00   42.80
   4   0  -4 1071.89   45.40
  -4   0   4 1003.80   45.00
  -4   0   4 1045.80   44.30
  -3   0   4 1877.11   76.59
   3   0  -4 1913.81   74.29
  -3   0   4 1934.31   74.49
  -3   0   4 1872.01   75.99
   3   0  -4 1920.71   75.99
   3   0  -4 1972.80   76.59
  -2   0   4 1116.49   47.30
  -2   0   4 1171.18   45.70
   2   0  -4 1174.08   45.60
   2   0  -4 1146.19   47.20
  -2   0   4 1190.68   47.40
   2   0  -4 1232.58   47.40
   1   0  -4 3033.70  115.49
   0   0   4  190.78    8.80
   0   0   4  195.78    8.80
   0   0  -4  197.88    8.70
   1   0   4  219.28   10.00
   1   0   4  215.68   10.00
  -1   0  -4  224.08   10.40
   1   0   4  226.98   10.10
   1   0   4  213.98   10.40
   2   0   4   16.00    2.80
  -2   0  -4   18.00    2.00
   2   0   4   17.30    2.50
  -2   0  -4   17.10    2.80
  -2   0  -4   18.90    2.00
   2   0   4   20.20    2.20
   3   0   4   22.80    3.20
   3   0   4   27.10    4.00
  -3   0  -4   20.60    2.40
   3   0   4   22.70    2.50
  -3   0  -4   22.40    3.80
  -3   0  -4   23.40    2.70
   4   0   4   19.30    4.60
   4   0   4   23.60    4.30
  -4   0  -4   19.00    2.50
  -4   0  -4   17.80    2.70
  -4   0  -4   18.40    3.70
   4   0   4   18.40    2.90
  -5   0  -4   46.20    5.40
   5   0   4   48.60    6.10
  -5   0  -4   49.10    4.30
   5   0   4   47.30    4.60
  -6   0  -4  805.92   37.90
  -6   0  -4  847.62   34.70
   6   0   4  782.52   38.80
   6   0   4  800.52   34.90
   7   0   4   73.49    9.00
  -7   0  -4   70.79    5.90
   7   0   4   66.79    6.20
  -7   0  -4   67.19    7.80
  -8   0  -4   -4.20    2.10
   8   0   4   -0.90    2.40
  -8   0  -4    1.10    1.70
   8   0   4    0.30    2.30
  -9   0  -4  665.43   36.50
   9   0   4  705.73   40.40
  10   0   4   94.89   13.30
 -10   0  -4  100.69   12.00
 -10   0  -4   96.89    8.50
 -11   0  -4   14.70    6.30
  11   0   4   21.60    7.70
 -11   0  -4   17.10    4.20
  13  -1  -4    6.00    6.80
 -13  -1   4   34.10    8.60
 -13  -1   4   10.30    4.00
 -13   1   4   20.50    7.30
  13   1  -4    8.90    7.70
  12  -1  -4  168.28   19.00
 -12  -1   4  168.08   15.80
 -12  -1   4  189.78   16.30
  12   1  -4  161.38   18.60
 -12   1   4  142.59   14.50
 -12   1   4  154.28   15.80
 -11  -1   4   -5.70    2.80
  11  -1  -4    0.60    4.00
 -11  -1   4   -4.10    2.10
 -11   1   4    3.20    3.60
  11   1  -4    6.20    4.50
  10  -1  -4   37.40    9.00
 -10  -1   4   30.50    7.10
 -10  -1   4   40.20    8.00
 -10   1   4   39.20    8.10
 -10   1   4   42.00    7.90
  10   1  -4   34.40    8.10
  -9  -1   4    4.00    2.80
  -9  -1   4    1.00    2.90
  -9   1   4   -3.00    2.20
  -9   1   4    0.30    2.20
   8  -1  -4   59.69    8.80
  -8  -1   4   68.99    7.90
  -8  -1   4   63.69    7.30
  -8   1   4   57.09    7.10
  -8   1   4   62.79    7.70
  -8   1   4   58.49    8.60
   8   1  -4   67.79    9.40
  -7  -1   4  102.49    9.40
   7  -1  -4   93.19   10.40
  -7  -1   4  111.49   11.40
   7   1  -4  110.09   11.00
  -7   1   4   90.59    9.90
  -7   1   4   98.69    8.90
  -7   1   4  109.99    9.20
  -6  -1   4  137.19   11.40
   6  -1  -4  111.29    9.00
   6  -1  -4  126.29   11.30
   6  -1  -4  132.29    9.90
  -6  -1   4  134.89    9.50
  -6  -1   4  124.69   10.00
   6   1  -4  135.99   11.40
  -6   1   4  126.69    9.60
  -6   1   4  139.89   10.30
   6   1  -4  117.79    8.90
  -6   1   4  148.19   11.80
   6   1  -4  146.89   10.70
   5  -1  -4 1201.98   51.79
  -5  -1   4 1164.08   50.19
  -5  -1   4 1226.68   48.80
   5  -1  -4 1147.89   48.80
  -5  -1   4 1155.78   51.59
  -5   1   4 1096.69   51.09
  -5   1   4 1219.98   50.19
   5   1  -4 1187.38   51.59
   5   1  -4 1160.28   49.99
   5   1  -4 1194.58   48.50
  -5   1   4 1149.29   49.20
  -4  -1   4   88.69    8.00
   4  -1  -4   87.19    7.80
  -4  -1   4   98.09    7.60
  -4  -1   4   86.29    6.10
   4  -1  -4   92.59    6.50
   4  -1  -4   80.29    6.80
   4   1  -4   85.39    7.00
  -4   1   4   88.89    6.70
  -4   1   4   85.29    7.70
   4   1  -4   90.19    6.10
   4   1  -4  100.09    8.30
  -4   1   4   94.19    7.40
  -3  -1   4  175.48    8.80
  -3  -1   4  171.48   10.40
  -3  -1   4  179.48   11.10
   3  -1  -4  174.58    9.50
   3  -1  -4  189.48   10.60
   3   1  -4  190.28   10.60
   3   1  -4  175.48   10.80
  -3   1   4  182.18   10.60
   3   1  -4  172.38    8.70
  -3   1   4  167.88    9.50
  -3   1   4  179.98   10.80
  -2  -1   4 1575.24   61.89
  -2  -1   4 1631.14   64.89
   2  -1  -4 1628.34   63.29
   2  -1  -4 1641.64   63.99
  -2  -1   4 1700.53   64.39
   2  -1  -4 1497.95   64.29
  -2   1   4 1561.94   63.29
  -2   1   4 1682.23   64.79
  -2   1   4 1702.73   64.49
   2   1  -4 1816.82   64.49
   2   1  -4 1422.76   61.79
  -1  -1   4  435.76   20.00
   1  -1  -4  470.25   19.00
  -1  -1   4  460.95   20.80
   1  -1  -4  493.85   19.90
   1  -1  -4  475.15   20.80
  -1   1   4  483.15   19.80
  -1   1   4  461.75   19.80
   1   1  -4  485.55   20.20
  -1   1   4  482.35   21.00
  -1   1   4  456.45   20.70
   0  -1   4  570.94   21.20
   0  -1  -4  532.85   22.70
   0  -1   4  545.55   23.50
   0  -1   4  544.95   23.20
   0  -1  -4  538.95   23.30
   0  -1   4  485.75   21.90
   0   1  -4  534.75   23.00
   0   1  -4  544.85   21.10
   0   1   4  532.45   23.10
   0   1  -4  559.64   22.10
   0   1   4  543.35   23.30
   0   1   4  549.85   22.80
   0   1   4  557.04   20.90
   0   1   4  551.14   22.80
  -1  -1  -4    6.10    1.90
  -1  -1  -4    6.30    1.70
   1  -1   4    9.40    2.10
   1  -1   4    7.30    2.00
   1  -1   4    6.00    0.90
   1  -1   4    4.20    0.90
   1  -1   4    7.10    1.50
   1   1   4    6.40    1.70
  -1   1  -4    8.50    2.00
  -1   1  -4    7.50    1.60
   1   1   4    2.90    1.30
   1   1   4    7.00    0.80
   2  -1   4 1726.83   60.09
  -2  -1  -4 1546.65   63.19
   2  -1   4 1618.24   63.79
  -2  -1  -4 1636.04   62.79
   2  -1   4 1499.95   59.99
   2  -1   4 1586.04   62.59
   2   1   4 1562.74   63.39
  -2   1  -4 1643.14   62.79
   2   1   4 1599.34   62.69
  -2   1  -4 1609.04   63.09
   2   1   4 1459.35   61.59
  -3  -1  -4    3.80    2.10
  -3  -1  -4    2.30    0.90
   3  -1   4    2.20    1.50
   3  -1   4    4.10    1.60
  -3  -1  -4    3.50    1.40
   3  -1   4    4.00    0.90
   3   1   4    2.20    1.50
   3   1   4    4.90    1.90
  -3   1  -4    3.10    1.90
  -3   1  -4    2.10    1.60
  -3   1  -4    2.60    0.70
   3   1   4    4.30    1.70
   4  -1   4  143.49    6.90
  -4  -1  -4  137.69    8.50
  -4  -1  -4  137.89    9.60
   4  -1   4  106.09    8.60
  -4  -1  -4  130.19    7.80
   4  -1   4  147.59   10.30
  -4   1  -4  144.89    9.60
  -4   1  -4  132.79    9.20
  -4   1  -4  136.09    6.60
   4   1   4  144.09    9.90
   4   1   4  143.19    9.40
   4   1   4  139.79    8.70
  -5  -1  -4 2493.15   94.29
   5  -1   4 2260.27   97.09
  -5  -1  -4 2392.56   99.79
   5  -1   4 2356.36   95.79
   5  -1   4 2388.86   91.89
   5   1   4 2452.95   96.39
  -5   1  -4 2404.96   96.09
  -5   1  -4 2368.66   91.59
   5   1   4 2329.47   94.29
  -6  -1  -4   79.29    6.80
   6  -1   4   75.89    5.70
  -6  -1  -4   76.99    8.00
   6  -1   4   71.59    8.60
  -6   1  -4   90.09    8.50
   6   1   4   82.89    8.40
   6   1   4   78.09    7.20
  -6   1  -4   85.99    5.60
  -7  -1  -4  405.46   22.80
   7  -1   4  375.66   18.30
  -7  -1  -4  384.46   20.00
   7  -1   4  399.96   24.40
  -7   1  -4  406.36   22.80
  -7   1  -4  380.46   17.90
   7   1   4  376.66   20.40
   7   1   4  357.06   22.70
   8  -1   4  669.43   37.10
  -8  -1  -4  651.63   34.40
   8  -1   4  670.53   29.70
  -8  -1  -4  662.93   31.30
  -8   1  -4  641.94   34.40
   8   1   4  654.63   35.70
  -8   1  -4  665.33   29.10
   9  -1   4   -1.80    2.70
  -9  -1  -4    3.20    2.30
   9  -1   4    0.00    4.60
  -9  -1  -4    5.30    4.50
   9   1   4    4.90    3.90
  -9   1  -4    2.20    2.70
  -9   1  -4    6.00    2.30
  10  -1   4  468.15   31.90
 -10  -1  -4  493.45   25.80
 -10  -1  -4  515.05   30.30
 -10   1  -4  490.95   29.80
 -10   1  -4  456.65   23.10
  10   1   4  499.25   31.90
 -11  -1  -4   23.00    5.90
  11  -1   4   48.40   11.40
 -11  -1  -4   30.00    7.30
 -11   1  -4   29.90    8.60
 -11   1  -4   20.00    5.10
  11   1   4   19.10    6.60
  13  -2  -4   15.70   11.10
 -13  -2   4    9.60    6.30
  13   2  -4   27.00    9.80
 -13   2   4   12.20    6.80
 -13   2   4   13.40    7.20
 -12  -2   4    4.40    4.60
  12  -2  -4    6.70    7.10
 -12  -2   4   11.90    5.30
 -12   2   4    8.70    4.80
 -12   2   4    3.00    3.50
  12   2  -4    2.80    7.70
 -11  -2   4   73.29   11.30
 -11  -2   4   82.69   10.60
  11  -2  -4   88.29   11.90
 -11   2   4   64.49   11.30
 -11   2   4   75.39    9.60
  11   2  -4   54.69   11.50
 -10  -2   4    8.40    4.40
 -10  -2   4   11.90    5.00
  10  -2  -4    8.40    4.30
 -10   2   4   16.20    6.50
  10   2  -4   18.80    6.40
 -10   2   4   12.00    5.70
  -9  -2   4    6.90    3.20
   9  -2  -4    8.80    5.50
  -9  -2   4    2.60    3.80
  -9   2   4    3.20    3.20
  -9   2   4   10.20    3.90
   9   2  -4   -0.20    2.80
  -8  -2   4  100.89   10.00
  -8  -2   4   88.69    8.60
   8  -2  -4  100.99   11.40
  -8   2   4   86.09    9.00
  -8   2   4  118.89   10.40
  -8   2   4   86.19   10.40
   8   2  -4   92.59   10.60
  -7  -2   4   35.40    6.50
  -7  -2   4   34.20    7.30
   7  -2  -4   26.30    6.20
  -7  -2   4   30.80    5.70
   7   2  -4   34.50    6.90
  -7   2   4   28.50    5.80
  -7   2   4   26.50    5.40
  -7   2   4   34.70    7.10
  -6  -2   4   32.90    5.90
   6  -2  -4   30.40    6.20
  -6  -2   4   33.00    4.30
  -6  -2   4   23.70    5.20
   6  -2  -4   29.40    5.20
   6   2  -4   29.10    4.90
   6   2  -4   26.80    5.50
  -6   2   4   22.60    5.40
  -6   2   4   26.60    5.20
  -6   2   4   20.30    5.40
  -5  -2   4  118.69   10.10
   5  -2  -4  103.39    8.00
  -5  -2   4  117.99    9.10
   5  -2  -4  113.39    8.70
   5  -2  -4  114.89    9.80
  -5  -2   4  109.19    7.60
  -5   2   4  112.99    9.70
   5   2  -4  112.49    9.70
   5   2  -4  101.79    7.40
  -5   2   4  120.99    8.80
   5   2  -4  101.09    8.60
  -5   2   4   99.89    8.30
   4  -2  -4   57.89    6.30
  -4  -2   4   58.99    6.60
   4  -2  -4   65.09    5.50
  -4  -2   4   60.69    4.80
  -4  -2   4   61.39    6.20
   4  -2  -4   65.49    6.00
  -4   2   4   73.99    6.30
   4   2  -4   68.39    6.90
   4   2  -4   61.79    4.90
   4   2  -4   50.29    5.60
  -4   2   4   52.99    5.30
  -4   2   4   60.99    6.50
  -3  -2   4  323.67   17.90
   3  -2  -4  316.07   16.20
  -3  -2   4  336.57   15.00
  -3  -2   4  337.67   17.10
   3  -2  -4  336.67   17.00
  -3   2   4  355.86   16.80
   3   2  -4  330.67   17.90
   3   2  -4  349.57   17.20
   3   2  -4  312.27   15.00
  -3   2   4  379.76   18.00
  -3   2   4  362.16   17.60
  -2  -2   4  534.75   22.00
  -2  -2   4  529.35   24.30
  -2  -2   4  582.84   25.90
   2  -2  -4  477.75   23.80
   2  -2  -4  563.14   24.10
  -2   2   4  609.34   24.90
   2   2  -4  561.04   24.40
  -2   2   4  573.64   25.20
   2   2  -4  536.55   22.10
   2   2  -4  534.85   25.10
  -2   2   4  581.34   25.00
  -2   2   4  539.45   24.10
   1  -2  -4 1483.35   55.69
  -1  -2   4 1325.57   57.49
  -1  -2   4 1446.76   58.19
   1  -2  -4 1404.86   56.49
   1  -2  -4 1346.67   54.89
  -1  -2   4 1350.76   55.99
   1   2  -4 1410.66   57.59
  -1   2   4 1429.46   57.29
  -1   2   4 1474.75   56.69
  -1   2   4 1380.96   57.09
   1   2  -4 1395.46   53.89
   1   2  -4 1414.26   53.89
  -1   2   4 1590.04   56.29
   1   2  -4 1431.66   56.19
   0  -2   4  738.33   32.70
   0  -2   4  767.62   30.50
   0  -2   4  724.73   29.50
   0  -2   4  771.82   33.20
   0  -2  -4  775.22   32.60
   0   2  -4  774.12   32.90
   0   2   4  740.93   31.90
   0   2  -4  794.12   29.70
   0   2   4  744.33   31.80
   0   2   4  799.82   30.30
   0   2   4  738.83   32.20
   1  -2   4  658.23   29.80
  -1  -2  -4  643.14   28.70
   1  -2   4  654.63   29.40
   1  -2   4  657.23   25.80
  -1  -2  -4  682.53   29.10
  -1   2  -4  676.63   25.90
  -1   2  -4  640.74   29.30
   1   2   4  659.53   28.80
   1   2   4  674.43   26.50
   1   2   4  673.43   28.90
   1   2   4  713.23   26.50
  -2  -2  -4 1743.63   69.39
   2  -2   4 1574.84   67.59
   2  -2   4 1744.13   70.39
  -2  -2  -4 1724.93   69.19
  -2   2  -4 1637.84   69.59
   2   2   4 1746.03   69.49
  -2   2  -4 1694.83   67.99
   2   2   4 1996.50   67.49
   2   2   4 1707.73   69.09
   3  -2   4   40.30    5.20
  -3  -2  -4   43.80    2.70
   3  -2   4   45.60    4.40
  -3  -2  -4   51.69    5.10
  -3  -2  -4   43.30    4.50
  -3  -2  -4   44.20    2.70
  -3   2  -4   44.90    5.10
  -3   2  -4   45.50    4.50
   3   2   4   52.59    4.40
   3   2   4   43.70    4.60
   3   2   4   50.49    5.30
  -4  -2  -4  638.54   29.20
  -4  -2  -4  630.84   28.20
  -4  -2  -4  638.64   25.90
   4  -2   4  595.04   33.40
   4  -2   4  604.94   30.20
  -4  -2  -4  592.74   25.70
   4   2   4  598.14   27.90
  -4   2  -4  626.24   30.30
   4   2   4  567.84   28.90
  -4   2  -4  662.53   28.80
   4   2   4  616.24   28.50
  -5  -2  -4  187.88   12.50
  -5  -2  -4  173.18   11.40
   5  -2   4  169.38   13.20
   5  -2   4  182.18    7.70
   5  -2   4  164.18   11.70
   5   2   4  185.28   12.10
  -5   2  -4  176.18    7.50
  -5   2  -4  190.18   12.30
   5   2   4  169.18   11.50
   6  -2   4  171.58   10.30
  -6  -2  -4  178.48   12.90
  -6  -2  -4  165.08   11.30
   6  -2   4  152.68   13.40
  -6   2  -4  164.78    7.90
   6   2   4  155.48   12.20
  -6   2  -4  169.98   12.40
   7  -2   4  306.17   14.50
   7  -2   4  308.87   21.50
  -7  -2  -4  333.37   18.40
  -7  -2  -4  327.77   20.20
  -7   2  -4  318.37   19.70
   7   2   4  282.17   19.40
  -7   2  -4  323.67   14.20
  -8  -2  -4   21.60    4.50
  -8  -2  -4    6.10    3.80
   8  -2   4   18.50    6.90
   8  -2   4   14.50    2.80
  -8   2  -4   11.50    2.40
  -8   2  -4   14.00    5.40
   8   2   4   12.50    4.30
   9  -2   4   28.20    4.40
  -9  -2  -4   44.70    8.90
   9  -2   4   37.00   12.50
  -9  -2  -4   44.50    7.80
  -9   2  -4   42.20    8.60
   9   2   4   57.89   10.70
  -9   2  -4   38.10    4.10
 -10  -2  -4   32.20    7.00
 -10  -2  -4   31.10    7.60
  10  -2   4   46.10   11.10
 -10   2  -4   34.40    4.50
  10   2   4   40.90    9.20
 -10   2  -4   42.10    8.60
 -11  -2  -4   26.50    6.50
 -11  -2  -4   24.50    7.00
  11  -2   4   22.80    8.10
 -11   2  -4   31.90    8.10
  11   2   4   37.50    9.40
  12  -3  -4    0.20    6.50
 -12  -3   4   13.70    5.80
 -12  -3   4   13.70    3.70
  12   3  -4    1.80    6.90
 -12   3   4    3.30    4.30
 -12   3   4    1.60    4.40
 -11  -3   4   -4.60    2.80
 -11  -3   4    2.20    4.00
  11  -3  -4    0.10    4.60
 -11   3   4    1.90    3.30
  11   3  -4   -2.80    3.70
 -11   3   4   -1.20    4.00
 -10  -3   4   -2.20    2.50
 -10  -3   4    5.50    3.10
 -10   3   4   -3.40    2.40
  10   3  -4    2.70    4.50
 -10   3   4    0.60    3.20
   9  -3  -4   14.40    5.80
  -9  -3   4    8.10    4.00
  -9  -3   4   14.30    5.40
  -9   3   4   10.70    4.60
  -9   3   4   12.70    3.70
   9   3  -4   19.10    6.10
  -8  -3   4    3.30    2.30
   8  -3  -4   -0.30    2.80
  -8  -3   4    1.00    3.00
  -8   3   4   -1.00    2.70
  -8   3   4    1.40    2.00
  -8   3   4   -2.80    3.30
   8   3  -4    6.90    3.80
  -7  -3   4  102.29    8.70
  -7  -3   4  113.29   10.50
   7  -3  -4   97.79   10.80
  -7   3   4  104.09    9.70
  -7   3   4  118.69    9.90
  -7   3   4   85.49   10.10
   7   3  -4  105.59   10.90
  -6  -3   4  358.46   18.80
   6  -3  -4  415.06   23.30
  -6  -3   4  323.67   21.60
  -6  -3   4  354.86   20.70
  -6   3   4  355.56   21.90
   6   3  -4  371.76   19.10
  -6   3   4  365.46   20.40
  -6   3   4  352.56   20.30
   6   3  -4  358.56   22.00
  -5  -3   4   21.70    4.90
  -5  -3   4   20.10    3.70
  -5  -3   4   26.70    5.10
   5  -3  -4   22.00    4.40
   5  -3  -4   31.60    6.60
   5   3  -4   17.30    4.60
   5   3  -4   23.20    4.00
  -5   3   4   24.20    5.70
  -5   3   4   27.20    5.10
  -5   3   4   31.70    5.40
   4  -3  -4  878.01   37.70
  -4  -3   4  856.91   39.90
   4  -3  -4  718.23   38.50
   4  -3  -4  873.51   38.20
  -4  -3   4  863.81   38.60
  -4  -3   4  885.61   36.20
   4   3  -4  902.11   36.50
   4   3  -4  918.71   40.20
   4   3  -4  876.01   38.80
  -4   3   4  912.71   38.40
  -4   3   4  833.42   39.30
  -4   3   4  841.52   38.40
  -4   3   4  872.41   38.20
  -3  -3   4  805.92   35.50
  -3  -3   4  792.82   36.90
  -3  -3   4  800.12   37.00
  -3  -3   4  791.12   33.00
   3   3  -4  785.02   36.60
  -3   3   4  829.02   36.40
  -3   3   4  779.42   35.50
  -3   3   4  836.72   35.50
  -3   3   4  806.32   35.90
   3   3  -4  826.52   35.80
   3   3  -4  830.62   33.50
   2  -3  -4   50.09    4.60
   2  -3  -4   46.70    4.40
  -2  -3   4   47.80    5.70
  -2  -3   4   50.19    5.70
   2  -3  -4   46.40    4.80
  -2  -3   4   45.40    4.70
  -2   3   4   58.59    5.20
   2   3  -4   48.10    5.60
  -2   3   4   49.30    5.10
   2   3  -4   43.20    4.70
  -2   3   4   44.40    4.90
  -2   3   4   53.39    5.20
   2   3  -4   52.89    3.80
   2   3  -4   53.19    3.70
  -1  -3   4  514.15   24.60
  -1  -3   4  528.65   25.10
  -1  -3   4  481.95   22.20
   1  -3  -4  489.45   23.10
   1  -3  -4  487.25   23.80
   1  -3  -4  479.05   21.60
   1  -3  -4  590.74   23.40
  -1   3   4  490.55   23.50
   1   3  -4  500.15   20.80
   1   3  -4  509.65   20.80
  -1   3   4  509.85   23.30
   1   3  -4  534.75   24.60
   1   3  -4  460.05   22.30
  -1   3   4  531.65   23.00
   0  -3  -4   13.10    1.70
   0  -3   4    6.70    2.30
   0  -3   4   10.80    3.40
   0  -3  -4   10.70    2.70
   0  -3   4   12.00    2.20
   0  -3   4    9.60    2.50
   0  -3  -4   12.20    1.90
   0   3   4   11.00    2.90
   0   3   4    9.30    1.90
   0   3  -4    7.10    2.40
   0   3   4    9.80    2.60
   0   3   4   10.40    2.50
   0   3  -4   11.60    2.20
   0   3  -4   16.30    3.80
   0   3   4   14.60    3.00
   1  -3   4    8.30    3.00
  -1  -3  -4    7.10    1.10
  -1  -3  -4    5.90    2.10
  -1  -3  -4    7.20    2.40
   1  -3   4    5.20    1.20
  -1  -3  -4    8.20    1.20
   1  -3   4    6.60    2.40
   1  -3   4    7.20    1.70
   1   3   4    5.50    2.00
   1   3   4    7.20    1.70
   1   3   4    7.50    1.80
  -1   3  -4    7.40    3.00
   1   3   4    8.30    2.20
  -1   3  -4    5.30    1.60
   1   3   4    3.70    2.00
  -1   3  -4    5.80    1.30
  -2  -3  -4  158.38   10.20
  -2  -3  -4  152.08   10.20
  -2  -3  -4  154.98    6.70
   2  -3   4  149.29    8.70
   2  -3   4  167.98   11.50
   2  -3   4  153.78   10.90
   2   3   4  152.58    8.60
  -2   3  -4  142.39    6.50
  -2   3  -4  170.58    9.30
  -2   3  -4  171.98   11.80
   2   3   4  166.78   10.40
  -2   3  -4  155.58    6.60
   2   3   4  154.68   11.40
  -3  -3  -4  422.06   20.90
   3  -3   4  408.96   21.90
  -3  -3  -4  408.56   17.00
  -3  -3  -4  412.26   20.80
  -3  -3  -4  413.76   17.10
   3  -3   4  434.96   19.70
   3  -3   4  424.96   22.70
  -3   3  -4  413.46   21.70
   3   3   4  369.56   20.60
   3   3   4  393.36   20.60
   3   3   4  410.16   19.20
  -3   3  -4  381.06   19.50
   4  -3   4    2.30    1.70
   4  -3   4    0.40    1.60
  -4  -3  -4    1.80    1.70
  -4  -3  -4    2.40    1.00
  -4  -3  -4    1.40    1.50
   4   3   4    2.40    1.70
  -4   3  -4    2.80    1.70
  -5  -3  -4  190.18   12.30
  -5  -3  -4  162.38    9.50
   5  -3   4  150.58   13.10
  -5  -3  -4  173.28   12.30
   5   3   4  167.48   11.50
   6  -3   4   59.59   10.20
  -6  -3  -4   45.70    7.40
  -6  -3  -4   53.99    5.30
  -6  -3  -4   52.89    6.40
  -6   3  -4   35.10    6.40
   6   3   4   51.49    6.60
   7  -3   4  193.98   16.70
  -7  -3  -4  188.08   14.60
  -7  -3  -4  192.58   12.90
  -7  -3  -4  219.98   14.40
  -7   3  -4  192.78   14.40
   7   3   4  159.68   13.60
  -8  -3  -4   -1.80    2.30
   8  -3   4   -1.30    3.50
  -8  -3  -4    0.60    2.50
  -8   3  -4   -1.00    2.50
  -8   3  -4   -1.20    0.60
   8   3   4   -1.10    3.70
  -8   3  -4    1.00    0.90
  -9  -3  -4    3.30    3.80
   9  -3   4    8.70    5.40
  -9  -3  -4   11.30    4.20
   9   3   4    3.60    3.10
  -9   3  -4    4.60    3.20
 -10  -3  -4  125.09   12.40
 -10  -3  -4  128.49   13.20
  10  -3   4  125.99   15.70
 -10   3  -4  135.99   13.90
  10   3   4  125.19   14.00
 -11  -3  -4    3.00    4.60
 -11  -3  -4    1.00    4.10
  11  -3   4   -2.30    4.90
 -11   3  -4   -3.10    4.10
  11   3   4   -0.20    4.10
  12  -4  -4   33.50   12.40
 -12  -4   4   37.70    8.40
 -12  -4   4   48.80   11.10
 -12   4   4   37.30    8.30
  12   4  -4   45.50   11.40
 -11  -4   4   20.20    7.30
  11  -4  -4   29.00    7.60
 -11  -4   4   39.90    8.10
 -11   4   4   26.70    7.70
  11   4  -4   47.80   11.00
  10  -4  -4    8.00    6.70
 -10  -4   4   24.30    6.80
 -10  -4   4    7.10    5.10
 -10   4   4   10.70    5.20
 -10   4   4   16.10    5.40
  10   4  -4    9.90    4.80
  -9  -4   4  194.68   14.60
   9  -4  -4  173.68   16.80
  -9  -4   4  179.98   17.80
  -9   4   4  198.48   15.20
   9   4  -4  195.08   17.80
  -8  -4   4   23.90    5.20
  -8  -4   4   25.70    6.30
   8  -4  -4   22.20    6.90
  -8   4   4   28.00    6.40
  -8   4   4   17.70    6.10
  -8   4   4   20.00    5.10
   8   4  -4   26.10    6.90
   7  -4  -4    7.30    4.00
  -7  -4   4    1.60    2.70
  -7  -4   4    6.50    2.80
  -7   4   4    5.70    3.20
  -7   4   4    5.50    2.90
  -7   4   4    2.10    3.40
   7   4  -4    0.30    2.50
  -6  -4   4  134.69    9.90
  -6  -4   4  129.29   11.30
   6  -4  -4  146.39   13.10
  -6   4   4  136.79   11.30
   6   4  -4  122.09   11.90
  -6   4   4  151.98   11.50
  -6   4   4  142.29   12.80
  -5  -4   4    1.60    2.10
  -5  -4   4    0.90    2.20
   5  -4  -4   -0.30    2.10
  -5  -4   4    1.70    1.60
  -5  -4   4   -0.70    1.80
  -5   4   4    1.80    1.70
   5   4  -4    5.00    2.90
   5   4  -4    2.50    1.80
  -5   4   4    2.00    2.30
  -4  -4   4   54.49    5.00
  -4  -4   4   53.99    7.10
  -4  -4   4   53.99    6.10
  -4  -4   4   51.99    6.90
  -4   4   4   58.49    7.00
  -4   4   4   48.50    5.70
   4   4  -4   49.99    5.10
   4   4  -4   51.49    6.70
  -4   4   4   53.89    6.00
  -4   4   4   49.90    5.90
   3  -4  -4   58.59    6.40
   3  -4  -4   51.79    5.60
  -3  -4   4   64.89    7.40
  -3  -4   4   64.79    6.20
   3  -4  -4   62.59    6.10
  -3  -4   4   60.89    4.90
  -3  -4   4   59.29    7.00
   3   4  -4   50.79    5.80
  -3   4   4   47.20    5.60
  -3   4   4   57.79    6.00
   3   4  -4   51.19    6.40
   3   4  -4   56.49    4.80
  -3   4   4   64.69    6.60
  -3   4   4   45.80    5.90
  -2  -4   4    9.90    2.70
   2  -4  -4   10.40    2.90
   2  -4  -4    6.80    2.00
   2  -4  -4    8.10    2.60
  -2  -4   4    9.70    3.80
  -2  -4   4    8.40    2.90
  -2   4   4    7.10    2.40
  -2   4   4   10.90    3.10
   2   4  -4    6.90    2.70
  -2   4   4    8.60    2.60
   2   4  -4    9.70    2.10
   2   4  -4    9.70    2.00
  -2   4   4    8.60    2.70
   2   4  -4    5.10    2.40
  -1  -4   4  573.34   28.10
   1  -4  -4  587.44   27.30
   1  -4  -4  527.95   24.90
   1  -4  -4  538.65   26.80
  -1  -4   4  572.64   25.50
   1  -4  -4  562.64   26.50
  -1  -4   4  586.44   28.70
   1   4  -4  600.74   25.90
   1   4  -4  560.84   27.80
  -1   4   4  553.74   26.30
  -1   4   4  570.84   26.90
  -1   4   4  561.64   26.40
  -1   4   4  553.54   26.40
   1   4  -4  577.74   28.50
   1   4  -4  578.54   24.10
   1   4  -4  563.24   24.00
   0  -4  -4  764.52   35.00
   0  -4  -4  782.92   32.30
   0  -4   4  772.92   31.90
   0  -4   4  791.72   36.60
   0  -4   4  766.42   32.50
   0  -4  -4  783.52   32.70
   0  -4   4  730.63   35.60
   0   4  -4  790.22   36.40
   0   4  -4  781.92   32.00
   0   4   4  764.02   33.40
   0   4  -4  715.63   35.50
   0   4   4  772.62   34.30
   0   4   4  771.82   34.40
   0   4  -4  794.12   32.80
   0   4   4  778.22   33.70
   0   4   4  796.72   35.00
  -1  -4  -4   22.00    2.70
   1  -4   4   24.20    2.70
   1  -4   4   28.60    5.50
  -1  -4  -4   31.40    4.30
   1  -4   4   29.40    5.70
   1  -4   4   26.30    3.10
  -1  -4  -4   27.30    3.00
   1   4   4   31.40    5.30
  -1   4  -4   21.80    4.60
  -1   4  -4   29.00    3.10
   1   4   4   24.80    3.40
   1   4   4   25.80    3.50
  -1   4  -4   29.90    3.30
   1   4   4   32.10    4.10
   1   4   4   37.10    4.60
  -2  -4  -4  364.06   19.70
  -2  -4  -4  372.26   16.30
   2  -4   4  347.67   20.30
   2  -4   4  393.16   17.60
  -2  -4  -4  346.07   16.40
   2  -4   4  383.86   21.30
  -2   4  -4  368.26   20.70
   2   4   4  351.46   22.00
  -2   4  -4  352.86   17.60
  -3  -4  -4  344.87   15.60
  -3  -4  -4  351.26   19.30
   3  -4   4  342.77   19.20
  -3  -4  -4  347.87   19.10
   3  -4   4  342.47   20.30
   3  -4   4  364.86   21.40
  -3   4  -4  362.66   22.40
   3   4   4  341.77   17.50
  -3   4  -4  351.66   14.30
  -3   4  -4  324.17   14.00
  -3   4  -4  337.17   17.60
   4  -4   4    9.50    4.70
   4  -4   4   10.10    3.50
  -4  -4  -4    4.70    2.40
  -4  -4  -4    6.80    1.70
  -4  -4  -4    6.00    2.70
   4  -4   4    7.50    2.70
   4   4   4    2.90    1.90
  -4   4  -4    4.30    2.80
  -5  -4  -4   26.20    5.60
  -5  -4  -4   23.40    5.30
   5  -4   4   19.60    5.90
   5   4   4   18.60    4.20
  -5   4  -4   18.50    4.60
   6  -4   4   24.50    6.60
  -6  -4  -4   24.90    5.40
  -6  -4  -4   26.20    5.70
  -6  -4  -4   23.20    4.10
  -6   4  -4   22.60    5.20
   6   4   4   17.00    4.40
  -7  -4  -4   -0.10    2.50
   7  -4   4    1.60    3.50
  -7  -4  -4    1.40    2.40
  -7   4  -4    2.60    3.00
   7   4   4   -1.70    2.00
  -8  -4  -4   92.29   10.80
  -8  -4  -4  102.69   10.80
   8  -4   4   98.79   13.50
   8   4   4   98.39   10.80
  -8   4  -4   97.69   10.80
  -9  -4  -4   21.90    6.30
  -9  -4  -4   22.20    6.20
   9  -4   4   25.80    7.90
  -9   4  -4   24.00    6.90
   9   4   4   21.10    6.00
 -10  -4  -4  159.38   15.30
  10  -4   4  132.59   17.10
 -10  -4  -4  147.99   14.30
 -10   4  -4  139.89   14.40
  10   4   4  153.08   15.40
 -11  -5   4   -0.40    2.50
  11  -5  -4    4.60    6.10
 -11  -5   4    7.50    4.60
 -11   5   4    6.70    5.60
 -11   5   4    3.60    5.10
  11   5  -4   -1.90    4.40
 -10  -5   4  111.19   13.10
 -10  -5   4  115.49   11.60
  10  -5  -4  113.89   13.80
 -10   5   4   97.79   12.20
  10   5  -4  121.29   17.80
 -10   5   4   84.89   10.50
   9  -5  -4  181.98   18.80
  -9  -5   4  213.28   15.60
  -9  -5   4  200.48   17.30
  -9  -5   4  193.98   18.00
  -9   5   4  223.88   17.80
   9   5  -4  222.08   19.50
  -9   5   4  206.48   16.00
  -8  -5   4  186.68   14.10
  -8  -5   4  205.48   16.80
   8  -5  -4  178.78   17.20
  -8  -5   4  214.08   17.50
   8   5  -4  193.18   17.20
  -8   5   4  207.78   15.30
  -8   5   4  190.08   16.00
  -8   5   4  169.08   16.40
  -7  -5   4  148.99   11.50
  -7  -5   4  140.19   13.10
   7  -5  -4  150.68   14.60
  -7  -5   4  134.59   13.20
   7   5  -4  173.68   15.20
  -7   5   4  152.18   13.20
  -7   5   4  151.78   12.40
  -7   5   4  146.09   14.20
  -6  -5   4   43.80    8.30
  -6  -5   4   47.70    8.00
  -6  -5   4   40.10    4.90
   6  -5  -4   19.60    9.00
  -6   5   4   42.20    7.10
  -6   5   4   41.30    8.40
  -6   5   4   44.40    7.70
   6   5  -4   34.40    7.20
   5  -5  -4  422.96   24.80
  -5  -5   4  410.36   23.10
  -5  -5   4  434.26   25.00
  -5  -5   4  415.66   20.80
   5   5  -4  359.06   23.40
  -5   5   4  398.06   24.30
  -5   5   4  399.06   22.90
   5   5  -4  383.56   21.10
  -5   5   4  425.86   23.00
  -4  -5   4   64.39    8.30
  -4  -5   4   66.29    5.90
  -4  -5   4   55.49    6.80
  -4  -5   4   63.99    8.20
   4   5  -4   67.09    6.30
  -4   5   4   63.09    7.10
   4   5  -4   63.89    8.00
  -4   5   4   68.59    7.40
  -4   5   4   69.89    8.20
  -3  -5   4   81.89    8.90
  -3  -5   4   74.19    8.40
  -3  -5   4   91.19    9.30
   3  -5  -4   69.29    7.80
   3   5  -4   74.59    6.10
   3   5  -4   74.69    8.30
  -3   5   4   84.99    7.90
  -3   5   4   66.29    7.20
   3   5  -4   71.09    6.10
  -3   5   4   65.89    7.70
   2  -5  -4  703.23   34.30
   2  -5  -4  771.62   34.30
  -2  -5   4  786.12   36.70
  -2  -5   4  735.23   36.00
  -2  -5   4  732.93   33.30
   2   5  -4  682.43   35.20
  -2   5   4  819.62   35.40
   2   5  -4  756.52   31.40
  -2   5   4  655.13   33.80
  -2   5   4  718.13   33.90
   2   5  -4  702.23   31.30
   2   5  -4  662.03   33.00
   1  -5  -4  162.48   11.50
   1  -5  -4  179.58   12.40
  -1  -5   4  181.08   13.40
  -1  -5   4  171.38   10.90
  -1  -5   4  191.08   13.90
  -1   5   4  170.48   11.90
   1   5  -4  172.78   13.20
  -1   5   4  176.58   11.90
   1   5  -4  163.88   13.10
   1   5  -4  176.58   10.00
   1   5  -4  186.48   10.20
   0  -5   4  239.18   16.40
   0  -5  -4  235.28   14.90
   0  -5   4  238.58   12.90
   0  -5   4  225.98   15.60
   0   5  -4  245.58   16.60
   0   5  -4  244.88   12.60
   0   5  -4  215.68   12.10
   0   5  -4  218.18   12.80
   0   5   4  232.88   14.10
   0   5  -4  245.78   16.10
   0   5   4  229.58   14.30
   1  -5   4  527.65   28.80
   1  -5   4  568.84   30.10
   1  -5   4  566.14   25.00
  -1  -5  -4  613.34   25.90
  -1  -5  -4  580.94   28.40
   1  -5   4  560.04   25.10
   1   5   4  556.44   27.50
  -1   5  -4  552.14   29.60
   1   5   4  573.94   26.80
  -1   5  -4  571.94   25.60
   1   5   4  528.95   29.40
  -1   5  -4  541.45   24.90
  -2  -5  -4  525.75   22.00
   2  -5   4  471.25   26.60
   2  -5   4  470.55   20.80
  -2  -5  -4  462.65   24.80
   2  -5   4  452.75   25.70
  -2   5  -4  453.35   26.00
  -2   5  -4  505.25   22.90
  -2   5  -4  448.16   20.70
   2   5   4  453.95   22.90
   2   5   4  431.76   23.90
  -3  -5  -4  399.16   22.50
   3  -5   4  386.66   24.30
  -3  -5  -4  389.26   18.70
   3  -5   4  416.26   20.20
   3  -5   4  348.27   22.80
  -3  -5  -4  410.46   22.30
   3   5   4  403.86   20.80
  -3   5  -4  400.36   17.60
  -3   5  -4  434.76   21.00
  -3   5  -4  415.46   17.80
   4  -5   4    7.40    3.10
   4  -5   4    6.90    3.80
  -4  -5  -4    9.10    3.90
  -4  -5  -4    7.60    2.70
  -4  -5  -4   14.10    4.20
  -4   5  -4   11.30    3.50
  -4   5  -4    8.60    1.70
   4   5   4    5.70    2.70
  -4   5  -4    8.20    2.10
   5  -5   4  173.48   15.30
  -5  -5  -4  192.08   14.70
  -5  -5  -4  198.08   14.70
   5  -5   4  202.98   16.90
  -5  -5  -4  207.28   11.50
  -5   5  -4  197.78   13.80
   5   5   4  187.58   13.50
  -6  -5  -4  139.59   12.30
   6  -5   4  145.29   14.60
  -6  -5  -4  131.39   12.30
   6  -5   4  140.89   13.80
  -6   5  -4  137.59   11.70
   6   5   4  140.39   11.80
  -7  -5  -4   26.60    6.60
  -7  -5  -4   22.00    6.10
   7  -5   4   13.30    5.90
   7   5   4   21.70    5.90
  -7   5  -4   23.30    6.00
   8  -5   4  125.89   15.50
  -8  -5  -4  118.39   12.60
  -8  -5  -4  110.39   12.00
   8   5   4  133.79   12.90
  -8   5  -4  128.69   12.70
  -9  -5  -4    6.30    4.00
   9  -5   4   -4.10    4.20
  -9  -5  -4    6.40    4.00
  -9   5  -4    0.70    3.80
   9   5   4    1.10    3.50
 -10  -5  -4    9.90    6.70
 -10  -5  -4   14.40    7.00
  10  -5   4   14.00    6.80
  10   5   4    6.70    5.30
 -10   5  -4    4.20    4.10
 -11  -6   4   53.09   11.00
 -11  -6   4   51.99    8.40
  11   6  -4   44.30   10.50
 -11   6   4   36.30    9.20
  10  -6  -4    0.50    8.90
 -10  -6   4    3.30    3.80
 -10  -6   4    6.90    5.20
  10   6  -4   -9.10    4.10
 -10   6   4    6.00    4.60
 -10   6   4   -3.50    3.90
  -9  -6   4   82.39   12.80
  -9  -6   4   85.39    9.70
   9  -6  -4   72.79   10.70
  -9   6   4   89.79   11.30
  -9   6   4   90.39   10.40
   9   6  -4   75.39   13.70
   8  -6  -4  144.59   16.10
  -8  -6   4  149.19   14.70
  -8  -6   4  164.88   16.10
  -8  -6   4  166.18   13.10
  -8   6   4  158.48   13.70
   8   6  -4  140.99   15.30
  -8   6   4  189.18   15.90
  -7  -6   4  285.27   22.70
   7  -6  -4  240.08   20.30
  -7  -6   4  267.47   16.60
  -7  -6   4  239.88   19.50
  -7   6   4  176.18   21.70
   7   6  -4  245.28   19.60
  -7   6   4  252.87   17.70
  -6  -6   4   60.29    9.20
  -6  -6   4   69.49    7.30
   6  -6  -4   69.69   10.60
  -6  -6   4   68.29    8.60
  -6   6   4   70.59    8.80
   6   6  -4   72.09    9.70
  -6   6   4   68.89    9.40
  -6   6   4   58.59    7.80
  -5  -6   4    0.20    1.70
   5  -6  -4    0.10    3.00
  -5  -6   4   -1.50    2.40
  -5  -6   4    0.10    2.50
  -5   6   4    2.50    2.80
  -5   6   4   -2.90    1.50
   5   6  -4   -0.40    1.70
  -5   6   4   -0.10    2.40
  -4  -6   4  476.85   25.80
  -4  -6   4  458.05   27.40
   4   6  -4  456.05   23.70
  -4   6   4  464.15   25.80
  -4   6   4  513.75   26.60
  -3  -6   4  180.28   14.80
  -3  -6   4  173.58   12.80
   3  -6  -4  182.08   14.00
  -3   6   4  190.48   13.80
   3   6  -4  188.48   15.00
   3   6  -4  184.68   11.70
   3   6  -4  199.28   11.70
  -3   6   4  181.28   14.30
  -3   6   4  165.88   13.10
   2  -6  -4 1001.20   45.30
  -2  -6   4  979.30   44.10
  -2  -6   4  993.10   47.60
   2  -6  -4  993.80   45.70
  -2   6   4  942.01   45.20
  -2   6   4  932.91   44.70
   2   6  -4  953.60   42.10
   2   6  -4 1141.49   48.30
   2   6  -4  942.31   41.90
  -2   6   4  991.70   46.10
  -1  -6   4  305.57   20.20
   1  -6  -4  305.57   18.60
  -1  -6   4  309.37   19.70
  -1  -6   4  282.77   16.50
   1  -6  -4  269.27   17.00
  -1   6   4  301.27   18.00
   1   6  -4  283.47   15.50
   1   6  -4  282.67   19.70
   1   6  -4  289.67   15.60
  -1   6   4  315.47   18.60
   1   6  -4  315.87   20.00
   0  -6   4    4.30    2.30
   0  -6   4    9.90    3.90
   0  -6  -4   10.00    3.40
   0  -6  -4    3.10    2.10
   0  -6   4    2.40    2.70
   0   6  -4    5.50    2.80
   0   6  -4    2.40    2.50
   0   6   4    4.70    2.60
   0   6  -4    2.20    2.00
   0   6  -4    1.90    2.50
   0   6  -4    2.70    2.20
   0   6   4    0.50    2.00
  -1  -6  -4 1299.67   59.49
   1  -6   4 1374.26   55.99
   1  -6   4 1372.96   62.29
   1  -6   4 1373.66   56.29
   1  -6   4 1227.48   60.39
  -1   6  -4 1257.57   61.39
  -1   6  -4 1397.06   57.39
   1   6   4 1373.46   59.09
  -1   6  -4 1517.85   57.29
   1   6   4 1411.76   59.19
   1   6   4 1304.77   58.09
  -2  -6  -4  489.95   26.00
   2  -6   4  488.05   28.20
   2  -6   4  429.96   26.20
   2  -6   4  453.75   24.30
  -2  -6  -4  381.36   21.60
   2  -6   4  463.05   21.40
   2   6   4  455.45   23.80
   2   6   4  450.45   24.50
  -2   6  -4  469.15   23.00
  -2   6  -4  484.15   21.70
   3  -6   4  658.73   40.00
  -3  -6  -4  587.84   31.00
   3  -6   4  537.75   31.70
  -3   6  -4  583.04   25.60
   3   6   4  576.04   28.90
  -3   6  -4  549.05   25.20
   3   6   4  554.14   29.80
  -3   6  -4  604.74   28.60
   4  -6   4  483.55   30.80
  -4  -6  -4  539.95   28.90
  -4  -6  -4  471.05   27.30
   4  -6   4  472.55   29.20
  -4  -6  -4  524.95   24.10
   4   6   4  465.25   27.30
  -4   6  -4  496.85   21.90
  -4   6  -4  520.75   26.50
   4   6   4  556.84   27.10
  -4   6  -4  514.05   22.20
  -5  -6  -4  115.19   11.50
   5  -6   4  102.59   11.70
   5  -6   4  111.29   12.90
  -5  -6  -4  110.39   11.00
  -5   6  -4  107.99   10.20
   5   6   4  114.79   10.50
   6  -6   4  552.64   35.00
  -6  -6  -4  543.85   31.30
  -6  -6  -4  561.24   31.20
   6  -6   4  520.05   33.20
  -6   6  -4  547.35   30.00
   6   6   4  609.64   30.70
  -7  -6  -4  252.77   18.60
  -7  -6  -4  277.27   19.40
   7  -6   4  223.08   20.90
   7   6   4  221.18   17.00
  -7   6  -4  198.68   17.10
   8  -6   4   39.30   10.30
  -8  -6  -4   42.50    8.80
  -8  -6  -4   38.80    8.40
  -8   6  -4   31.90    7.30
   8   6   4   27.10    6.60
  -9  -6  -4  183.28   17.10
   9  -6   4  234.98   23.40
  -9   6  -4  190.08   16.70
 -10  -7   4   29.60    8.90
 -10  -7   4   55.19    9.10
 -10   7   4   46.90    9.90
  10   7  -4   56.19   12.10
 -10   7   4   34.70    8.50
  -9  -7   4   65.09   11.90
  -9  -7   4   70.39   10.60
   9   7  -4   45.30   10.80
  -9   7   4   60.29    9.90
  -9   7   4   67.69   11.60
  -8  -7   4   66.39   11.40
   8  -7  -4   67.19   12.90
  -8  -7   4   80.09    9.20
  -8   7   4   74.19    9.80
  -8   7   4   65.49   10.40
   7  -7  -4  189.78   19.10
  -7  -7   4  215.08   15.10
  -7  -7   4  209.48   17.30
  -7   7   4  216.78   17.40
  -7   7   4  198.48   16.00
   7   7  -4  194.38   18.10
  -6  -7   4   15.90    5.00
   6  -7  -4   19.40    7.30
  -6  -7   4   20.00    6.00
   6   7  -4   11.30    4.50
  -6   7   4   13.30    5.10
  -6   7   4   23.80    6.50
   6   7  -4   34.70    9.00
  -6   7   4   12.70    5.10
  -5  -7   4   14.50    6.00
   5  -7  -4    6.30    4.30
  -5  -7   4    2.30    3.30
   5   7  -4    7.80    2.80
  -5   7   4   11.20    4.60
  -5   7   4    9.50    4.40
  -5   7   4    3.00    4.20
   5   7  -4    5.30    3.30
  -4  -7   4  390.46   25.20
  -4  -7   4  358.26   22.40
   4   7  -4  368.26   20.30
  -4   7   4  387.46   23.40
  -4   7   4  379.46   23.10
   4   7  -4  343.37   24.10
  -4   7   4  399.86   25.20
  -3  -7   4  220.18   15.50
  -3  -7   4  234.18   18.00
   3  -7  -4  236.48   17.10
  -3   7   4  211.88   16.80
  -3   7   4  237.18   16.50
  -3   7   4  204.48   15.70
   3   7  -4  194.88   16.70
   3   7  -4  210.98   13.50
   2  -7  -4    5.10    3.10
   2  -7  -4    1.70    2.70
  -2  -7   4    7.40    2.50
  -2  -7   4    2.90    2.50
  -2   7   4    2.00    2.90
   2   7  -4    1.40    2.10
  -2   7   4    6.00    3.50
  -2   7   4    6.70    3.70
   2   7  -4    3.40    2.90
  -1  -7   4    3.20    2.10
  -1  -7   4    4.40    3.40
   1  -7  -4    1.50    2.50
   1  -7  -4    2.20    2.60
  -1   7   4   -0.30    1.40
   1   7  -4    3.20    3.10
   1   7  -4   -2.70    1.90
  -1   7   4    0.30    1.70
   1   7  -4    2.00    2.60
   0  -7  -4   11.30    3.50
   0  -7   4    6.40    2.60
   0  -7  -4    3.80    2.90
   0  -7   4   12.10    4.90
   0   7   4    5.50    3.40
   0   7  -4    3.50    2.40
   0   7   4    5.80    3.40
  -1  -7  -4   24.80    4.90
  -1  -7  -4   25.50    6.20
   1  -7   4   33.70    5.60
   1  -7   4   37.60    8.40
   1   7   4   31.10    6.70
  -1   7  -4   24.70    5.10
   1   7   4   32.20    6.50
   1   7   4   25.50    5.60
   2  -7   4  184.38   11.70
  -2  -7  -4  200.28   15.30
   2  -7   4  180.28   16.50
  -2  -7  -4  175.08   12.50
   2   7   4  184.58   14.10
  -2   7  -4  180.88   12.90
   2   7   4  212.38   14.70
  -2   7  -4  183.98   12.00
   3  -7   4   48.30   10.30
  -3  -7  -4   39.20    5.50
  -3  -7  -4   37.00    7.90
   3   7   4   39.00    7.00
   3   7   4   48.70    8.10
  -3   7  -4   37.90    4.50
  -3   7  -4   41.50    8.40
  -3   7  -4   47.10    5.90
  -4  -7  -4   28.50    7.10
   4  -7   4   72.59   12.70
   4   7   4   30.10    5.90
   4   7   4   46.60    8.10
  -4   7  -4   50.59    8.20
  -4   7  -4   49.50    4.90
  -4   7  -4   39.80    4.80
  -5  -7  -4   41.20    8.50
   5  -7   4   22.40    6.70
  -5   7  -4   48.70    8.30
  -5   7  -4   29.40    3.90
   5   7   4   30.70    6.40
  -5   7  -4   32.20    3.80
   5   7   4   29.10    7.20
   6  -7   4   58.29   12.00
  -6  -7  -4   42.30    8.90
  -6  -7  -4   39.90    8.60
   6   7   4   49.40    7.60
  -6   7  -4   37.40    7.40
   6   7   4   35.20    7.90
   7  -7   4  217.98   21.40
  -7  -7  -4  189.68   17.20
  -7  -7  -4  197.88   17.10
  -7   7  -4  201.78   16.80
   7   7   4  215.28   16.80
   8  -7   4   -2.50    5.40
  -8  -7  -4   -0.80    4.20
  -8   7  -4   -3.80    3.40
  -9   8   4   -0.70    5.20
   9   8  -4    3.90    5.70
  -8  -8   4   92.49   12.10
  -8   8   4  110.39   13.20
   8   8  -4   91.89   11.20
  -8   8   4   79.99   12.40
   8   8  -4   76.69   14.20
  -7  -8   4   -2.20    3.40
   7   8  -4    3.00    4.00
  -7   8   4   -4.70    2.90
  -7   8   4    0.40    4.00
   7   8  -4   -3.20    3.60
   6  -8  -4    1.30    6.20
  -6  -8   4   11.30    5.70
  -6  -8   4   10.20    4.90
   6   8  -4   10.70    5.70
   6   8  -4   10.90    4.30
  -6   8   4    8.80    5.30
  -5  -8   4   30.90    7.70
  -5  -8   4   32.90    7.40
  -5   8   4   36.20    7.60
   5   8  -4   51.29   10.40
   5   8  -4   36.30    6.50
  -5   8   4   41.50   11.00
  -5   8   4   46.00    8.80
   4  -8  -4    1.40    4.00
  -4  -8   4   -2.70    3.20
  -4   8   4   -0.90    3.10
   4   8  -4    1.00    2.20
  -4   8   4    0.40    3.30
  -4   8   4    1.40    4.20
   4   8  -4   -2.20    1.70
  -3  -8   4  101.79   12.50
   3  -8  -4  106.99   12.20
  -3  -8   4   95.29   10.30
  -3   8   4   97.69   11.80
   3   8  -4   92.79    8.90
  -3   8   4  111.79   11.70
   3   8  -4  121.99   13.10
  -3   8   4   93.49   10.50
   2  -8  -4    8.90    4.40
  -2  -8   4    9.30    4.00
  -2  -8   4   10.50    5.30
   2  -8  -4   22.50    7.30
   2   8  -4   11.10    5.70
  -2   8   4    8.10    4.70
   2   8  -4   11.00    3.60
  -2   8   4    7.20    4.00
   1  -8  -4   30.90    6.90
  -1  -8   4   11.50    4.30
   1  -8  -4   18.90    5.50
  -1  -8   4   25.20    5.50
  -1   8   4   20.50    9.20
  -1   8   4   13.80    5.10
   1   8  -4   13.70    4.90
   1   8  -4   23.10    5.00
   0  -8   4   62.19   10.90
   0  -8   4   74.29    7.50
   0  -8  -4   52.99    8.00
   0   8   4   59.99    8.60
   0   8  -4   71.19    7.60
  -1  -8  -4   35.20    6.30
   1  -8   4   29.00    7.50
  -1  -8  -4   38.20    8.00
   1  -8   4   37.10    6.10
   1   8   4   23.40    5.60
   1   8   4   32.20    6.90
  -1   8  -4   36.80    6.40
  -2  -8  -4   14.20    5.30
   2  -8   4    8.80    3.00
  -2  -8  -4   10.80    4.40
   2  -8   4    7.50    3.90
   2   8   4    9.80    4.30
  -2   8  -4   13.50    4.10
   2   8   4   20.90    6.00
  -3  -8  -4    4.20    3.40
  -3   8  -4    2.50    2.70
  -3   8  -4    5.00    1.70
   3   8   4   -1.30    2.60
   3   8   4    4.80    3.40
  -4  -8  -4    9.40    4.60
   4  -8   4   22.20    4.70
  -4   8  -4    1.10    2.50
  -4   8  -4    6.10    3.90
   4   8   4    3.20    2.70
   4   8   4   15.00    5.30
   5  -8   4   16.90    8.90
  -5  -8  -4   10.10    4.30
  -5   8  -4   11.40    2.90
   5   8   4   16.40    5.00
   5   8   4    7.70    3.90
  -6  -8  -4   19.70    6.90
   6  -8   4   18.60    9.20
   6   8   4   16.80    6.10
   6   8   4   12.00    4.70
  -6   8  -4   19.30    5.80
  -7  -8  -4    4.20    5.10
   7  -8   4    0.40    7.80
   7   8   4   -1.30    3.40
  -7   8  -4    7.40    4.70
   7   8   4    0.40    3.40
  -7   9   4   16.90    7.50
   7   9  -4   17.80    5.80
  -7   9   4   19.60    8.20
   7   9  -4   17.80    6.80
  -6  -9   4   35.20    8.50
  -6   9   4   31.60    8.90
   6   9  -4   37.20    9.60
  -6   9   4   51.19   10.00
   6   9  -4   37.20    7.90
  -5  -9   4   24.20    6.40
   5   9  -4   15.60    6.20
  -5   9   4   28.30    7.90
  -5   9   4   26.00    6.30
   5   9  -4   23.60    7.30
  -4  -9   4   10.90    4.90
  -4  -9   4   16.30    7.50
   4   9  -4   11.30    4.40
   4   9  -4   11.30    6.20
  -4   9   4   11.50    5.70
  -4   9   4   15.80    5.80
  -3  -9   4  109.99   14.30
  -3  -9   4  115.89   11.70
  -3   9   4  104.99   12.30
  -3   9   4  129.69   13.00
   3   9  -4  101.09   13.40
   3   9  -4  110.79   10.30
  -2  -9   4   18.90    6.30
   2   9  -4   36.30    8.90
  -2   9   4   34.50    8.20
  -2   9   4   32.60    7.60
   2   9  -4   39.30    7.30
   1  -9  -4    2.30    3.70
  -1  -9   4    2.10    4.20
  -1  -9   4    3.00    3.30
  -1   9   4    3.50    3.70
  -1   9   4    7.90    6.20
   1   9  -4    5.30    3.20
   0  -9   4  146.99   15.30
   0  -9   4  160.88   12.60
   0  -9  -4  167.38   15.00
   0   9  -4  152.98   12.60
   0   9   4  146.09   14.10
   0   9   4  132.49   14.60
  -1  -9  -4    2.60    3.60
   1  -9   4   -1.50    2.90
   1   9   4   -0.10    3.80
  -1   9  -4   -0.70    2.40
   1   9   4    3.10    3.50
   2  -9   4   54.19   11.40
   2  -9   4   47.30    7.30
  -2  -9  -4   27.40    7.30
  -2   9  -4   44.30    7.30
  -2   9  -4   30.40    5.70
   2   9   4   41.40    8.40
  -3  -9  -4   86.79   11.50
   3  -9   4  110.09   15.20
  -3   9  -4   79.19    8.70
   3   9   4   75.59   10.30
  -3   9  -4   96.09   11.70
   3   9   4  114.49   12.10
  -4  -9  -4   18.80    6.70
   4  -9   4   21.10    8.00
   4   9   4   31.50    7.30
  -4   9  -4   13.10    5.30
   4   9   4   20.50    6.30
  -4   9  -4   20.10    4.70
  -5  -9  -4  110.69   18.70
   5  -9   4   99.69   18.00
  -5   9  -4   99.59   11.20
  -4 -10   4  102.69   12.40
   4  10  -4  128.69   15.40
   4  10  -4  127.69   12.60
  -4  10   4  123.49   13.90
  -3 -10   4   37.30    8.10
  -3  10   4   29.20    7.60
   3  10  -4   17.50    5.40
  -3  10   4   22.20    7.20
   3  10  -4   17.70    8.10
  -2 -10   4  107.49   11.60
  -2  10   4   98.79   12.70
  -2  10   4  118.09   13.50
   2  10  -4  113.89   11.30
  -1 -10   4  174.58   14.70
   1 -10  -4  172.28   16.70
  -1  10   4  177.38   16.60
  -1  10   4  175.78   17.00
   1  10  -4  208.08   15.10
   0 -10  -4   -2.70    2.60
   0 -10   4   -3.60    3.40
   0  10  -4    6.00    3.60
   0  10   4    2.20    4.70
   1 -10   4  319.47   23.70
   1 -10   4  358.86   32.40
  -1 -10  -4  301.77   23.20
  -1  10  -4  308.27   20.50
   1  10   4  322.47   23.10
   2 -10   4  210.28   24.60
  -2  10  -4  153.38   14.20
  -2  10  -4  171.08   14.60
   2  10   4  212.98   25.70
  -3 -10  -4   61.99   12.20
   3  10   4   39.70    9.60
  -3  10  -4   56.39    9.10
  13   0  -5   -7.60   10.90
 -13   0   5   -3.20    4.80
 -12   0   5    4.80    3.90
  12   0  -5   -2.40    5.30
 -12   0   5   -8.50    3.30
  11   0  -5    7.00    4.50
 -11   0   5    7.60    4.80
  10   0  -5    0.20    3.10
 -10   0   5    0.90    3.50
 -10   0   5    2.90    3.10
   9   0  -5   -1.50    2.70
  -9   0   5    2.40    3.40
  -9   0   5   -1.60    1.70
   8   0  -5    0.80    2.50
  -8   0   5    0.80    2.50
  -8   0   5   -1.70    1.80
  -8   0   5    0.40    2.30
  -7   0   5   -2.30    2.50
   7   0  -5   -2.00    1.70
  -7   0   5   -1.10    2.20
  -6   0   5   -1.40    0.80
   6   0  -5   -0.20    1.40
  -6   0   5   -0.50    1.90
  -6   0   5    1.80    2.30
   6   0  -5    0.60    1.80
   5   0  -5    4.60    2.00
  -5   0   5    5.00    2.50
  -5   0   5    7.20    2.60
   5   0  -5    9.10    3.20
  -5   0   5    7.60    2.10
   5   0  -5    6.00    2.20
  -4   0   5    0.20    1.10
   4   0  -5    0.40    1.80
   4   0  -5    1.00    1.70
  -4   0   5   -0.60    1.00
  -4   0   5    0.80    1.90
   4   0  -5    1.00    1.30
  -3   0   5   -0.50    1.00
   3   0  -5    1.10    1.20
  -3   0   5    2.30    1.30
  -3   0   5    1.20    1.70
   3   0  -5    1.50    1.20
  -2   0   5    1.60    1.60
  -2   0   5    0.60    1.20
   2   0  -5   -0.60    0.90
   2   0  -5    2.10    0.90
   2   0  -5   -0.40    1.10
  -2   0   5    1.50    0.90
  -1   0   5   -0.30    0.50
  -1   0   5    1.20    1.00
   1   0  -5    0.80    1.10
  -1   0   5   -0.60    0.90
   1   0  -5    0.80    0.80
  -1   0   5    0.50    0.60
   0   0   5   11.70    2.10
   0   0   5   10.70    2.00
   0   0  -5   12.40    1.60
   0   0   5   14.70    1.90
   0   0   5   15.70    2.00
   0   0   5   13.70    1.80
   1   0   5    2.00    1.10
   1   0   5    0.90    0.90
   1   0   5    0.60    1.00
   1   0   5    0.70    1.00
  -1   0  -5    1.80    1.10
   2   0   5    0.10    0.80
  -2   0  -5   -0.30    0.70
  -2   0  -5    0.20    0.60
   2   0   5   -0.60    1.00
  -2   0  -5    0.00    1.10
   2   0   5    0.40    1.00
   3   0   5   -0.50    0.80
   3   0   5    1.10    0.90
  -3   0  -5   -1.00    0.70
   3   0   5   -0.50    1.00
  -3   0  -5    0.10    0.80
  -3   0  -5    1.60    1.20
  -4   0  -5   -1.80    0.80
   4   0   5   -0.50    1.60
   4   0   5   -0.70    1.20
  -4   0  -5    0.10    1.00
   4   0   5    0.50    1.60
   5   0   5    1.30    1.70
   5   0   5    0.30    1.50
  -5   0  -5    3.40    2.20
  -5   0  -5    0.40    1.10
  -6   0  -5   -1.20    1.10
   6   0   5   -2.60    1.50
   6   0   5    0.30    1.70
  -6   0  -5   -1.40    2.10
   7   0   5    0.20    3.00
  -7   0  -5    1.20    3.00
   7   0   5    0.00    1.80
  -7   0  -5   -0.30    1.40
  -8   0  -5    3.10    1.70
   8   0   5   -1.60    2.90
  -8   0  -5    3.10    3.20
   8   0   5   -1.60    2.60
   9   0   5   -5.00    2.50
  -9   0  -5   -0.90    3.50
  10   0   5   -1.10    3.50
 -10   0  -5   -3.40    3.00
  11   0   5  -10.10    4.30
 -11   0  -5   -1.30    3.60
 -13  -1   5   11.10    5.90
 -13  -1   5   23.90    7.30
  13  -1  -5   14.50    9.70
 -13   1   5    9.30    6.20
 -13   1   5   27.20    7.10
  13   1  -5   19.40    8.70
 -12  -1   5   47.30    9.50
 -12  -1   5   38.50    8.40
  12  -1  -5   59.39   12.90
 -12   1   5   56.89   10.30
  12   1  -5   63.99   14.00
 -12   1   5   88.29   11.30
  11  -1  -5   30.40    9.40
 -11  -1   5   24.30    6.90
 -11  -1   5   27.40    7.30
  11   1  -5   23.40    7.20
 -11   1   5   22.90    7.00
 -10  -1   5   -3.90    3.00
  10  -1  -5    9.90    4.20
 -10  -1   5    2.20    2.90
 -10   1   5    2.00    3.50
  10   1  -5    0.40    3.10
 -10   1   5    8.60    5.00
  -9  -1   5  126.59   12.40
  -9  -1   5  157.18   12.50
   9  -1  -5  147.39   14.50
   9   1  -5  150.28   14.80
  -9   1   5  128.49   12.00
  -9   1   5  122.69   12.20
   8  -1  -5   45.80    8.80
  -8  -1   5   53.49    6.40
  -8  -1   5   60.79    8.40
  -8  -1   5   58.39    7.60
  -8   1   5   65.79    7.50
   8   1  -5   53.29    9.30
  -8   1   5   54.09    7.00
  -7  -1   5   87.09    7.70
   7  -1  -5   85.29   10.00
  -7  -1   5   74.69    9.10
  -7  -1   5   77.79    8.30
   7   1  -5   88.29    9.90
  -7   1   5   84.39    9.80
  -7   1   5   90.89    8.80
  -7   1   5   91.09    8.30
  -6  -1   5   75.49    6.70
  -6  -1   5   72.19    8.80
   6  -1  -5   87.09    9.10
  -6  -1   5   79.09    8.50
   6  -1  -5   72.69    6.80
   6   1  -5   77.79    6.80
  -6   1   5   73.09    7.00
  -6   1   5   77.09    8.60
   6   1  -5   79.59    8.60
  -6   1   5   77.29    7.70
  -5  -1   5    8.50    3.20
   5  -1  -5    8.20    2.90
   5  -1  -5    8.30    3.10
  -5  -1   5    3.10    1.80
   5  -1  -5    6.20    2.30
  -5  -1   5    5.10    2.30
   5   1  -5   12.50    4.00
  -5   1   5    8.60    3.10
   5   1  -5    5.60    1.90
   5   1  -5    6.50    2.80
  -5   1   5    6.40    2.90
  -5   1   5    6.80    2.30
   4  -1  -5  211.08   11.60
  -4  -1   5  207.58   12.90
  -4  -1   5  221.38   13.90
   4  -1  -5  215.28   12.80
  -4  -1   5  211.18   11.10
   4   1  -5  208.78   12.70
  -4   1   5  215.38   13.00
  -4   1   5  233.08   13.80
   4   1  -5  225.88   13.60
  -4   1   5  215.88   11.90
   4   1  -5  212.08   10.90
   3  -1  -5  243.98   12.10
  -3  -1   5  235.88   13.30
   3  -1  -5  252.47   13.40
   3  -1  -5  243.18   13.40
  -3  -1   5  226.38   13.70
   3   1  -5  243.58   12.00
   3   1  -5  251.37   13.80
  -3   1   5  237.48   13.50
  -3   1   5  233.18   12.20
  -3   1   5  259.27   13.90
   3   1  -5  241.58   13.10
   2  -1  -5  816.82   37.60
   2  -1  -5  898.51   36.50
  -2  -1   5  993.10   38.10
  -2  -1   5  935.41   38.40
  -2  -1   5  885.01   34.90
   2  -1  -5  960.00   37.00
  -2   1   5  935.21   36.80
   2   1  -5  873.41   37.50
  -2   1   5  846.22   38.00
  -2   1   5  892.51   37.50
   2   1  -5  903.21   34.80
  -1  -1   5    5.40    1.80
   1  -1  -5    6.70    1.00
  -1  -1   5    8.20    2.00
  -1   1   5    6.00    1.70
  -1   1   5    7.80    2.40
   1   1  -5    9.40    2.10
  -1   1   5    5.30    1.90
   1   1  -5    7.40    2.00
  -1   1   5    7.90    1.70
  -1   1   5    8.50    3.00
   0  -1   5  468.05   20.80
   0  -1   5  442.96   20.30
   0  -1   5  459.45   18.30
   0  -1   5  421.36   19.90
   0   1   5  461.55   19.90
   0   1  -5  461.45   18.10
   0   1   5  467.15   20.50
   0   1   5  438.86   20.40
   0   1   5  471.95   20.00
   0   1   5  479.25   18.10
   1  -1   5 1535.85   61.69
   1  -1   5 1575.34   64.19
  -1  -1  -5 1607.24   63.69
   1  -1   5 1744.43   64.29
   1  -1   5 1634.34   61.79
  -1  -1  -5 1618.54   63.89
   1   1   5 1589.34   61.09
   1   1   5 1615.54   63.69
  -1   1  -5 1626.44   63.49
  -1   1  -5 1530.55   62.59
   1   1   5 1648.64   63.89
   2  -1   5   15.30    1.40
   2  -1   5   16.90    1.40
   2  -1   5   19.90    3.50
  -2  -1  -5   17.80    3.00
   2  -1   5   14.30    2.60
  -2  -1  -5   21.60    3.50
  -2   1  -5   17.00    2.60
   2   1   5   20.90    2.80
   2   1   5   15.40    3.10
  -2   1  -5   16.30    2.80
   2   1   5   15.80    2.00
   3  -1   5    8.70    2.50
   3  -1   5   13.70    3.30
  -3  -1  -5    8.10    2.20
  -3  -1  -5   11.30    2.90
   3  -1   5   11.10    1.30
   3  -1   5   10.00    1.10
   3   1   5   10.80    2.60
  -3   1  -5   15.40    3.30
   3   1   5   11.40    3.00
  -3   1  -5   12.40    2.70
   3   1   5   12.90    2.50
   4  -1   5   83.49    6.90
   4  -1   5   78.09    4.30
  -4  -1  -5   72.59    5.90
  -4  -1  -5   74.09    6.90
  -4  -1  -5   82.89    5.30
  -4   1  -5   72.19    6.50
   4   1   5   68.69    6.80
  -4   1  -5   70.89    4.00
   4   1   5   69.79    8.00
   4   1   5   75.29    6.00
  -5  -1  -5   27.50    5.50
  -5  -1  -5   26.20    4.20
   5  -1   5   26.20    5.60
   5   1   5   36.30    4.20
   5   1   5   29.10    5.30
  -5   1  -5   29.50    5.40
  -6  -1  -5  263.37   14.10
  -6  -1  -5  262.87   16.40
   6  -1   5  244.18   12.00
   6  -1   5  228.98   16.70
   6   1   5  243.58   16.00
  -6   1  -5  239.38   15.70
  -6   1  -5  243.08   11.60
   6   1   5  246.78   14.30
  -7  -1  -5   33.70    4.50
   7  -1   5   42.50    8.70
  -7  -1  -5   38.60    7.20
   7  -1   5   33.10    3.80
   7   1   5   25.10    4.90
  -7   1  -5   35.00    6.80
  -7   1  -5   27.20    3.20
   7   1   5   21.70    5.60
  -8  -1  -5    0.60    3.30
   8  -1   5   -5.30    1.90
   8  -1   5    0.80    2.80
  -8  -1  -5    4.70    2.30
  -8   1  -5    6.10    3.70
  -8   1  -5    2.20    1.70
   8   1   5   -0.70    2.30
  -9  -1  -5   52.89    9.60
   9  -1   5   54.79    9.10
  -9  -1  -5   64.19    6.40
   9  -1   5   47.00    9.40
   9   1   5   52.79    9.90
  -9   1  -5   57.59   10.30
  -9   1  -5   66.29    5.20
 -10  -1  -5   25.30    5.10
 -10  -1  -5   25.30    6.90
  10  -1   5   25.70    7.60
 -10   1  -5   24.20    7.00
  10   1   5   24.60    7.20
 -10   1  -5   23.70    3.90
  11  -1   5   17.40    8.00
 -11  -1  -5   19.20    6.10
  11   1   5   20.80   12.10
 -11   1  -5   14.50    7.10
 -13  -2   5   96.59   11.50
 -13  -2   5  103.09   13.10
  13  -2  -5   78.19   16.90
  13   2  -5   61.39   13.00
 -13   2   5  101.69   12.00
 -13   2   5   91.99   11.40
 -12  -2   5  147.49   14.10
 -12  -2   5   98.49   13.10
  12  -2  -5  155.38   18.60
 -12   2   5  125.29   13.60
 -12   2   5  130.89   14.40
  12   2  -5  119.49   15.90
 -11  -2   5  118.69   13.00
 -11  -2   5  115.19   11.80
  11  -2  -5   96.89   13.80
 -11   2   5  102.39   12.20
 -11   2   5  114.99   14.40
  11   2  -5  114.89   14.90
 -10  -2   5  159.78   13.80
  10  -2  -5  192.08   17.40
 -10  -2   5  162.78   15.00
  10   2  -5  176.68   17.00
 -10   2   5  157.98   14.30
 -10   2   5  150.78   14.20
   9  -2  -5   99.79   11.20
  -9  -2   5   80.99   10.10
  -9  -2   5   83.89    9.40
  -9   2   5   95.79   10.00
   9   2  -5   96.49   11.60
  -9   2   5   86.59    9.90
  -9   2   5  106.69   20.10
  -8  -2   5  486.55   27.50
  -8  -2   5  534.35   26.50
   8  -2  -5  529.55   30.50
  -8   2   5  466.45   26.70
  -8   2   5  459.15   28.70
   8   2  -5  517.35   29.90
  -8   2   5  507.05   27.50
   7  -2  -5  177.18   14.90
  -7  -2   5  198.68   12.70
  -7  -2   5  191.78   13.90
  -7  -2   5  155.88   13.90
  -7   2   5  187.98   13.10
  -7   2   5  187.48   13.50
   7   2  -5  179.98   14.60
  -7   2   5  165.38   14.00
  -6  -2   5   59.29    5.90
  -6  -2   5   60.59    6.90
   6  -2  -5   61.89    7.90
  -6  -2   5   56.89    7.70
   6   2  -5   61.69    7.70
  -6   2   5   59.59    7.50
   6   2  -5   67.69    6.10
   5  -2  -5  449.56   24.30
   5  -2  -5  457.25   22.20
  -5  -2   5  463.35   23.60
  -5  -2   5  462.25   21.20
  -5  -2   5  428.76   24.50
   5  -2  -5  468.55   23.30
   5   2  -5  438.56   21.00
   5   2  -5  490.25   25.00
  -5   2   5  452.25   23.40
  -5   2   5  458.55   22.60
  -5   2   5  446.16   24.20
   5   2  -5  446.06   23.30
   4  -2  -5  180.68   11.40
  -4  -2   5  179.18    9.50
  -4  -2   5  182.18   12.60
   4  -2  -5  179.38   10.60
  -4  -2   5  186.88   11.70
  -4   2   5  172.08   11.80
  -4   2   5  171.28   11.50
   4   2  -5  164.88    9.30
  -4   2   5  187.88   11.00
   4   2  -5  169.18   12.00
   4   2  -5  165.08   12.50
   3  -2  -5 1234.08   48.20
  -3  -2   5 1159.18   48.90
  -3  -2   5 1139.49   50.09
   3  -2  -5 1209.88   49.10
   3  -2  -5 1130.69   48.90
  -3   2   5 1127.19   49.30
  -3   2   5 1219.98   49.50
   3   2  -5 1200.78   50.09
  -3   2   5 1205.68   48.40
   3   2  -5 1083.79   48.60
  -2  -2   5  465.15   22.60
  -2  -2   5  469.45   18.20
   2  -2  -5  478.75   21.40
   2  -2  -5  457.95   20.80
  -2  -2   5  467.25   21.40
  -2  -2   5  460.05   22.70
  -2   2   5  490.55   22.50
   2   2  -5  469.45   21.30
   2   2  -5  438.96   18.20
   2   2  -5  426.66   21.90
  -2   2   5  445.26   21.00
  -2   2   5  450.95   21.90
  -2   2   5  502.25   21.50
  -1  -2   5  191.78   11.70
   1  -2  -5  192.98    8.30
   1  -2  -5  185.88    8.10
  -1  -2   5  163.28   10.90
   1  -2  -5  188.58   10.40
  -1  -2   5  198.48   10.10
  -1   2   5  192.38   10.40
  -1   2   5  198.08   11.10
  -1   2   5  201.68    9.80
  -1   2   5  175.88   10.90
  -1   2   5  195.58   10.40
   1   2  -5  195.78   10.10
   0  -2   5  558.14   22.30
   0  -2  -5  549.15   25.80
   0  -2   5  580.54   26.40
   0  -2   5  537.35   25.80
   0   2   5  548.05   25.00
   0   2   5  586.34   25.80
   0   2   5  573.84   25.10
   0   2   5  602.24   23.00
   0   2  -5  608.34   22.50
  -1  -2  -5 1361.26   55.69
   1  -2   5 1297.17   52.29
  -1  -2  -5 1441.06   56.19
   1  -2   5 1382.66   56.89
   1   2   5 1339.97   52.29
   1   2   5 1434.76   55.99
  -1   2  -5 1346.77   56.29
   1   2   5 1403.76   55.89
   1   2   5 1465.35   52.59
  -1   2  -5 1271.47   52.29
   2  -2   5 2446.16   88.59
  -2  -2  -5 2355.26   89.99
  -2  -2  -5 2339.77   90.19
   2  -2   5 2381.26   91.09
   2  -2   5 2073.59   90.59
  -2   2  -5 2189.78   88.39
   2   2   5 2303.77   90.29
  -2   2  -5 2253.97   90.29
   2   2   5 2297.37   89.79
   2   2   5 2092.89   86.99
   3  -2   5   35.10    4.00
  -3  -2  -5   34.20    4.30
  -3  -2  -5   33.90    4.40
   3  -2   5   34.50    5.00
  -3   2  -5   35.10    4.40
   3   2   5   38.50    4.50
   3   2   5   42.30    4.90
   3   2   5   31.80    3.40
  -3   2  -5   29.70    3.70
  -4  -2  -5  707.93   31.00
  -4  -2  -5  643.84   34.20
   4  -2   5  709.83   30.90
   4  -2   5  563.24   31.90
   4   2   5  684.73   31.00
   4   2   5  696.93   30.40
  -4   2  -5  743.93   31.40
  -5  -2  -5 1222.08   52.89
   5  -2   5 1234.58   54.69
  -5  -2  -5 1234.08   49.10
  -5  -2  -5 1162.08   51.09
   5   2   5 1231.68   51.99
   5   2   5 1162.08   51.49
  -5   2  -5 1209.68   52.99
  -6  -2  -5   51.29    6.80
   6  -2   5   49.40    9.00
  -6   2  -5   59.89    6.90
   6   2   5   45.00    6.30
   7  -2   5   -1.20    2.00
  -7  -2  -5   -1.00    1.50
  -7  -2  -5   -0.20    2.10
  -7   2  -5   -1.00    2.20
   7   2   5   -0.30    2.20
  -7   2  -5   -0.10    0.50
  -8  -2  -5   81.69    8.30
   8  -2   5   80.79   11.20
  -8  -2  -5   91.79   19.70
  -8   2  -5   78.39    9.60
   8   2   5   60.39    8.70
  -9  -2  -5   28.00    7.10
   9  -2   5   31.70    8.10
  -9  -2  -5   22.50    5.20
  -9   2  -5   27.40    6.50
   9   2   5   29.70    7.80
 -10  -2  -5   46.40    8.70
  10  -2   5   44.10   10.10
 -10  -2  -5   50.49    8.20
  10   2   5   61.49   11.70
 -10   2  -5   50.79    9.30
 -11  -2  -5    1.10    4.40
  11  -2   5    6.80    7.90
 -11  -2  -5   -8.30    4.60
  11   2   5    4.90    4.20
 -11   2  -5    6.90    8.50
 -12  -3   5   50.19    9.90
  12  -3  -5   40.30    9.20
 -12  -3   5   53.89    9.40
 -12   3   5   53.39   10.30
 -12   3   5   38.10    7.80
  12   3  -5   48.50   11.30
 -11  -3   5  216.88   17.00
 -11  -3   5  216.68   18.50
  11  -3  -5  237.18   21.40
  11   3  -5  200.08   19.90
 -11   3   5  208.88   20.70
 -11   3   5  214.58   18.00
 -10  -3   5    6.20    4.10
 -10  -3   5    3.10    3.20
  10  -3  -5   -1.70    3.40
 -10   3   5    4.80    3.90
 -10   3   5    6.80    4.50
  10   3  -5    4.80    4.90
  -9  -3   5   71.89    9.80
  -9  -3   5   78.89    8.60
   9  -3  -5   76.19   10.70
  -9   3   5   67.09    9.00
  -9   3   5   77.09   16.40
   9   3  -5   76.89   10.70
  -9   3   5   83.49    9.80
   8  -3  -5  255.57   19.60
  -8  -3   5  230.38   17.30
  -8  -3   5  235.28   15.40
  -8   3   5  233.78   16.80
  -8   3   5  255.37   19.10
  -8   3   5  255.47   17.20
   8   3  -5  244.08   19.00
  -7  -3   5    0.80    2.60
   7  -3  -5    3.00    3.60
  -7  -3   5    3.70    5.80
  -7  -3   5    0.80    2.00
  -7   3   5    2.40    2.10
  -7   3   5    5.40    3.20
  -7   3   5    1.20    2.50
   7   3  -5    2.20    2.90
  -6  -3   5   80.79    6.90
   6  -3  -5   84.69    9.30
  -6  -3   5   64.29    8.80
  -6  -3   5   75.89    8.30
   6   3  -5   91.79    9.60
  -6   3   5   79.39    8.00
   6   3  -5   81.59    7.00
  -6   3   5   86.29    9.20
  -6   3   5   83.79    8.40
  -5  -3   5   -1.30    1.70
   5  -3  -5    2.20    2.30
  -5  -3   5    0.90    1.60
  -5  -3   5    3.10    1.70
  -5   3   5    3.80    2.20
   5   3  -5    2.20    1.50
  -5   3   5    3.00    3.60
  -5   3   5    1.10    2.30
   5   3  -5    3.00    2.20
   4  -3  -5   33.30    6.10
  -4  -3   5   41.50    7.10
  -4  -3   5   34.10    3.50
   4  -3  -5   34.70    4.40
  -4  -3   5   35.30    4.60
  -4   3   5   32.20    5.20
   4   3  -5   32.90    6.00
   4   3  -5   29.30    5.10
  -4   3   5   37.50    6.00
  -4   3   5   33.80    5.10
  -4   3   5   28.70    5.20
   4   3  -5   34.70    3.70
  -3  -3   5   45.90    5.10
   3  -3  -5   36.90    4.40
  -3  -3   5   42.50    5.70
  -3  -3   5   44.00    3.50
   3  -3  -5   42.90    5.10
  -3  -3   5   41.80    5.70
   3   3  -5   39.00    5.30
  -3   3   5   54.09    5.50
  -3   3   5   45.20    5.30
   3   3  -5   47.80    5.10
  -3   3   5   42.70    5.20
  -3   3   5   44.80    4.90
   3   3  -5   47.10    3.70
   2  -3  -5  736.13   32.70
   2  -3  -5  730.13   31.30
  -2  -3   5  769.22   34.90
  -2  -3   5  766.92   34.60
  -2  -3   5  744.33   32.40
   2  -3  -5  757.52   32.20
  -2   3   5  782.02   33.90
   2   3  -5  693.03   32.20
  -2   3   5  665.73   32.80
   2   3  -5  765.42   34.20
  -2   3   5  748.13   32.70
   2   3  -5  704.43   29.30
   2   3  -5  792.42   29.80
  -2   3   5  754.42   32.80
   1  -3  -5  239.78   11.00
  -1  -3   5  249.18   14.60
   1  -3  -5  232.18   13.90
   1  -3  -5  265.27   11.70
  -1  -3   5  235.68   12.30
  -1  -3   5  242.98   14.70
   1   3  -5  241.78   14.20
  -1   3   5  266.17   12.80
  -1   3   5  244.88   14.00
  -1   3   5  246.88   13.30
   1   3  -5  235.48   10.30
  -1   3   5  236.48   13.20
  -1   3   5  229.58   14.80
   1   3  -5  237.78   10.40
   1   3  -5  225.18   12.30
   0  -3   5    2.90    0.90
   0  -3   5    2.90    1.30
   0  -3   5    3.20    2.00
   0  -3  -5    3.10    1.90
   0  -3   5    1.90    1.60
   0   3  -5    3.10    1.70
   0   3   5    2.30    1.90
   0   3  -5    3.50    1.10
   0   3  -5    4.80    1.60
   0   3  -5    1.30    1.30
   0   3   5    3.60    1.80
   0   3   5    3.30    1.40
   0   3   5    5.30    2.50
  -1  -3  -5 1047.60   44.90
  -1  -3  -5 1046.70   45.40
   1  -3   5 1091.39   42.20
   1  -3   5 1087.69   46.30
   1  -3   5 1059.59   41.30
   1  -3   5 1100.89   46.90
   1   3   5 1050.89   42.10
   1   3   5 1053.99   45.20
  -1   3  -5 1061.09   41.40
   1   3   5 1009.80   44.70
   1   3   5 1126.59   45.30
   1   3   5 1093.69   42.50
  -1   3  -5 1006.10   45.90
  -1   3  -5 1019.50   42.30
  -2  -3  -5  256.37   14.70
   2  -3   5  255.57   15.50
   2  -3   5  275.47   16.20
   2  -3   5  268.57   12.90
  -2  -3  -5  253.97   14.60
  -2   3  -5  246.98   12.80
   2   3   5  247.48   12.20
   2   3   5  246.08   14.50
  -2   3  -5  275.77   15.60
   2   3   5  250.57   14.70
  -3  -3  -5  198.88   14.20
   3  -3   5  155.98   10.20
  -3  -3  -5  177.98   11.70
   3  -3   5  174.68   12.50
   3  -3   5  161.68   12.60
  -3   3  -5  194.18   11.00
   3   3   5  188.38   10.20
   3   3   5  177.58   11.70
  -4  -3  -5  118.29    9.40
   4  -3   5  103.89   10.20
   4  -3   5   92.79    7.60
  -4  -3  -5  101.59    9.70
   4   3   5  103.99    7.60
  -4   3  -5  107.89    8.50
  -5  -3  -5   98.49    8.60
  -5  -3  -5   95.49    9.00
   5  -3   5  102.99   10.60
  -5   3  -5  102.29    9.00
   5   3   5  103.39    8.40
  -6  -3  -5  354.86   20.50
  -6  -3  -5  372.66   21.80
   6  -3   5  381.16   24.00
   6   3   5  345.57   20.40
  -6   3  -5  386.36   21.40
   7  -3   5   73.09   10.40
  -7  -3  -5   89.69    9.60
  -7  -3  -5   85.69    8.40
  -7   3  -5   79.09    9.00
   8  -3   5   66.49   12.30
  -8  -3  -5   93.79   10.60
  -8  -3  -5   95.09    9.40
   8   3   5   77.89    9.50
  -8   3  -5   91.69   10.30
  -9  -3  -5  144.99   12.60
   9  -3   5  147.59   16.70
  -9  -3  -5  129.89   13.50
  -9   3  -5  128.99   13.30
   9   3   5  141.49   13.90
 -10  -3  -5  167.48   15.60
 -10  -3  -5  134.49   12.50
  10  -3   5  152.98   17.80
  10   3   5  146.19   14.60
 -10   3  -5  156.88   15.00
  12  -4  -5  215.18   22.90
 -12  -4   5  172.28   15.40
 -12  -4   5  192.68   18.70
 -12   4   5  172.38   16.50
  12   4  -5  175.58   19.50
 -11  -4   5   23.30    7.20
 -11  -4   5   16.00    5.50
  11  -4  -5   23.70    7.10
  11   4  -5   25.50    6.50
 -11   4   5   17.60    6.50
 -11   4   5   14.40    5.50
  10  -4  -5  190.58   18.60
 -10  -4   5  219.58   17.70
 -10  -4   5  198.18   16.80
  10   4  -5  225.18   20.10
 -10   4   5  213.08   16.90
 -10   4   5  210.38   17.70
   9  -4  -5   29.60    7.70
  -9  -4   5   34.50    7.00
  -9   4   5   47.10   13.90
  -9   4   5   39.30    8.00
   9   4  -5   40.20    9.10
   8  -4  -5   -1.30    3.10
  -8  -4   5   -0.50    3.00
  -8  -4   5    2.20    2.40
  -8   4   5   -3.50    1.90
  -8   4   5   -2.70    2.40
  -8   4   5    3.10    3.70
   7  -4  -5  370.46   24.50
  -7  -4   5  402.16   20.80
  -7  -4   5  376.56   22.90
  -7   4   5  397.16   23.10
  -7   4   5  361.16   22.10
  -7   4   5  374.56   24.60
   7   4  -5  383.06   24.50
  -6  -4   5   22.10    4.50
   6  -4  -5   17.50    5.30
  -6  -4   5   23.10    5.40
  -6  -4   5   26.90    8.80
  -6   4   5   23.10    5.40
  -6   4   5   13.20    3.80
  -6   4   5   22.90    6.10
   6   4  -5   18.70    5.10
   6   4  -5   25.10    4.10
  -5  -4   5    3.60    2.50
  -5  -4   5   -0.90    1.60
  -5  -4   5   -0.40    1.20
   5  -4  -5    0.40    1.20
  -5  -4   5   -1.00    2.30
   5   4  -5    0.40    2.00
  -5   4   5   -0.10    1.70
  -5   4   5    0.00    1.60
   5   4  -5   -0.20    1.60
  -5   4   5    0.30    2.40
  -4  -4   5    1.00    1.20
  -4  -4   5    1.60    2.20
   4  -4  -5   -0.20    1.70
  -4  -4   5   -0.10    1.80
   4   4  -5    2.80    2.50
  -4   4   5    4.40    2.10
   4   4  -5    0.10    1.30
  -4   4   5    1.70    1.90
  -4   4   5    2.50    2.50
  -3  -4   5   32.00    6.50
  -3  -4   5   28.40    4.90
  -3  -4   5   28.20    5.80
   3  -4  -5   25.20    4.80
   3   4  -5   15.70    4.30
  -3   4   5   21.80    4.50
   3   4  -5   22.70    2.70
  -3   4   5   17.60    4.10
   3   4  -5   27.30    3.10
  -3   4   5   29.90    5.20
   3   4  -5   30.10    5.30
   2  -4  -5   28.50    4.70
  -2  -4   5   20.10    4.90
  -2  -4   5   25.30    4.20
   2  -4  -5   30.70    5.10
  -2  -4   5   31.10    5.80
  -2   4   5   29.00    5.10
  -2   4   5   25.20    4.60
   2   4  -5   22.50    4.30
   2   4  -5   28.40    2.90
   2   4  -5   21.70    4.70
  -2   4   5   30.60    4.30
   2   4  -5   30.30    3.00
  -1  -4   5  555.34   23.90
  -1  -4   5  563.24   27.50
  -1  -4   5  528.45   26.60
   1  -4  -5  493.45   25.50
   1  -4  -5  492.15   22.40
   1  -4  -5  545.05   23.40
   1   4  -5  481.95   25.90
  -1   4   5  503.65   24.70
  -1   4   5  521.85   24.90
   1   4  -5  528.45   21.70
   1   4  -5  507.65   23.70
   1   4  -5  480.05   21.60
  -1   4   5  502.85   25.30
   0  -4   5  113.89    9.80
   0  -4  -5  101.89    6.00
   0  -4  -5  116.09    9.10
   0  -4  -5  116.89    6.50
   0  -4   5  112.99    6.40
   0  -4   5  109.09    6.90
   0  -4   5   95.69    8.90
   0   4  -5  110.09    7.20
   0   4  -5  104.69    9.70
   0   4   5  111.69    7.70
   0   4   5  111.49    8.60
   0   4  -5  109.19    9.60
   0   4   5   97.69    8.10
   0   4  -5  110.49    6.50
   1  -4   5   34.80    6.40
   1  -4   5   32.50    6.10
   1  -4   5   20.90    2.80
  -1  -4  -5   22.10    5.20
   1  -4   5   24.90    2.60
  -1   4  -5   20.20    3.10
   1   4   5   25.60    7.30
  -1   4  -5   28.30    5.70
   1   4   5   24.20    3.90
  -1   4  -5   19.30    2.60
  -2  -4  -5  393.36   20.80
   2  -4   5  399.36   18.40
  -2  -4  -5  430.76   21.60
   2  -4   5  373.66   22.30
   2  -4   5  365.86   21.60
   2   4   5  413.96   21.20
  -2   4  -5  375.26   16.10
   2   4   5  372.16   18.30
  -2   4  -5  421.86   19.00
   3  -4   5   19.70    4.80
   3  -4   5   22.40    3.90
  -3  -4  -5   21.40    4.70
  -3  -4  -5   28.10    5.30
   3   4   5   23.40    4.00
  -3   4  -5   32.20    4.90
   4  -4   5   56.39    8.10
   4  -4   5   65.59    8.00
  -4  -4  -5   55.19    6.70
   4  -4   5   59.99    6.00
  -4  -4  -5   54.39    6.70
   4   4   5   58.09    5.80
  -4   4  -5   64.99    6.40
   5  -4   5  197.28   15.50
  -5  -4  -5  192.98   13.80
   5  -4   5  205.48   16.30
  -5  -4  -5  184.78   14.00
  -5   4  -5  186.78   13.00
   5   4   5  189.38   12.70
  -6  -4  -5   99.99   10.30
  -6  -4  -5  110.79   10.30
   6  -4   5  119.59   12.90
   6   4   5  113.89    9.90
  -6   4  -5  109.59   10.20
  -7  -4  -5   37.40    7.20
  -7  -4  -5   39.00    8.20
   7  -4   5   32.30    8.30
   7   4   5   44.60    7.80
  -7   4  -5   39.80    8.20
  -8  -4  -5    8.50    4.20
  -8  -4  -5   15.70    5.10
   8  -4   5    6.70    5.60
  -8   4  -5    9.00    5.60
   8   4   5   14.50    5.20
   9  -4   5  183.88   19.50
  -9  -4  -5  170.68   14.70
  -9  -4  -5  194.38   16.70
  -9   4  -5  183.88   16.20
   9   4   5  184.08   15.90
 -10  -4  -5   30.30   10.40
 -10  -4  -5   49.00    9.40
  10  -4   5   58.09   12.50
 -10   4  -5   54.49    9.80
  10   4   5   33.60   11.00
  11  -5  -5  472.05   34.40
 -11  -5   5  429.06   27.00
 -11  -5   5  437.76   29.70
 -11   5   5  474.05   30.70
  11   5  -5  442.26   32.30
 -10  -5   5  112.29   14.10
  10  -5  -5  108.89   14.50
 -10  -5   5  133.29   14.00
 -10  -5   5  104.29   11.30
  10   5  -5  115.99   14.60
 -10   5   5   95.09   11.80
  -9  -5   5  245.98   16.80
   9  -5  -5  229.68   20.40
  -9  -5   5  247.68   20.20
  -9  -5   5  220.18   18.40
  -9   5   5  222.08   17.40
  -9   5   5  249.68   19.20
   9   5  -5  262.67   21.10
  -8  -5   5  352.46   24.50
   8  -5  -5  331.27   24.60
  -8  -5   5  341.27   20.20
  -8   5   5  305.47   24.20
  -8   5   5  346.77   22.20
   8   5  -5  369.96   25.10
  -8   5   5  409.26   28.40
  -7  -5   5  205.18   17.00
  -7  -5   5  198.08   13.20
   7  -5  -5  217.58   19.80
  -7  -5   5  215.48   16.00
  -7   5   5  175.58   16.20
  -7   5   5  203.38   15.70
   7   5  -5  192.28   16.70
  -7   5   5  203.88   15.40
   6  -5  -5 1033.30   50.89
  -6  -5   5 1020.00   48.80
  -6  -5   5 1031.80   50.89
  -6  -5   5 1123.09   46.00
  -6   5   5 1034.10   48.50
  -6   5   5 1056.09   51.09
  -6   5   5 1047.90   48.80
   6   5  -5 1024.90   50.79
  -5  -5   5   22.10    5.80
  -5  -5   5   19.00    3.80
  -5  -5   5   22.80    5.50
  -5   5   5   18.80    5.10
  -5   5   5   20.70    5.70
   5   5  -5   31.30    6.90
   5   5  -5   16.70    4.10
  -5   5   5   19.00    4.90
  -4  -5   5  612.14   30.00
  -4  -5   5  599.14   32.30
  -4  -5   5  595.54   32.10
   4  -5  -5  535.65   30.10
  -4  -5   5  628.84   27.10
   4   5  -5  601.44   31.80
   4   5  -5  603.04   27.40
  -4   5   5  590.34   31.00
  -4   5   5  593.44   30.40
  -4   5   5  598.84   30.00
  -3  -5   5  944.51   45.40
  -3  -5   5  939.01   45.10
   3  -5  -5  955.00   43.30
   3   5  -5  966.50   39.90
   3   5  -5  969.00   39.60
  -3   5   5  905.81   43.30
   3   5  -5  941.91   44.90
  -3   5   5  980.10   43.80
  -3   5   5  931.91   43.00
  -2  -5   5  381.76   22.50
  -2  -5   5  364.16   19.40
  -2  -5   5  358.16   21.90
   2  -5  -5  394.56   20.10
   2   5  -5  357.36   21.60
  -2   5   5  379.06   20.40
  -2   5   5  370.56   20.80
   2   5  -5  375.36   19.80
   2   5  -5  354.16   17.20
   2   5  -5  364.96   17.40
  -1  -5   5 2441.36  100.49
  -1  -5   5 2430.76   96.29
  -1  -5   5 2441.86  100.99
   1  -5  -5 2441.46   99.19
   1  -5  -5 2361.46   96.09
   1   5  -5 2369.46  100.59
  -1   5   5 2390.06   97.59
   1   5  -5 2483.55   94.49
   1   5  -5 2447.85   94.39
   1   5  -5 2471.25  100.59
  -1   5   5 2397.06   98.09
   0  -5  -5   96.59    8.90
   0  -5   5   97.89    9.60
   0  -5   5  105.89   10.30
   0  -5   5   97.29    6.90
   0  -5  -5   86.59    6.60
   0   5  -5   84.99    6.90
   0   5  -5   96.29    6.40
   0   5  -5   84.39    9.20
   0   5  -5   92.69    9.30
   0   5   5   96.49    7.90
   0   5  -5   90.29    6.50
   0   5   5   85.79    8.10
  -1  -5  -5  762.02   30.10
   1  -5   5  720.63   30.50
  -1  -5  -5  719.63   34.50
   1  -5   5  738.33   30.30
   1  -5   5  708.23   36.40
   1  -5   5  694.63   35.30
   1   5   5  692.83   31.80
   1   5   5  726.03   32.60
  -1   5  -5  691.93   30.30
  -1   5  -5  681.03   30.70
   1   5   5  653.33   33.10
  -2  -5  -5 1889.91   78.59
   2  -5   5 1972.80   80.49
   2  -5   5 1811.52   74.39
  -2  -5  -5 1721.83   71.99
   2  -5   5 1816.12   80.39
   2  -5   5 1855.91   72.59
  -2   5  -5 1886.31   72.69
   2   5   5 1940.31   75.69
   2   5   5 1897.11   77.99
  -2   5  -5 1874.71   75.09
  -3  -5  -5   48.30    6.30
   3  -5   5   30.40    4.80
   3  -5   5   31.90    6.80
  -3  -5  -5   27.50    5.80
   3  -5   5   45.50    6.90
  -3   5  -5   28.60    2.40
  -3   5  -5   43.90    5.00
  -3   5  -5   30.10    2.40
   3   5   5   34.70    6.00
   3   5   5   36.30    4.70
  -4  -5  -5  873.31   41.90
   4  -5   5  868.41   44.00
  -4  -5  -5  901.71   42.40
   4  -5   5  883.31   45.30
   4   5   5  892.71   39.60
  -4   5  -5  890.11   40.10
  -5  -5  -5  370.76   22.30
   5  -5   5  374.06   24.00
   5  -5   5  339.77   24.20
  -5  -5  -5  375.56   22.40
   5   5   5  359.16   20.20
  -5   5  -5  364.56   20.70
  -6  -5  -5    4.60    3.80
   6  -5   5    2.10    4.20
   6  -5   5   -2.80    3.40
  -6   5  -5    3.70    3.40
   7  -5   5  237.48   19.80
   7  -5   5  247.58   21.40
  -7  -5  -5  239.18   18.30
  -7   5  -5  253.67   17.70
   7   5   5  240.08   17.00
  -8  -5  -5   35.40    8.20
   8  -5   5   39.10    9.00
  -8  -5  -5   42.40    8.60
  -8   5  -5   45.50    8.60
   8   5   5   37.80    8.20
   9  -5   5   17.20    9.00
  -9  -5  -5   11.50    5.10
  -9  -5  -5   12.40    5.60
  -9   5  -5   15.50    6.00
   9   5   5   13.30    4.80
 -11  -6   5   29.00    8.60
 -11  -6   5   49.10    7.40
 -11   6   5   39.90    9.30
  11   6  -5   33.60   10.40
 -11   6   5   39.30    9.40
 -10  -6   5   12.70    4.90
 -10  -6   5    9.90    5.70
  10  -6  -5   20.80    6.30
 -10   6   5   15.70    5.50
 -10   6   5    6.00    5.00
  10   6  -5   10.40    5.80
  -9  -6   5    2.90    5.60
  -9  -6   5    5.20    4.30
   9  -6  -5    8.70    5.70
  -9   6   5    2.60    4.20
   9   6  -5   -2.60    3.80
  -8  -6   5  625.14   35.20
  -8  -6   5  651.83   32.00
   8  -6  -5  582.64   37.00
  -8  -6   5  634.74   36.90
   8   6  -5  617.14   36.70
  -8   6   5  577.74   34.30
  -8   6   5  631.64   34.00
  -8   6   5  596.14   36.70
  -7  -6   5   16.30    5.70
  -7  -6   5   15.80    4.50
   7  -6  -5   17.20    6.10
  -7   6   5   20.20    5.90
  -7   6   5   20.20    5.50
  -7   6   5   23.70    8.10
   7   6  -5   31.20    8.20
   6  -6  -5   52.69   10.10
  -6  -6   5   62.89    6.40
  -6  -6   5   51.39    8.90
  -6  -6   5   71.19   12.10
  -6   6   5   52.59    8.90
  -6   6   5   60.99   10.40
  -6   6   5   64.09    8.50
   6   6  -5   65.89   11.50
  -5  -6   5 1333.47   62.49
  -5  -6   5 1315.47   59.79
   5   6  -5 1322.87   56.29
  -5   6   5 1290.27   59.79
  -5   6   5 1273.47   59.69
   5   6  -5 1378.16   62.49
  -5   6   5 1417.56   68.99
  -4  -6   5  154.78   12.40
   4  -6  -5  171.98   13.90
  -4  -6   5  154.08   14.10
   4   6  -5  168.48   14.40
  -4   6   5  149.99   12.60
   4   6  -5  155.78   10.70
   4   6  -5  154.08   10.30
  -4   6   5  163.38   13.00
  -4   6   5  145.29   13.10
   3  -6  -5  417.16   25.00
  -3  -6   5  495.25   28.30
  -3  -6   5  480.15   25.10
   3   6  -5  509.65   22.80
  -3   6   5  445.66   25.50
  -3   6   5  470.55   26.10
  -3   6   5  461.75   26.30
   3   6  -5  478.45   22.90
   3   6  -5  477.25   27.60
  -2  -6   5 1217.38   59.29
   2  -6  -5 1325.57   56.69
  -2  -6   5 1297.37   60.09
  -2  -6   5 1336.27   56.09
   2   6  -5 1336.17   53.69
   2   6  -5 1474.95   60.89
  -2   6   5 1266.07   57.09
   2   6  -5 1141.09   55.29
  -2   6   5 1262.17   57.69
  -2   6   5 1359.56   58.19
  -1  -6   5   88.99   10.10
   1  -6  -5   63.79    7.90
  -1  -6   5   84.59    7.40
   1  -6  -5   71.09    7.10
  -1  -6   5   66.19    8.70
   1   6  -5   81.19    9.20
   1   6  -5   64.89    7.10
  -1   6   5   88.19    8.50
  -1   6   5   55.59    7.00
   1   6  -5   67.09    6.20
   1   6  -5   75.59    6.10
   1   6  -5   89.19   10.10
   0  -6   5  501.15   24.00
   0  -6  -5  530.15   24.40
   0  -6   5  539.55   29.70
   0  -6   5  483.85   28.00
   0  -6  -5  487.45   27.10
   0   6   5  501.25   26.50
   0   6  -5  488.25   24.30
   0   6  -5  451.35   23.10
   0   6  -5  521.65   25.30
   0   6   5  509.15   30.50
   1  -6   5 1029.10   49.30
  -1  -6  -5 1007.90   46.90
   1  -6   5  936.91   42.10
   1  -6   5  998.10   42.10
   1   6   5 1019.70   44.70
   1   6   5 1061.69   46.20
  -1   6  -5  952.20   42.50
  -1   6  -5  976.20   42.30
   1   6   5 1008.70   45.10
  -2  -6  -5   83.89    6.40
   2  -6   5   83.09    7.00
   2  -6   5  108.09   11.40
   2  -6   5   88.09    6.50
  -2  -6  -5   82.59    9.50
   2  -6   5   99.69   10.80
   2   6   5   95.09    9.20
   2   6   5   99.49    8.60
  -2   6  -5   86.49    7.60
  -2   6  -5   96.69    6.80
   3  -6   5  329.07   22.90
   3  -6   5  303.87   22.10
  -3  -6  -5  347.57   21.20
   3   6   5  309.67   18.20
  -3   6  -5  318.07   14.80
  -3   6  -5  337.07   18.20
  -3   6  -5  293.07   14.50
   3   6   5  329.57   20.10
   4  -6   5  267.57   20.80
  -4  -6  -5  294.27   19.30
  -4  -6  -5  273.07   18.40
   4   6   5  269.77   16.60
  -4   6  -5  247.48   10.80
   4   6   5  267.27   18.40
  -4   6  -5  255.77   16.20
  -5  -6  -5  290.97   19.90
   5  -6   5  262.07   20.90
   5  -6   5  258.57   21.40
  -5  -6  -5  289.27   19.60
   5   6   5  285.37   17.70
  -5   6  -5  262.57   17.30
   6  -6   5  223.68   20.50
  -6  -6  -5  246.78   18.30
  -6  -6  -5  246.78   18.40
   6  -6   5  228.48   19.90
   6   6   5  241.28   16.60
  -6   6  -5  249.18   17.00
  -7  -6  -5   20.30    6.40
  -7  -6  -5    5.40    4.20
   7   6   5   14.20    4.50
  -8  -6  -5  232.48   19.40
   8  -6   5  260.97   24.00
  -8  -6  -5  248.88   19.40
   8   6   5  253.87   18.60
  -8   6  -5  234.38   18.50
  -9  -6  -5   81.59   10.80
  -9  -6  -5   92.39   11.80
   9  -6   5   74.79   13.90
  -9   6  -5   90.59   11.60
   9   6   5   85.89   11.00
 -10  -7   5    5.10    4.00
 -10  -7   5   -3.60    4.50
 -10   7   5    1.40    5.50
 -10   7   5   10.20    5.50
  10   7  -5    6.00    6.60
  -9  -7   5   28.30    8.30
  -9  -7   5   30.10    6.50
  -9   7   5   26.90    7.60
  -9   7   5   35.40    8.50
   9   7  -5   23.80    8.20
  -8  -7   5  120.79   11.10
  -8  -7   5  116.79   14.00
  -8  -7   5  101.99   12.10
   8   7  -5  117.29   14.40
  -8   7   5   75.59   12.00
  -8   7   5   95.49   11.90
  -7  -7   5   79.19   10.10
  -7  -7   5   72.69    8.50
  -7  -7   5   51.99   10.20
   7  -7  -5   47.50    9.90
  -7   7   5   56.89   10.30
  -7   7   5   62.39   10.30
   7   7  -5   69.59   12.20
  -6  -7   5   14.30    6.00
  -6  -7   5   15.30    4.90
   6  -7  -5    9.20    4.30
  -6   7   5   16.70    6.90
   6   7  -5   11.70    4.00
   6   7  -5   12.00    5.40
  -6   7   5   12.20    5.10
  -6   7   5    4.30    4.30
  -5  -7   5   71.69   10.20
   5  -7  -5   70.99   13.10
  -5  -7   5   79.69    9.20
   5   7  -5   67.09    9.70
  -5   7   5   75.79   10.60
   5   7  -5   88.99    8.20
  -5   7   5   88.39   10.20
   4  -7  -5   68.99    9.40
  -4  -7   5   47.30    9.10
  -4  -7   5   72.59    8.60
   4   7  -5   63.69    6.70
  -4   7   5   75.89    9.20
  -4   7   5   76.29    9.90
   4   7  -5   74.39   10.00
  -4   7   5   71.99    9.40
   3  -7  -5    0.90    3.60
  -3  -7   5    0.80    2.30
  -3  -7   5    7.20    4.10
   3   7  -5   -1.60    2.30
   3   7  -5    0.10    2.00
  -3   7   5   -0.80    2.00
  -3   7   5    1.00    2.10
  -3   7   5   -0.60    2.00
  -2  -7   5   29.20    7.30
  -2  -7   5   32.20    5.90
   2  -7  -5   25.70    5.60
  -2   7   5   29.00    6.70
   2   7  -5   25.00    6.20
  -2   7   5   32.50    7.00
  -2   7   5   24.20    5.50
   2   7  -5   26.70    4.70
  -1  -7   5   -1.70    2.50
   1  -7  -5   -1.00    1.80
  -1  -7   5    5.00    2.50
   1  -7  -5   -1.40    2.10
   1   7  -5    2.40    2.40
   1   7  -5   -1.40    1.70
  -1   7   5    1.30    1.90
  -1   7   5   -0.90    2.80
   1   7  -5   -2.10    1.90
   0  -7   5   33.20    5.50
   0  -7  -5   34.60    5.80
   0  -7  -5   38.30    7.70
   0   7   5   45.30    8.20
   0   7  -5   37.10    5.80
   0   7   5   50.89    8.30
   1  -7   5   -0.70    1.50
   1  -7   5    1.10    5.70
  -1  -7  -5    0.50    2.00
  -1  -7  -5   -1.90    1.30
   1   7   5   -1.00    1.70
  -1   7  -5   -3.90    2.30
   1   7   5    1.80    3.00
  -1   7  -5   -1.60    1.90
   2  -7   5   61.09    5.40
   2  -7   5   64.29    9.80
  -2  -7  -5   66.99    8.60
   2   7   5   73.09    8.40
  -2   7  -5   64.29    6.90
   2   7   5   52.39    7.10
   3  -7   5  106.19   12.80
   3   7   5  100.29   13.70
  -3   7  -5  102.29    7.20
  -3   7  -5   85.39    6.80
   3   7   5   85.79   14.20
  -3   7  -5  101.29    9.20
  -4  -7  -5   -6.40    2.40
   4  -7   5    7.20    4.90
  -4   7  -5    0.40    1.80
  -4   7  -5    2.50    1.50
   4   7   5    1.00    2.10
  -4   7  -5   -1.30    1.60
   4   7   5    1.60    3.00
  -5  -7  -5  137.79   13.70
   5  -7   5  119.69   15.30
   5   7   5  130.79   13.20
  -5   7  -5  136.09   11.80
   5   7   5  135.29   12.10
  -6  -7  -5   25.80    7.60
  -6  -7  -5   29.40    7.70
   6  -7   5   34.60   10.40
  -6   7  -5   26.70    6.70
   6   7   5   25.50    6.00
   6   7   5   29.20    7.00
   7  -7   5    7.00    6.00
  -7  -7  -5   -3.90    3.10
  -7  -7  -5   -1.40    3.60
  -7   7  -5   -4.00    3.00
   7   7   5   -2.90    2.40
   8  -7   5   47.00   11.50
  -8  -7  -5   61.59   11.10
  -8   7  -5   48.50    9.60
   8   7   5   70.89    9.60
  -8  -8   5   64.39   11.50
   8   8  -5   74.69   14.40
  -8   8   5   94.79   11.30
   8   8  -5   71.49    9.50
  -8   8   5   76.39   10.50
  -7  -8   5    1.30    6.40
  -7  -8   5   15.00    5.00
   7   8  -5   17.30    5.20
  -7   8   5   13.00    5.50
   7   8  -5   19.80    7.30
  -7   8   5   12.80    6.10
  -6  -8   5   22.50    6.60
  -6  -8   5   19.00    7.20
  -6   8   5   19.80    6.60
   6   8  -5   21.00    7.60
  -6   8   5   30.60    8.00
   6   8  -5   22.90    5.50
  -5  -8   5  205.88   16.40
   5  -8  -5  149.19   16.60
  -5  -8   5  204.18   18.60
  -5   8   5  195.18   16.40
   5   8  -5  202.48   18.70
   5   8  -5  176.68   13.30
  -5   8   5  191.28   16.70
  -4  -8   5   -2.70    3.00
  -4  -8   5    5.60    4.40
   4  -8  -5    0.00    4.70
  -4   8   5   -0.50    3.70
  -4   8   5   -5.20    3.10
   4   8  -5   -0.80    1.70
   4   8  -5    2.20    2.20
  -4   8   5    6.70    3.70
  -3  -8   5   25.70    6.40
  -3  -8   5   32.00    6.90
   3  -8  -5   19.00    5.50
   3   8  -5   36.70    6.10
   3   8  -5   21.90    6.50
  -3   8   5   28.90    7.40
  -3   8   5   37.70    8.00
   2  -8  -5   95.89   11.20
  -2  -8   5   91.99   12.10
  -2  -8   5  113.89   10.70
   2   8  -5  111.29    9.00
   2   8  -5   88.79   11.80
  -2   8   5   88.59   10.60
  -2   8   5  110.69   11.40
  -1  -8   5   55.49   10.20
   1  -8  -5   56.19    8.00
   1  -8  -5   59.19   10.30
  -1  -8   5   64.19    7.40
   1   8  -5   51.99   10.00
   1   8  -5   74.49    7.30
  -1   8   5   68.79   10.40
  -1   8   5   63.59    8.50
   0  -8   5    5.00    3.00
   0  -8  -5    8.40    4.30
   0  -8  -5   13.80    4.80
   0   8  -5    7.80    2.90
   0   8   5    5.00    3.50
   0   8   5    8.60    3.60
   1  -8   5   23.40    4.50
   1  -8   5   19.40    6.00
  -1  -8  -5   26.70    6.80
   1   8   5   35.70    7.40
   1   8   5   19.50    5.70
  -1   8  -5   23.70    4.90
  -2  -8  -5  104.89   11.70
   2  -8   5  115.89   14.00
   2   8   5  108.89   11.70
  -2   8  -5  106.99    9.40
   2   8   5  106.99   11.00
   3  -8   5    2.90    4.80
  -3  -8  -5    6.20    3.90
  -3   8  -5    4.30    2.30
  -3   8  -5    0.90    3.00
   3   8   5    7.70    3.80
   3   8   5    3.00    4.10
   4  -8   5  323.77   25.80
  -4  -8  -5  325.37   23.00
  -4   8  -5  306.37   15.30
   4   8   5  295.57   21.40
  -4   8  -5  294.77   19.60
   4   8   5  315.57   20.80
  -5  -8  -5   96.89   11.90
   5  -8   5   73.09   13.40
   5   8   5   61.69   10.10
   5   8   5   84.19    9.70
  -6  -8  -5   20.90    6.20
   6  -8   5    4.20    6.70
   6   8   5    1.80    4.70
   6   8   5    4.40    4.20
  -6   8  -5    9.20    5.20
  -7  -9   5   99.59   17.30
  -7   9   5  149.09   15.20
  -7   9   5  139.29   15.70
   7   9  -5  184.98   18.60
  -6   9   5  256.47   20.10
  -6   9   5  228.18   19.60
   6   9  -5  214.28   21.00
   6   9  -5  254.67   17.10
  -5  -9   5    3.90    3.70
   5   9  -5    6.50    3.10
  -5   9   5   12.00    5.30
   5   9  -5   -1.30    4.70
  -5   9   5   10.60    6.00
  -4  -9   5  369.46   28.60
  -4  -9   5  379.26   24.70
  -4   9   5  410.16   26.70
   4   9  -5  372.66   28.00
   4   9  -5  405.66   22.50
  -4   9   5  389.16   26.00
  -3  -9   5  122.99   14.80
  -3  -9   5  126.69   12.40
  -3   9   5  143.89   14.10
  -3   9   5  140.39   14.10
   3   9  -5  138.29   16.10
   3   9  -5  133.19   11.50
  -2  -9   5  113.59   14.10
  -2   9   5  116.49   12.70
   2   9  -5  105.99   14.20
   2   9  -5  124.69   10.70
  -2   9   5  107.59   12.60
   1  -9  -5  248.88   19.70
  -1  -9   5  243.08   17.00
  -1  -9   5  217.18   27.80
  -1   9   5  231.28   19.00
   1   9  -5  262.57   16.50
  -1   9   5  251.47   19.10
   0  -9  -5    3.00    3.70
   0  -9   5    7.30    3.50
   0  -9   5    3.70    4.60
   0   9   5    2.20    5.40
   0   9  -5    6.60    3.30
   0   9   5    7.00    4.70
  -1  -9  -5  135.99   13.90
   1  -9   5  120.69   14.60
   1  -9   5  128.69   10.90
   1   9   5  145.19   13.40
  -1   9  -5  102.99   10.70
  -2  -9  -5   48.20    9.90
   2  -9   5   57.99   12.50
  -2   9  -5   31.50    6.30
  -2   9  -5   61.19    7.60
   2   9   5   45.20    9.50
   3  -9   5  234.68   22.20
  -3  -9  -5  211.58   18.60
  -3   9  -5  214.18   15.80
   3   9   5  235.58   18.20
   3   9   5  219.08   17.60
  -3   9  -5  172.68   17.80
  -4  -9  -5   87.49   13.80
   4  -9   5  107.89   16.30
  -4   9  -5  100.09   10.90
   4   9   5  113.59   12.10
   4   9   5   80.39   11.20
  -5  -9  -5   32.30    8.00
   5  -9   5   23.10    8.60
   5   9   5   25.80    6.90
  -5   9  -5   30.50    7.40
   5   9   5   23.70    7.20
  -4 -10   5   64.79   10.70
   4  10  -5   56.59    9.10
  -4  10   5   66.29   11.40
  -4  10   5   48.30   10.30
   4  10  -5   37.60   10.10
  -3 -10   5  267.67   19.90
   3  10  -5  283.07   24.40
  -3  10   5  275.87   22.20
  -2  10   5  118.69   14.50
  -2  10   5  168.58   16.50
  -1 -10   5    7.80    4.10
   1 -10  -5    3.10    4.80
  -1  10   5    8.40    4.50
  -1  10   5    4.50    5.10
   1  10  -5   15.80    5.50
   0 -10   5  184.98   22.60
   0 -10  -5  174.38   16.30
   0 -10   5  155.98   13.80
   0  10   5  149.79   16.00
   1 -10   5   29.20   12.70
   1 -10   5   17.70    5.40
  -1  10  -5   23.80    6.00
   2 -10   5  100.29   18.50
  -2 -10  -5  125.29   14.50
  -2  10  -5  133.69   12.40
   2  10   5  148.29   14.30
  -2  10  -5   86.99   12.00
 -13   0   6   -3.60    3.60
  13   0  -6   -8.90    6.30
 -13   0   6   -5.60    4.60
  12   0  -6   63.89   12.40
 -12   0   6   93.59   11.30
 -12   0   6   79.49   10.90
  11   0  -6  110.49   14.50
 -11   0   6  124.69   12.90
 -11   0   6  139.59   13.80
  10   0  -6  700.63   39.40
 -10   0   6  644.44   35.70
 -10   0   6  627.54   34.50
  -9   0   6  114.49   21.80
  -9   0   6  101.09   10.10
   9   0  -6  111.39   12.60
  -9   0   6  101.49   11.10
  -8   0   6    1.00    3.30
   8   0  -6    5.20    3.90
  -8   0   6    2.60    2.50
  -8   0   6   -1.30    2.20
  -7   0   6 1054.79   52.39
  -7   0   6 1146.59   51.19
   7   0  -6 1217.88   53.59
  -7   0   6 1083.89   51.69
   6   0  -6 1854.31   87.89
  -6   0   6 1922.91   76.69
  -6   0   6 1683.53   77.09
   6   0  -6 1775.82   73.49
  -6   0   6 1878.61   74.19
  -5   0   6 2029.70   80.69
   5   0  -6 2003.60   80.29
  -5   0   6 2106.09   83.39
  -5   0   6 1981.60   83.89
   5   0  -6 1978.60   83.49
   5   0  -6 2060.99   82.79
   4   0  -6   73.39    5.20
   4   0  -6   70.49    7.50
  -4   0   6   58.49    6.30
  -4   0   6   67.69    6.80
  -4   0   6   60.19    5.10
   3   0  -6 4844.22  175.18
  -3   0   6 4561.04  178.28
   3   0  -6 4528.75  177.38
   3   0  -6 4505.25  177.78
  -2   0   6 3586.04  140.49
   2   0  -6 3617.84  139.59
   2   0  -6 3707.63  138.19
  -1   0   6   54.79    3.70
  -1   0   6   56.19    4.50
  -1   0   6   56.29    3.60
  -1   0   6   54.99    4.90
   1   0  -6   59.09    3.90
   1   0  -6   59.79    5.00
   0   0   6  130.59    7.00
   0   0  -6  120.19    6.50
   0   0   6  131.69    6.80
   0   0   6  111.99    7.10
   0   0   6  124.29    7.50
   0   0   6  119.29    6.70
   1   0   6  884.51   37.60
   1   0   6  986.80   37.70
   1   0   6  920.81   38.10
   1   0   6  923.21   37.70
   1   0   6 1007.00   38.20
  -1   0  -6  878.21   37.70
   2   0   6   17.70    3.20
   2   0   6   17.60    2.50
   2   0   6   21.70    2.60
   2   0   6   18.00    2.70
  -2   0  -6   19.60    3.20
  -3   0  -6  446.46   19.50
   3   0   6  468.35   22.40
   3   0   6  443.66   21.70
  -3   0  -6  482.05   20.50
   3   0   6  477.95   20.40
  -3   0  -6  494.25   22.40
  -4   0  -6  488.75   21.80
   4   0   6  502.75   24.50
  -4   0  -6  499.45   24.50
   4   0   6  511.05   24.70
   4   0   6  517.75   22.20
  -5   0  -6  511.15   25.80
   5   0   6  498.15   26.10
  -5   0  -6  518.85   22.60
   5   0   6  516.05   23.00
   6   0   6  308.27   19.10
   6   0   6  274.37   14.90
  -6   0  -6  292.67   18.10
  -6   0  -6  305.17   14.80
  -7   0  -6   79.19    6.00
   7   0   6   70.29    9.10
  -7   0  -6   82.29    9.00
   7   0   6   68.69    6.40
  -8   0  -6  293.77   14.80
   8   0   6  231.18   18.90
  -8   0  -6  291.57   19.40
  -9   0  -6   78.89   10.20
   9   0   6   94.89   12.30
  -9   0  -6   94.89    7.40
 -10   0  -6    4.90    4.70
  10   0   6    2.50    3.90
 -13  -1   6   42.40    8.90
  13  -1  -6   49.60   15.60
 -13  -1   6   51.49   11.30
  13   1  -6   18.90   10.10
 -13   1   6   44.90    9.60
 -13   1   6   48.10   10.10
 -12  -1   6  156.38   15.10
  12  -1  -6  146.59   17.30
 -12  -1   6  184.68   16.70
 -12   1   6  146.09   15.20
 -12   1   6  156.78   15.10
  12   1  -6  168.18   19.20
 -11  -1   6  255.37   19.20
 -11  -1   6  270.67   20.70
  11  -1  -6  272.77   22.90
 -11   1   6  264.37   20.00
  11   1  -6  252.07   21.60
 -11   1   6  266.37   19.80
 -10  -1   6  439.26   26.10
  10  -1  -6  484.35   30.70
 -10  -1   6  430.26   27.30
 -10   1   6  430.26   27.00
 -10   1   6  446.86   26.70
  10   1  -6  456.85   30.90
  -9  -1   6   47.00    8.60
  -9  -1   6   42.50    7.10
   9  -1  -6   48.60    9.40
  -9   1   6   54.09    8.60
  -9   1   6   29.80    6.90
  -9   1   6   37.40    8.10
   9   1  -6   46.50    9.70
  -8  -1   6  307.67   18.00
   8  -1  -6  319.27   21.60
  -8  -1   6  306.57   19.60
  -8  -1   6  266.97   20.20
  -8   1   6  294.47   18.30
   8   1  -6  302.57   20.90
  -8   1   6  289.87   19.00
  -8   1   6  292.57   20.70
  -7  -1   6 2275.37   93.99
  -7  -1   6 2269.07   91.29
   7  -1  -6 2359.46   96.09
  -7  -1   6 2160.38   95.19
   7   1  -6 2303.97   95.69
  -7   1   6 2249.77   93.59
  -7   1   6 2275.17   95.79
  -7   1   6 2302.87   92.29
   7   1  -6 2087.09   90.69
   6  -1  -6 1000.50   45.90
  -6  -1   6  979.00   44.80
  -6  -1   6  990.90   42.20
   6  -1  -6  940.41   42.20
  -6  -1   6  953.20   46.00
   6   1  -6  993.30   43.70
   6   1  -6 1007.80   46.00
  -6   1   6  999.00   46.20
  -6   1   6  996.20   43.10
  -6   1   6  940.91   44.40
   5  -1  -6  832.62   37.50
   5  -1  -6  811.82   36.50
  -5  -1   6  885.71   37.50
   5  -1  -6  772.72   34.40
  -5  -1   6  753.72   37.50
  -5  -1   6  813.62   34.10
  -5   1   6  753.02   37.20
   5   1  -6  815.92   37.50
  -5   1   6  755.92   34.70
  -5   1   6  817.12   36.80
   5   1  -6  755.72   33.50
   5   1  -6  772.92   36.10
  -4  -1   6 2271.37   88.99
   4  -1  -6 1874.41   86.69
  -4  -1   6 2262.87   87.79
   4  -1  -6 2335.77   85.69
   4  -1  -6 1909.61   86.99
  -4  -1   6 2317.47   84.69
  -4   1   6 2104.99   87.89
   4   1  -6 2237.68   88.29
   4   1  -6 2337.17   87.89
   4   1  -6 2098.29   84.09
  -4   1   6 2242.98   87.99
  -4   1   6 2058.89   85.49
  -3  -1   6  132.09    6.50
   3  -1  -6  123.09    7.40
   3  -1  -6  126.29    8.30
  -3  -1   6  123.19    8.70
  -3  -1   6  128.29    9.30
   3  -1  -6  107.99    8.40
  -3   1   6  131.99    7.80
  -3   1   6  113.49    8.60
   3   1  -6  119.89    8.40
  -3   1   6  125.59    8.70
   3   1  -6  107.99    6.10
   2  -1  -6 2830.92  116.09
  -2  -1   6 3109.59  112.39
   2  -1  -6 3100.09  114.39
  -2  -1   6 2976.40  115.99
  -2  -1   6 2975.70  116.49
   2  -1  -6 3019.00  114.49
   2   1  -6 2932.31  112.19
  -2   1   6 2809.42  116.39
   2   1  -6 3156.38  116.09
   2   1  -6 2983.90  115.79
  -2   1   6 2971.60  114.59
  -2   1   6 2859.01  115.39
  -1  -1   6  114.19    7.70
  -1  -1   6  135.89    5.50
  -1  -1   6  128.89    8.50
  -1  -1   6  134.59    8.50
  -1  -1   6  124.29    5.30
  -1   1   6  125.79    8.30
  -1   1   6  138.39    7.60
  -1   1   6  140.39    7.40
  -1   1   6  150.48    9.10
  -1   1   6  136.29    7.60
   1   1  -6  118.29    7.60
   1   1  -6  146.59    8.20
   0  -1   6  148.19    8.90
   0  -1   6  155.98    7.10
   0  -1   6  154.88    9.20
   0  -1   6  162.98    8.30
   0   1   6  156.18    8.50
   0   1  -6  148.79    6.90
   0   1   6  144.59    9.00
   0   1   6  143.39    6.90
   0   1   6  149.39    8.40
   0   1  -6  146.09    7.90
   0   1   6  154.48    9.00
   1  -1   6  488.25   24.20
   1  -1   6  542.75   23.20
   1  -1   6  602.64   23.00
  -1  -1  -6  537.35   24.60
  -1  -1  -6  574.14   24.50
   1  -1   6  566.74   22.70
   1  -1   6  557.84   25.00
  -1   1  -6  559.24   23.20
   1   1   6  541.65   24.40
   1   1   6  557.44   22.00
   1   1   6  577.44   24.80
   1   1   6  558.84   24.60
   2  -1   6   14.50    1.60
  -2  -1  -6   16.80    3.10
   2  -1   6   17.60    3.00
   2  -1   6   12.20    2.70
  -2  -1  -6   14.90    3.10
   2  -1   6   10.90    2.60
   2  -1   6   15.50    1.60
  -2   1  -6   16.80    2.80
   2   1   6   13.40    3.00
  -2   1  -6   18.10    3.00
   2   1   6   12.80    1.90
   2   1   6   21.90    2.90
   3  -1   6   70.69    3.80
   3  -1   6   83.79    4.00
   3  -1   6   71.19    6.80
   3  -1   6   71.79    6.00
  -3  -1  -6   72.69    5.80
  -3  -1  -6   78.09    6.50
   3   1   6   63.19    5.30
   3   1   6   73.29    5.80
  -3   1  -6   71.29    6.00
   3   1   6   71.49    6.50
   4  -1   6   39.10    4.80
  -4  -1  -6   34.30    4.00
   4  -1   6   40.30    2.70
   4  -1   6   40.50    2.60
  -4  -1  -6   50.19    5.50
   4  -1   6   33.30    4.90
  -4   1  -6   41.20    4.90
   4   1   6   40.70    4.40
   4   1   6   32.60    4.20
  -5  -1  -6  140.69   10.80
  -5  -1  -6  142.69    9.20
   5  -1   6  127.49   10.90
   5  -1   6  149.69    7.10
   5   1   6  118.89    9.80
  -5   1  -6  145.19   10.60
  -5   1  -6  143.19    6.80
   5   1   6  127.79    9.10
   6  -1   6  144.39   12.70
  -6  -1  -6  153.98    9.90
  -6  -1  -6  142.49   11.70
  -6   1  -6  151.48   11.50
   6   1   6  132.49   11.20
   6   1   6  134.09    9.90
  -7  -1  -6   65.49    8.40
   7  -1   6   54.89    4.40
  -7  -1  -6   52.49    5.70
   7  -1   6   58.69    8.40
  -7   1  -6   47.30    3.90
  -7   1  -6   57.69    7.40
   7   1   6   49.90    7.60
   7   1   6   45.40    5.90
   8  -1   6   44.60   10.00
   8  -1   6   55.39    4.90
  -8  -1  -6   60.99    6.10
   8   1   6   40.90    8.00
  -8   1  -6   45.10    8.50
  -8   1  -6   62.39    4.40
   9  -1   6  105.99   13.20
  -9  -1  -6  109.79    8.90
  -9  -1  -6  108.89   11.90
   9   1   6   92.59   11.70
  -9   1  -6   90.69    6.30
  -9   1  -6   94.19   11.10
 -10  -1  -6   21.30    4.50
  10  -1   6   19.50    7.00
 -10  -1  -6   27.50    7.70
  10   1   6   11.00    5.20
 -10   1  -6   18.80    6.20
  13  -2  -6   -2.00    7.30
 -13  -2   6    7.00    5.00
 -13   2   6    2.80    3.90
 -13   2   6   -9.40    5.10
  13   2  -6   -1.40    5.80
 -12  -2   6    6.50    4.00
  12  -2  -6   -7.90    6.30
 -12  -2   6    1.00    4.60
 -12   2   6    2.10    4.60
  12   2  -6    2.40    5.60
 -12   2   6   -2.50    3.80
 -11  -2   6   -2.10    4.20
 -11  -2   6   -0.60    3.40
  11   2  -6    3.00    5.00
 -11   2   6   -1.30    3.60
 -11   2   6    3.20    3.30
 -10  -2   6  277.77   18.50
  10  -2  -6  259.47   21.30
  10   2  -6  252.77   21.00
 -10   2   6  235.48   18.80
 -10   2   6  266.97   19.10
  -9  -2   6   17.10    3.70
   9  -2  -6    2.30    3.80
  -9  -2   6   -0.90    3.60
  -9   2   6    3.50    3.50
  -9   2   6    2.90    3.40
  -9   2   6    2.90    3.50
   9   2  -6    3.30    3.70
  -8  -2   6   31.00    6.80
  -8  -2   6   29.00    7.10
   8  -2  -6   33.60    6.90
  -8  -2   6   35.90    6.40
   8   2  -6   30.50    6.80
  -8   2   6   24.20    6.10
  -8   2   6   22.70    5.80
  -8   2   6   22.50    5.60
  -7  -2   6  429.96   28.80
  -7  -2   6  453.95   22.80
  -7  -2   6  448.76   25.10
   7  -2  -6  442.86   36.00
   7   2  -6  455.95   22.50
  -7   2   6  446.36   24.00
   7   2  -6  445.76   26.30
  -7   2   6  436.66   24.70
  -7   2   6  421.46   25.90
   6  -2  -6    4.30    2.80
  -6  -2   6    8.60    3.40
  -6  -2   6    5.50    2.50
  -6  -2   6    9.70    3.80
   6   2  -6    6.30    3.00
  -6   2   6    6.30    3.10
  -6   2   6    2.60    2.50
  -6   2   6    5.30    3.20
   6   2  -6    6.60    2.60
  -5  -2   6  466.55   25.80
  -5  -2   6  494.35   24.70
   5  -2  -6  455.15   22.70
  -5  -2   6  474.75   21.60
  -5   2   6  484.55   24.80
   5   2  -6  465.55   21.40
  -5   2   6  467.05   23.30
  -5   2   6  484.15   25.30
   5   2  -6  464.25   25.30
  -4  -2   6   35.20    6.20
  -4  -2   6   26.20    4.90
   4  -2  -6   32.50    4.70
  -4  -2   6   33.70    3.10
   4  -2  -6   34.00    4.60
   4   2  -6   25.40    2.90
  -4   2   6   28.20    5.10
  -4   2   6   36.50    5.00
   4   2  -6   31.20    5.70
   4   2  -6   25.70    4.80
  -4   2   6   41.90    4.60
  -3  -2   6   10.70    3.10
   3  -2  -6   11.10    2.60
   3  -2  -6   15.40    3.20
  -3  -2   6   12.70    1.50
  -3  -2   6    9.40    3.10
   3  -2  -6   15.50    3.40
   3   2  -6   12.40    1.60
   3   2  -6   12.30    3.20
  -3   2   6   10.80    3.10
   3   2  -6   12.10    3.10
  -3   2   6   10.10    2.90
  -3   2   6   12.50    2.70
  -2  -2   6  554.94   24.30
  -2  -2   6  546.05   25.80
   2  -2  -6  455.95   22.20
  -2  -2   6  556.14   25.80
   2  -2  -6  521.05   23.60
  -2   2   6  519.15   25.20
   2   2  -6  560.54   24.20
  -2   2   6  537.25   25.10
  -2   2   6  549.85   23.90
  -2   2   6  493.95   23.60
  -1  -2   6  215.68   13.00
  -1  -2   6  209.38   11.30
  -1  -2   6  207.98   12.60
  -1   2   6  224.38   11.80
  -1   2   6  203.28   10.60
   1   2  -6  217.58   11.30
  -1   2   6  219.88   12.50
  -1   2   6  212.48   11.60
  -1   2   6  259.57   13.40
   0  -2   6  184.18   11.10
   0  -2   6  173.88    7.40
   0  -2   6  175.98   11.20
   0  -2   6  181.98    9.00
   0   2   6  184.38   10.80
   0   2  -6  194.08    9.10
   0   2   6  159.08   10.50
   0   2   6  187.38   10.40
   0   2   6  181.08   10.30
   0   2  -6  173.88    7.40
   0   2   6  173.38    8.00
   1  -2   6  147.89    7.50
   1  -2   6  139.79    9.50
   1  -2   6  141.09    6.50
  -1  -2  -6  139.89    9.00
   1  -2   6  135.19    9.70
  -1  -2  -6  148.09    9.50
   1   2   6  146.29    9.20
  -1   2  -6  143.19    7.50
   1   2   6  129.19    8.80
  -1   2  -6  140.59    9.30
   2  -2   6  785.82   32.40
  -2  -2  -6  698.53   31.10
   2  -2   6  620.64   31.50
   2  -2   6  723.33   29.40
  -2  -2  -6  678.53   31.00
   2   2   6  670.13   31.20
  -2   2  -6  700.73   29.40
   2   2   6  715.13   31.00
  -2   2  -6  686.23   31.20
   2   2   6  667.43   27.70
  -3  -2  -6  310.57   17.00
  -3  -2  -6  336.37   16.90
   3  -2   6  305.87   15.70
   3  -2   6  329.97   18.40
  -3   2  -6  290.07   15.70
   3   2   6  307.57   17.30
  -4  -2  -6   26.00    5.10
  -4  -2  -6   26.50    4.70
   4  -2   6   26.70    4.40
   4  -2   6   24.20    5.40
  -4   2  -6   33.40    5.10
   4   2   6   25.00    4.10
   4   2   6   24.30    4.60
  -5  -2  -6  311.67   18.60
   5  -2   6  313.37   19.80
  -5  -2  -6  325.37   17.50
   5   2   6  341.67   18.10
  -5   2  -6  338.97   18.40
   5   2   6  277.97   16.90
  -6  -2  -6  277.17   16.50
  -6  -2  -6  266.37   17.90
   6  -2   6  301.47   20.20
   6   2   6  292.47   17.70
  -6   2  -6  299.07   18.00
  -7  -2  -6   12.20    3.70
   7  -2   6   18.10    6.30
  -7  -2  -6   10.90    4.80
  -7   2  -6   12.50    4.40
   7   2   6   11.00    3.90
  -8  -2  -6   36.60    7.80
   8  -2   6   37.70    9.80
  -8  -2  -6   28.80    5.60
  -8   2  -6   37.60    7.60
   8   2   6   25.60    6.30
  -9  -2  -6   94.69   11.60
   9  -2   6  100.89   13.40
  -9  -2  -6   85.89    9.10
  -9   2  -6   97.99   11.10
   9   2   6  100.79   11.70
 -10  -2  -6   11.80    4.90
  10  -2   6    5.80    5.30
 -10  -2  -6   12.00    5.80
  10   2   6    8.90    4.90
 -10   2  -6    8.60    5.00
 -12  -3   6   50.39    9.50
  12  -3  -6   44.40   11.70
 -12  -3   6   44.70    9.50
 -12   3   6   53.69   10.60
  12   3  -6   39.50   11.50
 -12   3   6   57.89    9.40
 -11  -3   6   -5.00    2.60
 -11  -3   6    4.00    4.80
  11  -3  -6   -6.10    4.70
 -11   3   6   -1.70    3.40
  11   3  -6    0.00    5.50
 -11   3   6   -2.80    4.10
  10  -3  -6    0.40    4.10
 -10  -3   6    3.00    3.70
 -10  -3   6   -0.60    3.10
 -10   3   6    0.60    3.30
 -10   3   6    2.10    3.90
  10   3  -6   -3.40    4.00
   9  -3  -6   42.10    8.60
  -9  -3   6   67.79    7.70
  -9  -3   6   48.30    9.20
  -9   3   6   53.39    9.00
  -9   3   6   56.99    9.40
   9   3  -6   82.59   11.00
  -9   3   6   54.49    8.30
   8  -3  -6   15.30    5.50
  -8  -3   6   10.90    3.70
  -8  -3   6    6.30    4.00
   8   3  -6    5.10    3.70
  -8   3   6    8.30    4.30
  -8   3   6   10.80    3.80
  -8   3   6    6.60    3.80
  -7  -3   6   68.89    9.70
  -7  -3   6   86.69    9.40
   7  -3  -6   97.69   10.40
  -7  -3   6   83.39    7.40
  -7   3   6   81.89    8.80
  -7   3   6   90.59    9.30
   7   3  -6   91.69   10.60
  -7   3   6   83.99    9.90
   6  -3  -6   26.80    6.20
  -6  -3   6   18.30    5.20
  -6  -3   6   26.90    4.30
  -6  -3   6   27.10    5.90
   6   3  -6   23.60    5.60
  -6   3   6   26.00    7.70
  -6   3   6   25.70    5.40
  -6   3   6   24.80    5.00
   6   3  -6   25.10    5.10
  -5  -3   6   83.69    8.10
  -5  -3   6   89.19    6.40
  -5  -3   6   90.09    9.50
  -5   3   6   82.99    8.70
   5   3  -6   77.19    6.10
  -5   3   6   83.79    7.70
  -5   3   6   85.79    8.30
   5   3  -6   81.69    8.70
  -4  -3   6  618.94   25.70
  -4  -3   6  666.43   31.70
  -4  -3   6  626.24   29.40
   4  -3  -6  598.24   29.20
   4  -3  -6  617.94   28.30
   4   3  -6  573.04   28.90
  -4   3   6  610.54   29.70
   4   3  -6  629.84   30.60
  -4   3   6  614.14   28.80
   4   3  -6  555.74   25.60
  -4   3   6  585.44   31.90
  -3  -3   6   51.09    6.20
  -3  -3   6   46.20    5.20
  -3  -3   6   25.60    5.20
  -3  -3   6   36.60    3.80
   3  -3  -6   40.90    5.10
  -3   3   6   44.20    5.10
  -3   3   6   40.10    4.60
  -3   3   6   41.40    5.50
  -3   3   6   36.30    4.80
  -2  -3   6  131.79   10.20
  -2  -3   6  120.69    9.70
   2  -3  -6  118.09    7.30
  -2  -3   6  110.39    7.80
   2  -3  -6  120.59    8.30
   2  -3  -6  112.89    6.70
   2   3  -6  108.99    5.10
   2   3  -6  100.09    7.70
  -2   3   6  120.29    9.30
  -2   3   6  115.09    8.30
   2   3  -6  121.19    9.40
   2   3  -6  107.19    5.10
  -2   3   6  107.69    8.60
  -1  -3   6 1012.70   43.40
  -1  -3   6  974.20   43.60
  -1  -3   6  953.60   40.20
  -1   3   6  980.30   41.50
  -1   3   6  997.50   41.60
  -1   3   6  961.60   42.20
  -1   3   6 1032.70   42.90
   1   3  -6  832.32   41.90
   1   3  -6 1012.70   40.50
   0  -3   6   57.09    6.20
   0  -3   6   38.90    5.20
   0  -3   6   39.70    2.60
   0   3   6   47.20    4.90
   0   3   6   39.10    4.60
   0   3   6   45.60    3.60
   0   3   6   41.60    4.80
   1  -3   6   34.40    2.50
  -1  -3  -6   35.50    4.60
   1  -3   6   39.10    3.20
   1  -3   6   34.80    5.10
   1  -3   6   39.60    5.30
   1   3   6   42.80    5.00
   1   3   6   36.40    4.50
  -1   3  -6   37.20    5.00
   1   3   6   36.90    2.90
  -1   3  -6   33.40    2.60
   1   3   6   38.30    3.10
  -1   3  -6   37.30    3.30
   1   3   6   35.20    4.50
  -2  -3  -6  124.29    9.30
  -2  -3  -6  119.79    9.10
   2  -3   6  129.09   10.00
   2  -3   6  122.79   10.20
   2  -3   6  125.49    7.50
   2   3   6  118.69    6.60
  -2   3  -6  128.49    7.70
   2   3   6  107.19    8.70
   3  -3   6   10.20    3.40
   3  -3   6    9.00    2.60
  -3  -3  -6    9.80    3.10
  -3  -3  -6   10.10    3.10
   3  -3   6   10.80    3.60
  -3   3  -6   11.60    2.70
   3   3   6   10.00    2.20
   4  -3   6   61.29    6.00
   4  -3   6   61.09    7.50
  -4  -3  -6   61.69    6.60
  -4  -3  -6   68.09    7.20
   4  -3   6   57.19    7.50
   4   3   6   63.39    5.50
  -4   3  -6   69.69    6.60
  -5  -3  -6   51.19    6.00
  -5  -3  -6   45.10    7.20
   5  -3   6   30.60    6.50
  -5   3  -6   45.20    6.80
   5   3   6   36.60    4.80
  -6  -3  -6   -0.70    2.70
  -6  -3  -6    2.50    2.30
   6  -3   6    0.90    3.20
   6   3   6    0.00    1.70
  -6   3  -6   -2.60    1.40
  -7  -3  -6    3.40    1.80
   7  -3   6    5.40    4.80
  -7  -3  -6   -2.10    2.90
   7   3   6    2.60    2.70
  -7   3  -6    2.30    2.70
   8  -3   6   -1.00    3.50
  -8  -3  -6    3.10    3.10
  -8  -3  -6   23.00    6.50
   8   3   6    6.40    3.60
  -8   3  -6    4.90    3.80
   9  -3   6   32.70    9.10
  -9  -3  -6   64.29    8.20
  -9  -3  -6   51.79    9.50
   9   3   6   38.60    8.10
  -9   3  -6   50.09    9.30
 -10  -3  -6   24.70    6.10
  10  -3   6   24.20    9.20
  10   3   6   31.10    8.80
 -10   3  -6   31.20    7.40
 -12  -4   6   13.80    3.50
  12  -4  -6    7.80   12.30
 -12   4   6    0.80    4.90
  12   4  -6    0.40    6.40
 -12   4   6    6.10    5.10
 -11  -4   6    0.90    3.30
  11  -4  -6   -5.60    6.70
 -11  -4   6   -7.70    3.80
 -11   4   6   15.90    4.10
 -11   4   6   -2.60    3.70
 -10  -4   6   62.39   10.50
 -10  -4   6   72.49    8.80
  10  -4  -6   62.29   13.10
  10   4  -6   41.30    9.00
 -10   4   6   41.20    8.50
  -9  -4   6    4.00    4.30
  -9  -4   6    1.20    3.00
   9  -4  -6    0.10    4.10
   9   4  -6   -0.70    3.20
  -9   4   6    4.40    3.90
  -9   4   6   -2.10    3.20
  -9   4   6    2.60    3.60
  -8  -4   6   42.70    5.50
  -8  -4   6   44.30    8.40
   8  -4  -6   24.70    6.60
  -8   4   6   35.40    7.30
   8   4  -6   41.40    9.50
  -8   4   6   29.30    7.10
  -8   4   6   34.80    7.40
  -7  -4   6  124.49    9.40
   7  -4  -6  116.89   12.40
  -7  -4   6  122.09   11.70
  -7   4   6  119.49   12.50
   7   4  -6  128.79   12.60
  -7   4   6  118.69   11.00
  -7   4   6  121.59   11.30
  -6  -4   6    5.60    4.40
  -6  -4   6    9.90    2.70
  -6  -4   6    7.10    3.40
  -6   4   6   17.40    4.60
   6   4  -6    8.50    4.30
   6   4  -6    4.00    2.70
  -6   4   6   20.30    8.50
  -6   4   6    7.90    3.10
   5  -4  -6  246.68   16.00
  -5  -4   6  208.88   14.60
  -5  -4   6  204.78   17.60
  -5  -4   6  204.78   15.90
  -5  -4   6  216.88   11.80
  -5   4   6  217.58   15.70
  -5   4   6  201.08   14.60
   5   4  -6  214.68   12.20
  -5   4   6  207.08   14.20
   5   4  -6  228.28   16.10
  -4  -4   6  182.58   14.30
  -4  -4   6  201.68   13.40
  -4  -4   6  180.38   14.30
  -4  -4   6  192.38   10.20
   4  -4  -6  199.88   13.50
  -4   4   6  232.18   14.70
   4   4  -6  177.28   13.90
  -4   4   6  186.48   12.80
   4   4  -6  189.98   10.40
  -4   4   6  176.18   13.20
   3  -4  -6   20.00    4.20
  -3  -4   6   28.10    6.00
  -3  -4   6   26.90    5.90
  -3  -4   6   20.00    4.40
   3   4  -6   22.10    4.50
   3   4  -6   28.70    5.80
   3   4  -6   24.70    2.90
  -3   4   6   23.90    4.70
  -3   4   6   25.30    5.00
   3   4  -6   23.90    2.60
  -3   4   6   26.20    5.40
  -2  -4   6  602.24   31.20
   2  -4  -6  634.24   27.80
  -2  -4   6  630.94   31.80
  -2  -4   6  628.34   28.40
  -2   4   6  644.24   29.40
   2   4  -6  622.84   28.80
  -2   4   6  576.94   29.80
   2   4  -6  602.14   25.80
   2   4  -6  671.83   26.40
   2   4  -6  578.04   30.40
  -1  -4   6  112.09    7.70
   1  -4  -6  121.19    9.90
   1  -4  -6  117.69    6.80
  -1  -4   6  119.49   10.40
  -1  -4   6  120.39   10.20
  -1   4   6  117.59   10.40
  -1   4   6  124.49    8.30
   1   4  -6  111.59    9.80
   1   4  -6  112.19    7.90
  -1   4   6  115.49    9.40
   0  -4   6   53.49    4.40
   0  -4   6   38.10    5.90
   0  -4  -6   58.19    6.30
   0  -4   6   54.59    7.10
   0   4  -6   46.50    4.40
   0   4   6   50.99    6.00
   0   4  -6   55.49    3.80
   0   4  -6   58.59    4.00
   0   4   6   55.59    4.90
   0   4  -6   55.89    6.80
   0   4  -6   52.29    6.50
   1  -4   6  306.67   14.30
   1  -4   6  295.27   19.10
   1  -4   6  303.27   13.90
  -1  -4  -6  325.87   18.30
   1   4   6  322.07   15.50
  -1   4  -6  294.47   13.90
   1   4   6  320.37   15.10
  -1   4  -6  339.67   15.00
   1   4   6  308.17   17.50
   2  -4   6    0.60    1.50
  -2  -4  -6    1.80    2.10
   2  -4   6    1.00    2.00
   2  -4   6    2.90    2.70
  -2  -4  -6    1.60    1.80
   2   4   6    0.10    1.70
  -2   4  -6    1.20    1.20
   2   4   6    0.00    1.00
   3  -4   6   64.89    8.50
   3  -4   6   81.49    6.60
   3  -4   6   83.09    9.00
  -3  -4  -6   84.99    8.20
  -3  -4  -6   75.59    7.70
  -3   4  -6   68.29    6.40
   3   4   6   94.79    6.50
  -4  -4  -6   60.19    7.10
   4  -4   6   47.60    5.70
   4  -4   6   60.69    8.50
  -4  -4  -6   61.79    7.30
   4  -4   6   53.69    7.50
   4   4   6   57.29    5.60
  -4   4  -6   65.49    6.40
  -5  -4  -6   21.80    5.10
  -5  -4  -6   24.60    5.80
   5  -4   6   18.20    5.90
  -5   4  -6   23.10    5.00
   5   4   6   18.80    4.30
  -6  -4  -6    1.20    3.00
   6  -4   6   -0.60    2.60
  -6  -4  -6    4.00    3.40
   6  -4   6   -0.80    3.10
  -6   4  -6    1.10    2.50
   6   4   6    0.00    1.70
  -7  -4  -6   31.30    7.50
   7  -4   6   39.90   10.30
  -7  -4  -6   37.20    7.50
   7   4   6   28.40    6.00
  -7   4  -6   36.90    7.40
   8  -4   6  105.49   14.10
  -8  -4  -6  113.29   12.30
  -8  -4  -6  120.89   13.30
  -8   4  -6  108.89   11.50
   8   4   6   95.09   10.50
  -9  -4  -6   13.30    6.10
   9  -4   6   17.30    7.30
  -9  -4  -6   14.50    5.00
  -9   4  -6   16.10    6.10
   9   4   6   13.20    5.20
 -11  -5   6   94.59   10.80
 -11  -5   6   63.39   11.50
 -11   5   6   61.29   11.00
 -11   5   6   90.19   11.80
  11   5  -6  101.89   14.50
 -10  -5   6  274.97   18.20
 -10  -5   6  225.38   21.50
  10  -5  -6  284.57   23.70
 -10  -5   6  261.07   20.60
 -10   5   6  268.87   20.70
 -10   5   6  234.18   18.90
  10   5  -6  237.28   22.10
   9  -5  -6   28.70    6.70
  -9  -5   6   33.10    8.10
  -9  -5   6   38.10    8.80
  -9  -5   6   31.80    6.10
  -9   5   6   26.80    7.00
  -9   5   6   20.70    6.20
   9   5  -6   29.60    7.50
  -9   5   6   19.30    8.00
  -8  -5   6  398.76   27.00
  -8  -5   6  415.66   29.40
  -8  -5   6  395.36   22.30
   8  -5  -6  395.16   27.80
  -8   5   6  389.56   27.10
  -8   5   6  433.06   30.10
   8   5  -6  433.96   28.00
  -8   5   6  419.66   25.50
  -7  -5   6   23.00    6.10
  -7  -5   6   34.50    7.20
   7  -5  -6   28.00    6.50
  -7  -5   6   36.50    5.90
  -7   5   6   50.19    9.70
  -7   5   6   38.60    7.40
  -7   5   6   33.60    7.30
   7   5  -6   34.00    8.20
  -6  -5   6  310.47   20.10
  -6  -5   6  307.47   16.80
  -6  -5   6  308.97   21.50
  -6   5   6  304.87   20.00
  -6   5   6  324.57   20.20
   6   5  -6  305.87   21.20
  -6   5   6  321.07   22.00
   5  -5  -6  452.05   24.40
  -5  -5   6  386.86   19.00
  -5  -5   6  480.85   34.50
  -5  -5   6  363.36   23.80
  -5  -5   6  371.46   22.00
   5   5  -6  361.06   19.20
  -5   5   6  380.16   23.50
   5   5  -6  391.26   24.20
  -5   5   6  371.56   22.20
  -5   5   6  332.77   21.90
  -4  -5   6   47.90    8.90
   4  -5  -6   33.90    6.20
  -4  -5   6   43.60    5.80
  -4  -5   6   53.79    9.80
  -4   5   6   44.40    7.50
   4   5  -6   35.00    4.20
  -4   5   6   43.80    6.40
  -4   5   6   35.30    6.30
   4   5  -6   36.70    4.10
   4   5  -6   28.20    6.00
  -3  -5   6 1078.39   52.89
  -3  -5   6 1094.69   52.99
   3  -5  -6 1130.09   50.09
  -3  -5   6 1160.48   49.99
   3   5  -6 1096.39   46.50
   3   5  -6 1168.18   46.40
  -3   5   6 1223.08   51.39
   3   5  -6 1214.88   53.29
  -3   5   6 1119.29   51.59
  -3   5   6 1143.39   50.69
   2  -5  -6   35.60    5.00
  -2  -5   6   48.30    5.40
  -2  -5   6   31.80    6.60
  -2  -5   6   54.89    8.90
   2   5  -6   37.90    3.80
  -2   5   6   37.80    6.40
   2   5  -6   34.20    5.80
   2   5  -6   42.60    3.80
  -2   5   6   44.50    5.60
   2   5  -6   45.00    7.60
  -2   5   6   40.30    6.90
   1  -5  -6  456.95   21.90
  -1  -5   6  467.35   26.40
   1  -5  -6  474.05   25.70
  -1  -5   6  469.45   22.70
  -1  -5   6  483.15   27.20
  -1   5   6  495.85   24.10
   1   5  -6  499.45   24.90
  -1   5   6  450.05   24.40
   1   5  -6  493.65   26.60
   1   5  -6  474.05   20.80
   1   5  -6  484.45   20.90
   0  -5   6  639.24   27.90
   0  -5  -6  626.04   31.70
   0  -5  -6  634.94   26.10
   0  -5   6  619.04   33.20
   0  -5   6  638.14   32.80
   0   5   6  647.54   29.40
   0   5   6  656.63   31.00
   0   5  -6  637.04   27.10
   0   5  -6  579.44   27.90
   0   5  -6  631.14   26.80
   1  -5   6   -1.70    1.10
   1  -5   6   -1.10    3.30
  -1  -5  -6    2.50    1.90
   1  -5   6    3.50    1.40
   1  -5   6    1.90    2.50
  -1   5  -6   -0.20    1.30
   1   5   6   -1.50    1.80
  -1   5  -6    0.40    1.20
   1   5   6    0.20    1.10
   1   5   6   -1.40    0.80
   2  -5   6  853.41   43.20
  -2  -5  -6  932.51   42.60
   2  -5   6  863.01   37.80
   2  -5   6  924.61   44.60
   2   5   6  907.81   38.60
   2   5   6  911.01   41.80
   3  -5   6   35.90    8.20
   3  -5   6   22.70    6.00
   3  -5   6   20.50    3.60
  -3  -5  -6   24.40    5.70
  -3  -5  -6   26.00    5.70
  -3   5  -6   15.00    3.60
   3   5   6   22.40    5.50
   3   5   6   21.00    4.00
  -4  -5  -6   68.19    8.30
   4  -5   6   73.99    9.60
   4  -5   6   66.99    9.40
  -4  -5  -6   68.49    8.50
  -4   5  -6   78.39    7.30
   4   5   6   71.99    6.80
  -5  -5  -6  242.58   17.40
   5  -5   6  237.68   19.70
  -5  -5  -6  265.07   18.10
   5  -5   6  229.78   18.70
  -5   5  -6  277.87   16.50
   5   5   6  243.58   15.20
  -6  -5  -6   16.40    5.50
   6  -5   6   21.10    7.10
  -6  -5  -6    9.60    4.20
   6  -5   6    9.20    5.60
  -6   5  -6   14.40    4.80
   6   5   6   19.40    4.90
  -7  -5  -6  188.18   15.80
  -7  -5  -6  174.48   14.90
   7  -5   6  164.48   17.70
  -7   5  -6  184.98   14.70
   7   5   6  178.18   13.70
  -8  -5  -6    2.70    3.80
   8  -5   6   18.00    8.20
  -8  -5  -6   16.60    5.70
  -8   5  -6   12.90    5.40
   8   5   6    7.00    3.70
   9  -5   6   77.79   14.20
  -9  -5  -6   94.59   12.30
  -9  -5  -6   96.69   11.80
   9   5   6  109.29   12.10
  -9   5  -6  115.59   12.20
 -11  -6   6  129.49   12.50
 -11  -6   6  134.19   15.50
 -11   6   6  115.99   14.20
 -11   6   6  140.99   15.00
  11   6  -6  133.79   18.20
 -10  -6   6   22.40    6.10
 -10  -6   6    4.00    6.00
  10   6  -6   19.70    7.00
 -10   6   6   16.10    6.80
 -10   6   6   21.10    7.10
  -9  -6   6  699.23   39.30
  -9  -6   6  689.13   35.20
  -9  -6   6  687.53   41.20
  -9   6   6  723.23   39.40
   9   6  -6  682.23   41.20
  -9   6   6  695.43   38.10
  -8  -6   6   50.79    9.90
  -8  -6   6   65.39   11.90
  -8  -6   6   52.89    7.10
   8  -6  -6   40.40    9.40
   8   6  -6   79.79   11.00
  -8   6   6   49.30   11.00
  -8   6   6   57.09    9.80
  -8   6   6   43.90    9.80
  -7  -6   6  338.37   26.20
   7  -6  -6  445.96   27.50
  -7  -6   6  384.76   26.00
  -7  -6   6  357.96   20.20
  -7   6   6  346.47   23.50
  -7   6   6  353.06   25.20
   7   6  -6  364.06   25.30
  -7   6   6  362.66   23.80
  -6  -6   6  462.05   22.80
  -6  -6   6  476.05   29.20
  -6  -6   6  409.26   25.70
  -6   6   6  401.36   25.80
   6   6  -6  489.25   28.90
  -6   6   6  417.36   27.10
  -6   6   6  452.75   26.60
  -5  -6   6    6.40    4.00
  -5  -6   6    7.20    3.70
   5  -6  -6   11.40    4.80
  -5   6   6    9.10    4.30
  -5   6   6    8.20    3.60
   5   6  -6    7.50    4.20
  -5   6   6    7.30    3.80
   5   6  -6   12.80    4.10
   5   6  -6    7.70    2.90
  -4  -6   6  902.31   45.50
  -4  -6   6  864.61   41.90
   4   6  -6  968.70   45.70
  -4   6   6  888.41   42.80
  -4   6   6  887.01   43.40
  -4   6   6  826.02   42.90
   4   6  -6  893.11   38.90
   4   6  -6  882.41   38.10
  -3  -6   6  230.98   23.20
  -3  -6   6  176.68   12.60
   3  -6  -6  154.48   12.40
  -3  -6   6  172.38   14.80
   3   6  -6  163.68   14.30
  -3   6   6  156.08   13.10
   3   6  -6  190.28   10.50
  -3   6   6  165.18   13.70
  -3   6   6  158.38   12.90
   3   6  -6  154.78   10.20
  -2  -6   6  202.38   16.70
  -2  -6   6  250.97   18.30
   2  -6  -6  221.08   14.50
  -2  -6   6  242.18   14.80
   2   6  -6  222.38   12.40
  -2   6   6  229.48   15.90
   2   6  -6  220.58   17.00
  -2   6   6  254.47   16.30
  -2   6   6  244.88   16.80
   2   6  -6  237.58   12.70
   1  -6  -6  202.88   15.10
   1  -6  -6  192.58   12.10
  -1  -6   6  193.18   12.40
  -1  -6   6  197.98   16.10
  -1  -6   6  197.48   15.90
  -1   6   6  193.58   13.70
   1   6  -6  224.68   16.50
   1   6  -6  204.38   11.10
  -1   6   6  193.88   14.20
   1   6  -6  191.48   11.00
   1   6  -6  174.88   12.40
   0  -6   6  105.09   11.40
   0  -6   6  123.39    8.60
   0  -6  -6  137.19   12.00
   0  -6  -6  112.89    7.90
   0   6  -6  105.39    8.70
   0   6  -6  138.79    8.60
   0   6  -6  126.39    8.20
   0   6   6  137.29   10.40
   0   6   6  131.29   11.00
   1  -6   6  607.34   26.50
   1  -6   6  568.64   32.50
   1  -6   6  608.34   33.80
  -1  -6  -6  581.54   31.50
  -1   6  -6  661.23   27.60
   1   6   6  589.84   29.20
  -1   6  -6  563.54   26.60
   1   6   6  558.34   30.10
   2  -6   6    2.40    1.30
   2  -6   6    4.10    3.20
   2  -6   6    0.20    2.60
  -2  -6  -6    1.80    3.00
   2  -6   6    5.90    1.80
  -2   6  -6   -0.50    1.60
   2   6   6    1.70    1.80
   2   6   6    0.10    2.60
  -2   6  -6    0.10    1.70
   3  -6   6    7.10    4.10
   3  -6   6   12.10    4.70
  -3  -6  -6   11.90    4.60
  -3   6  -6   11.40    4.10
   3   6   6   13.00    4.40
  -3   6  -6    9.20    1.10
   3   6   6    7.00    2.50
  -4  -6  -6   37.60    7.70
   4  -6   6   43.80    9.00
   4  -6   6   52.09   11.10
  -4   6  -6   51.89    6.10
   4   6   6   31.30   11.10
  -5  -6  -6    6.10    4.30
  -5  -6  -6   10.00    4.70
   5  -6   6    1.20    3.80
   5  -6   6   14.90    6.30
  -5   6  -6   12.40    3.80
   5   6   6   13.50    4.10
  -6  -6  -6   68.29   11.00
   6  -6   6   85.29   15.70
  -6  -6  -6   88.39   10.30
  -6   6  -6   90.99    9.50
   6   6   6   73.69    8.40
  -7  -6  -6   22.40    6.70
   7  -6   6   22.30    8.00
  -7  -6  -6   15.90    5.50
  -7   6  -6   30.70    7.20
   7   6   6   32.50    6.40
   8  -6   6   91.29   17.00
  -8  -6  -6   62.69   10.50
  -8   6  -6   51.69   10.10
 -10  -7   6    4.80    5.40
 -10  -7   6   -2.90    4.00
 -10   7   6   -0.80    5.10
  10   7  -6   -2.60    6.80
 -10   7   6   -0.80    4.30
  -9  -7   6   -7.40    3.50
  -9  -7   6   -0.50    3.30
   9   7  -6    2.00    4.90
  -9   7   6   -0.60    4.70
  -9   7   6   -4.30    4.80
  -8  -7   6   84.49   11.40
  -8  -7   6   86.29   12.90
  -8  -7   6   83.69    8.70
  -8   7   6   67.59   11.30
  -8   7   6   68.29   11.80
   8   7  -6   61.19   12.90
  -7  -7   6   34.10    8.00
  -7  -7   6   38.20    9.60
  -7   7   6   29.50    7.70
   7   7  -6   28.20    7.10
   7   7  -6   27.60    6.00
  -7   7   6   39.90    8.50
  -6  -7   6   44.60    8.40
   6  -7  -6   39.30    8.40
  -6  -7   6   53.09    9.20
  -6   7   6   59.49   11.00
   6   7  -6   57.09    6.40
  -6   7   6   54.69   10.10
   6   7  -6   54.39   10.40
  -5  -7   6   15.20    4.80
   5  -7  -6    7.00    4.20
  -5  -7   6   19.20    6.30
  -5   7   6   14.50    5.40
  -5   7   6   22.80    6.50
   5   7  -6   15.20    4.90
  -5   7   6   13.10    4.80
   5   7  -6   13.30    3.50
  -4  -7   6   49.30    8.20
  -4  -7   6   76.09   12.20
   4  -7  -6   32.60    7.00
  -4   7   6   46.30    8.80
  -4   7   6   56.09   10.00
  -4   7   6   56.49   10.00
   4   7  -6   52.29    9.60
   4   7  -6   41.60    8.30
  -3  -7   6  396.36   26.50
  -3  -7   6  402.26   23.10
   3  -7  -6  416.66   24.00
  -3   7   6  400.56   24.80
  -3   7   6  415.06   25.30
   3   7  -6  380.36   25.90
  -3   7   6  418.96   24.80
   3   7  -6  415.36   20.40
  -2  -7   6   95.39   11.30
   2  -7  -6   78.89    8.50
  -2  -7   6   94.79    8.50
  -2   7   6   68.49    9.00
  -2   7   6   90.19    9.50
  -2   7   6   84.59    9.40
   2   7  -6   80.39   10.30
   2   7  -6   87.09    7.20
   2   7  -6   72.19    6.70
  -1  -7   6  107.99    9.00
   1  -7  -6  117.39   11.70
  -1  -7   6   94.89   20.70
   1  -7  -6  122.29   11.10
  -1   7   6  120.39   11.60
   1   7  -6  108.89   11.90
   1   7  -6   99.29    7.90
   1   7  -6  107.39    8.10
  -1   7   6  100.29   10.60
   0  -7  -6  234.88   17.40
   0  -7   6  228.08   18.70
   0  -7   6  207.18   14.90
   0   7   6  220.08   16.10
   0   7  -6  229.88   13.20
   0   7  -6  216.58   12.90
   0   7   6  216.88   15.70
   1  -7   6   89.99    7.30
  -1  -7  -6  107.39   11.10
   1  -7   6   99.99   11.70
   1   7   6   86.09    9.80
  -1   7  -6   92.29    7.80
   1   7   6   93.59    9.40
  -1   7  -6   97.89    8.20
   2  -7   6  377.66   25.90
   2  -7   6  349.37   17.40
  -2   7  -6  320.07   17.30
   2   7   6  368.76   25.80
  -2   7  -6  371.26   19.70
   2   7   6  408.06   27.50
  -3  -7  -6   -2.50    2.80
   3  -7   6    5.20    5.00
  -3   7  -6   -0.40    1.50
   3   7   6    2.50    2.40
   3   7   6    1.90    3.00
  -3   7  -6    1.30    2.20
  -3   7  -6    0.40    1.80
  -4  -7  -6   69.99    9.50
   4  -7   6   68.99   12.00
   4   7   6   70.09    8.00
   4   7   6   78.09    9.80
  -4   7  -6   67.39    7.70
  -5  -7  -6  166.88   15.20
   5  -7   6  146.49   16.90
  -5   7  -6  166.48   13.20
   5   7   6  142.59   13.80
   5   7   6  150.88   12.50
  -6  -7  -6   23.70    6.60
  -6  -7  -6   27.60    7.30
   6  -7   6   14.70    6.90
   6   7   6   33.70    7.80
   6   7   6   27.10    6.00
  -6   7  -6   42.50    8.10
   7  -7   6  119.69   20.10
  -7  -7  -6   93.19   12.20
  -7   7  -6  105.29   11.70
   7   7   6   77.39   15.40
  -8  -8   6    3.50    5.10
   8   8  -6    0.00    3.90
  -8   8   6   -0.60    4.50
   8   8  -6   -4.90    4.90
  -7  -8   6  250.27   19.80
   7   8  -6  224.38   21.00
  -7   8   6  258.87   20.20
  -7   8   6  248.28   20.30
  -6  -8   6   22.30    5.90
  -6  -8   6   25.40    6.50
  -6   8   6   26.40    7.80
   6   8  -6   32.30    9.70
  -6   8   6   23.50    6.80
   6   8  -6   20.90    5.30
  -5  -8   6    9.20    5.90
  -5  -8   6    8.70    5.20
   5   8  -6    2.90    5.10
   5   8  -6    8.90    4.00
  -5   8   6    4.80    2.90
  -5   8   6   23.90    6.80
  -4  -8   6  301.37   23.00
   4   8  -6  295.17   17.00
  -4   8   6  296.27   21.00
   4   8  -6  297.07   22.80
  -4   8   6  253.27   20.40
  -4   8   6  317.87   22.20
  -3  -8   6   -1.30    2.50
  -3  -8   6   -1.60    3.40
   3  -8  -6    2.10    4.50
  -3   8   6   -0.10    2.90
   3   8  -6    0.90    3.10
  -3   8   6   -1.10    3.30
   3   8  -6   -4.20    2.20
  -3   8   6    3.10    2.90
   2  -8  -6  105.39   11.90
  -2  -8   6  110.09   12.70
  -2  -8   6  130.79   11.30
   2   8  -6  119.69   13.60
   2   8  -6  116.09    9.10
  -2   8   6  126.19   12.10
  -2   8   6  106.79   11.40
  -2   8   6  103.89   12.00
  -1  -8   6   56.39   10.40
   1  -8  -6   61.19    8.40
   1  -8  -6   44.40    9.20
  -1  -8   6   56.69    6.50
  -1   8   6   37.40    7.70
  -1   8   6   42.70    8.10
  -1   8   6   61.79   10.60
   1   8  -6   59.09    6.10
   0  -8  -6   42.80    9.00
   0  -8   6   45.60   10.50
   0  -8   6   44.30    5.30
   0   8   6   45.00    8.40
   0   8   6   40.80    8.00
   0   8  -6   44.00    5.60
   1  -8   6  107.69    8.80
   1  -8   6  128.39   14.10
  -1  -8  -6  113.39   12.60
   1   8   6   95.39   11.00
   1   8   6   97.19   10.60
  -1   8  -6  121.59    9.70
  -2  -8  -6    4.00    3.70
   2  -8   6   -1.10    4.20
  -2   8  -6    5.10    2.50
  -2   8  -6    3.50    2.40
   2   8   6    2.50    2.90
   3  -8   6  164.78   18.10
  -3  -8  -6  162.48   15.00
   3   8   6  126.99   13.00
  -3   8  -6  143.79   11.60
  -3   8  -6  115.09    8.30
   3   8   6  147.49   12.70
   4  -8   6    4.70    5.50
  -4  -8  -6    3.90    4.50
   4   8   6    1.00    2.20
   4   8   6    2.20    3.90
  -4   8  -6    0.90    3.70
  -5  -8  -6   22.00    7.10
   5  -8   6   33.30   10.00
  -5   8  -6   28.90    6.90
   5   8   6   22.90    7.60
   5   8   6   24.90    6.20
  -6  -8  -6   63.49   14.20
   6  -8   6   84.39   15.40
   6   8   6   94.79   12.30
  -6   8  -6  109.09   11.50
   6   8   6   96.09   10.80
  -6  -9   6   -5.40    3.80
   6   9  -6    1.70    4.60
  -6   9   6    8.60    5.20
   6   9  -6    7.70    4.20
  -5  -9   6  148.39   13.70
  -5  -9   6  120.19   18.40
   5   9  -6  148.39   17.60
  -5   9   6  139.69   14.70
  -5   9   6  119.59   14.50
  -4  -9   6  329.37   27.70
  -4  -9   6  310.47   22.00
   4   9  -6  358.86   27.30
   4   9  -6  352.96   20.20
  -4   9   6  322.77   23.90
  -4   9   6  349.07   24.20
  -3  -9   6    2.20    3.70
  -3  -9   6   -3.60    2.90
  -3   9   6   -1.20    2.50
   3   9  -6   -2.10    3.10
  -3   9   6    2.00    3.70
   3   9  -6   -2.00    4.80
  -2  -9   6  284.37   19.70
  -2  -9   6  311.07   24.10
   2   9  -6  299.37   17.70
  -2   9   6  282.27   21.20
   2   9  -6  313.07   24.90
  -2   9   6  283.37   21.80
  -1  -9   6  168.78   17.50
  -1  -9   6  169.68   13.50
   1  -9  -6  148.09   15.20
   1   9  -6  177.88   12.40
  -1   9   6  162.08   15.50
  -1   9   6  160.88   15.00
   0  -9  -6    6.80    4.30
   0  -9   6    9.50    6.30
   0  -9   6    9.60    3.50
   0   9   6    6.60    4.30
   0   9  -6    7.40    3.20
  -1  -9  -6  227.88   19.10
   1  -9   6  237.48   22.20
   1  -9   6  216.58   14.50
  -1   9  -6  220.18   15.20
   1   9   6  214.88   17.80
   2  -9   6   36.50    9.90
  -2  -9  -6   43.80   10.20
   2   9   6   41.30    9.00
  -2   9  -6   43.90    6.00
  -2   9  -6   51.09    7.70
   3  -9   6   44.20   10.10
  -3  -9  -6   44.40    9.40
   3   9   6   27.40    7.50
  -3   9  -6   38.20    7.20
   4  -9   6   35.50    9.60
  -4  -9  -6   25.80    7.00
  -4   9  -6   27.40    5.90
   4   9   6   34.80    7.60
   4   9   6   20.30    6.80
  -3  10   6   -6.40    3.50
   3  10  -6   -2.30    4.60
   3  10  -6   -1.90    4.60
  -3  10   6  -11.50    4.60
  -2 -10   6    7.10    4.60
   2  10  -6   19.20    5.10
  -1 -10   6   35.70    8.20
  -1 -10   6   77.19   19.40
  -1  10   6   48.00   10.20
   1  10  -6   66.09    8.50
   0 -10  -6   -6.20    4.10
   0 -10   6    3.10    8.70
   0  10   6   -5.40    3.80
   0  10  -6   -8.80    3.80
   0  10   6    1.20    4.00
  -1  10  -6  101.79   11.40
   1  10   6   81.89   13.10
 -13   0   7    4.30    3.80
  13   0  -7   -5.00    7.40
 -13   0   7   -7.50    5.30
 -12   0   7   -1.80    4.30
 -12   0   7    1.30    3.50
  12   0  -7    5.30    5.40
  11   0  -7    2.70    3.60
 -11   0   7   -1.20    4.00
 -11   0   7   -0.60    2.60
  10   0  -7    0.30    2.90
 -10   0   7    0.30    3.60
 -10   0   7    2.20    3.10
   9   0  -7   -2.00    2.50
  -9   0   7   -3.40    2.00
  -9   0   7    0.70    3.50
  -9   0   7   -3.10    2.90
  -8   0   7   -1.20    2.90
  -8   0   7   -0.90    1.60
   8   0  -7    2.00    3.20
  -8   0   7   -1.90    2.70
   7   0  -7    7.60    3.30
  -7   0   7    8.20    2.70
  -7   0   7    6.30    3.20
  -7   0   7    8.40    3.60
  -6   0   7    2.90    2.00
   6   0  -7    1.40    1.60
   6   0  -7   -1.80    1.30
  -6   0   7    7.20    3.10
  -6   0   7   -1.10    1.90
   5   0  -7   -1.10    1.10
  -5   0   7   -0.20    1.20
  -5   0   7    1.10    2.10
   5   0  -7    0.60    1.60
  -5   0   7    1.90    2.30
  -4   0   7    0.40    1.10
  -4   0   7    0.30    1.60
   4   0  -7    1.40    1.20
   4   0  -7    0.50    1.40
   4   0  -7   -0.30    1.10
  -3   0   7   -0.50    0.80
  -3   0   7    0.50    1.20
   3   0  -7    2.70    1.50
  -3   0   7    2.20    1.70
   3   0  -7    0.70    1.60
   3   0  -7   -0.40    0.90
  -2   0   7    0.40    0.70
  -2   0   7    2.10    1.00
  -2   0   7    0.60    1.10
   2   0  -7    0.30    1.00
   2   0  -7    0.60    1.30
  -2   0   7   -1.40    1.00
  -1   0   7   -1.00    1.00
  -1   0   7    0.60    0.90
  -1   0   7    0.80    0.70
  -1   0   7    1.40    0.80
   1   0  -7    1.10    0.70
   1   0  -7    0.40    1.30
   0   0   7    8.10    1.90
   0   0   7    4.60    1.70
   0   0   7    7.80    1.70
   0   0   7    4.60    1.40
   0   0   7    4.90    1.40
   0   0   7    4.90    1.40
   1   0   7    0.80    0.90
   1   0   7   -0.50    1.00
   1   0   7    0.40    0.80
   1   0   7   -1.40    1.00
   1   0   7    1.50    1.00
  -1   0  -7   -1.10    0.80
   2   0   7    0.20    1.30
   2   0   7   -0.20    0.90
   2   0   7   -0.90    1.00
   2   0   7    1.00    1.00
  -2   0  -7   -0.70    0.70
   3   0   7    0.60    1.30
   3   0   7    0.10    1.00
   3   0   7    1.50    1.70
  -3   0  -7   -0.30    1.10
   3   0   7    1.00    1.30
  -4   0  -7    0.40    1.20
   4   0   7   -0.40    1.20
  -4   0  -7   -3.10    1.60
   4   0   7    0.10    1.40
  -5   0  -7   -0.50    1.10
   5   0   7   -1.30    1.40
   5   0   7   -0.20    1.70
  -5   0  -7    1.30    2.30
   6   0   7    1.90    2.30
  -6   0  -7   -0.50    1.80
  -6   0  -7    1.00    1.40
   6   0   7   -0.50    1.80
  -7   0  -7   -1.10    1.50
   7   0   7   -0.90    3.40
  -7   0  -7    3.90    3.20
   7   0   7   -1.30    1.90
  -8   0  -7    0.70    2.80
   8   0   7    3.60    3.00
  -8   0  -7    4.00    1.90
  -9   0  -7    0.90    2.30
   9   0   7   -3.70    3.10
  -9   0  -7    0.50    3.50
 -10   0  -7    2.70    4.40
  13  -1  -7    6.40   10.00
 -13  -1   7    1.50    4.90
 -13  -1   7   26.70    8.60
 -13   1   7   25.50    6.20
 -13   1   7   15.00    6.70
  13   1  -7   12.80    8.30
 -12  -1   7  105.89   13.00
  12  -1  -7  108.29   14.80
 -12  -1   7  104.29   11.90
 -12   1   7   75.59   12.50
 -12   1   7   97.29   11.80
  12   1  -7   96.09   14.50
  11  -1  -7   37.40    8.80
 -11  -1   7   29.10    8.00
 -11  -1   7   35.00    7.80
 -11   1   7   19.20    6.40
  11   1  -7   37.60    9.30
 -11   1   7   33.30    8.20
  10  -1  -7  114.19   13.30
 -10  -1   7  121.89   11.70
 -10   1   7   88.99   10.70
  10   1  -7  118.19   13.60
 -10   1   7  114.79   12.70
   9  -1  -7  235.88   19.60
  -9  -1   7  236.88   16.30
  -9  -1   7  233.98   18.10
  -9   1   7  250.07   19.80
  -9   1   7  271.97   19.00
  -9   1   7  250.57   17.30
   9   1  -7  254.87   19.20
  -8  -1   7    9.00    4.30
  -8  -1   7    4.50    3.00
   8  -1  -7    8.90    4.90
  -8  -1   7    2.50    4.80
  -8   1   7    8.90    3.40
  -8   1   7    7.60    4.70
  -8   1   7    9.90    4.30
   8   1  -7    6.20    3.90
  -7  -1   7  321.27   21.70
   7  -1  -7  379.66   22.80
  -7  -1   7  360.66   18.90
  -7  -1   7  362.16   21.50
  -7   1   7  314.87   20.50
  -7   1   7  328.97   19.10
   7   1  -7  377.36   22.70
  -7   1   7  307.17   21.70
   7   1  -7  344.47   18.30
  -6  -1   7  190.68   13.80
   6  -1  -7  204.18   14.60
  -6  -1   7  206.98   11.80
   6  -1  -7  184.38   11.70
  -6  -1   7  167.58   14.00
  -6   1   7  200.18   12.50
   6   1  -7  187.88   11.20
  -6   1   7  178.78   14.30
   6   1  -7  210.78   21.00
  -6   1   7  182.58   13.50
  -5  -1   7  186.78   14.50
  -5  -1   7  178.88   10.10
  -5  -1   7  170.28   12.50
   5  -1  -7  179.98   11.80
  -5   1   7  155.38   12.40
   5   1  -7  169.78    9.70
   5   1  -7  174.98   12.70
  -5   1   7  183.28   11.10
  -4  -1   7  858.51   40.30
   4  -1  -7  882.61   37.10
  -4  -1   7  897.01   39.60
   4  -1  -7  886.31   38.90
  -4  -1   7  860.11   35.90
   4  -1  -7  955.40   40.00
  -4   1   7  891.51   39.90
  -4   1   7  863.21   37.40
   4   1  -7  875.81   35.70
   4   1  -7  926.51   39.70
  -4   1   7  827.22   39.40
  -3  -1   7    0.00    1.30
  -3  -1   7    1.50    0.90
  -3  -1   7   -0.20    1.50
   3  -1  -7   -0.40    0.90
   3  -1  -7    2.30    2.40
   3  -1  -7    1.80    1.80
  -3   1   7    0.70    1.50
   3   1  -7    0.30    1.30
  -3   1   7    1.10    1.80
   3   1  -7    1.10    1.40
  -3   1   7    4.70    1.70
   3   1  -7    0.30    0.70
  -2  -1   7  800.82   35.40
  -2  -1   7  825.42   30.90
   2  -1  -7  820.92   32.60
   2  -1  -7  816.22   33.40
  -2  -1   7  747.03   34.70
   2  -1  -7  791.62   35.20
  -2  -1   7  855.21   31.00
  -2   1   7  829.62   33.50
  -2   1   7  890.11   36.10
   2   1  -7  685.93   34.10
   2   1  -7  780.22   34.40
  -2   1   7  793.42   34.60
  -1  -1   7  342.67   13.70
  -1  -1   7  311.37   16.90
  -1  -1   7  326.97   16.50
  -1  -1   7  336.77   13.50
  -1  -1   7  327.57   17.20
  -1   1   7  324.47   17.10
  -1   1   7  378.56   15.90
  -1   1   7  365.06   17.80
  -1   1   7  327.57   15.80
   1   1  -7  386.36   16.90
  -1   1   7  347.57   15.90
   0  -1   7   27.20    3.50
   0  -1   7   33.20    3.90
   0  -1   7   27.40    3.10
   0  -1   7   28.10    2.40
   0   1   7   27.80    3.30
   0   1   7   31.30    3.40
   0   1   7   25.60    3.60
   0   1   7   30.80    2.50
   0   1   7   30.30    3.70
   0   1  -7   28.60    3.00
   1  -1   7 1416.96   54.79
   1  -1   7 1331.17   54.99
  -1  -1  -7 1455.55   56.69
   1  -1   7 1300.77   54.79
   1  -1   7 1380.96   57.19
   1   1   7 1428.86   56.89
  -1   1  -7 1400.86   54.99
   1   1   7 1372.96   53.89
   1   1   7 1444.66   57.09
   1   1   7 1469.15   53.99
   1   1   7 1399.76   56.69
  -2  -1  -7  114.59    8.00
   2  -1   7  113.39    5.80
  -2  -1  -7  101.19    7.50
   2  -1   7  103.89    5.80
   2  -1   7  121.99    8.20
   2  -1   7  115.29    7.40
   2   1   7  103.19    8.00
  -2   1  -7  106.19    7.10
   2   1   7  114.19    6.30
   2   1   7  112.99    7.60
   3  -1   7   12.70    1.60
   3  -1   7   14.80    3.80
  -3  -1  -7   14.10    3.50
  -3  -1  -7   14.20    3.10
   3  -1   7   14.80    1.60
   3  -1   7   15.20    3.00
  -3   1  -7   12.30    3.00
   3   1   7    9.10    2.60
   3   1   7   18.20    3.10
   3   1   7   16.00    3.70
  -4  -1  -7  390.66   20.50
   4  -1   7  352.96   15.30
   4  -1   7  408.26   15.60
  -4  -1  -7  391.46   18.90
   4  -1   7  380.96   19.80
   4  -1   7  336.27   20.20
   4   1   7  375.36   18.80
  -4   1  -7  424.56   20.40
   4   1   7  386.86   19.30
  -5  -1  -7  237.48   13.60
   5  -1   7  273.47   17.10
  -5  -1  -7  266.37   16.20
   5  -1   7  251.07   10.60
   5  -1   7  262.57   10.60
   5   1   7  217.88   14.20
   5   1   7  252.07   15.40
  -5   1  -7  265.77   15.90
  -6  -1  -7   46.80    7.50
   6  -1   7   29.40    6.60
   6  -1   7   41.70    2.80
   6  -1   7   40.40    2.60
  -6  -1  -7   39.30    4.70
   6   1   7   31.40    5.20
  -6   1  -7   40.10    7.00
   6   1   7   48.10    6.70
   7  -1   7   -0.30    1.20
  -7  -1  -7    3.50    1.30
  -7  -1  -7    3.40    3.20
   7   1   7    3.50    4.00
   7   1   7   -1.20    3.10
  -7   1  -7   -0.70    2.50
  -8  -1  -7  135.89    9.80
   8  -1   7  127.19   13.90
  -8  -1  -7  141.99   13.30
   8   1   7  135.09   13.10
  -9  -1  -7   12.40    3.30
  -9  -1  -7   15.00    5.70
   9  -1   7   11.50    4.80
  -9   1  -7    7.20    4.40
   9   1   7    9.10    4.10
 -10  -1  -7   42.80    8.50
 -10   1  -7   41.00    8.70
  10   1   7   27.70    8.00
 -13  -2   7  122.69   13.40
 -13  -2   7  121.09   14.30
  13   2  -7  110.49   27.70
 -13   2   7  114.29   13.90
 -13   2   7  113.79   13.80
  12  -2  -7   10.70    6.40
 -12  -2   7    2.50    4.90
 -12  -2   7   15.00    5.10
  12   2  -7    1.00    7.70
 -12   2   7    8.20    5.40
 -12   2   7    3.50    3.80
 -11  -2   7   48.00    8.20
  11  -2  -7   48.90   10.20
 -11  -2   7   51.79   10.10
  11   2  -7   40.30   10.20
 -11   2   7   54.49   10.00
 -11   2   7   48.70   10.00
  10  -2  -7  186.48   17.10
 -10  -2   7  148.59   14.40
 -10  -2   7  157.58   13.30
 -10   2   7  133.69   13.80
  10   2  -7  181.28   16.50
 -10   2   7  163.08   15.20
  -9  -2   7   43.90    7.40
   9  -2  -7   45.90    9.10
  -9  -2   7   41.00    8.70
  -9   2   7   48.00   13.00
  -9   2   7   51.49    9.00
  -9   2   7   65.19    8.20
   9   2  -7   66.89    9.60
  -8  -2   7   44.10    8.80
  -8  -2   7   46.40    8.40
  -8  -2   7   46.50    7.10
   8  -2  -7   43.50    9.00
  -8   2   7   47.60    7.60
   8   2  -7   47.50    9.40
  -8   2   7   37.80    7.70
  -8   2   7   35.90    7.70
   7  -2  -7   50.09    9.10
  -7  -2   7   43.20    5.20
  -7  -2   7   30.80    6.80
  -7  -2   7   48.00    9.10
  -7   2   7   40.60    6.70
  -7   2   7   39.70    7.40
   7   2  -7   36.30    4.80
  -7   2   7   28.60    6.50
   7   2  -7   39.80    8.20
  -6  -2   7  309.17   20.50
  -6  -2   7  320.27   19.20
  -6  -2   7  317.47   16.20
  -6   2   7  260.87   18.10
   6   2  -7  299.27   15.70
  -6   2   7  321.57   17.90
   6   2  -7  322.47   20.10
  -6   2   7  314.07   19.80
   5  -2  -7   -0.20    1.50
  -5  -2   7    1.80    1.80
  -5  -2   7   -1.00    1.50
  -5  -2   7    1.80    1.50
   5  -2  -7    2.60    2.20
  -5   2   7    1.70    1.80
  -5   2   7   -0.40    1.60
  -5   2   7    0.30    1.50
   5   2  -7    0.80    2.00
   5   2  -7    0.20    1.50
   4  -2  -7   10.30    3.10
  -4  -2   7    6.40    1.60
   4  -2  -7    4.40    2.00
  -4  -2   7    5.80    2.80
  -4  -2   7    2.20    2.20
  -4   2   7    5.40    2.10
   4   2  -7    3.80    1.30
  -4   2   7    5.30    2.30
   4   2  -7    5.40    2.50
  -4   2   7    4.90    2.30
   4   2  -7    3.40    2.50
  -3  -2   7  849.91   32.10
  -3  -2   7  782.22   36.60
   3  -2  -7  944.81   35.90
   3  -2  -7  782.92   37.00
  -3  -2   7  875.41   38.50
   3  -2  -7  826.22   35.50
   3   2  -7  818.52   36.70
  -3   2   7  861.01   37.00
  -3   2   7  742.03   37.20
  -3   2   7  758.32   37.00
  -3   2   7  869.31   36.10
   3   2  -7  840.92   32.00
  -2  -2   7  296.47   17.00
  -2  -2   7  297.87   15.70
  -2  -2   7  317.07   17.30
   2  -2  -7  281.07   13.10
   2  -2  -7  326.77   15.60
  -2   2   7  292.57   15.20
   2   2  -7  278.07   16.30
  -2   2   7  333.47   15.60
  -2   2   7  295.07   16.50
   2   2  -7  300.77   15.60
  -2   2   7  311.57   17.00
  -1  -2   7    6.90    2.10
  -1  -2   7    5.40    2.20
  -1  -2   7    5.20    2.10
  -1   2   7    9.10    2.30
   1   2  -7    6.10    2.30
  -1   2   7    7.30    1.80
  -1   2   7    4.80    2.20
  -1   2   7    6.70    1.90
   1   2  -7    5.20    1.90
  -1   2   7    6.20    2.50
   0  -2   7  805.62   34.60
   0  -2   7  745.33   31.70
   0  -2   7  774.02   29.40
   0  -2   7  791.22   35.00
   0   2   7  704.83   33.90
   0   2  -7  674.33   31.30
   0   2   7  729.83   35.50
   0   2   7  818.62   33.50
   0   2   7  787.32   33.50
   0   2  -7  791.92   29.40
   0   2   7  830.22   30.30
   1  -2   7  478.05   23.30
   1  -2   7  460.95   19.40
   1  -2   7  498.35   20.00
  -1  -2  -7  487.15   22.60
   1  -2   7  480.15   19.40
   1  -2   7  441.76   23.30
  -1  -2  -7  485.95   23.30
   1   2   7  462.85   22.60
  -1   2  -7  487.65   20.00
   1   2   7  444.46   23.90
   2  -2   7   24.70    3.30
   2  -2   7   34.40    4.70
  -2  -2  -7   29.60    4.90
   2  -2   7   35.90    4.80
  -2  -2  -7   34.90    4.50
   2   2   7   28.10    2.30
   2   2   7   32.00    4.20
   2   2   7   34.30    5.30
  -2   2  -7   32.00    3.40
   3  -2   7   15.00    2.90
   3  -2   7   11.10    3.10
   3  -2   7   12.70    3.70
  -3  -2  -7   11.60    3.10
  -3  -2  -7   21.10    4.50
   3   2   7   15.20    2.60
   3   2   7   11.20    3.10
  -3   2  -7   10.90    2.90
   4  -2   7   71.39    6.70
  -4  -2  -7   74.69    7.00
  -4  -2  -7   85.89    7.90
   4  -2   7   76.69    8.30
   4   2   7   78.69    6.30
   4   2   7   76.99    7.00
  -4   2  -7   80.49    7.00
  -5  -2  -7   35.40    6.60
  -5  -2  -7   45.10    5.30
   5  -2   7   34.10    6.60
  -5   2  -7   39.50    6.40
   5   2   7   42.80    5.30
   6  -2   7  107.19   11.60
  -6  -2  -7  108.69   10.60
  -6  -2  -7  133.19    9.70
   6   2   7  117.59   10.00
  -6   2  -7  119.49   10.30
   7  -2   7    1.90    3.30
  -7  -2  -7    7.00    3.90
  -7  -2  -7   10.80    3.40
   7   2   7    3.90    2.70
  -7   2  -7    7.20    3.80
  -8  -2  -7    3.60    1.90
   8  -2   7    0.80    3.30
  -8  -2  -7    5.30    3.90
   8   2   7    2.00    3.00
   9  -2   7   42.40    9.60
  -9  -2  -7   59.99   10.80
  -9  -2  -7   43.30    7.50
  -9   2  -7   49.50    9.50
   9   2   7   57.79   10.10
 -10  -2  -7   -3.60    4.30
  10  -2   7   -0.20    5.10
 -10   2  -7   -0.70    4.90
  10   2   7   -4.80    3.40
 -12  -3   7   72.69   11.30
 -12  -3   7   60.89   11.90
  12  -3  -7   45.10   13.50
 -12   3   7   86.49   10.70
 -12   3   7   79.79   12.70
  12   3  -7   97.69   13.80
 -11  -3   7    9.40    4.80
 -11  -3   7   11.10    5.50
  11  -3  -7   12.20    5.60
 -11   3   7    9.50    4.90
 -11   3   7   12.80    5.80
  11   3  -7    5.00    4.60
 -10  -3   7  316.67   23.20
  10  -3  -7  363.26   26.60
 -10  -3   7  306.47   20.30
 -10   3   7  357.36   23.10
  10   3  -7  358.96   26.10
 -10   3   7  278.97   24.50
  -9  -3   7   25.80    5.30
   9  -3  -7   31.80    7.60
  -9  -3   7   32.00    7.80
  -9   3   7   28.60    6.50
  -9   3   7   29.10    7.30
  -9   3   7   20.50    6.90
   9   3  -7   35.80    8.50
  -8  -3   7   77.49    7.70
  -8  -3   7   69.39    9.30
   8  -3  -7   69.19    9.50
  -8   3   7   66.89    9.50
  -8   3   7   81.29    9.60
  -8   3   7   75.69    8.70
   8   3  -7   87.99   11.00
  -7  -3   7  653.63   29.50
  -7  -3   7  576.74   34.20
  -7  -3   7  643.24   33.10
   7  -3  -7  702.23   35.10
   7   3  -7  627.34   34.40
  -7   3   7  604.74   33.80
  -7   3   7  563.04   32.00
  -7   3   7  663.43   32.20
   7   3  -7  592.74   29.00
  -6  -3   7   -1.50    1.30
  -6  -3   7   -4.00    2.50
  -6  -3   7    2.30    2.60
   6   3  -7    0.50    2.40
   6   3  -7   -1.20    1.40
  -6   3   7   -0.60    2.20
  -6   3   7   -1.60    1.90
  -6   3   7    0.90    2.20
  -5  -3   7 1200.18   47.20
  -5  -3   7 1198.58   54.09
   5  -3  -7 1190.58   51.99
  -5  -3   7 1133.49   51.49
   5   3  -7 1131.29   47.10
   5   3  -7 1169.18   52.99
  -5   3   7 1153.08   50.59
  -5   3   7 1143.99   52.19
  -5   3   7 1138.29   51.99
  -4  -3   7  382.36   16.50
  -4  -3   7  387.46   22.40
  -4  -3   7  404.96   20.90
  -4   3   7  377.86   21.40
   4   3  -7  347.87   16.40
  -4   3   7  364.96   20.60
  -4   3   7  409.36   20.40
   3  -3  -7   72.09    6.30
   3  -3  -7   77.99    6.70
  -3  -3   7   75.39    7.00
  -3  -3   7   83.59    8.50
  -3  -3   7   93.99    8.90
  -3   3   7   79.79    7.00
   3   3  -7   78.19    3.90
  -3   3   7   92.19    8.40
   3   3  -7   86.39    8.20
   3   3  -7   76.29    7.00
  -3   3   7   73.79    6.90
   3   3  -7   80.09    3.90
   2  -3  -7 2560.64  106.29
  -2  -3   7 2786.72  109.59
  -2  -3   7 2743.33  112.39
  -2  -3   7 2794.52  112.89
   2  -3  -7 2897.21  106.99
  -2   3   7 2695.43  109.79
   2   3  -7 2810.02  109.59
   2   3  -7 2853.61  111.89
  -2   3   7 2791.72  110.09
  -2   3   7 2948.80  109.59
  -1  -3   7   75.89    7.40
  -1  -3   7   76.99    7.70
  -1  -3   7   69.09    5.60
  -1   3   7   66.39    5.20
   1   3  -7   60.09    5.30
  -1   3   7   69.59    7.50
  -1   3   7   66.39    6.10
  -1   3   7   75.79    7.20
  -1   3   7   74.39    6.40
   0  -3  -7  286.27   16.40
   0  -3   7  282.67   13.20
   0  -3   7  287.87   16.70
   0  -3   7  290.47   17.10
   0   3  -7  260.77   11.00
   0   3   7  270.87   15.20
   0   3   7  268.97   15.80
   0   3   7  293.17   15.50
   0   3   7  246.28   15.60
   0   3  -7  285.17   13.30
   1  -3   7 1658.53   63.79
  -1  -3  -7 1688.33   68.69
   1  -3   7 1560.54   70.89
   1  -3   7 1666.73   69.19
   1  -3   7 1648.73   63.09
   1   3   7 1664.23   67.79
  -1   3  -7 1631.64   63.99
  -1   3  -7 1641.74   62.99
  -2  -3  -7   32.90    5.30
  -2  -3  -7   22.10    5.20
   2  -3   7   29.60    5.90
   2  -3   7   22.60    4.50
   2  -3   7   25.70    3.10
  -2   3  -7   24.30    3.60
   2   3   7   24.40    2.20
   3  -3   7  170.78   13.10
  -3  -3  -7  161.78   11.50
  -3  -3  -7  165.08   11.70
   3  -3   7  168.68   12.60
   3  -3   7  153.28    9.70
  -3   3  -7  151.08    9.90
   3   3   7  159.38    8.60
   4  -3   7  291.37   19.20
   4  -3   7  312.47   17.00
   4  -3   7  308.77   20.40
  -4  -3  -7  337.67   19.20
  -4  -3  -7  332.47   18.60
  -4   3  -7  319.97   17.40
   4   3   7  320.87   15.90
  -5  -3  -7  177.28   12.50
  -5  -3  -7  174.98   13.40
   5  -3   7  170.78   14.70
   5  -3   7  173.38   14.00
  -5   3  -7  154.48   11.70
   5   3   7  172.28   11.10
  -6  -3  -7   32.50    7.10
   6  -3   7   23.80    6.90
  -6  -3  -7   36.00    6.00
  -6   3  -7   35.40    6.50
   6   3   7   25.90    5.00
   7  -3   7   -3.00    3.00
  -7  -3  -7   -1.30    2.80
   7   3   7   -1.10    2.00
  -7   3  -7    0.20    2.40
  -8  -3  -7  133.29   12.80
   8  -3   7  103.09   13.90
  -8  -3  -7  120.89   11.10
   8   3   7  110.09   10.90
  -8   3  -7  138.59   13.30
  -9  -3  -7   -4.60    3.70
   9  -3   7    1.50    4.20
  -9  -3  -7   -6.50    3.40
  -9   3  -7    2.00    5.40
   9   3   7   -0.60    2.80
 -12  -4   7   13.80    4.10
 -12  -4   7    2.40    5.70
 -12   4   7    1.60    5.30
  12   4  -7    8.50    5.60
  11  -4  -7  497.85   35.80
 -11  -4   7  513.35   29.30
 -11  -4   7  514.45   32.50
  11   4  -7  526.75   35.70
 -11   4   7  524.65   32.10
 -11   4   7  523.35   32.30
  10  -4  -7  159.28   17.10
 -10  -4   7  135.59   14.50
 -10  -4   7  141.59   12.10
  10   4  -7  112.09   14.40
 -10   4   7  151.58   14.50
 -10   4   7  153.58   14.50
   9  -4  -7  190.38   18.50
  -9  -4   7  236.48   15.20
  -9  -4   7  204.88   17.50
   9   4  -7  215.08   18.90
  -9   4   7  203.48   26.40
  -9   4   7  230.78   17.70
  -9   4   7  204.78   16.80
  -8  -4   7  367.86   20.90
  -8  -4   7  372.66   24.60
   8  -4  -7  406.46   26.60
   8   4  -7  389.76   26.20
  -8   4   7  398.96   24.90
  -8   4   7  404.16   24.50
  -8   4   7  446.96   27.50
  -7  -4   7  116.09   11.50
  -7  -4   7  116.19    8.80
   7   4  -7  129.19   13.00
  -7   4   7  105.89   11.80
  -7   4   7  115.79   11.80
  -7   4   7  131.09   11.70
  -6  -4   7 1772.72   81.29
  -6  -4   7 1804.42   73.49
   6  -4  -7 1842.32   79.39
  -6  -4   7 1916.41   78.99
  -6   4   7 1860.21   77.89
   6   4  -7 1832.32   80.29
  -6   4   7 1794.52   78.79
  -5  -4   7  110.69    7.10
  -5  -4   7  112.39   10.00
   5  -4  -7  105.19    9.90
  -5  -4   7  106.49   10.90
  -5  -4   7  104.99   10.90
  -5   4   7  104.69    9.90
  -5   4   7   91.79    8.90
   5   4  -7   96.49    7.00
  -5   4   7   85.79    9.40
   5   4  -7  118.39   11.10
  -4  -4   7  133.89   12.00
  -4  -4   7  108.59    9.50
  -4  -4   7  100.19   10.40
   4  -4  -7  124.69    9.80
  -4   4   7   96.79    9.70
  -4   4   7  113.09    9.60
   4   4  -7  117.29   10.90
  -4   4   7  127.79   10.60
   4   4  -7  116.99    6.90
  -3  -4   7 2282.77   91.99
  -3  -4   7 2176.18   91.29
   3  -4  -7 2345.67   87.29
  -3  -4   7 2153.08   87.89
   3   4  -7 2155.68   87.99
   3   4  -7 2045.90   84.79
  -3   4   7 1879.11   87.49
  -3   4   7 2152.38   89.89
   3   4  -7 2259.27   90.79
  -3   4   7 2224.88   88.49
  -2  -4   7  171.68   13.40
  -2  -4   7  156.58   10.50
   2  -4  -7  165.08    9.40
  -2  -4   7  155.98   12.70
   2   4  -7  175.78    7.40
  -2   4   7  164.28   11.60
  -2   4   7  160.18   12.30
   2   4  -7  181.38    7.50
   2   4  -7  151.98   12.30
  -2   4   7  191.28   11.60
  -1  -4   7 1624.74   72.39
  -1  -4   7 1680.93   73.29
  -1  -4   7 1734.83   68.39
  -1   4   7 1611.04   71.49
   1   4  -7 1771.12   72.59
  -1   4   7 1710.03   68.59
   1   4  -7 1745.73   64.79
   1   4  -7 1659.53   68.49
   1   4  -7 1777.92   64.79
  -1   4   7 1718.13   70.69
   0  -4  -7  778.82   38.30
   0  -4   7  822.32   34.30
   0  -4   7  830.82   39.80
   0   4   7  832.42   34.80
   0   4  -7  770.92   34.20
   0   4  -7  802.92   32.50
   0   4  -7  948.51   33.00
   0   4   7  804.12   37.30
   1  -4   7   11.60    2.10
   1  -4   7   11.30    4.00
   1  -4   7    9.00    3.20
  -1  -4  -7   19.90    4.70
  -1   4  -7    9.80    2.10
   1   4   7   14.20    2.60
   1   4   7    7.00    2.90
  -2  -4  -7 1047.70   47.00
   2  -4   7 1093.89   48.50
   2  -4   7 1083.59   42.60
   2  -4   7  973.40   48.20
  -2   4  -7 1003.20   42.80
   2   4   7 1012.90   41.90
   2   4   7 1055.09   46.70
  -3  -4  -7  152.98   11.80
   3  -4   7  158.78   13.70
  -3  -4  -7  140.99   11.70
   3  -4   7  177.78   13.50
   3  -4   7  143.59    9.60
   3   4   7  160.98    9.10
  -3   4  -7  154.78   10.00
   4  -4   7  143.29   10.10
   4  -4   7  145.29   13.10
   4  -4   7  153.28   14.30
  -4  -4  -7  162.78   12.30
  -4  -4  -7  158.48   12.60
   4   4   7  150.98    9.60
  -4   4  -7  148.79   10.70
   5  -4   7   79.59    9.80
  -5  -4  -7   84.69    8.80
   5  -4   7   61.29   11.10
  -5  -4  -7   62.39    8.30
   5   4   7   85.99    7.30
  -5   4  -7   71.89    7.60
   6  -4   7    7.30    4.30
   6  -4   7    7.40    4.00
  -6  -4  -7    9.20    3.80
  -6  -4  -7   11.50    4.50
   6   4   7   15.70    4.30
  -6   4  -7   13.60    4.40
   7  -4   7  107.99   18.60
  -7  -4  -7  111.49   11.90
  -7  -4  -7  100.59   10.90
   7  -4   7  105.49   13.70
  -7   4  -7   99.39   10.10
   7   4   7  112.99   10.10
  -8  -4  -7   13.90    5.80
   8  -4   7    4.00    5.30
  -8  -4  -7    2.60    3.80
  -8   4  -7    4.30    4.20
   8   4   7    7.60    4.00
  -9  -4  -7   95.39   16.70
   9  -4   7  111.19   15.40
  -9  -4  -7   96.49   11.60
   9   4   7   90.19   11.90
  -9   4  -7  113.99   12.60
 -11  -5   7  275.37   22.00
 -11  -5   7  267.27   18.50
 -11   5   7  233.08   20.30
  11   5  -7  251.57   27.30
 -11   5   7  246.58   19.90
  10  -5  -7    6.80    5.70
 -10  -5   7    5.60    4.70
 -10   5   7    7.70    4.40
  10   5  -7    2.70    4.90
   9  -5  -7   -0.30    4.90
  -9  -5   7    1.30    2.80
  -9  -5   7   -5.20    3.80
  -9  -5   7    3.80    4.30
  -9   5   7   -0.60    3.00
   9   5  -7   -0.20    3.90
  -9   5   7    6.50    4.70
  -8  -5   7  392.46   20.90
   8  -5  -7  343.47   25.70
  -8  -5   7  387.46   24.80
  -8  -5   7  398.16   26.80
  -8   5   7  380.76   24.40
  -8   5   7  348.17   25.20
   8   5  -7  394.66   26.50
  -8   5   7  363.76   24.00
  -7  -5   7   -2.50    2.80
  -7  -5   7   -0.80    1.90
  -7  -5   7    2.00    2.80
  -7   5   7   -0.60    2.00
   7   5  -7   -1.00    2.80
  -7   5   7    0.60    3.50
  -7   5   7    0.20    3.10
  -6  -5   7    9.20    2.90
  -6  -5   7    9.40    4.90
   6  -5  -7    4.20    3.60
  -6  -5   7    6.00    3.80
   6   5  -7   13.00    5.00
  -6   5   7    9.50    4.20
   6   5  -7    5.50    3.10
  -6   5   7    5.90    3.40
  -6   5   7   10.50    4.30
   5  -5  -7    3.00    2.30
  -5  -5   7    6.70    2.70
  -5  -5   7    5.70    3.10
  -5  -5   7    3.80    2.20
  -5  -5   7    2.50    1.70
  -5   5   7   -1.80    2.60
  -5   5   7   -1.40    3.00
  -5   5   7   -3.20    1.60
   5   5  -7   -1.90    1.70
   5   5  -7    1.10    2.50
  -4  -5   7   87.19   11.20
   4  -5  -7  103.89    9.30
  -4  -5   7   92.89   10.80
  -4  -5   7  106.99    9.30
   4   5  -7   93.49    6.40
   4   5  -7  105.09   10.90
  -4   5   7  100.89    9.90
  -4   5   7  115.29   10.00
   4   5  -7  105.89    7.00
  -4   5   7   85.89    9.70
  -3  -5   7  140.29   10.20
  -3  -5   7  142.99   12.90
   3  -5  -7  137.29   10.00
  -3  -5   7  125.39   12.10
   3   5  -7  145.29   12.70
  -3   5   7  130.49   10.90
  -3   5   7  149.19   12.30
  -3   5   7  128.99   10.70
   3   5  -7  134.39    7.80
   3   5  -7  134.89    7.50
   2  -5  -7  323.37   15.90
  -2  -5   7  291.57   19.80
  -2  -5   7  292.37   16.70
  -2  -5   7  303.27   20.30
   2   5  -7  309.27   13.70
   2   5  -7  298.87   19.60
   2   5  -7  308.97   13.80
  -2   5   7  277.47   18.50
  -2   5   7  305.17   18.20
   2   5  -7  318.47   17.40
  -2   5   7  299.27   17.40
  -1  -5   7    6.60    3.70
  -1  -5   7    5.70    3.30
  -1  -5   7    3.20    2.00
  -1   5   7    8.00    2.90
  -1   5   7   -0.10    1.90
   1   5  -7    2.80    1.30
   1   5  -7    2.90    2.00
   1   5  -7    5.80    3.10
  -1   5   7    3.20    2.40
   1   5  -7    4.20    1.40
   0  -5   7    4.10    3.20
   0  -5   7    4.40    3.10
   0  -5  -7    9.80    3.50
   0  -5   7    5.20    1.90
   0   5  -7    3.80    2.30
   0   5   7   11.20    2.90
   0   5   7   10.30    3.50
   0   5  -7    5.30    1.70
   0   5  -7   10.00    2.20
   1  -5   7    8.30    3.80
   1  -5   7    7.40    1.90
   1  -5   7    7.90    3.30
   1  -5   7    5.90    1.70
  -1  -5  -7    7.00    3.60
   1   5   7    6.40    3.20
  -1   5  -7    6.60    2.00
  -1   5  -7    7.90    2.20
   1   5   7   11.70    2.90
   2  -5   7  130.99    8.20
  -2  -5  -7  110.89   10.80
   2  -5   7  125.09   12.20
   2  -5   7  126.59   12.40
  -2   5  -7  123.69    8.40
   2   5   7  134.79   11.10
   2   5   7  131.29    8.50
  -3  -5  -7  114.29   10.70
   3  -5   7  119.89   12.20
   3  -5   7  100.19   11.50
   3  -5   7  117.79    8.30
   3   5   7  114.29   10.70
   3   5   7  111.69    8.00
  -3   5  -7  112.19    8.50
  -4  -5  -7   38.90    7.30
   4  -5   7   26.80    7.10
  -4  -5  -7   26.30    6.10
   4  -5   7   25.40    6.40
   4   5   7   27.40    4.10
  -4   5  -7   23.60    4.80
   5  -5   7   10.10    5.20
   5  -5   7    5.10    4.10
  -5  -5  -7   15.30    5.20
  -5  -5  -7   11.90    4.80
   5   5   7   11.50    3.50
  -5   5  -7   12.30    3.90
  -6  -5  -7   10.70    4.70
   6  -5   7   17.30    6.20
   6  -5   7   10.40    5.20
  -6   5  -7   20.10    5.40
   6   5   7   13.10    3.90
   7  -5   7   20.00    8.00
  -7  -5  -7   10.10    4.80
  -7  -5  -7   24.90    6.60
  -7   5  -7   19.50    6.00
   7   5   7   13.90    4.20
  -8  -5  -7   15.20    5.90
   8  -5   7    4.40    5.20
  -8  -5  -7   12.00    6.20
  -8   5  -7   11.70    4.70
   8   5   7   10.60    4.10
 -10  -6   7    5.00    3.90
 -10  -6   7   -6.60   11.60
 -10  -6   7    2.00    3.80
 -10   6   7   -1.80    3.90
 -10   6   7    4.60    5.50
  10   6  -7   -2.80    5.10
  -9  -6   7   85.09    9.10
  -9  -6   7   98.49   12.30
  -9  -6   7  100.19   13.60
  -9   6   7   87.69   11.90
   9   6  -7   55.49   10.70
  -9   6   7   86.49   10.70
  -8  -6   7   47.20    9.70
  -8  -6   7   30.30    5.90
  -8  -6   7   31.90    7.80
   8   6  -7   40.00    9.10
  -8   6   7   40.00    8.70
  -8   6   7   29.40    7.10
  -7  -6   7    3.40    3.30
  -7  -6   7    4.70    2.10
   7  -6  -7    0.70    5.00
  -7  -6   7    3.00    3.40
  -7   6   7    0.10    4.30
  -7   6   7   -2.80    2.50
  -7   6   7    3.10    4.40
   7   6  -7    5.10    3.70
  -6  -6   7  508.75   28.80
  -6  -6   7  502.55   31.10
   6  -6  -7  437.16   28.60
  -6   6   7  518.05   30.40
  -6   6   7  442.96   28.90
   6   6  -7  578.84   32.60
  -6   6   7  524.05   29.70
   5  -6  -7    2.80    3.20
  -5  -6   7    4.80    3.40
  -5  -6   7    5.70    3.90
   5   6  -7    3.90    3.50
   5   6  -7    1.70    2.80
   5   6  -7   -0.80    1.30
  -5   6   7    1.60    2.30
  -5   6   7    1.90    3.40
  -5   6   7    1.60    2.60
  -4  -6   7  178.98   16.10
  -4  -6   7  196.78   14.10
   4  -6  -7  216.28   14.80
  -4   6   7  181.18   14.40
   4   6  -7  184.68   10.70
  -4   6   7  212.58   15.40
   4   6  -7  170.48   10.90
   4   6  -7  192.68   16.30
  -4   6   7  177.58   15.10
  -3  -6   7  461.55   29.90
  -3  -6   7  400.06   25.80
  -3  -6   7  437.86   22.80
  -3   6   7  384.96   23.40
  -3   6   7  415.26   24.70
   3   6  -7  425.76   25.60
   3   6  -7  371.56   18.50
  -3   6   7  404.26   23.60
   3   6  -7  394.76   19.10
   2  -6  -7  130.19   11.30
  -2  -6   7  134.19   10.10
  -2  -6   7  113.19   12.40
  -2  -6   7  130.79   13.20
   2   6  -7  119.09   12.30
  -2   6   7  140.79   11.30
   2   6  -7  134.59    8.10
  -2   6   7  123.49   11.90
  -2   6   7  146.09   11.80
   2   6  -7  135.59    8.00
  -1  -6   7  719.83   41.70
  -1  -6   7  741.63   39.20
   1  -6  -7  755.32   37.80
  -1  -6   7  724.43   33.10
   1   6  -7  736.13   30.90
   1   6  -7  742.23   33.80
   1   6  -7  752.22   38.60
  -1   6   7  711.13   37.00
   1   6  -7  731.53   30.80
  -1   6   7  687.33   35.60
  -1   6   7  705.93   34.60
   0  -6   7  114.29   12.20
   0  -6   7  101.49   11.30
   0  -6   7  109.09    7.80
   0  -6  -7   98.19   10.40
   0   6   7  101.39   10.00
   0   6  -7  111.29    7.20
   0   6  -7   96.59    6.90
   0   6   7  121.59    9.50
   0   6  -7  106.09    9.10
  -1  -6  -7  186.68   14.90
   1  -6   7  207.58   16.90
   1  -6   7  180.08   10.10
   1  -6   7  181.08   15.50
   1   6   7  183.48   12.30
  -1   6  -7  177.58   10.40
  -1   6  -7  170.08   10.60
  -1   6  -7  181.68   10.40
   1   6   7  197.38   14.30
   2  -6   7  270.47   14.30
   2  -6   7  250.77   19.40
   2  -6   7  268.67   20.40
  -2  -6  -7  269.67   18.90
  -2   6  -7  249.68   14.40
   2   6   7  266.47   17.90
   2   6   7  271.47   15.50
  -3  -6  -7   51.99    9.00
   3  -6   7   41.20    8.90
   3  -6   7   51.39    7.90
   3   6   7   53.09    8.90
   3   6   7   45.50    5.60
  -3   6  -7   55.19    6.00
   4  -6   7   33.70    8.80
   4  -6   7   26.30    7.60
  -4   6  -7   34.40    5.80
   4   6   7   32.00    5.60
   4   6   7   28.60    6.70
   5  -6   7    2.50    4.10
  -5  -6  -7   -1.70    3.10
  -5  -6  -7    2.90    3.40
   5   6   7   -0.80    1.90
   5   6   7    4.30    3.90
  -5   6  -7   -2.70    2.30
  -6  -6  -7    4.10    3.60
  -6  -6  -7    5.10    3.90
   6  -6   7    9.80    5.20
  -6   6  -7    3.30    4.40
   6   6   7    8.70    3.10
   7  -6   7    9.30    6.20
  -7  -6  -7    5.80    4.20
  -7  -6  -7    8.60    4.80
  -7   6  -7   10.00    4.90
   7   6   7    6.00    3.60
  -9  -7   7  170.88   13.90
  -9  -7   7  167.38   16.90
  -9   7   7  143.19   15.50
   9   7  -7  145.69   29.90
  -9   7   7  173.98   16.50
  -8  -7   7   40.30    7.90
  -8  -7   7   26.00    7.60
  -8  -7   7   34.30    6.10
  -8   7   7   18.20    6.30
   8   7  -7   19.10    6.80
  -8   7   7   40.30    9.00
   8   7  -7   26.40    5.90
  -7  -7   7  161.08   15.20
  -7  -7   7  175.88   16.90
  -7   7   7  167.98   15.80
   7   7  -7  173.08   17.40
   7   7  -7  161.08   11.90
  -7   7   7  176.38   16.10
  -6  -7   7   86.89   10.40
   6  -7  -7   44.60   14.10
  -6  -7   7   76.69   11.20
  -6   7   7   71.69   10.60
  -6   7   7   57.59   10.10
   6   7  -7   85.39   11.10
   6   7  -7   68.59    7.00
  -6   7   7   66.39   11.20
   5  -7  -7   24.00    6.60
  -5  -7   7   24.80   12.50
  -5  -7   7   26.90    6.20
   5   7  -7   25.50    6.70
  -5   7   7   24.80    6.20
  -5   7   7   23.30    6.60
  -5   7   7   22.20    6.30
   5   7  -7   22.80    5.80
   4  -7  -7  173.68   14.50
  -4  -7   7  171.58   13.80
  -4  -7   7  149.09   15.80
   4   7  -7  181.38   10.90
  -4   7   7  194.78   15.20
   4   7  -7  209.98   24.70
   4   7  -7  154.58   11.20
  -4   7   7  165.78   14.60
  -3  -7   7   -1.40    2.20
  -3  -7   7   -1.40    2.70
   3  -7  -7    1.20    2.70
   3   7  -7    2.30    2.10
  -3   7   7   -2.20    2.90
   3   7  -7   -2.30    2.70
  -3   7   7   -4.70    1.90
  -3   7   7    1.80    2.50
  -2  -7   7   16.80    4.10
   2  -7  -7   25.80    5.20
  -2  -7   7   11.60    5.00
  -2   7   7   26.60    6.00
   2   7  -7   20.20    6.60
  -2   7   7   18.50    5.80
   2   7  -7   16.80    3.40
   2   7  -7   12.10    3.90
  -2   7   7   10.50    4.70
  -1  -7   7   -1.40    2.60
   1  -7  -7   -3.10    2.50
  -1  -7   7   -1.70    1.30
   1   7  -7   -0.10    2.40
  -1   7   7   -1.40    2.40
   1   7  -7    0.70    2.20
  -1   7   7    2.30    2.00
   1   7  -7   -0.10    1.60
  -1   7   7    3.90    3.30
   0  -7   7   35.60    4.70
   0  -7   7   38.30    8.60
   0   7   7   33.20    6.40
   0   7  -7   37.10    4.50
   0   7  -7   33.30    5.20
   0   7   7   32.20    7.90
   0   7  -7   39.00    6.50
   1  -7   7   15.70    6.00
  -1  -7  -7   20.00    5.80
   1  -7   7   27.20    7.60
   1  -7   7   17.10    3.10
  -1   7  -7   22.70    4.20
   1   7   7   16.90    4.10
  -1   7  -7   22.40    3.70
   1   7   7   12.90    4.10
   2  -7   7  159.88   16.10
  -2  -7  -7  128.19   13.30
   2  -7   7  142.39   15.00
   2   7   7  144.89   13.00
  -2   7  -7  135.19    8.50
  -2   7  -7  149.39    8.20
   3  -7   7   56.79   11.70
   3  -7   7   86.89   12.50
  -3  -7  -7   94.09   10.80
   3   7   7   89.69    8.60
   3   7   7   80.99   10.10
  -3   7  -7   85.89    8.20
  -4  -7  -7   -0.20    3.30
   4  -7   7    3.30    4.70
  -4   7  -7    9.10    2.60
   4   7   7   -1.60    3.40
   4   7   7    0.10    2.20
  -5  -7  -7  178.68   16.20
   5  -7   7  204.98   20.00
   5   7   7  171.18   15.80
   5   7   7  170.78   13.20
  -5   7  -7  185.48   14.20
  -6  -7  -7   23.10    7.40
   6  -7   7   20.50    7.30
   6   7   7   28.70    7.70
  -6   7  -7   19.10    7.50
   6   7   7   19.00    5.20
  -8  -8   7   41.20   10.30
   8   8  -7   20.10    9.20
  -8   8   7   31.80    8.60
   8   8  -7   42.00   10.90
  -8   8   7   28.60    8.20
  -7  -8   7   43.30    9.20
  -7  -8   7   28.90    9.10
  -7   8   7   51.79   10.60
  -7   8   7   49.60    9.90
   7   8  -7   42.70    9.90
   7   8  -7   48.20    7.20
  -6  -8   7  165.68   14.90
  -6  -8   7  138.19   15.50
   6   8  -7  175.58   18.20
   6   8  -7  120.19   10.70
  -6   8   7  135.99   14.70
  -6   8   7  171.48   15.80
  -5  -8   7    5.30    4.20
  -5  -8   7   11.50    4.30
   5   8  -7    1.60    2.00
   5   8  -7    3.50    3.80
  -5   8   7    8.90    4.90
  -5   8   7    0.80    3.80
  -4  -8   7   84.09   11.70
  -4   8   7   75.69    9.90
  -4   8   7   66.09    9.90
   4   8  -7   70.19    6.70
   4   8  -7   58.89   11.00
  -4   8   7   63.09   11.00
  -3  -8   7   96.49    9.70
  -3  -8   7   72.99   11.00
  -3   8   7   81.49   10.10
   3   8  -7   58.79    6.60
   3   8  -7   76.09   11.00
  -3   8   7   90.09   11.40
  -3   8   7   76.99   10.30
  -2  -8   7   67.19    7.90
  -2  -8   7   70.49   10.00
   2   8  -7   64.99   11.80
  -2   8   7   67.89   11.30
  -2   8   7   57.39    8.80
  -2   8   7   80.79   10.00
  -1  -8   7  123.29   14.10
  -1  -8   7   94.59    8.60
  -1   8   7   97.59   11.20
  -1   8   7   98.29   10.70
  -1   8   7  102.29   11.10
   1   8  -7   90.99   11.20
   0  -8   7    2.10    4.40
   0  -8  -7    5.80    4.60
   0  -8   7    6.60    2.40
   0   8   7    0.30    2.80
   0   8  -7    4.60    3.50
   0   8   7    8.40    3.80
   1  -8   7  162.38   17.60
  -1  -8  -7  164.88   15.60
   1  -8   7  183.78   11.60
  -1   8  -7  187.68   12.20
   1   8   7  157.08   13.60
   1   8   7  188.88   15.70
   2  -8   7  121.49   15.40
  -2  -8  -7  101.79   12.30
   2   8   7   99.09   11.50
  -2   8  -7  100.29    7.60
  -2   8  -7  120.49    9.50
   3  -8   7   70.99   14.50
  -3  -8  -7   78.09   12.60
  -3   8  -7   71.09    7.80
   3   8   7   55.09    9.90
  -4  -8  -7  260.47   20.70
   4  -8   7  225.88   22.20
   4   8   7  242.58   19.60
   4   8   7  250.17   17.30
   5  -8   7    2.10    6.00
  -5  -8  -7   11.30    5.60
  -5   8  -7    3.30    4.20
   5   8   7    8.10    3.80
   5   8   7    7.30    3.70
  -6  -9   7   53.49    8.80
   6   9  -7   63.19   11.60
  -6   9   7   54.39   10.90
   6   9  -7   39.50    7.40
  -6   9   7   40.00    9.80
  -5  -9   7   91.89   10.50
  -5  -9   7   49.30   11.40
   5   9  -7   72.49    8.80
   5   9  -7   77.09   15.70
  -5   9   7   73.59   13.30
  -5   9   7   67.59   11.90
  -4  -9   7  267.47   22.50
   4   9  -7  197.88   20.00
  -4   9   7  212.18   18.90
  -4   9   7  201.58   18.20
   4   9  -7  200.78   13.80
  -3  -9   7   -0.40    3.40
  -3  -9   7    7.80    7.40
   3   9  -7   -1.80    3.10
   3   9  -7   -4.40    4.00
  -3   9   7   -4.60    3.10
  -3   9   7    1.90    3.80
  -2  -9   7  149.49   13.50
  -2  -9   7  216.88   19.90
   2   9  -7  167.98   12.20
  -2   9   7  171.18   16.30
  -2   9   7  183.48   16.30
  -1  -9   7    1.00    3.20
  -1  -9   7   14.80    5.90
   1   9  -7   -1.10    2.60
  -1   9   7    6.80    3.60
  -1   9   7   -1.30    3.00
   0  -9  -7   75.89   13.00
   0  -9   7   79.79    8.60
   0  -9   7   92.39   14.90
   0   9   7   89.39   10.90
   0   9  -7   83.29    8.40
   0   9   7   79.19   10.60
  -1  -9  -7  116.29   13.80
   1  -9   7  102.69    9.00
   1  -9   7  124.59   15.50
   1   9   7  117.49   13.00
  -1   9  -7   97.39    9.30
  -2  -9  -7   32.10    8.10
   2  -9   7   40.50   11.10
   2   9   7   26.30    7.50
  -2   9  -7   18.60    5.60
  -3  -9  -7  236.58   20.90
   3  -9   7  236.48   23.50
  -3   9  -7  246.48   17.30
 -13   0   8   74.69   12.10
  13   0  -8   84.09   16.20
 -12   0   8  237.98   19.40
  12   0  -8  297.37   24.20
 -12   0   8  266.27   21.50
  11   0  -8   18.90    5.60
 -11   0   8    9.90    5.90
 -11   0   8    8.60    3.80
  10   0  -8 1432.96   68.29
 -10   0   8 1427.66   66.59
 -10   0   8 1336.27   62.69
  -9   0   8    7.10    4.60
   9   0  -8    7.00    4.10
  -9   0   8    1.10    3.70
  -9   0   8    7.90    3.70
  -8   0   8    1.30    2.20
   8   0  -8    3.10    3.10
  -8   0   8   -4.20    2.70
  -8   0   8    3.00    2.70
  -7   0   8 2777.12  112.19
   7   0  -8 2761.72  112.99
  -7   0   8 2621.14  113.29
  -7   0   8 2694.93  108.39
  -6   0   8   49.40    7.90
  -6   0   8   41.10    7.40
  -6   0   8   44.30    4.80
   6   0  -8   43.80    6.40
   6   0  -8   39.70    4.60
   5   0  -8  978.90   51.49
  -5   0   8  907.91   38.60
  -5   0   8  865.51   42.20
   5   0  -8  899.21   38.10
  -5   0   8  913.01   42.10
   4   0  -8  154.48    8.60
  -4   0   8  168.58   11.70
  -4   0   8  159.88   11.60
   4   0  -8  138.39   10.70
  -4   0   8  152.78    8.90
   4   0  -8  154.58   10.70
   3   0  -8    5.10    2.70
  -3   0   8    4.40    1.70
   3   0  -8    8.90    3.10
   3   0  -8    5.10    1.60
  -3   0   8    3.60    1.80
  -3   0   8    6.10    2.70
  -2   0   8 3079.79  112.99
   2   0  -8 2572.64  111.59
  -2   0   8 2829.12  109.09
   2   0  -8 2937.31  110.19
  -2   0   8 2751.62  111.59
  -2   0   8 2918.41  109.09
   1   0  -8 1019.80   42.80
  -1   0   8 1035.40   43.10
  -1   0   8 1010.80   42.30
  -1   0   8 1064.29   40.70
  -1   0   8 1046.40   40.80
  -1   0   8  935.11   42.90
   0   0   8 1436.06   55.89
   0   0   8 1407.86   56.29
   0   0   8 1407.16   57.29
   0   0   8 1391.16   56.99
   0   0   8 1437.46   55.69
   0   0   8 1379.16   56.49
   1   0   8  180.98   10.20
  -1   0  -8  191.48   10.10
   1   0   8  172.88   10.30
   1   0   8  175.98   10.10
   1   0   8  196.38   13.00
   1   0   8  187.78    9.90
   2   0   8 1156.48   46.40
   2   0   8 1033.60   46.30
   2   0   8 1203.18   48.00
  -2   0  -8 1199.68   47.50
   2   0   8 1124.49   46.70
   2   0   8 1147.59   47.10
  -3   0  -8 2848.62  110.29
   3   0   8 2935.51  110.19
   3   0   8 2831.82  108.29
   3   0   8 2754.32  110.59
   3   0   8 2595.84  108.09
  -4   0  -8  163.58   11.20
   4   0   8  154.98    9.10
   4   0   8  164.38   11.10
   4   0   8  156.88    9.00
   5   0   8 1294.57   55.99
  -5   0  -8 1289.17   55.69
   5   0   8 1251.77   51.69
   6   0   8  594.94   27.00
  -6   0  -8  624.14   26.90
  -6   0  -8  637.84   31.80
   6   0   8  611.94   32.10
  -7   0  -8  186.98   10.30
   7   0   8  170.68   10.30
   7   0   8  159.78   14.30
  -7   0  -8  198.78   14.80
  -8   0  -8  744.23   33.20
   8   0   8  803.92   41.70
  -8   0  -8  835.02   41.10
  -9   0  -8    7.50    4.80
   9   0   8    2.80    4.20
 -13  -1   8    3.80    4.20
 -13   1   8    5.80    4.40
  13   1  -8   -2.70    7.20
 -13   1   8   14.10    7.10
  12  -1  -8   -7.80    5.90
 -12  -1   8    7.70    4.80
 -12  -1   8    2.50    4.90
  12   1  -8    6.70    5.70
 -12   1   8   -6.00    3.80
 -12   1   8    5.60    4.30
 -11  -1   8  303.97   22.90
 -11  -1   8  286.57   28.60
  11  -1  -8  306.87   25.20
 -11   1   8  308.87   21.60
  11   1  -8  309.57   25.10
 -11   1   8  312.67   23.20
 -10  -1   8   44.60    7.80
  10  -1  -8   48.20   10.50
 -10  -1   8   54.79   10.00
  10   1  -8   36.50    7.90
 -10   1   8   45.90    9.50
 -10   1   8   40.40    7.80
  -9  -1   8  423.26   22.20
  -9  -1   8  330.27   24.30
  -9  -1   8  390.76   24.50
   9  -1  -8  364.56   25.10
  -9   1   8  368.36   23.80
   9   1  -8  381.06   25.20
  -9   1   8  348.67   21.60
  -9   1   8  314.37   24.00
  -8  -1   8  112.99   11.90
  -8  -1   8  116.19   11.40
  -8  -1   8  119.09    9.50
  -8   1   8   94.49   10.90
  -8   1   8   82.39   10.20
   8   1  -8  103.19   11.50
  -8   1   8  112.09   10.10
   7  -1  -8   32.50    6.80
  -7  -1   8   26.20    4.70
  -7  -1   8   33.70    7.80
  -7  -1   8   17.50    5.20
   7   1  -8   26.40    4.60
  -7   1   8   20.80    5.60
   7   1  -8   24.20    5.50
  -7   1   8   21.10    5.70
  -7   1   8   32.60    5.70
   6  -1  -8 2112.09   88.89
  -6  -1   8 2115.09   93.79
  -6  -1   8 2300.87   88.79
  -6  -1   8 2226.08   92.89
  -6   1   8 2306.67   90.19
   6   1  -8 2287.17   93.49
  -6   1   8 2171.98   93.59
   6   1  -8 2234.38   88.09
  -6   1   8 2289.17   93.19
  -5  -1   8  103.69    7.00
   5  -1  -8   99.29    8.70
  -5  -1   8  112.39    9.60
  -5  -1   8   97.49   10.00
   5  -1  -8  109.99    9.30
   5   1  -8  103.69    6.80
  -5   1   8  111.99    8.10
  -5   1   8  110.19    9.90
   5   1  -8   87.39    8.80
  -5   1   8  114.39    9.80
  -4  -1   8   29.50    5.40
  -4  -1   8   28.30    5.30
  -4  -1   8   29.90    3.00
   4  -1  -8   24.60    3.20
   4  -1  -8   27.00    4.60
   4   1  -8   31.70    2.90
  -4   1   8   23.90    5.70
  -4   1   8   31.20    5.50
   4   1  -8   34.50    5.70
  -4   1   8   28.60    3.60
   4   1  -8   23.30    4.60
   3  -1  -8 1307.77   59.69
  -3  -1   8 1487.65   60.99
   3  -1  -8 1498.85   58.09
   3  -1  -8 1456.85   57.59
  -3  -1   8 1383.06   59.99
  -3  -1   8 1513.15   55.49
  -3   1   8 1491.05   59.99
  -3   1   8 1479.05   60.99
   3   1  -8 1516.35   59.69
   3   1  -8 1324.37   59.39
   3   1  -8 1426.66   55.29
  -3   1   8 1346.57   57.59
  -2  -1   8   76.19    3.70
  -2  -1   8   76.49    3.70
  -2  -1   8   84.09    7.10
  -2  -1   8   78.19    6.70
   2  -1  -8   65.89    6.50
   2  -1  -8   83.69    4.70
   2   1  -8   97.09    7.10
  -2   1   8   77.69    6.30
  -2   1   8   77.09    5.60
  -2   1   8   79.49    7.00
  -2   1   8   70.69    6.80
  -2   1   8   80.99    5.80
  -1  -1   8  837.32   33.20
  -1  -1   8  731.83   29.10
  -1  -1   8  753.92   29.30
  -1  -1   8  764.22   33.50
  -1  -1   8  744.03   33.50
  -1   1   8  806.72   35.50
  -1   1   8  749.92   31.70
  -1   1   8  771.12   31.90
   1   1  -8  676.93   32.10
  -1   1   8  722.73   31.40
   1   1  -8  751.92   32.10
   0  -1   8    0.90    0.80
   0  -1   8    1.70    1.10
   0  -1   8    1.40    1.20
   0  -1   8    1.80    1.30
   0  -1   8    2.20    1.50
   0  -1   8    1.40    1.30
   0   1   8    2.60    1.40
   0   1   8    4.10    1.60
   0   1   8    3.60    1.20
   0   1   8    3.10    1.70
   0   1   8    1.90    1.30
   1  -1   8  162.18    9.00
  -1  -1  -8  164.58   10.10
   1  -1   8  168.28    9.10
   1  -1   8  169.18    8.90
   1  -1   8  164.98   10.40
   1  -1   8  183.08   10.90
   1   1   8  171.58   10.30
   1   1   8  164.38   10.50
   1   1   8  173.88    8.30
   1   1   8  176.18    8.20
  -1   1  -8  179.98    9.00
   1   1   8  177.58   10.50
  -2  -1  -8  718.83   31.70
   2  -1   8  721.23   31.60
   2  -1   8  661.93   31.40
   2  -1   8  690.53   28.70
   2  -1   8  711.03   32.00
   2  -1   8  738.53   30.80
   2   1   8  677.73   29.10
   2   1   8  682.53   31.90
   2   1   8  683.13   31.00
   2   1   8  719.13   29.10
   2   1   8  800.92   31.90
  -2   1  -8  711.93   30.40
   3  -1   8    0.30    0.80
   3  -1   8    3.30    1.80
  -3  -1  -8    2.30    1.80
   3  -1   8    2.10    1.00
   3  -1   8    2.80    1.70
  -3  -1  -8    1.60    1.90
   3   1   8    2.60    1.50
  -3   1  -8    2.20    1.80
   3   1   8    3.50    2.30
   4  -1   8  585.44   21.80
   4  -1   8  555.34   28.20
  -4  -1  -8  552.04   25.80
  -4  -1  -8  563.64   27.50
   4  -1   8  529.45   29.30
   4   1   8  530.45   25.70
   4   1   8  553.94   26.10
  -4   1  -8  578.24   27.00
  -5  -1  -8   78.69    8.10
  -5  -1  -8   71.69    6.40
   5  -1   8   79.49    8.70
   5   1   8   77.39    7.30
  -5   1  -8   75.29    7.50
   5   1   8   77.99    7.50
  -6  -1  -8   13.40    3.30
   6  -1   8   15.30    4.80
  -6  -1  -8   11.80    4.40
   6   1   8   18.60    3.80
   6   1   8   14.50    4.40
  -6   1  -8   22.00    5.50
  -7  -1  -8  175.38   11.30
   7  -1   8  188.88   15.90
  -7  -1  -8  167.18   14.00
   7   1   8  142.69   13.10
   7   1   8  181.28   12.40
  -7   1  -8  183.48   14.40
   8  -1   8    6.10    3.90
  -8  -1  -8    1.50    3.70
  -8   1  -8    6.20    3.80
   8   1   8   -1.60    2.50
  -9  -1  -8    6.60    3.70
  -9  -1  -8   12.70    5.90
   9  -1   8    3.20    4.40
  -9   1  -8   18.80    5.80
   9   1   8    5.50    4.10
 -12  -2   8   30.60    7.70
  12  -2  -8   29.40   11.80
 -12  -2   8   48.50   10.10
 -12   2   8   24.70    8.80
  12   2  -8   64.69   13.50
 -12   2   8   37.20    7.20
  11  -2  -8    3.40    5.00
 -11  -2   8    0.90    4.70
 -11   2   8   -2.30    3.00
  11   2  -8    7.90    5.50
 -11   2   8    4.80    4.60
 -10  -2   8  402.06   27.00
  10  -2  -8  441.26   29.40
 -10  -2   8  435.16   24.70
 -10   2   8  393.86   28.30
 -10   2   8  425.16   30.00
 -10   2   8  443.96   27.60
  10   2  -8  403.96   28.20
   9  -2  -8    8.20    5.20
  -9  -2   8    3.10    2.80
  -9  -2   8    4.70    3.90
  -9   2   8    4.00    3.80
  -9   2   8    4.70    4.10
   9   2  -8    0.90    3.40
  -9   2   8   -1.10    3.20
  -8  -2   8    7.80    4.00
   8  -2  -8   14.10    5.40
  -8  -2   8    3.10    3.20
  -8  -2   8    0.20    2.70
   8   2  -8   12.40    4.70
  -8   2   8    7.50    4.50
  -8   2   8    8.00    3.70
  -8   2   8    7.60    4.40
  -7  -2   8  682.03   34.10
  -7  -2   8  649.24   29.80
  -7  -2   8  584.04   34.60
  -7   2   8  654.93   33.80
   7   2  -8  672.93   35.10
  -7   2   8  643.74   36.10
   7   2  -8  634.64   29.40
  -7   2   8  623.94   31.60
  -6  -2   8   41.60    7.30
  -6  -2   8   32.20    6.80
   6  -2  -8   47.10    8.00
  -6  -2   8   30.70    3.90
  -6   2   8   46.30    8.10
   6   2  -8   28.90    5.70
  -6   2   8   36.20    6.80
  -6   2   8   34.90    5.80
   6   2  -8   30.80    4.00
   5  -2  -8  233.78   15.00
   5  -2  -8  237.68   13.60
  -5  -2   8  232.98   15.40
  -5  -2   8  222.58   16.30
  -5  -2   8  246.48   11.80
   5   2  -8  236.08   11.50
   5   2  -8  220.08   15.50
  -5   2   8  207.48   15.20
  -5   2   8  209.08   15.10
  -5   2   8  231.98   13.90
  -4  -2   8   18.70    3.40
  -4  -2   8   22.70    5.20
  -4  -2   8   16.00    4.10
   4  -2  -8   21.00    4.00
   4  -2  -8   19.30    3.80
   4   2  -8   16.90    4.40
   4   2  -8   25.00    5.40
  -4   2   8   27.20    5.40
  -4   2   8   17.00    4.00
  -4   2   8   24.80    4.30
  -3  -2   8  111.89    9.00
  -3  -2   8  121.79   10.10
   3  -2  -8  126.19    7.70
  -3   2   8  118.99    8.40
   3   2  -8  110.39   11.60
   3   2  -8  154.38    9.90
  -3   2   8  130.59   11.60
  -3   2   8   99.89    8.40
  -2  -2   8  200.28   13.40
  -2  -2   8  200.58   12.20
  -2  -2   8  210.78   13.60
  -2   2   8  228.08   13.80
  -2   2   8  238.08   12.20
   2   2  -8  194.48   12.50
  -2   2   8  201.08   11.60
  -2   2   8  211.08   11.80
  -2   2   8  213.38   13.10
   2   2  -8  171.78   11.50
  -1  -2   8  103.59    8.50
  -1  -2   8   98.29    8.50
  -1  -2   8   98.89    7.20
  -1   2   8   98.69    7.20
   1   2  -8  114.09    8.20
  -1   2   8  110.99    6.50
  -1   2   8   91.99    8.10
   1   2  -8  107.99    7.20
  -1   2   8   97.69    7.30
  -1   2   8  103.09    8.20
   0  -2   8   83.39    5.60
   0  -2   8   69.69    6.70
   0  -2   8   72.49    7.00
   0   2   8   72.59    4.10
   0   2  -8   73.99    5.30
   0   2   8   71.89    6.60
   0   2   8   72.19    6.40
   0   2   8   73.39    6.20
   0   2   8   80.69    7.10
   1  -2   8   18.60    4.10
   1  -2   8   12.20    2.10
   1  -2   8   17.40    4.10
   1   2   8   16.10    3.70
   1   2   8   13.40    3.40
  -1   2  -8   13.50    2.10
   1   2   8   15.20    3.60
   1   2   8    9.50    3.00
  -2  -2  -8  139.09    9.80
  -2  -2  -8  133.49    9.50
   2  -2   8  119.39    9.80
   2  -2   8  126.39    9.70
   2  -2   8  113.19    7.70
   2   2   8  128.59    9.20
  -2   2  -8  150.48    8.20
   3  -2   8  167.28   10.30
   3  -2   8  162.88   11.90
  -3  -2  -8  176.38   11.90
   3  -2   8  166.78   12.50
  -3  -2  -8  169.38   11.30
   3   2   8  175.08    9.00
   3   2   8  173.58   11.40
  -3   2  -8  166.38   10.40
  -4  -2  -8   33.50    6.10
   4  -2   8   29.90    4.60
   4  -2   8   30.90    6.40
  -4  -2  -8   27.40    4.60
   4  -2   8   19.60    4.30
   4   2   8   28.20    3.70
  -4   2  -8   26.50    4.80
  -5  -2  -8  137.69   11.40
   5  -2   8  121.89   11.80
  -5  -2  -8  143.49   10.60
  -5   2  -8  150.68   11.10
   5   2   8  128.19    9.60
  -6  -2  -8    4.90    3.10
  -6  -2  -8    5.40    2.70
   6  -2   8    1.40    2.80
   6   2   8    0.30    2.00
  -6   2  -8    5.70    3.30
   7  -2   8   19.40    6.70
  -7  -2  -8   24.10    4.60
  -7  -2  -8   32.50    6.80
  -7   2  -8   29.70    6.60
   7   2   8   21.30    5.10
  -8  -2  -8    3.10    2.30
   8  -2   8    9.30    5.70
  -8  -2  -8    7.20    4.60
  -8   2  -8    9.20    5.00
   8   2   8    6.60    3.20
  -9  -2  -8    6.40    4.70
   9  -2   8    3.90    4.20
  -9  -2  -8   11.90    4.70
   9   2   8    6.70    4.60
  -9   2  -8   13.20    5.70
 -12  -3   8   15.30    5.80
 -12  -3   8   26.80    8.20
 -12   3   8   29.80    8.90
 -12   3   8   23.00    8.80
  12   3  -8   19.80    9.30
  11  -3  -8   71.19   13.90
 -11  -3   8   61.59    9.80
 -11  -3   8   51.49   10.10
  11   3  -8   42.90    8.90
 -11   3   8   50.09   10.00
 -11   3   8   54.29   10.50
 -10  -3   8   14.60    5.80
  10  -3  -8   31.50    7.80
 -10  -3   8   19.50    5.50
 -10   3   8    6.30    4.40
 -10   3   8    9.40    8.00
 -10   3   8   17.80    6.10
  10   3  -8   23.60    7.40
  -9  -3   8  105.59   13.90
   9  -3  -8  175.08   22.70
  -9  -3   8  113.79    9.90
  -9   3   8  121.99   12.00
  -9   3   8  102.09   12.10
   9   3  -8  110.79   12.60
  -9   3   8   81.19   11.30
  -8  -3   8   30.80    5.10
  -8  -3   8   22.70    6.70
   8  -3  -8   18.20    5.90
   8   3  -8   23.70    7.10
  -8   3   8   34.20    7.10
  -8   3   8   25.60    6.80
  -8   3   8   26.60    6.40
  -7  -3   8   -3.60    2.30
  -7  -3   8    6.20    3.50
   7   3  -8    1.30    2.20
  -7   3   8   -3.90    1.80
  -7   3   8   -2.80    1.90
  -7   3   8    4.50    3.80
   7   3  -8    0.00    2.60
  -6  -3   8  153.98   12.80
  -6  -3   8  161.18    9.70
  -6  -3   8  159.18   14.20
   6  -3  -8  157.88   13.10
  -6   3   8  161.68   12.20
   6   3  -8  152.18    9.50
  -6   3   8  147.29   12.70
   6   3  -8  175.78   14.30
  -6   3   8  166.08   13.60
  -5  -3   8   20.40    5.40
  -5  -3   8   35.30    3.30
  -5  -3   8   29.30    5.80
  -5   3   8   17.60    4.50
   5   3  -8   27.90    3.20
  -5   3   8   38.70    7.20
  -5   3   8   30.30    5.40
   5   3  -8   28.40    5.60
   4  -3  -8   49.80    5.60
  -4  -3   8   48.00    3.10
  -4  -3   8   43.30    7.80
  -4  -3   8   55.69    9.20
  -4   3   8   50.59    6.40
  -4   3   8   50.89    5.90
   4   3  -8   45.50    6.50
  -4   3   8   47.20    7.70
   4   3  -8   44.90    3.10
  -3  -3   8    9.50    3.10
   3  -3  -8    3.60    1.70
  -3  -3   8   11.70    4.10
  -3  -3   8    6.70    3.10
   3   3  -8    3.20    2.30
  -3   3   8    8.70    2.90
  -3   3   8    5.90    3.00
  -3   3   8    6.60    2.50
   3   3  -8    1.20    1.80
  -2  -3   8   48.20    6.40
  -2  -3   8   66.29    9.60
  -2  -3   8   47.70    5.30
  -2   3   8   48.00    4.90
  -2   3   8   53.29    5.40
   2   3  -8   62.79    5.70
  -2   3   8   47.30    5.30
  -2   3   8   59.79    6.70
  -1  -3   8  179.48   10.90
  -1  -3   8  199.38   13.70
  -1  -3   8  207.28   14.20
  -1   3   8  201.88   12.30
   1   3  -8  195.88   13.10
  -1   3   8  224.98   10.90
   1   3  -8  185.48   11.10
  -1   3   8  197.18   12.30
  -1   3   8  207.28   13.70
   0  -3   8   60.79    4.80
   0  -3   8   65.89    7.10
   0  -3   8   66.59    7.40
   0   3   8   50.09    6.20
   0   3   8   69.29    6.40
   0   3  -8   62.39    4.90
   0   3   8   80.59    4.50
   1  -3   8   51.49    6.30
  -1  -3  -8   48.00    6.00
   1  -3   8   47.90    6.30
   1  -3   8   49.60    3.10
   1   3   8   43.60    5.30
   2  -3   8   70.49    5.40
  -2  -3  -8   88.09    8.10
   2  -3   8   81.29    8.60
  -2  -3  -8   76.49    7.40
   2  -3   8   63.99    7.40
  -2   3  -8   72.59    5.40
  -3  -3  -8   12.30    4.00
  -3  -3  -8   14.60    4.10
   3  -3   8   12.70    4.20
   3  -3   8   11.80    2.40
   3  -3   8   10.40    4.20
   3   3   8    9.60    1.80
  -3   3  -8   11.30    2.90
   4  -3   8  108.29    8.50
   4  -3   8  104.09   10.20
  -4  -3  -8  101.49    9.70
  -4  -3  -8  113.09    9.70
   4  -3   8  128.79   12.10
  -4   3  -8  105.19    8.50
   4   3   8  118.69    7.40
  -5  -3  -8  107.49   10.60
   5  -3   8  109.79   10.90
  -5  -3  -8  110.69    9.90
   5  -3   8  132.79   12.80
   5   3   8  112.69    8.40
  -5   3  -8  117.09    9.70
   6  -3   8   38.80    8.40
  -6  -3  -8   46.10    8.70
   6  -3   8   41.00    8.10
  -6  -3  -8   39.00    6.40
  -6   3  -8   39.40    6.60
   6   3   8   49.80    5.90
   7  -3   8   10.30    4.90
  -7  -3  -8   12.30    4.30
  -7  -3  -8    6.70    4.00
  -7   3  -8   15.60    4.50
   7   3   8   11.10    3.60
   8  -3   8  104.09   13.70
  -8  -3  -8  118.79   12.50
  -8  -3  -8  108.09   10.50
   8   3   8  111.19   10.80
  -8   3  -8  104.09   11.20
  -9  -3  -8   23.40    7.30
  -9   3  -8   32.30    7.00
   9   3   8   34.60    7.80
 -12  -4   8    9.70    4.10
 -12  -4   8   -1.40    5.90
 -12   4   8    4.40    5.30
  12   4  -8   13.50    8.70
 -12   4   8    1.70    3.70
 -11  -4   8   17.90    5.40
 -11  -4   8   27.10    7.90
 -11   4   8   29.30    8.20
  11   4  -8   31.90    8.80
  10  -4  -8   88.49   15.90
 -10  -4   8   86.99   11.90
 -10  -4   8  107.79   10.30
 -10   4   8   95.99   11.20
  10   4  -8   88.29   15.30
 -10   4   8  102.59   12.30
  -9  -4   8    3.60    4.50
  -9  -4   8    4.90    2.80
   9  -4  -8    5.60    3.90
  -9   4   8    4.20    3.30
  -9   4   8    2.70    3.50
   9   4  -8    2.00    3.20
  -9   4   8    3.70    4.00
  -8  -4   8  124.39   12.60
  -8  -4   8  120.19    9.10
  -8   4   8  113.49   12.00
  -8   4   8  108.19   11.40
   8   4  -8  136.89   13.60
  -8   4   8  115.19   12.70
  -7  -4   8   94.89   10.30
   7  -4  -8   86.39   10.20
  -7  -4   8   87.49    7.10
  -7   4   8   79.49   10.30
   7   4  -8   81.89   10.00
  -7   4   8   89.59    9.50
  -7   4   8   80.09   10.20
   7   4  -8   81.09    7.60
  -6  -4   8  224.88   12.00
  -6  -4   8  211.88   17.80
   6  -4  -8  211.08   16.00
  -6  -4   8  231.18   20.60
  -6  -4   8  225.28   16.00
   6   4  -8  211.28   16.80
   6   4  -8  229.68   12.40
  -6   4   8  210.48   15.30
  -6   4   8  210.28   16.40
  -6   4   8  208.08   16.40
   5  -4  -8   67.99    8.00
  -5  -4   8   74.89    9.30
  -5  -4   8   79.39   17.30
  -5  -4   8   85.49    8.50
  -5  -4   8   80.39    5.50
   5   4  -8   67.89    8.90
  -5   4   8   75.69    8.70
  -5   4   8   73.39    7.90
  -5   4   8   76.19    9.00
   5   4  -8   77.49    5.60
   4  -4  -8   63.39    6.70
  -4  -4   8   53.59    8.00
  -4  -4   8   60.29    7.00
  -4  -4   8   70.39   14.40
  -4   4   8   52.09    7.20
  -4   4   8   64.89    7.40
  -4   4   8   55.39    6.70
   4   4  -8   70.29    8.40
  -3  -4   8  437.26   26.30
  -3  -4   8  440.16   25.80
  -3  -4   8  418.56   22.60
   3  -4  -8  426.46   20.80
  -3   4   8  468.75   25.30
  -3   4   8  457.45   23.50
   3   4  -8  463.65   25.20
  -2  -4   8   97.99   10.00
  -2  -4   8  108.89   10.50
  -2  -4   8  101.89    7.90
   2   4  -8   82.09    8.60
  -2   4   8   89.29    9.00
  -2   4   8   96.89    7.80
   2   4  -8   77.19    7.30
  -2   4   8  100.69    8.50
  -1  -4   8   26.00    6.00
  -1  -4   8   32.80    4.00
  -1  -4   8   39.40    7.70
   1   4  -8   26.90    4.60
  -1   4   8   38.30    6.60
   1   4  -8   22.80    5.10
  -1   4   8   26.50    3.50
  -1   4   8   25.80    5.10
   0  -4   8   53.79    7.30
   0  -4   8   50.39    4.50
   0  -4  -8   59.59    7.00
   0  -4   8   62.69    7.70
   0   4   8   57.89    7.10
   0   4   8   61.19    4.70
   0   4   8   53.69    6.30
   0   4  -8   50.39    4.60
   1  -4   8   40.90    2.90
   1  -4   8   41.60    3.20
  -1  -4  -8   45.50    7.40
   1  -4   8   30.50    5.90
   1  -4   8   45.10    6.90
  -1   4  -8   48.10    3.10
   1   4   8   38.10    6.30
  -1   4  -8   41.80    3.40
   2  -4   8  110.99   10.80
   2  -4   8   95.09    6.50
   2  -4   8  103.19   10.40
  -2  -4  -8  111.29    9.90
  -2   4  -8   98.29    6.80
   2   4   8  107.79    9.40
   2   4   8  104.69    6.00
   3  -4   8    6.20    3.90
   3  -4   8    2.00    2.70
   3  -4   8    7.20    2.60
  -3  -4  -8    5.70    3.00
  -3  -4  -8    6.90    3.50
   3   4   8    6.50    1.90
  -3   4  -8    7.50    2.40
  -4  -4  -8   80.49    9.00
   4  -4   8   63.99    9.00
  -4  -4  -8   79.39    8.60
   4  -4   8   90.39   11.10
   4  -4   8   75.79    8.10
   4   4   8   79.19    6.10
  -4   4  -8   87.39    7.50
   5  -4   8   13.00    5.60
  -5  -4  -8   22.60    5.80
  -5  -4  -8   27.10    6.20
   5   4   8   28.00    5.20
  -5   4  -8   19.80    4.30
  -6  -4  -8   -1.40    2.60
  -6  -4  -8    5.50    4.00
   6  -4   8    3.30    3.30
   6  -4   8    4.70    3.10
  -6   4  -8    0.70    2.50
   6   4   8   -0.60    1.50
   7  -4   8  127.69   14.90
  -7  -4  -8  124.89   11.80
  -7  -4  -8  130.19   13.10
   7   4   8  130.89   10.90
  -7   4  -8  126.49   11.90
  -8  -4  -8   47.70    9.90
  -8  -4  -8   30.20    6.80
   8  -4   8   49.00   11.20
  -8   4  -8   35.40    7.90
   8   4   8   39.40    7.60
 -11  -5   8   39.30    8.00
 -11  -5   8   66.19   13.60
 -11   5   8   45.40    7.90
  11   5  -8   58.19   14.00
 -11   5   8   47.10   10.30
 -10  -5   8   97.39    9.90
 -10  -5   8  101.89   12.60
 -10  -5   8  102.69   13.00
 -10   5   8   91.39   11.60
  10   5  -8  106.39   17.90
 -10   5   8   88.59   13.80
   9  -5  -8   58.19   12.60
  -9  -5   8   81.79   10.90
  -9  -5   8   86.09   12.50
  -9  -5   8   77.69    8.00
  -9   5   8   71.69   11.60
  -9   5   8   79.39   10.20
   9   5  -8   74.99   10.90
  -8  -5   8  113.49   12.20
  -8  -5   8  120.39    9.00
  -8  -5   8  110.99   12.80
  -8   5   8  112.09   12.00
  -8   5   8  102.49   13.20
  -8   5   8  123.29   12.40
   8   5  -8  103.79   12.10
  -7  -5   8    1.80    3.70
   7  -5  -8    8.30    4.70
  -7  -5   8    8.60    4.30
  -7  -5   8   13.30    3.10
   7   5  -8    6.90    3.10
  -7   5   8    7.80    4.30
  -7   5   8    5.60    3.50
  -7   5   8    4.50    4.00
  -6  -5   8  240.48   19.40
  -6  -5   8  241.18   13.20
  -6  -5   8  236.28   17.20
   6   5  -8  255.77   19.10
  -6   5   8  234.18   17.10
  -6   5   8  264.37   18.80
  -6   5   8  211.48   17.30
  -5  -5   8   29.60    7.20
  -5  -5   8   38.30    7.50
   5  -5  -8   40.30    6.90
  -5  -5   8   46.40    7.60
  -5   5   8   49.40    7.40
  -5   5   8   56.69    8.80
   5   5  -8   39.40    7.90
   5   5  -8   39.70    3.90
  -5   5   8   45.60    8.40
   5   5  -8   51.49    4.90
  -4  -5   8  196.58   16.40
  -4  -5   8  192.48   13.40
  -4  -5   8  172.28   15.40
   4  -5  -8  175.08   12.60
  -4   5   8  210.08   14.60
   4   5  -8  187.28    9.70
   4   5  -8  195.18   15.80
  -4   5   8  188.18   14.20
  -4   5   8  172.48   14.70
   4   5  -8  200.68    9.60
  -3  -5   8  656.53   34.90
  -3  -5   8  686.13   35.50
   3  -5  -8  609.04   33.90
  -3  -5   8  630.94   30.60
   3   5  -8  637.94   33.70
  -3   5   8  617.34   31.20
  -3   5   8  607.84   31.50
  -3   5   8  606.34   33.00
   3   5  -8  648.74   25.60
  -2  -5   8  125.49   12.20
  -2  -5   8  138.59   13.00
  -2  -5   8  126.49    9.60
  -2   5   8  141.19   12.20
   2   5  -8  116.59    5.50
   2   5  -8  142.29    5.80
   2   5  -8  124.09    9.90
  -2   5   8  130.89   10.10
   2   5  -8  135.09   12.20
  -2   5   8  127.59   10.70
  -1  -5   8  173.18   10.80
  -1  -5   8  158.78   14.30
  -1  -5   8  169.08   14.30
  -1   5   8  152.38   13.10
   1   5  -8  184.68    7.50
   1   5  -8  178.48    7.50
   1   5  -8  177.38   14.20
  -1   5   8  168.08   12.70
  -1   5   8  180.48   11.40
   0  -5   8  420.56   25.60
   0  -5   8  414.46   19.20
   0  -5   8  395.56   24.50
   0  -5  -8  430.06   24.60
   0   5   8  391.26   23.80
   0   5   8  439.86   20.50
   0   5  -8  388.46   19.10
   0   5   8  415.86   23.00
   1  -5   8  331.17   21.50
   1  -5   8  336.47   15.00
  -1  -5  -8  328.67   20.80
   1  -5   8  321.37   15.00
   1  -5   8  334.87   22.30
  -1   5  -8  320.17   14.70
  -1   5  -8  340.77   15.40
   1   5   8  312.27   19.50
   1   5   8  337.77   16.70
   2  -5   8  155.58    9.60
   2  -5   8  168.48   14.50
  -2  -5  -8  162.38   13.70
   2  -5   8  172.88   15.00
   2   5   8  190.98   13.90
  -2   5  -8  194.38   10.50
   3  -5   8    1.30    1.90
  -3  -5  -8    2.00    2.70
   3  -5   8    0.40    2.70
   3  -5   8   -0.40    2.70
   3   5   8   -0.40    2.50
   3   5   8   -0.20    1.10
  -3   5  -8    2.10    1.40
   4  -5   8  155.98   15.60
  -4  -5  -8  171.88   14.20
   4  -5   8  164.68   15.00
  -4  -5  -8  220.18   18.30
   4   5   8  167.28   11.00
   4   5   8  172.68   16.50
  -4   5  -8  162.98   11.80
   5  -5   8   35.30    9.90
   5  -5   8   14.40    5.10
  -5  -5  -8   25.30    6.30
  -5  -5  -8   32.60    7.20
  -5   5  -8   19.20    4.70
   5   5   8   26.20    4.70
  -6  -5  -8   58.09    9.80
   6  -5   8   56.09   10.80
  -6  -5  -8   56.89    9.10
  -6   5  -8   57.59    8.80
   6   5   8   67.59    6.90
  -7  -5  -8  121.69   12.90
   7  -5   8  139.19   16.50
  -7  -5  -8  110.69   12.80
   7   5   8  140.79   11.20
  -7   5  -8  131.59   12.60
  -8  -5  -8   20.90    7.50
   8  -5   8   27.10    9.10
  -8  -5  -8   17.90    6.60
   8   5   8   22.60    5.60
  -8   5  -8   27.90    7.50
 -10  -6   8   76.29    9.50
 -10  -6   8   81.49   15.70
 -10  -6   8   55.49   10.60
 -10   6   8   90.59   11.20
 -10   6   8   77.19   13.10
  -9  -6   8   41.50    9.40
  -9  -6   8   33.50    6.60
   9   6  -8   31.00    8.30
  -9   6   8   35.00    8.20
  -9   6   8   33.80    8.90
  -8  -6   8  186.08   16.60
  -8  -6   8  175.08   17.60
  -8  -6   8  211.38   13.00
  -8   6   8  172.08   15.80
   8   6  -8  170.78   17.50
  -8   6   8  181.38   16.70
  -7  -6   8   91.19   10.80
   7  -6  -8   92.39   12.70
  -7  -6   8  105.59   13.00
  -7  -6   8   83.49    7.60
   7   6  -8  126.59   13.50
  -7   6   8  109.39   11.80
  -7   6   8   75.19   15.60
  -7   6   8   89.99   11.10
   6  -6  -8   14.70    4.90
  -6  -6   8   21.20    6.50
  -6  -6   8   26.60    6.50
   6   6  -8   24.30    4.80
  -6   6   8   19.10    5.40
   6   6  -8   24.90    6.70
  -6   6   8   24.20    6.60
   6   6  -8   30.20    3.80
  -5  -6   8  404.06   27.00
   5  -6  -8  392.96   23.70
  -5  -6   8  425.56   24.30
   5   6  -8  404.16   18.90
   5   6  -8  362.16   19.00
  -5   6   8  410.46   25.70
  -5   6   8  417.26   25.10
   5   6  -8  377.26   25.80
  -5   6   8  394.76   24.30
   4  -6  -8  168.08   12.90
  -4  -6   8  180.58   16.20
  -4  -6   8  177.88   13.40
  -4   6   8  143.99   13.10
   4   6  -8  174.08    9.80
   4   6  -8  160.98   15.00
  -4   6   8  198.18   15.70
  -4   6   8  172.68   14.20
   4   6  -8  179.18    9.60
  -3  -6   8  580.14   33.50
  -3  -6   8  508.05   32.00
  -3  -6   8  556.84   28.70
   3  -6  -8  522.75   26.90
  -3   6   8  559.64   31.70
   3   6  -8  563.14   24.20
   3   6  -8  591.94   32.80
  -3   6   8  617.94   31.10
   3   6  -8  607.14   24.30
  -2  -6   8  347.37   19.30
  -2  -6   8  388.66   24.80
  -2  -6   8  310.07   27.20
   2   6  -8  346.37   15.60
   2   6  -8  335.87   22.90
  -2   6   8  354.86   20.60
  -2   6   8  361.66   22.90
  -2   6   8  376.96   21.90
  -1  -6   8    2.20    3.80
  -1  -6   8    3.00    3.40
  -1  -6   8    4.20    2.00
  -1   6   8    1.20    2.20
   1   6  -8    0.60    2.40
  -1   6   8    1.00    2.50
   1   6  -8    1.10    1.40
   1   6  -8   -3.50    2.80
   1   6  -8    2.30    1.60
  -1   6   8    0.20    3.30
   0  -6   8  573.34   25.40
   0  -6   8  531.55   31.60
   0  -6  -8  541.75   31.00
   0  -6   8  524.55   32.30
   0   6  -8  570.24   24.00
   0   6  -8  567.74   23.80
   0   6   8  525.35   30.50
   0   6  -8  568.84   25.90
   0   6   8  563.24   29.80
   0   6   8  565.14   27.40
  -1  -6  -8  312.47   20.80
   1  -6   8  284.87   21.10
   1  -6   8  293.77   14.20
   1  -6   8  331.87   23.20
  -1   6  -8  304.97   14.80
   1   6   8  322.77   20.00
  -1   6  -8  304.97   15.00
   1   6   8  315.27   17.20
  -1   6  -8  275.67   14.20
   2  -6   8  219.98   18.10
   2  -6   8  235.68   19.60
   2  -6   8  236.38   15.50
  -2  -6  -8  255.67   18.30
  -2   6  -8  236.58   13.20
   2   6   8  247.28   17.40
   3  -6   8  184.08   12.10
   3  -6   8  203.98   18.50
   3  -6   8  178.28   16.70
   3   6   8  202.28   15.70
  -3   6  -8  219.58   12.70
   3   6   8  216.08   12.70
  -4  -6  -8   24.30    6.70
   4  -6   8   13.80    6.90
  -4   6  -8   23.20    4.90
   4   6   8   19.00    5.90
   4   6   8   17.50    3.90
   5  -6   8  216.98   20.10
  -5  -6  -8  213.98   17.20
   5   6   8  191.38   13.10
   5   6   8  190.28   16.60
  -5   6  -8  225.68   14.70
  -6  -6  -8   82.99   11.00
   6  -6   8   88.39   13.50
  -6  -6  -8   94.19   11.30
   6   6   8   93.99    8.70
   6   6   8  104.29   12.00
  -6   6  -8  110.99   10.70
  -7  -6  -8   48.10    9.60
  -7  -6  -8   32.80    8.70
   7  -6   8   40.50   10.50
  -7   6  -8   56.59    8.70
   7   6   8   40.50    8.30
  -9  -7   8  276.57   25.60
  -9  -7   8  336.07   33.10
  -9   7   8  294.17   23.20
   9   7  -8  305.77   26.50
  -8  -7   8   88.59   11.70
  -8  -7   8   90.19   13.10
   8   7  -8   75.19    8.40
   8   7  -8   83.19   15.20
  -8   7   8   90.59   11.30
  -8   7   8   63.99   12.30
  -7  -7   8  131.59   13.70
  -7  -7   8  161.78   16.50
  -7   7   8  141.09   14.80
   7   7  -8  135.49   10.10
  -7   7   8  138.69   14.20
   7   7  -8  136.69   14.70
  -6  -7   8  183.88   18.40
  -6  -7   8  202.18   16.70
   6   7  -8  197.28   12.50
  -6   7   8  217.78   19.50
   6   7  -8  218.18   19.20
  -6   7   8  246.48   19.30
  -6   7   8  209.38   17.40
  -5  -7   8    9.80    4.60
  -5  -7   8   24.00    7.30
   5  -7  -8   10.60    4.90
  -5   7   8   11.70    5.50
   5   7  -8   18.20    3.30
  -5   7   8    8.20    4.20
  -5   7   8   20.70    6.20
   5   7  -8   12.50    5.90
  -4  -7   8  452.25   30.10
   4  -7  -8  510.25   28.00
  -4  -7   8  441.46   25.90
  -4   7   8  424.96   27.20
   4   7  -8  445.66   22.00
  -4   7   8  435.96   28.10
   4   7  -8  451.55   29.20
   4   7  -8  489.25   21.50
  -4   7   8  457.05   27.40
  -3  -7   8   86.09    9.00
  -3  -7   8   85.49   11.20
  -3   7   8   70.39    9.50
  -3   7   8   82.29    9.60
   3   7  -8   83.79   11.10
   3   7  -8   88.69    6.80
  -3   7   8   91.99   11.20
   3   7  -8   88.89    6.40
  -2  -7   8  152.98   11.50
  -2  -7   8  146.19   15.40
   2   7  -8  153.98    9.10
  -2   7   8  154.98   13.70
  -2   7   8  157.18   14.30
   2   7  -8  147.89    9.10
  -2   7   8  145.29   12.60
   2   7  -8  160.58   15.30
  -1  -7   8  217.38   13.70
  -1  -7   8  237.28   19.30
   1   7  -8  228.98   11.90
   1   7  -8  214.98   11.80
  -1   7   8  227.38   15.60
  -1   7   8  213.08   16.50
  -1   7   8  214.98   17.50
   0  -7   8   -1.60    3.20
   0  -7   8   -1.50    1.60
   0  -7   8    2.20    4.40
   0  -7  -8    0.70    3.20
   0   7   8    4.70    3.40
   0   7  -8   -0.60    2.70
   0   7  -8   -1.60    2.00
   0   7   8    1.20    1.50
   0   7  -8    2.40    1.50
   0   7   8   -0.60    3.00
   1  -7   8  373.86   26.60
   1  -7   8  433.26   28.70
   1  -7   8  391.16   19.00
  -1  -7  -8  403.76   26.20
  -1   7  -8  428.86   20.10
   1   7   8  428.86   25.40
   1   7   8  416.36   22.60
  -1   7  -8  387.36   19.30
  -2  -7  -8   48.70    9.60
   2  -7   8   68.09   13.00
  -2   7  -8   60.19    6.00
   2   7   8   44.10    8.40
  -3  -7  -8  231.48   18.70
   3  -7   8  229.48   21.10
   3   7   8  215.98   17.20
  -3   7  -8  211.68   13.50
   4  -7   8  148.99   17.30
  -4  -7  -8  158.48   15.50
   4   7   8  146.39   14.50
   4   7   8  162.58   11.90
  -4   7  -8  182.48   12.40
   5  -7   8    3.70    5.10
  -5  -7  -8   -0.40    3.60
  -5   7  -8   -3.70    3.50
   5   7   8    0.10    2.30
   5   7   8   -0.60    3.70
   6  -7   8  291.27   25.90
  -6  -7  -8  282.17   22.60
   6   7   8  313.67   23.20
   6   7   8  309.97   18.80
  -6   7  -8  303.97   22.90
   8   8  -8   37.20    7.60
   8   8  -8   59.09   16.80
  -8   8   8   40.20   10.10
  -8   8   8   44.30   10.20
  -7  -8   8  127.39   17.10
  -7  -8   8  161.08   15.80
   7   8  -8  146.09   18.00
   7   8  -8  157.38   12.10
  -7   8   8  147.69   15.50
  -7   8   8  183.68   17.20
  -6  -8   8   23.80    6.30
  -6  -8   8   22.50    6.00
  -6   8   8   47.40    9.70
   6   8  -8   36.20    5.60
   6   8  -8   25.30    7.40
  -6   8   8   20.40    6.70
  -5  -8   8  164.68   17.30
  -5  -8   8  149.49   14.40
  -5   8   8  163.68   16.50
   5   8  -8  188.38   11.50
  -5   8   8  166.38   15.70
   5   8  -8  138.29   15.90
  -4  -8   8  191.08   17.40
  -4  -8   8  217.38   19.20
   4   8  -8  218.88   19.50
   4   8  -8  196.18   12.00
  -4   8   8  214.38   18.60
  -4   8   8  187.18   16.40
  -4   8   8  191.88   24.00
  -3  -8   8    4.30    4.10
  -3  -8   8    4.70    3.70
  -3   8   8   -1.10    3.50
  -3   8   8    0.20    3.20
   3   8  -8    5.60    3.90
  -3   8   8    3.90    2.90
  -2  -8   8  247.48   21.70
  -2  -8   8  233.08   16.10
  -2   8   8  242.08   18.70
  -2   8   8  252.17   19.90
  -2   8   8  243.58   18.10
   2   8  -8  252.67   19.90
  -1  -8   8   50.19   11.20
  -1  -8   8   67.69    6.90
  -1   8   8   56.79    9.80
   1   8  -8   62.59    5.90
  -1   8   8   56.69   10.70
  -1   8   8   66.99    8.40
   0  -8   8   39.70    9.30
   0  -8   8   38.40    5.00
   0  -8  -8   30.90    7.90
   0   8   8   48.80    8.60
   0   8   8   32.20    5.70
   0   8   8   16.60    6.20
   0   8  -8   27.80    4.30
  -1  -8  -8  162.28   15.80
   1  -8   8  162.68   17.80
   1  -8   8  178.88   10.60
   1   8   8  181.68   15.70
   2  -8   8    6.90    6.00
  -2  -8  -8    3.80    3.40
   2   8   8    0.60    3.30
  -2   8  -8    4.00    2.40
   3  -8   8   73.79   14.90
  -3  -8  -8   63.09   11.40
  -3   8  -8   60.99    7.70
   3   8   8   39.10    8.50
  -4  -8  -8   25.20    8.40
   4  -8   8   20.80    7.80
  -4   8  -8   22.50    6.20
  -5  -9   8    3.60    6.50
  -5  -9   8   -2.50    3.80
   5   9  -8    7.90    7.00
  -5   9   8   -0.30    3.90
   5   9  -8   -0.70    6.30
  -5   9   8   -4.80    4.10
  -4  -9   8    3.40    4.00
  -4  -9   8   -2.00    7.60
  -4   9   8   15.70    7.30
   4   9  -8    0.00    5.60
  -4   9   8    3.40    4.90
   4   9  -8    2.40    3.60
  -3  -9   8   25.50    8.70
  -3  -9   8   18.90    5.30
   3   9  -8    6.80    4.00
  -3   9   8   16.00    5.70
   3   9  -8   27.70    8.10
  -3   9   8   22.00    7.70
  -2  -9   8    2.10    3.40
  -2  -9   8    4.90    6.00
  -2   9   8    6.80    4.70
  -2   9   8   -2.80    3.60
   2   9  -8    2.30    3.50
  -1  -9   8   32.30    6.30
  -1  -9   8   58.19   13.80
   1   9  -8   37.30    6.20
  -1   9   8   34.90    9.00
  -1   9   8   42.90    9.40
   0  -9  -8    4.00    2.50
   0  -9   8    1.50    4.80
   0  -9   8   -1.30    2.50
   0   9   8    4.00    4.70
   0   9  -8   -1.60    3.50
   0   9   8    2.50    4.20
   1  -9   8    2.90    7.20
  -1   9  -8   -3.80    3.50
   2  -9   8  102.59   18.10
  -2  -9  -8  104.29   15.90
   2   9   8   78.99   12.70
  12   0  -9   -1.70    8.20
 -12   0   9   11.40    5.30
 -12   0   9   -0.20    5.30
 -11   0   9   -5.60    2.60
 -11   0   9   -4.60    3.50
  11   0  -9    8.70    4.20
 -10   0   9   -3.30    2.40
 -10   0   9   -1.40    3.70
  10   0  -9   -4.30    4.40
  -9   0   9    0.80    1.50
   9   0  -9   -3.00    3.20
  -9   0   9    1.80    3.60
  -9   0   9   -1.50    3.10
   8   0  -9    3.40    3.10
  -8   0   9    0.30    2.50
  -8   0   9    0.90    2.30
  -8   0   9    7.50    5.00
  -7   0   9    2.20    3.10
  -7   0   9   -2.40    2.20
   7   0  -9    1.60    2.80
  -7   0   9   -1.00    1.50
  -6   0   9   -3.20    1.50
   6   0  -9   -3.90    1.40
  -6   0   9    0.60    2.60
  -6   0   9    2.00    3.30
  -5   0   9   -2.30    1.60
  -5   0   9    0.30    1.80
   5   0  -9    0.20    1.50
   5   0  -9    0.10    2.00
  -5   0   9    1.90    1.50
  -4   0   9    0.50    1.70
   4   0  -9   -0.90    1.70
   4   0  -9    0.60    1.20
  -4   0   9    0.10    1.30
  -4   0   9    0.20    1.40
  -3   0   9    1.70    1.80
  -3   0   9    4.20    2.30
  -3   0   9    1.60    1.00
   3   0  -9    0.20    1.10
  -3   0   9   -1.00    0.70
   3   0  -9   -1.60    1.40
  -2   0   9   -0.30    1.20
  -2   0   9    1.00    1.00
   2   0  -9    1.00    1.00
  -2   0   9    3.10    2.10
   2   0  -9   -2.10    1.40
  -2   0   9   -0.10    0.90
  -1   0   9    1.30    0.90
  -1   0   9    0.90    1.10
  -1   0   9   -0.10    1.40
  -1   0   9    0.60    1.20
  -1   0   9    0.90    1.00
   0   0   9    0.90    1.30
   0   0   9    2.10    1.40
   0   0   9   -1.20    0.70
   0   0   9    0.90    1.70
   0   0   9   -1.10    1.40
   0   0   9   -0.40    0.90
   1   0   9   -1.70    1.00
   1   0   9   -0.50    0.70
   1   0   9    0.90    1.50
   1   0   9    2.10    1.60
  -1   0  -9    0.40    1.20
   1   0   9    2.00    1.40
   2   0   9    4.40    1.80
   2   0   9   -1.10    1.40
   2   0   9    1.80    1.40
   2   0   9    1.20    1.20
  -2   0  -9    3.30    1.70
   2   0   9    1.50    1.00
   3   0   9   -2.50    1.50
   3   0   9   -0.50    1.20
  -3   0  -9   -0.50    1.50
   3   0   9    0.30    1.60
   3   0   9    0.40    1.20
   3   0   9   -1.10    1.40
   4   0   9    0.20    1.60
   4   0   9    1.60    1.80
  -4   0  -9   -0.70    1.30
   4   0   9   -2.90    1.50
   5   0   9   -1.10    1.80
   5   0   9   -1.40    1.50
  -5   0  -9    1.90    2.20
   5   0   9   -3.30    1.60
   6   0   9    0.80    2.20
   6   0   9   -5.20    1.90
  -6   0  -9    1.30    2.30
   6   0   9   -1.20    1.40
   7   0   9    0.30    1.50
  -7   0  -9   -2.80    3.40
   8   0   9   -0.40    2.50
  -8   0  -9    4.60    3.60
   9   0   9   -2.20    3.00
  -9   0  -9   -1.90    3.50
 -12  -1   9    2.10    4.50
  12  -1  -9    4.30    6.50
 -12  -1   9   -6.70    3.40
  12   1  -9    3.90    5.80
 -12   1   9   -2.40    2.90
 -12   1   9   -8.90    4.00
  11  -1  -9   -1.50    5.90
 -11  -1   9   -1.50    4.20
 -11   1   9   -7.90    3.40
 -11   1   9   -1.70    3.70
  11   1  -9    6.40    5.90
  10  -1  -9  113.49   13.20
 -10  -1   9   83.29    9.20
 -10  -1   9  100.69   12.40
 -10   1   9   95.49   12.40
 -10   1   9   63.39   11.80
  10   1  -9   98.09   12.00
 -10   1   9   87.89   10.10
  -9  -1   9   13.30    6.20
  -9  -1   9   30.60    7.60
   9  -1  -9   30.20    8.20
  -9  -1   9   17.80    4.80
   9   1  -9   27.60    7.50
  -9   1   9   30.50    7.80
  -9   1   9   25.50    6.10
  -9   1   9   18.60    6.30
  -8  -1   9   82.89    8.10
  -8  -1   9  100.49   11.20
   8  -1  -9   92.19   11.00
  -8  -1   9   73.79   10.40
  -8   1   9   80.19   10.70
  -8   1   9   93.29    9.00
  -8   1   9   86.69   10.40
   8   1  -9   95.09   11.20
  -7  -1   9   56.69    6.10
  -7  -1   9   66.89   11.00
  -7  -1   9   54.29    9.00
  -7   1   9   63.49    9.00
  -7   1   9   58.19    6.50
   7   1  -9   48.40    5.40
   7   1  -9   60.09    8.50
  -7   1   9   69.99    8.90
   6  -1  -9  122.69   10.90
   6  -1  -9  127.89    9.00
  -6  -1   9  117.99   13.00
  -6  -1   9  117.89    8.30
  -6  -1   9  124.09   11.30
   6   1  -9  125.39   11.20
  -6   1   9  141.89    9.80
  -6   1   9  105.89   10.50
   6   1  -9  128.49    8.30
  -6   1   9  127.49   11.90
   5  -1  -9  467.85   21.80
   5  -1  -9  455.45   23.70
  -5  -1   9  417.56   20.40
  -5  -1   9  468.05   26.00
  -5  -1   9  474.75   25.00
  -5   1   9  440.36   22.00
  -5   1   9  464.75   25.20
  -5   1   9  475.85   25.30
   5   1  -9  453.15   20.20
  -4  -1   9   19.80    2.40
   4  -1  -9   20.20    3.80
   4  -1  -9   20.00    3.50
  -4  -1   9   23.20    5.30
   4   1  -9   13.10    3.40
  -4   1   9   17.70    4.50
  -4   1   9   22.00    3.80
  -4   1   9   25.20    5.10
   4   1  -9   23.80    2.40
   3  -1  -9  636.24   27.90
  -3  -1   9  660.43   30.70
  -3  -1   9  648.34   25.40
  -3  -1   9  645.74   31.00
  -3  -1   9  636.84   25.30
   3  -1  -9  636.74   27.50
  -3   1   9  610.14   29.70
  -3   1   9  672.53   28.20
   3   1  -9  671.53   33.80
  -3   1   9  614.34   33.30
   3   1  -9  601.34   29.80
  -2  -1   9  300.57   12.80
  -2  -1   9  329.77   17.60
  -2  -1   9  301.27   12.80
  -2  -1   9  329.67   17.90
  -2  -1   9  306.37   12.80
  -2   1   9  346.17   18.50
   2   1  -9  342.07   16.60
  -2   1   9  309.37   15.50
  -2   1   9  356.06   16.10
  -2   1   9  353.76   17.00
  -2   1   9  318.07   17.70
  -1  -1   9   27.90    2.00
  -1  -1   9   23.10    4.30
  -1  -1   9   26.40    6.50
  -1  -1   9   40.50    4.50
  -1  -1   9   33.70    2.30
  -1   1   9   31.30    3.60
  -1   1   9   26.20    3.40
   1   1  -9   25.90    4.20
  -1   1   9   34.20    4.60
  -1   1   9   23.60    4.50
  -1   1   9   29.40    3.40
   0  -1   9 1177.18   46.20
   0  -1   9 1005.30   47.50
   0  -1   9 1168.88   49.40
   0  -1   9 1192.38   49.20
   0  -1   9 1178.58   47.80
   0   1   9 1178.28   46.50
   0   1   9 1210.58   48.00
   0   1   9 1167.88   48.20
   0   1   9 1201.78   46.50
   0   1   9 1178.28   49.30
   0   1   9 1177.18   49.80
   1  -1   9   62.19    4.80
   1  -1   9   55.49    5.50
  -1  -1  -9   59.79    5.50
   1  -1   9   52.89    5.60
   1  -1   9   51.09    4.50
   1  -1   9   60.09    4.90
   1   1   9   76.19   11.90
   1   1   9   60.19    5.80
   1   1   9   59.49    6.30
   1   1   9   54.89    5.30
  -1   1  -9   59.29    4.50
   1   1   9   62.39    4.10
   2  -1   9   11.30    3.10
   2  -1   9   12.00    3.40
   2  -1   9    9.20    2.10
  -2  -1  -9    9.70    3.00
   2  -1   9    8.40    2.50
   2  -1   9   11.00    2.00
   2   1   9   10.40    3.20
   2   1   9   10.40    2.00
  -2   1  -9    7.40    2.20
   2   1   9   12.30    2.30
   2   1   9   10.80    3.00
  -3  -1  -9  520.15   25.70
   3  -1   9  535.15   25.10
   3  -1   9  541.75   26.60
   3  -1   9  495.15   22.20
   3  -1   9  503.35   22.00
   3  -1   9  521.95   25.80
   3   1   9  550.04   23.80
   3   1   9  558.54   25.20
  -3   1  -9  530.55   24.70
   4  -1   9   10.40    3.70
   4  -1   9   13.70    3.70
  -4  -1  -9   13.10    3.80
  -4   1  -9   14.90    4.70
   4   1   9   12.00    3.20
   4   1   9   15.80    3.50
   4   1   9   14.10    3.70
  -5  -1  -9   96.09    9.50
  -5  -1  -9  103.39    7.80
   5  -1   9  105.19   10.20
   5   1   9   93.19    8.00
  -5   1  -9   91.99    8.60
   5   1   9  105.09    8.90
  -6  -1  -9  126.39    8.80
  -6  -1  -9  132.29   11.70
   6  -1   9  114.69   11.60
   6   1   9  107.99    8.90
  -6   1  -9  130.49   11.20
   6   1   9  108.69    9.90
  -7  -1  -9    2.50    2.00
   7  -1   9    0.40    2.60
  -7  -1  -9    2.10    3.40
   7   1   9    0.10    2.40
  -7   1  -9    0.30    2.90
  -8  -1  -9   38.90    8.10
   8  -1   9   37.40    7.60
  -8   1  -9   37.40    8.30
   8   1   9   52.09    9.20
   9  -1   9   35.10    8.50
  -9  -1  -9   23.60    6.60
   9   1   9   32.00    7.60
  -9   1  -9   41.50    8.20
 -12  -2   9   49.30    8.70
 -12  -2   9   20.50    8.00
 -12   2   9   28.90    7.40
 -12   2   9   31.50    9.30
  12   2  -9   34.50   10.60
 -11  -2   9  122.39   12.10
 -11  -2   9   92.99   12.00
  11  -2  -9   72.79   13.10
 -11   2   9  115.89   12.30
 -11   2   9   77.19   12.90
  11   2  -9  119.89   14.60
 -10  -2   9   22.80    7.00
 -10  -2   9   21.70    5.90
  10  -2  -9   37.30    8.90
 -10   2   9   31.70    8.40
 -10   2   9   24.20    6.80
  10   2  -9   27.00    7.80
   9  -2  -9  333.77   23.90
  -9  -2   9  346.57   19.60
  -9   2   9  348.97   26.90
  -9   2   9  295.97   23.20
   9   2  -9  373.36   25.20
  -9   2   9  296.37   20.60
  -8  -2   9    0.90    5.00
   8  -2  -9    1.40    3.00
  -8  -2   9    2.70    3.90
  -8  -2   9   -0.40    1.80
  -8   2   9   -4.00    2.90
   8   2  -9   -5.50    2.80
  -8   2   9    2.90    3.10
  -8   2   9   -2.10    3.10
  -7  -2   9  213.78   18.00
   7  -2  -9  244.88   17.50
  -7  -2   9  238.58   13.50
  -7  -2   9  236.38   17.40
  -7   2   9  247.08   15.60
  -7   2   9  240.98   18.00
  -7   2   9  211.18   16.80
   7   2  -9  221.28   13.00
   7   2  -9  242.08   17.80
   6  -2  -9  556.64   28.70
  -6  -2   9  541.75   30.90
  -6  -2   9  525.25   28.90
  -6  -2   9  555.04   24.40
   6   2  -9  566.64   30.00
  -6   2   9  528.75   29.30
  -6   2   9  541.95   29.60
  -6   2   9  524.05   26.80
   6   2  -9  515.35   23.90
  -5  -2   9  105.69    6.40
   5  -2  -9   99.59    8.90
  -5  -2   9  112.99   16.50
  -5  -2   9  102.49    9.80
   5   2  -9  111.69   10.10
  -5   2   9  109.19   10.20
   5   2  -9  104.99    6.20
  -5   2   9   97.29    8.20
  -5   2   9   96.99    9.70
   4  -2  -9 1033.70   43.70
   4  -2  -9  971.60   43.40
  -4  -2   9  989.70   47.30
  -4  -2   9 1051.99   39.60
  -4  -2   9  999.50   48.30
   4   2  -9 1027.40   39.50
  -4   2   9 1062.69   44.50
  -4   2   9 1123.89   46.70
  -4   2   9  966.10   46.70
  -3  -2   9   89.19    8.80
  -3  -2   9  101.39    9.30
   3  -2  -9   94.99    6.00
  -3  -2   9   85.09    8.00
   3  -2  -9   99.89    7.50
  -3   2   9  100.19    7.70
   3   2  -9   98.99    8.30
  -3   2   9  101.09    8.20
   3   2  -9  100.59    8.50
  -3   2   9   98.89    9.00
  -2  -2   9  283.97   17.00
  -2  -2   9  268.47   16.90
  -2  -2   9  260.77   15.40
  -2   2   9  277.67   15.00
   2   2  -9  334.27   16.60
  -2   2   9  279.57   15.00
  -2   2   9  301.87   15.00
  -2   2   9  276.27   16.90
   2   2  -9  231.78   15.80
  -1  -2   9  817.02   36.80
  -1  -2   9  880.31   39.70
  -1  -2   9  845.52   39.00
   1   2  -9  906.51   38.20
  -1   2   9  841.42   37.10
  -1   2   9  843.62   41.60
   1   2  -9  821.22   36.50
  -1   2   9  907.31   35.60
  -1   2   9  866.81   37.20
   0  -2   9   13.70    3.80
   0  -2   9   10.10    2.50
   0  -2   9   17.10    4.20
   0   2  -9   11.30    2.40
   0   2   9   11.40    2.90
   0   2   9   14.00    3.90
   0   2   9   12.10    1.60
   0   2   9   18.20    3.40
   1  -2   9  526.35   23.70
   1  -2   9  578.34   27.90
   1  -2   9  584.64   23.80
   1  -2   9  553.14   23.70
   1  -2   9  561.54   28.30
  -1   2  -9  585.64   23.60
   1   2   9  596.74   28.00
   1   2   9  568.64   27.20
   1   2   9  601.84   27.30
   1   2   9  570.34   29.30
   2  -2   9    6.60    2.20
  -2  -2  -9    6.20    2.70
   2  -2   9    4.80    2.60
   2   2   9    5.70    2.70
  -2   2  -9    8.00    2.00
   3  -2   9  106.19    7.70
   3  -2   9  104.19    9.70
  -3  -2  -9   94.09    8.50
   3  -2   9  100.19    9.00
  -3  -2  -9  100.89    8.70
  -3   2  -9   84.89    6.90
   3   2   9   84.59    5.50
  -4  -2  -9  368.56   20.20
   4  -2   9  339.87   21.10
   4  -2   9  342.37   20.30
  -4  -2  -9  357.76   19.40
   4   2   9  302.67   16.30
  -4   2  -9  346.17   18.30
  -5  -2  -9  164.58   13.30
   5  -2   9  193.08   14.40
  -5  -2  -9  179.48   12.30
   5  -2   9  192.28   15.10
  -5   2  -9  173.38   12.40
   5   2   9  175.38   11.50
   6  -2   9  201.28   15.80
  -6  -2  -9  208.08   13.70
   6  -2   9  199.68   16.60
  -6  -2  -9  208.98   15.60
  -6   2  -9  182.88   13.70
   6   2   9  207.58   13.70
   7  -2   9   21.70    6.80
  -7  -2  -9   22.70    6.30
  -7  -2  -9   33.40    5.60
   7   2   9   31.20    6.40
  -7   2  -9   15.50    5.20
  -8  -2  -9  240.38   15.00
  -8  -2  -9  228.58   18.00
   8  -2   9  206.78   19.30
   8   2   9  221.38   16.60
  -8   2  -9  232.38   17.10
 -12  -3   9    8.80    4.80
 -12  -3   9   14.10    7.00
 -12   3   9   14.10    7.70
  12   3  -9    3.10    9.70
 -12   3   9   12.80    5.50
 -11  -3   9    1.60    4.80
 -11   3   9   -1.60    5.50
 -11   3   9    1.50    4.00
  11   3  -9    8.40    6.20
  10  -3  -9  204.28   19.40
 -10  -3   9  209.48   15.00
 -10  -3   9  215.58   18.40
 -10   3   9  199.08   17.00
  10   3  -9  238.78   20.00
 -10   3   9  210.58   18.50
  -9  -3   9   55.99    6.90
   9  -3  -9   70.19   12.10
  -9  -3   9   57.99   10.70
   9   3  -9   73.09   10.80
  -9   3   9   69.59   10.50
  -9   3   9   65.39   11.40
  -9   3   9   61.39   11.50
  -8  -3   9   83.99   10.10
  -8  -3   9   94.89    9.30
  -8  -3   9   86.69   11.30
   8   3  -9   73.49   10.50
  -8   3   9   74.99    9.10
  -8   3   9   80.89   10.20
  -8   3   9   87.59   11.00
   7  -3  -9   90.79   10.50
  -7  -3   9   96.39   10.80
  -7  -3   9  101.79    7.60
  -7  -3   9  110.69   12.60
  -7   3   9   82.29    9.90
   7   3  -9  105.19   11.70
  -7   3   9   96.99   10.80
  -7   3   9  112.29   10.20
   7   3  -9   91.59    7.50
  -6  -3   9  412.16   24.10
   6  -3  -9  417.26   29.10
  -6  -3   9  386.46   25.50
  -6  -3   9  438.66   19.20
   6   3  -9  416.36   25.00
   6   3  -9  398.16   18.90
  -6   3   9  398.66   24.20
  -6   3   9  420.46   22.90
  -6   3   9  402.36   24.80
  -5  -3   9  386.36   21.80
   5  -3  -9  373.06   20.60
  -5  -3   9  381.96   16.10
  -5  -3   9  355.46   23.30
  -5   3   9  363.96   22.40
   5   3  -9  394.76   22.80
  -5   3   9  387.26   20.90
   5   3  -9  359.36   16.00
  -5   3   9  339.97   21.30
   4  -3  -9   32.10    4.20
  -4  -3   9   36.40    7.30
  -4  -3   9   30.20    5.70
  -4  -3   9   42.10    7.40
  -4   3   9   26.50    5.20
  -4   3   9   39.30    6.20
   4   3  -9   28.00    5.30
  -4   3   9   40.30    7.10
  -3  -3   9  621.34   32.20
   3  -3  -9  553.34   25.60
  -3  -3   9  611.24   29.50
  -3  -3   9  574.34   31.40
   3   3  -9  612.24   29.40
  -3   3   9  669.83   29.50
  -3   3   9  642.14   30.20
  -3   3   9  653.73   31.90
  -2  -3   9  266.17   17.00
  -2  -3   9  251.77   14.30
  -2  -3   9  269.57   17.20
   2   3  -9  234.48   15.40
  -2   3   9  276.47   16.90
  -2   3   9  263.87   16.50
  -2   3   9  230.98   13.40
   2   3  -9  210.78   15.00
  -1  -3   9  205.88   11.60
  -1  -3   9  210.78   14.50
  -1  -3   9  208.08   14.60
   1   3  -9  193.78   11.40
   1   3  -9  206.18   13.60
  -1   3   9  213.98   10.80
  -1   3   9  165.68   13.30
   0  -3   9  537.55   22.30
   0  -3   9  527.45   26.70
   0  -3   9  532.65   27.30
   0   3   9  573.84   27.00
   0   3   9  446.16   20.40
   0   3   9  511.45   24.80
   0   3  -9  438.36   21.70
   1  -3   9   58.29    6.90
   1  -3   9   54.69    7.10
   1  -3   9   60.59    3.60
   1  -3   9   58.69    3.90
   1  -3   9   58.99    3.50
  -1   3  -9   54.89    3.50
   1   3   9   51.59    6.50
   1   3   9   65.69    6.60
  -2  -3  -9  133.59   10.70
   2  -3   9  121.69   11.10
  -2  -3  -9  116.19    9.80
   2  -3   9  117.59    7.30
   2  -3   9  124.79   10.80
  -2   3  -9  122.29    7.30
   2   3   9  124.19   10.00
   3  -3   9  116.89   11.30
   3  -3   9  111.09    7.90
  -3  -3  -9  120.69   10.20
   3  -3   9  118.69   10.70
  -3  -3  -9  112.69    9.80
  -3   3  -9  116.29    8.10
  -4  -3  -9  405.66   22.50
   4  -3   9  387.66   23.60
  -4  -3  -9  395.56   22.90
   4   3   9  407.56   18.10
  -4   3  -9  393.76   20.40
   5  -3   9   54.09    8.00
  -5  -3  -9   66.09    8.10
  -5  -3  -9   75.99    7.70
   5  -3   9   56.69   10.60
  -5   3  -9   56.49    6.60
   5   3   9   54.09    5.60
  -6  -3  -9   20.90    5.00
   6  -3   9   18.40    5.50
  -6  -3  -9   26.20    5.90
   6  -3   9   11.50    4.30
  -6   3  -9   17.60    4.80
   6   3   9   21.70    4.30
  -7  -3  -9  300.57   18.70
  -7  -3  -9  282.57   20.20
   7  -3   9  269.17   21.80
  -7   3  -9  287.27   18.80
   7   3   9  256.77   16.80
  -8  -3  -9   12.20    5.30
   8  -3   9    9.90    5.00
  -8  -3  -9   18.90    6.30
  -8   3  -9    9.20    5.60
   8   3   9    4.90    3.40
 -11  -4   9   92.89   15.10
 -11  -4   9  141.49   12.20
 -11   4   9  116.79   14.00
  11   4  -9  131.89   16.10
 -11   4   9  133.09   13.90
 -10  -4   9   42.10    8.90
 -10  -4   9   30.50    6.00
 -10   4   9   31.70    7.80
 -10   4   9   34.10    8.60
  -9  -4   9  193.48   17.30
  -9  -4   9  195.78   13.40
   9   4  -9  215.98   18.30
  -9   4   9  225.68   18.40
  -9   4   9  183.68   18.70
  -9   4   9  191.28   16.40
  -8  -4   9    3.70    1.80
  -8  -4   9   12.10    6.10
   8  -4  -9    7.50    5.20
  -8   4   9    9.10    4.20
   8   4  -9    3.40    4.20
  -8   4   9    0.60    3.30
  -7  -4   9  325.47   21.40
  -7  -4   9  291.47   22.50
  -7  -4   9  297.87   15.90
   7  -4  -9  316.97   21.40
  -7   4   9  314.97   21.90
   7   4  -9  321.87   22.40
  -7   4   9  334.87   20.70
   7   4  -9  315.47   16.40
  -7   4   9  301.87   21.50
   6  -4  -9  816.22   42.90
  -6  -4   9  936.51   37.90
  -6  -4   9  940.31   47.20
  -6  -4   9  940.11   44.50
  -6  -4   9  853.01   47.40
  -6   4   9  906.81   45.00
  -6   4   9  933.41   43.60
  -6   4   9  898.71   45.30
   6   4  -9  955.80   38.10
   6   4  -9  949.90   46.20
  -5  -4   9  378.76   24.00
  -5  -4   9  319.47   22.90
  -5  -4   9  373.76   21.50
   5  -4  -9  354.26   20.20
   5   4  -9  348.87   15.50
  -5   4   9  386.16   21.40
  -5   4   9  360.76   21.80
   5   4  -9  350.66   15.50
   5   4  -9  336.07   22.10
  -5   4   9  354.86   22.50
  -4  -4   9  823.72   43.70
   4  -4  -9  868.71   39.00
  -4  -4   9  844.02   41.00
  -4  -4   9  903.21   44.90
  -4   4   9  846.62   40.90
  -4   4   9 1010.40   42.60
  -4   4   9  943.21   44.00
   4   4  -9  904.41   43.50
   3  -4  -9  750.72   32.90
  -3  -4   9  766.32   39.30
  -3  -4   9  761.72   39.00
  -3   4   9  775.82   36.10
   3   4  -9  802.72   38.20
  -3   4   9  734.93   35.30
  -2  -4   9  787.32   44.90
  -2  -4   9  685.23   31.40
  -2  -4   9  676.93   35.50
   2   4  -9  608.54   30.80
  -2   4   9  796.72   36.00
  -2   4   9  600.94   30.50
  -2   4   9  702.03   32.80
  -1  -4   9 1725.03   68.79
  -1  -4   9 1786.72   74.69
  -1  -4   9 1733.13   74.89
  -1   4   9 1797.72   71.89
  -1   4   9 1657.03   73.19
  -1   4   9 1649.23   68.09
   1   4  -9 1619.74   68.69
   0  -4   9    3.20    1.50
   0  -4   9    0.00    2.20
   0  -4   9    1.10    2.20
   0   4   9    2.50    1.00
   0   4   9    1.40    2.30
   0   4  -9   -0.60    1.50
   0   4   9   -1.30    1.70
   1  -4   9  446.36   18.70
   1  -4   9  425.46   25.20
   1  -4   9  439.56   17.80
   1  -4   9  465.75   26.70
  -1  -4  -9  456.75   25.30
   1   4   9  476.15   24.30
  -1   4  -9  456.35   18.30
   1   4   9  411.86   24.40
   2  -4   9  862.51   36.90
   2  -4   9  930.51   45.00
  -2  -4  -9  938.11   43.40
   2  -4   9  862.81   43.60
   2   4   9  903.01   42.30
  -2   4  -9  943.91   37.40
   3  -4   9  181.98   15.90
  -3  -4  -9  200.48   14.70
   3  -4   9  189.08   11.00
   3  -4   9  196.28   15.50
  -3  -4  -9  214.28   15.00
  -3   4  -9  175.78   11.00
   3   4   9  196.58   14.50
   3   4   9  204.88    9.30
  -4  -4  -9  482.35   27.00
   4  -4   9  507.35   30.00
   4  -4   9  404.76   26.80
  -4  -4  -9  478.85   26.70
  -4   4  -9  479.75   23.50
   4   4   9  500.55   21.10
  -5  -4  -9   23.20    6.20
   5  -4   9   38.20    8.50
  -5  -4  -9   23.30    6.40
   5  -4   9   14.00    4.90
  -5   4  -9   30.80    5.80
   5   4   9   22.40    3.40
   6  -4   9  202.68   18.80
  -6  -4  -9  223.78   16.60
  -6  -4  -9  220.28   17.20
   6   4   9  207.38   13.00
  -6   4  -9  240.88   15.60
  -7  -4  -9  259.97   18.40
  -7  -4  -9  299.07   20.50
   7  -4   9  204.28   20.10
   7   4   9  255.77   15.80
  -7   4  -9  262.67   17.50
  -8  -4  -9   28.40    7.60
  -8   4  -9   26.80    7.10
   8   4   9   23.40    5.10
 -11  -5   9   34.20    9.40
 -11  -5   9   28.80   10.50
 -11  -5   9   28.70    6.60
 -11   5   9   18.30    7.30
  11   5  -9   17.90    9.30
 -10  -5   9   81.49   11.00
 -10  -5   9   82.89   14.90
 -10  -5   9   68.19    8.20
  10   5  -9   87.69   11.50
 -10   5   9   51.29   10.70
 -10   5   9   50.59    9.70
  -9  -5   9   68.99   12.20
  -9  -5   9   64.39    7.10
  -9  -5   9   55.29   10.50
  -9   5   9   70.19   12.10
  -9   5   9   74.69    9.60
   9   5  -9   41.70    8.50
   8  -5  -9   70.39   12.40
  -8  -5   9   71.49    6.60
  -8  -5   9   61.69   11.90
  -8  -5   9   59.89   10.80
  -8   5   9   61.59   10.70
   8   5  -9   65.59    9.40
  -8   5   9   64.39   10.50
  -8   5   9   55.59   10.70
  -7  -5   9  122.29   12.80
  -7  -5   9  131.49   14.40
   7  -5  -9  133.39   13.50
  -7  -5   9  132.59    9.00
  -7   5   9  129.39   15.00
   7   5  -9  133.19    9.70
  -7   5   9  151.78   14.40
   7   5  -9  127.79   13.80
  -6  -5   9  256.87   20.90
   6  -5  -9  279.67   18.90
  -6  -5   9  296.17   19.60
  -6   5   9  275.77   18.90
   6   5  -9  278.87   14.20
  -6   5   9  242.18   19.20
   6   5  -9  286.77   13.90
   6   5  -9  292.77   21.10
  -6   5   9  242.88   18.90
  -5  -5   9  428.26   23.80
  -5  -5   9  372.86   25.80
  -5  -5   9  363.76   25.60
   5  -5  -9  411.16   22.50
  -5   5   9  426.36   24.60
   5   5  -9  369.06   24.70
  -5   5   9  413.56   23.80
  -5   5   9  376.46   24.60
   5   5  -9  386.06   17.10
   5   5  -9  380.56   17.20
  -4  -5   9    1.40    3.20
  -4  -5   9   -0.70    2.50
  -4  -5   9    2.40    2.70
   4  -5  -9    0.00    2.00
   4   5  -9   -0.30    2.10
  -4   5   9   -3.70    1.80
   4   5  -9    2.50    0.70
  -4   5   9    2.10    2.70
  -4   5   9    2.00    2.60
  -3  -5   9   85.69    7.90
  -3  -5   9   73.39    9.60
  -3  -5   9   79.99   10.10
  -3   5   9   90.99    8.50
  -3   5   9   79.69    8.70
   3   5  -9   70.59    9.30
  -3   5   9   79.69    9.80
  -2  -5   9  828.12   44.40
  -2  -5   9  913.91   39.60
  -2  -5   9  901.41   45.00
   2   5  -9  909.21   41.70
   2   5  -9  892.81   43.80
  -2   5   9  896.31   39.90
  -2   5   9  860.01   41.50
  -2   5   9  895.01   43.80
  -1  -5   9  147.09    9.80
  -1  -5   9  157.18   14.00
  -1  -5   9  153.08   13.80
  -1   5   9  140.29    9.80
  -1   5   9  150.68   12.10
  -1   5   9  152.08   13.20
   1   5  -9  153.38   13.30
   0  -5   9    8.30    4.00
   0  -5   9    7.50    2.10
   0  -5   9    7.80    4.50
   0   5   9    9.30    3.30
   0   5   9    8.90    4.00
   0   5   9    6.60    1.90
   0   5  -9    5.70    2.30
  -1  -5  -9  163.38   13.80
   1  -5   9  169.38   15.10
   1  -5   9  128.69   12.70
   1  -5   9  151.18    6.80
   1   5   9  148.29   12.10
  -1   5  -9  133.19    6.60
   2  -5   9   15.90    6.10
   2  -5   9   19.40    6.30
   2  -5   9   18.50    2.90
  -2  -5  -9   16.00    5.50
   2   5   9   22.10    5.50
  -2   5  -9   15.50    2.90
  -3  -5  -9   14.20    5.10
   3  -5   9   10.20    6.80
   3  -5   9   16.10    5.90
   3   5   9    8.40    2.10
  -3   5  -9   15.40    3.00
   3   5   9    8.60    4.20
   4  -5   9   37.20    8.10
  -4  -5  -9   64.49   10.20
   4  -5   9   53.49   10.40
   4   5   9   52.79    9.30
   4   5   9   54.79    4.90
  -5  -5  -9   -1.10    2.80
  -5  -5  -9   -2.30    2.90
   5  -5   9   -2.00    2.60
  -5   5  -9    0.70    2.40
   5   5   9   -2.70    1.20
  -6  -5  -9    5.90    4.00
  -6  -5  -9    1.10    3.60
   6  -5   9    8.10    4.70
   6   5   9    8.50    2.50
  -6   5  -9    8.90    4.20
   7  -5   9   45.90   11.10
  -7  -5  -9   71.19   11.80
  -7  -5  -9   68.89   11.90
   7   5   9   63.69    7.60
  -7   5  -9   73.99   11.70
 -10  -6   9   23.90    9.90
 -10  -6   9   18.70    4.90
  10   6  -9   14.30    7.90
 -10   6   9   32.50    9.10
  -9  -6   9   11.10    4.10
  -9  -6   9   11.40    5.70
  -9  -6   9   14.20    6.50
   9   6  -9   25.30    6.40
  -9   6   9   14.30    6.40
  -9   6   9   16.20    6.10
  -8  -6   9   81.89    7.60
  -8  -6   9   93.29   12.20
  -8  -6   9   93.89   11.40
   8   6  -9   95.99   13.30
  -8   6   9   90.59   12.30
  -8   6   9   98.99   11.30
  -7  -6   9   21.10    4.70
  -7  -6   9   26.80    6.70
  -7   6   9   22.50    5.60
  -7   6   9   18.00    6.20
  -7   6   9   16.60    5.90
   7   6  -9   15.70    3.40
   6  -6  -9   23.80    6.60
  -6  -6   9   14.80    4.90
  -6  -6   9   21.10    6.20
   6   6  -9   15.20    2.70
  -6   6   9   14.90    6.00
  -6   6   9    9.00    4.70
   6   6  -9   17.40    4.10
   6   6  -9   19.00    6.70
  -6   6   9   14.20    5.40
  -5  -6   9  346.27   24.90
  -5  -6   9  339.07   21.30
   5  -6  -9  403.96   29.10
  -5   6   9  346.37   30.30
  -5   6   9  295.17   22.10
   5   6  -9  333.77   23.70
  -5   6   9  306.17   21.50
   5   6  -9  321.67   15.70
   5   6  -9  337.67   15.50
  -4  -6   9   35.60    8.70
  -4  -6   9   23.10    6.70
  -4  -6   9   29.90    6.00
  -4   6   9   21.10    5.30
   4   6  -9   31.90    8.20
  -4   6   9   26.60    6.50
  -3  -6   9   39.30    9.00
  -3  -6   9   26.60    5.50
  -3  -6   9   25.90    6.70
   3   6  -9   27.40    6.50
  -3   6   9   24.10    7.00
  -3   6   9   24.10    6.00
  -2  -6   9  144.99   14.30
  -2  -6   9  163.58   15.20
  -2  -6   9  131.29   10.30
  -2   6   9  150.98   11.40
   2   6  -9  121.69   13.00
  -2   6   9  145.49   13.70
  -2   6   9  130.59   12.00
  -1  -6   9  157.08   10.60
  -1  -6   9  165.48   15.80
  -1  -6   9  181.78   16.30
   1   6  -9  152.58   11.00
  -1   6   9  151.98   13.90
  -1   6   9  175.08   11.80
  -1   6   9  169.48   13.60
   0  -6   9   29.40    3.60
   0  -6   9   36.20    8.80
   0  -6   9   18.20    5.50
   0   6  -9   21.60    2.80
   0   6   9   19.80    6.10
   0   6   9   35.70    7.20
   0   6   9   30.70    4.40
   0   6  -9   29.00    3.90
   0   6  -9   20.40    2.10
   1  -6   9    2.70    3.30
   1  -6   9   -4.20    2.80
   1   6   9    3.60    3.10
  -1   6  -9    1.70    1.80
  -1   6  -9   -0.10    1.30
   2  -6   9   90.09    6.60
   2  -6   9   95.19   12.50
  -2  -6  -9   81.59   10.50
   2  -6   9   96.69   12.00
  -2   6  -9  105.99    7.20
   2   6   9   99.39   10.40
   3  -6   9   76.09   15.00
  -3  -6  -9   62.99   10.50
  -3   6  -9   70.39    6.20
   3   6   9   49.90    9.00
   4  -6   9   12.40    6.50
  -4  -6  -9   -1.80    3.10
  -4   6  -9   -0.30    2.30
   4   6   9    4.30    1.80
   4   6   9    4.00    4.20
  -5  -6  -9   -2.70    4.00
   5  -6   9    6.70    4.60
   5   6   9    1.30    1.70
  -5   6  -9    7.20    3.30
   5   6   9    2.80    3.30
  -6  -6  -9   39.10    9.10
   6  -6   9   59.09   12.50
  -6  -6  -9   50.29    9.60
   6   6   9   42.80    8.50
  -6   6  -9   42.70    7.80
   6   6   9   44.80    5.50
  -9  -7   9   -2.00    9.00
  -9  -7   9    9.20    7.10
  -9   7   9   -4.60    5.30
  -9   7   9   20.40    5.90
   9   7  -9    1.30    6.70
   9   7  -9    0.70    4.90
  -8  -7   9   45.10   10.70
  -8  -7   9   20.70    6.70
  -8   7   9   38.00    9.10
  -8   7   9   29.40    9.10
   8   7  -9   30.20    5.60
   8   7  -9   11.60    6.40
  -7  -7   9   16.40    6.30
  -7  -7   9    6.40    5.10
   7   7  -9   11.90    6.80
   7   7  -9   15.10    3.60
  -7   7   9   19.90    6.90
  -7   7   9   20.00    6.80
  -6  -7   9    2.70    3.80
  -6  -7   9    0.00    3.40
   6   7  -9    1.50    4.50
  -6   7   9   -2.20    3.50
   6   7  -9   -0.40    1.90
  -6   7   9   -2.70    3.50
  -5  -7   9    1.40    3.10
  -5   7   9   -5.40    2.90
  -5   7   9   -2.90    2.10
   5   7  -9   -1.00    1.80
  -5   7   9   -3.40    2.80
   5   7  -9   10.40    3.10
  -4  -7   9   18.10    5.60
  -4  -7   9   24.80    5.80
  -4   7   9   24.10    7.30
  -4   7   9   15.20    5.20
  -4   7   9   12.00    5.20
   4   7  -9   16.20    3.70
   4   7  -9   16.50    5.40
  -3  -7   9  120.09   13.80
  -3  -7   9  118.29   10.40
   3   7  -9   93.79    6.90
  -3   7   9  133.49   12.00
   3   7  -9  113.39   13.00
   3   7  -9  112.99    6.70
  -3   7   9  109.69   12.80
  -3   7   9  138.49   12.90
  -2  -7   9   16.20    4.00
  -2  -7   9    9.30    4.90
  -2   7   9   18.40    6.00
   2   7  -9    5.30    4.30
  -2   7   9   10.50    5.20
  -2   7   9   14.30    4.30
  -1  -7   9    6.80    5.60
  -1  -7   9   12.10    5.30
  -1  -7   9    9.50    3.00
   1   7  -9   15.00    4.10
  -1   7   9   13.50    4.60
  -1   7   9   18.90    6.60
  -1   7   9    8.60    3.00
   0  -7   9  186.58   18.00
   0  -7   9  175.48   10.80
   0  -7   9  177.18   19.50
   0   7   9  172.78   14.80
   0   7  -9  191.28    9.40
   0   7   9  151.68   15.10
   0   7   9  185.08   13.20
   0   7  -9  179.28    9.60
   1  -7   9   -3.20    1.30
  -1  -7  -9    0.70    3.30
   1  -7   9    1.10    3.90
   1   7   9   -2.60    2.80
  -1   7  -9    0.70    1.80
  -2  -7  -9  108.69   12.60
   2  -7   9  127.69   17.90
  -2   7  -9  127.69    8.50
   2   7   9  125.39   12.50
  -3  -7  -9  165.88   15.60
   3  -7   9  142.59   17.10
   3   7   9  145.59   14.10
  -4  -7  -9   -0.50    3.10
   4  -7   9   -3.20    4.20
  -4   7  -9    0.20    3.30
   4   7   9   -0.80    3.20
   5  -7   9   41.50   10.60
  -5  -7  -9   53.49   10.40
  -5   7  -9   55.19    8.90
   5   7   9   41.80   11.60
  -7  -8   9   25.50    8.90
  -7  -8   9   34.70    7.80
  -7   8   9   10.80    6.30
  -7   8   9   27.10    7.90
   7   8  -9   37.30   11.00
  -6  -8   9    0.40    5.30
  -6  -8   9   15.30    4.20
  -6   8   9   -0.10    5.00
  -6   8   9    3.30    4.30
   6   8  -9   12.90    7.10
  -5  -8   9   -0.30    3.40
  -5  -8   9   -2.90    4.50
  -5   8   9    1.10    4.20
   5   8  -9   11.10    4.50
   5   8  -9   -5.50    2.60
  -5   8   9   -2.20    3.90
  -4  -8   9    8.30    4.10
  -4  -8   9   15.60    6.60
   4   8  -9   14.40    3.30
  -4   8   9   11.30    4.80
   4   8  -9    1.30    3.30
  -4   8   9   10.70    4.90
  -3  -8   9    7.60    3.90
  -3  -8   9    1.80    5.10
  -3   8   9   12.70    4.30
   3   8  -9    0.00    3.90
   3   8  -9    0.40    2.30
  -3   8   9   -2.30    3.00
  -3   8   9    6.20    4.50
  -2  -8   9  160.68   17.60
  -2  -8   9  138.79   11.60
  -2   8   9  147.09   15.30
  -2   8   9  142.29   12.50
  -2   8   9  144.69   13.80
  -1  -8   9   14.40    7.00
  -1  -8   9    8.50    2.90
   1   8  -9    1.40    2.30
  -1   8   9   -4.50    3.50
  -1   8   9    6.90    2.60
  -1   8   9    4.60    3.60
   0  -8   9   91.69   13.30
   0   8   9   70.49    9.40
   0   8   9   69.59   12.80
   0   8   9   72.59   12.10
  -1  -8  -9  147.79   15.40
   1  -8   9  140.19   16.70
  -1   8  -9  136.09   11.80
   1   8   9  142.79   15.00
   1   8   9  135.19   13.70
   2  -8   9    6.10    5.20
  -2  -8  -9   10.30    4.70
   2   8   9    3.90    4.40
   3  -8   9  156.48   19.40
  -3  -8  -9  183.38   18.00
  -4  -9   9   30.30    6.90
  -4  -9   9   21.40   10.40
  -4   9   9   48.40    9.70
   4   9  -9   26.70   11.60
  -4   9   9   35.70    9.30
  -3  -9   9  142.29   18.10
  -3  -9   9  117.59   11.80
   3   9  -9  103.29   15.50
  -3   9   9  143.39   15.00
  -2  -9   9   36.90    6.90
  -2  -9   9   31.60   10.40
  -1  -9   9   66.69    8.30
  -1  -9   9  102.79   15.40
  -1   9   9   58.29   13.30
  -1   9   9   78.99   16.00
   0  -9   9  120.69   16.90
   0   9   9  146.89   15.80
   0   9   9  115.79   13.20
  -1  -9  -9   14.60    6.70
   1   9   9    7.40    5.40
 -12   0  10  105.29   14.00
 -12   0  10  116.29   12.70
 -11   0  10  248.58   21.00
 -11   0  10  243.98   18.30
  11   0 -10  264.87   22.40
 -10   0  10  737.33   48.40
 -10   0  10  897.11   42.90
 -10   0  10  916.51   47.20
  10   0 -10  943.91   48.30
  -9   0  10   -3.00    2.80
  -9   0  10   -0.60    4.00
  -9   0  10   -2.00    4.00
  -8   0  10  518.65   32.10
  -8   0  10  532.35   31.10
  -8   0  10  563.14   27.50
   8   0 -10  528.25   30.90
  -7   0  10 1726.53   71.79
  -7   0  10 1692.53   76.39
  -7   0  10 1829.12   90.49
   6   0 -10  343.37   20.80
  -6   0  10  314.27   21.30
   6   0 -10  356.96   17.50
  -6   0  10  343.37   21.60
  -6   0  10  359.26   18.10
   5   0 -10 1153.08   47.50
  -5   0  10 1166.88   53.19
  -5   0  10 1144.09   52.79
   5   0 -10 1210.88   52.89
  -5   0  10 1143.89   48.10
  -4   0  10  434.76   23.10
  -4   0  10  394.06   22.60
   4   0 -10  398.46   18.30
  -4   0  10  415.06   18.80
   4   0 -10  389.36   20.50
   3   0 -10  624.94   26.90
  -3   0  10  562.34   31.50
  -3   0  10  593.44   25.20
  -3   0  10  600.74   25.50
  -2   0  10 2222.88   86.39
   2   0 -10 2462.55   90.69
  -2   0  10 2235.98   90.69
   2   0 -10 2128.79   86.49
  -2   0  10 2130.99   86.29
  -1   0  10  219.58   11.10
  -1   0  10  218.78   11.30
  -1   0  10  227.28   13.40
  -1   0  10  232.38   13.00
  -1   0  10  257.87   14.40
  -1   0  10  214.68   12.80
   0   0  10 1153.78   47.80
   0   0  10 1185.68   47.40
   0   0  10 1215.98   48.80
   0   0  10 1184.78   48.70
   0   0  10 1140.09   49.70
   1   0  10  737.83   31.80
   1   0  10  709.13   31.50
   1   0  10  739.33   32.10
   1   0  10  738.53   32.20
   1   0  10  750.62   32.70
   1   0  10  734.83   32.00
   2   0  10  170.88   10.40
   2   0  10  178.08   11.40
  -2   0 -10  182.68   11.10
   2   0  10  204.38   11.30
   2   0  10  186.68   10.90
   2   0  10  185.38   11.20
   3   0  10 1668.83   69.09
   3   0  10 1616.64   68.29
   3   0  10 1728.13   67.59
   3   0  10 1669.43   67.59
  -3   0 -10 1758.12   69.59
   4   0  10    6.10    2.30
   4   0  10    4.10    2.30
  -4   0 -10    1.80    2.50
   4   0  10    3.30    2.00
   4   0  10    3.70    2.20
   5   0  10   25.70    3.80
   5   0  10   27.60    5.80
  -5   0 -10   25.70    5.10
   5   0  10   22.40    3.50
  -6   0 -10  602.24   30.30
   6   0  10  554.94   27.80
   6   0  10  558.04   30.30
   6   0  10  551.04   24.00
  -7   0 -10   -0.40    3.20
   7   0  10   -1.30    2.60
   8   0  10    1.60    6.00
  -8   0 -10   -2.00    4.40
 -12  -1  10   31.70    9.20
 -12  -1  10   39.00    8.60
 -12   1  10   13.70    7.20
 -12   1  10   19.20    6.20
  12   1 -10   35.70   17.20
 -11  -1  10   24.80    7.10
 -11  -1  10   18.30    6.70
  11  -1 -10   11.30    7.90
 -11   1  10   30.60    7.40
 -11   1  10   18.60    7.20
  11   1 -10   45.20    8.10
  10  -1 -10  202.88   19.40
 -10  -1  10  216.88   18.50
 -10  -1  10  205.58   15.20
 -10   1  10  186.78   17.70
 -10   1  10  214.68   16.40
  10   1 -10  199.78   18.80
  -9  -1  10    0.90    2.10
  -9  -1  10    9.80    4.70
   9  -1 -10    0.50    3.80
   9   1 -10    6.90    4.30
  -9   1  10    1.50    3.50
  -9   1  10    7.90    4.50
  -9   1  10    5.80    4.60
  -8  -1  10   31.70    7.30
  -8  -1  10   46.10    8.70
  -8  -1  10   44.50    6.60
  -8   1  10   51.79    8.10
   8   1 -10   39.00    8.60
  -8   1  10   38.10    8.60
  -8   1  10   43.70    8.40
   7  -1 -10  119.99   11.60
  -7  -1  10  118.99    8.80
  -7  -1  10  117.89   12.40
  -7  -1  10  112.19   11.90
   7   1 -10  115.79   11.70
   7   1 -10  122.79    8.50
  -7   1  10  110.39   11.60
  -7   1  10  108.29   11.70
  -7   1  10  114.49    9.50
   6  -1 -10   17.40    4.40
  -6  -1  10   18.20    5.80
  -6  -1  10   25.00    6.00
   6  -1 -10   14.80    4.00
  -6  -1  10   16.40    3.50
  -6   1  10   10.30    4.20
  -6   1  10   23.20    4.60
  -6   1  10   16.00    4.80
   6   1 -10   15.50    3.00
  -5  -1  10 1063.09   49.99
   5  -1 -10 1077.99   46.90
  -5  -1  10 1103.39   43.40
  -5  -1  10 1052.69   48.70
   5  -1 -10 1048.90   44.70
   5   1 -10  996.70   42.70
   5   1 -10 1023.30   47.70
  -5   1  10 1050.59   45.30
  -5   1  10 1070.39   49.30
  -5   1  10 1162.78   49.70
  -4  -1  10   14.50    2.30
  -4  -1  10   19.20    5.00
   4  -1 -10   10.10    2.80
   4  -1 -10   12.70    2.90
  -4  -1  10   18.50    4.60
   4   1 -10    9.10    3.30
  -4   1  10   14.90    3.10
  -4   1  10   18.10    4.40
   4   1 -10   16.80    2.00
  -4   1  10   14.80    4.60
  -3  -1  10  679.83   29.70
  -3  -1  10  847.62   36.60
  -3  -1  10  771.82   29.70
  -3  -1  10  731.33   36.00
   3  -1 -10  779.42   31.90
  -3   1  10  798.22   36.90
  -3   1  10  761.72   32.80
  -3   1  10  742.23   34.90
  -3   1  10  801.02   33.20
   3   1 -10  767.42   34.40
  -2  -1  10 1384.36   60.59
  -2  -1  10 1429.06   60.89
  -2  -1  10 1492.55   60.69
   2   1 -10 1550.14   60.39
   2   1 -10 1343.17   58.29
  -2   1  10 1481.75   59.39
  -2   1  10 1451.15   57.99
  -2   1  10 1363.66   63.99
  -2   1  10 1420.56   57.89
  -1  -1  10   19.80    3.80
  -1  -1  10    8.70    1.40
  -1  -1  10    8.30    1.20
  -1  -1  10    5.70    2.50
  -1  -1  10    6.60    2.60
   1   1 -10    5.10    2.40
  -1   1  10    9.10    3.20
  -1   1  10    9.70    2.40
  -1   1  10   10.60    3.40
  -1   1  10    7.60    2.20
  -1   1  10   10.90    2.50
   0  -1  10 3330.87  128.49
   0  -1  10 3142.69  124.49
   0  -1  10 3266.17  128.69
   0  -1  10 3185.48  124.19
   0  -1  10 3249.67  126.79
   0   1  10 3289.07  125.49
   0   1  10 3385.56  129.39
   0   1  10 3302.87  126.79
   0   1  10 3313.37  127.39
   0   1  10 3280.67  125.39
   0   1  10 3166.78  128.39
   1  -1  10  317.77   17.70
   1  -1  10  353.76   17.70
   1  -1  10  389.36   18.10
   1  -1  10  411.06   20.60
   1  -1  10  409.66   20.20
   1   1  10  367.46   19.50
   1   1  10  384.36   19.70
   1   1  10  398.86   17.20
   1   1  10  440.36   21.00
   1   1  10  393.76   19.40
  -1   1 -10  398.26   17.60
   1   1  10  405.16   17.20
   2  -1  10   53.09    4.20
  -2  -1 -10   56.89    5.80
   2  -1  10   52.29    6.10
   2  -1  10   40.60    4.00
   2  -1  10   46.90    4.90
   2  -1  10   60.49    6.20
   2   1  10   53.19    5.60
   2   1  10   55.29    4.10
   2   1  10   46.20    4.00
   2   1  10   50.09    5.70
  -2   1 -10   52.99    4.80
   3  -1  10 1920.91   87.79
  -3  -1 -10 2154.38   87.79
   3  -1  10 2280.17   87.09
   3  -1  10 2149.19   87.59
  -3   1 -10 2170.08   86.29
   3   1  10 2285.17   87.39
   3   1  10 2143.09   86.59
   3   1  10 2255.97   86.89
   3   1  10 2068.49   84.89
   4  -1  10   76.89    8.40
   4  -1  10   94.59    8.40
  -4  -1 -10  100.59    8.80
   4   1  10   82.49    7.30
  -4   1 -10   86.29    7.70
   4   1  10   96.09    7.60
   4   1  10   80.29    7.20
   5  -1  10  384.06   23.10
   5  -1  10  352.36   21.70
  -5  -1 -10  414.86   23.00
  -5   1 -10  415.96   22.00
   5   1  10  399.96   21.10
   5   1  10  378.86   20.20
   5   1  10  424.56   20.40
  -6  -1 -10  413.16   23.80
   6  -1  10  376.56   23.20
   6  -1  10  373.76   24.30
   6   1  10  389.96   22.30
   6   1  10  430.56   20.40
  -6   1 -10  405.56   23.10
  -7  -1 -10    3.00    3.10
   7  -1  10   -1.30    2.60
   7   1  10    0.40    2.10
   7   1  10   -0.60    2.40
  -8   1 -10  290.27   20.20
 -12  -2  10    8.60    4.70
 -12   2  10    7.30    4.00
 -12   2  10    0.10    5.10
 -11  -2  10   18.80    7.30
 -11  -2  10   18.10    4.80
 -11   2  10    7.90    5.50
  11   2 -10    6.20    6.70
 -11   2  10    9.40    5.40
  10  -2 -10   53.09   11.10
 -10  -2  10   69.49   11.60
 -10  -2  10   75.79    8.50
 -10   2  10   59.49   10.00
  10   2 -10   39.70    8.70
 -10   2  10   71.89   11.70
  -9  -2  10   35.60    8.30
  -9  -2  10   34.80    9.50
  -9  -2  10   39.80    6.30
  -9   2  10   38.30    8.70
  -9   2  10   46.20    7.90
   9   2 -10   39.90    9.40
  -9   2  10   30.50    9.40
   8  -2 -10    1.40    2.80
  -8  -2  10    1.60    2.30
  -8  -2  10   -4.00    2.80
  -8   2  10    0.30    3.80
   8   2 -10    0.40    3.70
  -8   2  10   -3.30    3.20
  -8   2  10   -2.90    1.80
   7  -2 -10   14.70    4.90
  -7  -2  10   16.70    3.50
  -7  -2  10   14.20    5.10
  -7  -2  10   22.60    6.10
  -7   2  10   22.10    5.10
  -7   2  10   20.50    5.80
   7   2 -10   21.20    6.40
  -7   2  10   26.90    6.60
   7   2 -10   18.00    5.70
  -6  -2  10   69.69    8.50
  -6  -2  10   57.19    8.70
  -6  -2  10   58.39    5.00
   6  -2 -10   59.99    7.50
  -6   2  10   64.69    8.60
  -6   2  10   69.39    8.60
   6   2 -10   72.89    8.70
   6   2 -10   70.29    5.20
  -6   2  10   63.19    7.10
  -5  -2  10   -1.10    2.10
   5  -2 -10    1.40    1.80
  -5  -2  10    2.60    2.60
   5   2 -10    1.90    1.20
  -5   2  10    4.60    3.00
  -5   2  10    0.80    2.60
  -4  -2  10  324.97   20.90
  -4  -2  10  372.26   20.70
   4  -2 -10  345.77   18.00
   4  -2 -10  346.87   17.20
  -4   2  10  352.16   18.60
  -4   2  10  344.57   19.90
  -4   2  10  363.16   21.40
   4   2 -10  330.37   19.70
  -3  -2  10    3.10    2.50
  -3  -2  10    6.00    2.90
  -3  -2  10    5.90    3.20
   3  -2 -10    5.50    1.90
  -3   2  10    1.30    1.70
   3   2 -10    1.70    2.10
  -3   2  10    7.50    2.60
  -3   2  10    1.90    2.60
  -3   2  10    6.20    2.60
  -2  -2  10    1.50    1.80
  -2  -2  10    0.70    1.60
  -2  -2  10    3.80    2.70
   2   2 -10    2.80    1.90
   2   2 -10   -2.00    1.20
  -2   2  10   -1.90    1.40
  -2   2  10    0.00    1.50
  -2   2  10   -1.30    1.30
  -2   2  10    0.00    1.30
  -1  -2  10  979.90   42.00
  -1  -2  10  925.81   44.20
  -1  -2  10  945.51   44.10
   1   2 -10 1039.10   41.90
  -1   2  10 1068.99   45.20
  -1   2  10 1019.90   42.30
  -1   2  10  936.01   42.00
  -1   2  10  937.71   40.10
   0  -2  10  103.49    8.90
   0  -2  10   96.99    6.70
   0  -2  10   92.19    8.60
   0  -2  10   83.49    6.70
   0   2  10   96.29    8.80
   0   2  10  111.49    5.60
   0   2  10   92.19    7.50
   0   2  10   95.79    8.10
   0   2  10   95.39    5.00
   1  -2  10  180.88    9.60
   1  -2  10  187.98   13.30
   1  -2  10  184.38    9.50
   1  -2  10  183.28   12.80
   1  -2  10  188.88    9.20
   1   2  10  198.28   12.30
   1   2  10  203.28   13.30
  -1   2 -10  193.08    9.10
  -2  -2 -10  301.97   17.20
   2  -2  10  284.47   18.00
   2  -2  10  308.37   18.00
   2  -2  10  288.57   14.70
   2   2  10  304.97   17.60
  -2   2 -10  314.47   14.70
   3  -2  10  182.78   14.10
  -3  -2 -10  195.08   13.20
   3  -2  10  177.08   13.00
   3   2  10  203.58   13.00
   3   2  10  176.78    8.80
  -3   2 -10  199.68   11.20
   3   2  10  169.68    8.60
   4  -2  10  177.88   14.20
   4  -2  10  238.78   16.70
  -4  -2 -10  187.78   14.30
   4   2  10  229.58   11.70
   4   2  10  240.08   14.30
   5  -2  10   97.59   10.10
   5  -2  10   99.29   11.00
  -5  -2 -10  106.09    9.30
  -5  -2 -10  118.39   10.90
   5   2  10   98.09    7.70
  -5   2 -10  112.69    9.40
   5   2  10   97.39    8.60
   6  -2  10   -1.00    2.20
  -6  -2 -10    2.80    3.80
  -6  -2 -10    2.20    2.80
   6  -2  10    3.40    3.40
   6   2  10    2.10    2.10
  -6   2 -10    1.10    3.00
  -7  -2 -10   25.60    5.60
  -7  -2 -10   36.80    8.40
   7  -2  10   28.50    7.70
   7   2  10   22.70    5.30
  -7   2 -10   18.80    6.30
  -8  -2 -10   12.70    5.70
  -8  -2 -10   23.00    5.40
   8  -2  10   14.30    6.60
  -8   2 -10   19.40    5.40
   8   2  10   17.00    5.40
 -12  -3  10    6.20    4.30
 -12  -3  10   -4.20    4.70
 -12   3  10    7.00    5.10
 -11  -3  10   16.00    5.50
 -11  -3  10   24.10    8.50
 -11   3  10   27.90    7.10
 -11   3  10   22.80    7.00
  11   3 -10   30.80    8.50
  10  -3 -10   -2.50    5.90
 -10  -3  10   -3.10    3.30
 -10  -3  10   -2.10    2.90
  10   3 -10   -4.40    3.30
 -10   3  10    5.80    4.70
 -10   3  10    0.10    3.80
  -9  -3  10   57.09   10.60
  -9  -3  10   74.19    7.10
  -9   3  10   56.59    9.50
  -9   3  10   58.39   11.50
  -9   3  10   55.79   10.40
   9   3 -10   67.79    9.30
  -8  -3  10    2.40    4.10
  -8  -3  10   -5.10    3.50
  -8  -3  10   -3.70    1.70
   8  -3 -10    0.50    3.90
   8   3 -10   -5.20    3.20
  -8   3  10    6.70    4.70
   8   3 -10    8.70    3.00
  -8   3  10   -2.00    2.70
  -8   3  10   -0.70    3.10
  -7  -3  10   27.90    6.80
  -7  -3  10   43.60    8.60
   7  -3 -10   29.90    7.30
  -7  -3  10   45.10    4.40
  -7   3  10   31.30    7.70
   7   3 -10   35.00    4.40
  -7   3  10   45.20    7.50
  -7   3  10   37.40    7.40
   7   3 -10   39.00    7.70
  -6  -3  10  187.68    9.60
  -6  -3  10  192.58   14.80
  -6  -3  10  171.08   15.90
   6  -3 -10  194.58   14.00
   6   3 -10  180.68    9.50
  -6   3  10  185.18   13.40
  -6   3  10  180.68   14.70
   6   3 -10  178.28   14.90
  -6   3  10  191.18   15.50
  -5  -3  10   43.70    8.70
   5  -3 -10   33.90    4.90
  -5  -3  10   35.60    6.90
   5   3 -10   34.10    6.70
  -5   3  10   38.90    7.90
   5   3 -10   33.90    1.90
  -5   3  10   34.40    6.10
  -5   3  10   29.00    5.70
  -4  -3  10   11.20    4.20
   4  -3 -10   23.30    4.00
  -4  -3  10   22.80    4.70
  -4  -3  10   20.50    5.50
  -4   3  10   16.20    4.10
  -4   3  10   15.20    4.90
  -4   3  10   19.60    4.10
  -3  -3  10    4.10    2.80
  -3  -3  10    5.40    3.40
  -3  -3  10    4.00    2.60
  -3   3  10    3.70    2.10
  -3   3  10    3.50    3.30
  -3   3  10    2.40    1.90
   3   3 -10    4.40    2.60
  -2  -3  10    1.70    2.10
  -2  -3  10    2.80    2.10
  -2  -3  10    1.80    2.60
  -2   3  10    0.60    1.20
   2   3 -10    0.90    2.40
  -2   3  10    1.00    2.50
   2   3 -10   -0.60    1.60
  -2   3  10    0.00    1.40
  -1  -3  10  115.39   10.70
  -1  -3  10  116.69    8.20
  -1  -3  10  116.29   10.50
  -1   3  10  112.99   10.30
  -1   3  10  126.19    9.40
   1   3 -10  105.39    8.00
  -1   3  10  111.29    6.90
   0  -3  10   62.69    7.50
   0  -3  10   58.29    7.40
   0  -3  10   65.49    5.10
   0   3  10   66.19    7.60
   0   3  10   66.39    6.80
   0   3 -10   59.59    4.90
   1  -3  10    6.00    3.00
   1  -3  10   10.60    3.70
   1  -3  10   11.10    1.60
   1  -3  10    7.10    1.10
   1  -3  10    8.90    1.30
   1   3  10   10.30    3.40
   1   3  10    1.00    2.20
   2  -3  10   79.19    5.30
   2  -3  10   79.49    8.50
   2  -3  10   59.49    8.10
   2   3  10   72.69    7.70
  -2   3 -10   70.19    5.10
   2   3  10   67.29    7.80
  -3  -3 -10   12.30    4.00
   3  -3  10    4.50    3.00
   3  -3  10   13.40    5.10
   3  -3  10    8.00    2.50
  -3  -3 -10    8.80    3.20
  -3   3 -10    7.30    2.60
   3   3  10    7.70    2.90
   4  -3  10  116.69   11.40
  -4  -3 -10  134.59   11.60
   4  -3  10  133.29   13.20
  -4  -3 -10  126.39   10.70
   4   3  10  123.29    6.70
  -4   3 -10  119.59    9.10
   5  -3  10    3.60    2.70
  -5  -3 -10   -0.40    2.30
   5  -3  10    4.80    4.30
  -5   3 -10    0.80    2.20
   5   3  10    2.50    1.90
  -6  -3 -10   30.40    6.50
   6  -3  10   37.40    9.10
  -6  -3 -10   42.60    8.30
   6   3  10   35.40    4.60
  -6   3 -10   40.30    7.00
  -7  -3 -10   12.10    4.40
   7  -3  10   16.30    5.90
  -7  -3 -10   21.60    4.90
  -7   3 -10   24.60    6.30
   7   3  10   18.20    3.90
 -11  -4  10   -3.50    3.50
 -11  -4  10    2.80    5.00
  11   4 -10    8.10    8.30
 -11   4  10   -2.10    5.00
 -11   4  10    9.20    5.40
 -10  -4  10    2.00    2.50
 -10  -4  10   11.90    5.40
 -10   4  10   -5.70    3.30
  10   4 -10    5.90    4.10
 -10   4  10   -1.30    3.30
  -9  -4  10    5.60    2.20
  -9  -4  10   -5.20    1.80
  -9   4  10    0.80    3.70
  -9   4  10   -2.60    3.40
   9   4 -10    0.90    4.80
  -8  -4  10   63.69   10.40
   8  -4 -10   40.20    9.80
  -8  -4  10   65.69    6.10
  -8   4  10   94.29   14.80
  -8   4  10   59.39   10.50
   8   4 -10   64.99    9.50
  -8   4  10   59.69   10.60
   8   4 -10   60.19    6.80
  -7  -4  10    0.50    2.10
   7  -4 -10   -1.00    3.10
  -7  -4  10    2.50    1.70
  -7  -4  10    2.20    3.50
  -7  -4  10    0.60    3.10
   7   4 -10    2.40    3.30
  -7   4  10    3.30    3.50
   7   4 -10    3.40    2.00
  -7   4  10    5.10    3.60
  -6  -4  10   97.49    5.90
  -6  -4  10  101.09   10.50
   6  -4 -10   91.89    9.70
  -6  -4  10   93.99   11.80
  -6  -4  10  107.49   12.10
  -6   4  10   94.89    9.80
  -6   4  10   94.19   10.50
  -6   4  10  106.69   11.80
   6   4 -10  111.69   11.90
   6   4 -10   99.49    6.10
  -5  -4  10   22.60    6.50
  -5  -4  10   19.60    5.50
   5  -4 -10   23.40    5.50
  -5  -4  10   21.20    4.70
  -5   4  10   17.00    7.20
  -5   4  10   15.50    5.70
  -5   4  10   17.10    4.70
   5   4 -10   16.00    5.00
  -4  -4  10   20.30    4.50
  -4  -4  10   24.90    6.20
  -4  -4  10   13.20    4.80
  -4   4  10   18.70    5.50
  -4   4  10   33.40    5.90
  -4   4  10   32.50    6.20
   4   4 -10   21.40    5.30
  -3  -4  10  368.66   20.40
  -3  -4  10  383.46   24.00
  -3  -4  10  365.16   23.50
  -3   4  10  355.76   22.70
  -3   4  10  381.66   20.40
  -3   4  10  374.26   21.00
  -2  -4  10   11.00    3.10
  -2  -4  10   10.90    4.80
  -2  -4  10    0.70    2.90
  -2   4  10    6.30    3.10
  -2   4  10    5.80    3.60
  -2   4  10    6.70    2.30
   2   4 -10    4.80    2.80
   2   4 -10    5.60    4.20
  -1  -4  10    2.30    1.80
  -1  -4  10    0.80    2.40
  -1  -4  10    3.20    3.00
  -1   4  10   -1.60    2.40
  -1   4  10    0.50    1.10
   1   4 -10    0.10    2.10
  -1   4  10    1.50    2.30
   0  -4  10   52.49    7.80
   0  -4  10   46.90    4.20
   0  -4  10   50.29    7.70
   0   4  10   53.99    3.80
   0   4  10   44.20    6.90
   0   4 -10   40.20    4.30
   0   4  10   43.70    7.50
   1  -4  10    4.20    3.30
   1  -4  10   -1.80    2.00
   1   4  10   -1.40    2.20
   1   4  10    0.10    2.30
   2  -4  10   55.59    7.70
   2  -4  10   53.69    4.10
  -2  -4 -10   59.29    7.80
   2  -4  10   54.19    8.20
  -2   4 -10   59.79    4.40
   2   4  10   56.59    7.30
   2   4  10   57.49    7.70
   3  -4  10    9.50    4.30
   3  -4  10    4.60    2.30
  -3  -4 -10   13.90    4.80
   3  -4  10    9.40    4.90
  -3   4 -10    4.80    2.50
   3   4  10    6.90    4.00
   4  -4  10   49.10    9.50
  -4  -4 -10   36.70    7.20
   4  -4  10   29.90    7.00
   4  -4  10   26.10    6.50
  -4   4 -10   40.20    4.80
   5  -4  10   -1.60    3.00
  -5  -4 -10   10.80    4.70
   5  -4  10    5.80    4.40
  -5  -4 -10    6.80    4.20
   5   4  10    3.70    1.50
  -5   4 -10   -1.80    2.70
  -6  -4 -10    1.60    3.30
   6  -4  10    2.40    3.70
   6   4  10   -0.80    1.50
  -6   4 -10   -0.60    3.30
  -7  -4 -10  132.39   13.90
   7  -4  10  135.39   16.60
  -7  -4 -10  140.89   13.40
  -7   4 -10  149.19   18.90
   7   4  10  134.19   10.10
 -10  -5  10   21.40    8.70
 -10  -5  10   15.70    4.70
 -10  -5  10   27.80    9.00
 -10   5  10   28.90    8.30
 -10   5  10   22.80    6.90
  -9  -5  10  180.38   11.90
  -9  -5  10  183.58   19.20
  -9  -5  10  163.78   15.80
  -9   5  10  187.68   16.50
   9   5 -10  166.38   17.10
  -9   5  10  180.28   17.50
  -8  -5  10   -0.10    1.50
  -8  -5  10    3.20    4.40
  -8  -5  10    1.70    4.00
   8   5 -10    3.20    5.00
  -8   5  10    2.20    2.90
  -8   5  10    2.30    3.50
  -7  -5  10  281.47   14.20
   7  -5 -10  304.77   20.70
  -7  -5  10  292.07   20.70
  -7  -5  10  280.87   22.50
  -7   5  10  252.67   19.20
  -7   5  10  265.67   21.10
  -7   5  10  312.67   22.40
   7   5 -10  254.57   14.30
   7   5 -10  303.37   21.60
  -6  -5  10   92.89   12.00
   6  -5 -10  111.79   10.60
  -6  -5  10  112.39   12.90
  -6  -5  10   73.49    9.70
   6   5 -10   90.29    5.60
  -6   5  10   87.69   11.00
   6   5 -10   95.79    6.00
   6   5 -10   94.39   12.00
  -6   5  10  123.19   12.10
  -6   5  10   91.59   10.20
  -5  -5  10    6.90    3.80
  -5  -5  10   12.20    5.40
   5  -5 -10    9.00    3.40
  -5   5  10    8.00    3.90
  -5   5  10    9.70    4.70
   5   5 -10   12.90    4.80
  -5   5  10    6.70    3.40
  -4  -5  10  579.84   34.30
  -4  -5  10  653.63   31.30
  -4  -5  10  624.94   35.40
  -4   5  10  596.14   33.60
  -4   5  10  515.45   30.30
  -4   5  10  642.74   32.10
   4   5 -10  631.84   34.10
  -3  -5  10   21.20    6.10
  -3  -5  10   15.30    5.50
  -3  -5  10   13.10    3.80
  -3   5  10   19.70    5.00
  -3   5  10   17.30    4.40
   3   5 -10   17.00    5.60
  -3   5  10   15.90    5.70
  -2  -5  10  150.78   10.60
  -2  -5  10  146.19   14.30
  -2  -5  10  152.78   14.40
   2   5 -10  154.98   13.80
  -2   5  10  163.38   12.60
  -2   5  10  148.99   10.70
  -2   5  10  181.68   14.90
  -1  -5  10  198.38   17.10
  -1  -5  10  232.28   12.80
  -1  -5  10  210.78   17.10
  -1   5  10  209.78   16.60
  -1   5  10  217.98   12.60
  -1   5  10  207.88   15.00
   0  -5  10   -2.70    2.60
   0  -5  10    3.00    1.40
   0  -5  10    0.70    3.20
   0   5  10    2.40    1.40
   0   5  10   -0.80    1.90
   0   5  10    0.80    2.50
   0   5 -10    3.30    1.70
   1  -5  10  266.77   19.20
   1  -5  10  216.58   18.60
   1   5  10  250.87   18.10
   1   5  10  254.77   17.10
   2  -5  10    2.00    3.50
   2  -5  10    9.30    5.10
  -2  -5 -10    4.20    3.80
   2  -5  10    8.10    1.90
  -2   5 -10   10.90    1.80
   2   5  10   10.60    4.30
   2   5  10   12.40    4.30
   3  -5  10  122.49    7.90
  -3  -5 -10  123.89   14.00
   3  -5  10  111.39   12.90
   3  -5  10  115.89   13.40
  -3   5 -10  114.29    7.80
   3   5  10  135.79   12.40
   4  -5  10   28.00    8.10
  -4  -5 -10   30.90    7.10
   4   5  10   20.10    5.80
  -4   5 -10   27.30    4.70
   5  -5  10    5.20    5.10
  -5  -5 -10   -0.30    3.40
  -5  -5 -10   -0.30    3.40
   5   5  10    3.50    1.70
   5   5  10    7.50    4.00
  -5   5 -10   -1.60    2.90
  -6  -5 -10  166.98   14.90
   6  -5  10  183.58   18.70
  -6   5 -10  178.48   13.90
   6   5  10  162.38   10.20
 -10  -6  10   89.79    9.20
  10   6 -10   76.39   17.60
 -10   6  10  102.39   12.80
  -9  -6  10   20.90   10.20
  -9  -6  10   27.20    6.50
  -9  -6  10   27.80    4.70
  -9   6  10   29.30    7.70
   9   6 -10   36.80   11.10
  -9   6  10   25.00    7.50
  -8  -6  10  194.38   19.80
  -8  -6  10  179.68   16.40
  -8   6  10  168.78   17.00
  -8   6  10  178.68   16.10
   8   6 -10  204.18   19.10
  -7  -6  10   -7.30    2.80
  -7  -6  10   -3.30    3.80
  -7   6  10   -0.20    3.70
   7   6 -10    5.20    2.00
   7   6 -10    4.80    4.90
  -7   6  10   -5.00    3.00
  -6  -6  10  117.49   14.30
  -6  -6  10  129.39   14.40
  -6   6  10   98.99   12.70
   6   6 -10  116.69    6.90
  -6   6  10  122.39   12.30
  -6   6  10  117.59   13.00
   6   6 -10  127.89   14.20
  -5  -6  10  233.18   20.40
  -5  -6  10  234.48   16.80
  -5   6  10  220.08   17.30
   5   6 -10  231.48   19.20
  -5   6  10  207.98   18.10
  -5   6  10  238.68   17.60
  -4  -6  10   57.39   10.00
  -4  -6  10   75.59    8.40
  -4  -6  10   61.69   11.40
   4   6 -10   54.59   10.00
  -4   6  10   40.50    8.70
  -4   6  10   61.49   12.00
  -4   6  10   78.89    8.70
  -3  -6  10  390.86   26.70
  -3  -6  10  406.76   31.90
  -3  -6  10  397.66   21.50
  -3   6  10  392.76   25.40
  -3   6  10  444.66   27.50
  -3   6  10  298.37   20.60
   3   6 -10  339.17   24.20
  -2  -6  10    2.60    3.90
  -2  -6  10    1.30    2.00
  -2  -6  10    1.10    3.80
  -2   6  10    5.20    1.90
  -2   6  10    3.00    3.00
  -2   6  10   -4.20    3.20
   2   6 -10    0.70    3.00
  -1  -6  10  175.78   16.90
  -1  -6  10  195.18   11.60
  -1  -6  10  171.78   16.10
   1   6 -10  159.28   11.20
  -1   6  10  206.08   17.50
  -1   6  10  165.88   15.00
   0  -6  10  261.77   13.60
   0  -6  10  238.28   20.00
   0  -6  10  288.37   22.20
   0   6  10  253.27   19.30
   0   6  10  281.57   18.90
   0   6 -10  279.87   14.00
   0   6  10  279.97   15.30
   1  -6  10   74.49   11.50
   1  -6  10  104.69   13.00
   1   6  10   86.49   10.00
   1   6  10   97.49   11.00
   2  -6  10  356.06   25.50
  -2  -6 -10  351.46   23.70
  -2   6 -10  317.37   15.20
   2   6  10  327.37   21.70
  -3  -6 -10   10.20    5.40
   3  -6  10    3.30    4.90
   3   6  10    6.10    3.60
  -3   6 -10    0.80    2.40
  -4  -6 -10  184.88   16.10
   4  -6  10  156.98   17.60
   4   6  10  166.98   15.00
  -5  -6 -10  168.58   15.60
   5  -6  10  157.08   17.60
  -5   6 -10  188.68   13.40
   5   6  10  169.38   10.00
   5   6  10  149.88   15.40
  -8  -7  10   14.60    8.60
  -8  -7  10   10.60    5.90
  -8   7  10   23.70    7.50
   8   7 -10   30.70    9.00
  -8   7  10    5.70    7.30
  -7  -7  10  130.59   13.00
  -7  -7  10  124.99   16.40
   7   7 -10  153.38   16.20
  -7   7  10  129.59   15.00
  -7   7  10  144.99   14.60
  -6  -7  10  102.69   14.50
  -6  -7  10  104.29   11.90
  -6   7  10   99.19   12.70
   6   7 -10   65.39   18.40
  -6   7  10  121.79   12.40
  -5  -7  10  100.29   10.80
  -5  -7  10  110.19   14.60
   5   7 -10   90.59   12.50
  -5   7  10   83.19   13.60
  -5   7  10   99.79   11.10
  -5   7  10  111.49   12.30
  -4  -7  10  335.77   25.70
  -4   7  10  344.17   22.90
  -4   7  10  300.27   21.20
  -4   7  10  323.47   23.90
   4   7 -10  326.27   24.40
  -3  -7  10    0.00    2.30
  -3  -7  10    4.90    4.40
  -3   7  10   -0.80    3.10
  -3   7  10    2.40    2.50
  -3   7  10    4.50    4.00
   3   7 -10   -3.00    3.80
  -2  -7  10  227.48   20.50
  -2  -7  10  197.28   13.80
  -2   7  10  247.28   15.90
  -2   7  10  208.48   18.20
   2   7 -10  228.68   19.70
  -2   7  10  211.28   17.10
  -1  -7  10  144.19   11.50
  -1  -7  10  175.88   17.70
  -1   7  10  153.38   14.90
  -1   7  10  154.78   12.40
  -1   7  10  164.38   14.30
   0  -7  10   26.70   13.00
   0  -7  10   59.89    5.10
   0   7  10   54.39    9.70
   0   7  10   55.29    6.00
   0   7  10   52.59   10.00
   1  -7  10  254.27   22.00
   1   7  10  244.88   19.90
   1   7  10  254.67   19.10
  -2  -7 -10   -4.10    3.50
   2  -7  10    0.50    3.80
   2   7  10    6.30    3.40
   2   7  10   -1.50    3.00
   3  -7  10  105.79   15.00
  -3  -7 -10  125.39   13.30
   3   7  10  106.89   11.80
  -4  -7 -10   65.39   11.60
   4  -7  10   75.39   15.20
  -6  -8  10   26.80    7.10
  -6  -8  10   34.30   10.20
  -5  -8  10    1.30    4.90
  -5  -8  10    4.40    4.00
   5   8 -10   -1.60    4.70
  -5   8  10   -2.30    4.40
  -5   8  10    4.00    4.40
  -4  -8  10  166.18   13.70
  -4  -8  10  176.98   19.20
  -4   8  10  144.89   16.30
  -4   8  10  202.98   16.80
   4   8 -10  144.29   20.70
  -3  -8  10   49.10   11.20
  -3  -8  10   59.79    8.00
  -3   8  10   57.29   10.30
  -3   8  10   53.39    8.10
  -3   8  10   53.19   11.00
  -2  -8  10   28.10    6.10
  -2   8  10   38.30    7.20
  -2   8  10   37.40    8.40
  -2   8  10   20.30    7.20
  -1  -8  10  345.17   27.30
  -1  -8  10  340.57   18.60
  -1   8  10  333.37   25.00
  -1   8  10  326.07   23.20
  -1   8  10  343.97   21.30
   0  -8  10   36.00   10.70
   0   8  10   25.60    4.70
   0   8  10   34.00    7.70
   0   8  10   18.90    6.70
   1  -8  10   88.19   16.10
   1   8  10  127.49   12.60
   1   8  10  114.79   13.90
   2  -8  10  276.07   25.40
   2   8  10  385.26   29.50
 -12   0  11   10.50    5.20
 -11   0  11    4.30    4.20
 -10   0  11    1.70    2.90
 -10   0  11    7.40    5.40
  10   0 -11    4.40    4.90
   9   0 -11   -2.10    3.70
  -9   0  11    1.60    3.70
  -9   0  11   -2.40    1.70
  -9   0  11   -3.20    3.40
  -8   0  11    0.90    3.00
  -8   0  11    2.80    4.30
  -8   0  11    5.40    2.70
  -7   0  11   -0.30    1.80
  -7   0  11   -2.80    1.80
  -7   0  11   -2.30    2.60
   7   0 -11   -2.00    2.20
  -6   0  11    0.60    2.60
  -6   0  11   -3.40    2.50
   6   0 -11   -3.00    1.50
  -6   0  11   -0.40    1.30
   6   0 -11   -4.10    2.50
   5   0 -11    2.70    1.60
  -5   0  11    0.30    2.60
  -5   0  11    1.20    2.30
  -5   0  11   -0.50    1.40
   5   0 -11   -1.90    1.50
  -4   0  11    0.90    2.00
  -4   0  11    2.50    2.80
   4   0 -11   -0.40    1.50
  -4   0  11    1.40    1.30
  -3   0  11    0.30    1.80
  -3   0  11    3.00    2.30
   3   0 -11   -1.20    1.00
  -3   0  11    0.40    1.30
  -2   0  11   -1.20    1.10
  -2   0  11   -1.50    1.00
  -2   0  11    5.50    2.10
  -2   0  11    0.10    1.20
  -1   0  11    1.60    1.40
  -1   0  11   -0.20    1.20
  -1   0  11    2.60    2.20
  -1   0  11   -0.80    1.80
  -1   0  11    1.90    1.30
  -1   0  11    0.40    1.10
   0   0  11   -1.70    1.10
   0   0  11    0.00    1.30
   0   0  11    2.00    1.90
   0   0  11    0.20    1.10
   0   0  11    0.30    1.50
   0   0  11    2.50    1.90
   1   0  11    4.70    2.20
   1   0  11   -1.80    1.50
   1   0  11   -2.70    1.10
   1   0  11    0.70    1.20
   1   0  11    1.20    1.50
   1   0  11   -0.60    1.10
   2   0  11   -1.00    0.80
   2   0  11   -3.00    1.50
   2   0  11    0.30    2.00
   2   0  11    0.80    1.60
  -2   0 -11    0.40    1.50
   2   0  11   -0.50    1.80
   3   0  11    2.00    1.60
   3   0  11    0.90    2.00
   3   0  11    0.60    1.50
  -3   0 -11    0.10    1.60
   3   0  11    0.40    1.70
   4   0  11   -0.50    1.40
   4   0  11   -5.20    1.80
  -4   0 -11    2.80    2.20
   4   0  11   -1.70    1.60
   4   0  11    2.70    2.00
   5   0  11   -3.50    2.00
  -5   0 -11    0.80    2.50
   5   0  11    0.00    1.50
   5   0  11    2.10    2.30
  -6   0 -11    2.00    3.20
   6   0  11    2.10    2.10
   6   0  11    3.50    3.20
  -7   0 -11   -1.60    3.90
   7   0  11   -1.30    1.50
   7   0  11   -3.30    2.80
 -12  -1  11   35.40   10.60
 -12  -1  11   37.80    8.30
 -12   1  11   29.90    6.60
 -11  -1  11   39.20    9.00
 -11  -1  11   38.30    8.20
  11   1 -11   16.50    8.60
 -11   1  11   44.40    8.20
 -11   1  11   27.20    8.00
 -10  -1  11  247.48   16.50
 -10  -1  11  226.98   19.50
 -10   1  11  218.28   19.50
  10   1 -11  227.88   20.40
 -10   1  11  241.18   17.50
  -9  -1  11   -2.40    3.40
   9  -1 -11    3.20    3.60
  -9  -1  11    2.30    2.70
  -9  -1  11    1.20    3.60
  -9   1  11    2.10    3.10
   9   1 -11    0.40    3.60
  -9   1  11    4.30    4.30
  -9   1  11    3.00    3.40
  -8  -1  11  151.18   15.60
   8  -1 -11  169.58   14.80
  -8  -1  11  153.48   11.60
  -8  -1  11  173.48   15.60
  -8   1  11  155.68   17.60
  -8   1  11  176.68   12.90
   8   1 -11  159.68   15.00
  -8   1  11  147.89   20.80
  -7  -1  11  168.08   14.50
  -7  -1  11  147.19   14.70
  -7  -1  11  157.38   10.30
   7  -1 -11  165.68   13.80
  -7   1  11  139.99   14.00
  -7   1  11  153.78   11.40
   7   1 -11  154.18    9.80
  -7   1  11  148.79   13.90
   6  -1 -11   10.40    3.90
  -6  -1  11    9.60    2.50
  -6  -1  11    7.20    4.10
  -6  -1  11    8.30    4.20
  -6   1  11    6.40    3.40
  -6   1  11   10.70    4.80
  -6   1  11    2.40    2.10
   6   1 -11    4.40    3.00
   6   1 -11    7.20    2.30
  -5  -1  11  399.46   18.20
   5  -1 -11  395.26   19.90
  -5  -1  11  349.87   22.60
  -5  -1  11  441.26   25.30
   5  -1 -11  434.96   21.70
  -5   1  11  346.77   22.60
   5   1 -11  405.16   17.90
   5   1 -11  485.25   29.00
  -5   1  11  452.25   21.00
  -5   1  11  385.46   23.80
   4  -1 -11    0.80    1.50
  -4  -1  11    1.20    1.00
  -4  -1  11   -2.30    1.50
  -4  -1  11   -0.80    1.40
  -4   1  11    2.10    1.60
  -4   1  11    2.20    2.20
   4   1 -11    3.80    2.30
  -4   1  11   -1.50    1.40
  -4   1  11    5.80    3.50
  -3  -1  11    0.40    1.90
  -3  -1  11    3.60    2.20
   3   1 -11    3.20    2.10
  -3   1  11    4.30    2.40
  -3   1  11    8.60    3.00
  -3   1  11    3.40    2.10
  -3   1  11    6.30    2.00
  -2  -1  11  238.58   15.20
  -2  -1  11  230.88   14.80
  -2  -1  11  236.98   15.30
  -2   1  11  245.48   13.00
   2   1 -11  246.08   16.00
  -2   1  11  252.07   13.10
  -2   1  11  252.17   16.10
  -2   1  11  233.88   13.90
  -1  -1  11   15.70    3.60
  -1  -1  11   17.00    1.60
  -1  -1  11   20.10    4.30
  -1  -1  11   16.40    1.50
  -1  -1  11   16.90    4.30
  -1  -1  11   19.60    4.30
  -1   1  11   17.00    3.30
  -1   1  11   17.50    3.40
  -1   1  11   18.30    3.60
  -1   1  11   14.80    3.00
  -1   1  11   21.60    4.00
   0  -1  11   17.50    3.80
   0  -1  11   13.90    2.40
   0  -1  11   13.90    3.80
   0  -1  11   16.10    4.00
   0  -1  11   14.70    2.20
   0  -1  11   12.10    3.00
   0   1  11   18.40    3.50
   0   1  11   19.50    2.70
   0   1  11   18.90    3.70
   0   1  11   16.60    2.50
   1  -1  11    4.60    1.90
   1  -1  11    3.90    2.20
   1  -1  11    3.30    2.10
   1  -1  11    2.40    1.90
   1  -1  11    0.40    1.90
   1   1  11    4.90    2.30
   1   1  11    2.70    2.60
   1   1  11    5.90    2.20
   1   1  11    4.50    1.50
  -2  -1 -11   -0.80    1.80
   2  -1  11    3.50    1.80
   2  -1  11    2.00    2.00
   2  -1  11    0.80    1.40
   2  -1  11   -2.30    1.40
   2   1  11    3.40    1.40
   2   1  11    3.80    2.30
   2   1  11    2.00    1.40
  -2   1 -11    1.00    1.10
   3  -1  11    0.10    1.70
   3  -1  11    2.10    1.70
  -3  -1 -11   -1.00    1.60
   3  -1  11    0.60    2.20
   3   1  11    4.00    2.40
   3   1  11    3.50    1.40
   3   1  11   -1.10    1.20
   3   1  11    1.30    2.30
  -3   1 -11    4.40    2.20
   4  -1  11   84.79    8.40
  -4  -1 -11  112.79    9.70
   4  -1  11  103.99    9.70
  -4   1 -11  100.29    8.60
   4   1  11  103.39    7.40
   4   1  11   97.89    8.30
   4   1  11   92.29    8.20
   5  -1  11   -1.80    1.90
  -5  -1 -11   -0.50    2.70
   5  -1  11    0.30    2.40
  -5   1 -11   -3.70    1.90
   5   1  11   -4.90    1.80
   5   1  11   -1.90    1.10
   5   1  11   -0.20    1.70
   6  -1  11   22.20    4.60
   6  -1  11   21.90    5.80
  -6  -1 -11   32.20    6.50
  -6   1 -11   37.50    7.00
   6   1  11   32.80    4.10
   6   1  11   27.70    5.10
  -7  -1 -11   49.00    9.00
   7  -1  11   44.00    8.40
  -7   1 -11   53.39    8.50
   7   1  11   39.10    7.30
 -12  -2  11   -5.10    4.70
 -12  -2  11   -7.20    3.40
 -12   2  11  -10.40    5.60
 -12   2  11   -1.10    3.60
 -11  -2  11   -2.70    5.50
 -11  -2  11    1.60    3.40
 -11   2  11   -3.00    4.20
 -11   2  11    1.60    3.50
 -10  -2  11   85.49   11.40
 -10  -2  11   64.89    7.80
 -10   2  11   69.89    9.20
  10   2 -11   86.79   12.70
 -10   2  11   72.59   12.60
  -9  -2  11    0.60    4.20
  -9  -2  11   -8.20    4.40
   9  -2 -11    0.70    3.90
  -9  -2  11    2.40    2.30
  -9   2  11    7.10    4.80
  -9   2  11   -5.20    3.40
   9   2 -11    3.80    5.10
  -9   2  11   -1.20    2.60
  -8  -2  11  179.78   17.20
   8  -2 -11  216.98   17.20
  -8  -2  11  220.28   12.80
   8   2 -11  200.88   17.20
   8   2 -11  197.38   12.40
  -8   2  11  196.58   17.30
  -8   2  11  214.18   15.20
  -8   2  11  192.18   17.30
   7  -2 -11   66.69    8.90
  -7  -2  11   69.89    9.80
  -7  -2  11   85.89   10.00
  -7  -2  11   62.89    5.60
  -7   2  11   68.59    7.30
   7   2 -11   60.09    5.60
  -7   2  11   60.19    9.00
  -7   2  11   72.99    9.70
   6  -2 -11   -1.00    2.20
  -6  -2  11    6.50    4.10
  -6  -2  11    1.10    3.40
  -6  -2  11    5.00    1.70
  -6   2  11   -1.40    2.10
   6   2 -11    3.40    1.60
  -6   2  11    0.10    2.70
  -6   2  11    7.00    3.60
  -5  -2  11  488.25   19.30
  -5  -2  11  519.65   27.80
  -5  -2  11  442.36   27.90
   5  -2 -11  525.15   24.50
   5   2 -11  473.15   26.60
  -5   2  11  514.75   34.90
  -5   2  11  502.35   28.30
  -5   2  11  485.05   24.70
   4  -2 -11   70.79    5.30
  -4  -2  11   69.79    7.90
  -4  -2  11   54.69    8.00
  -4   2  11   78.79    7.10
   4   2 -11   65.49    7.50
  -4   2  11   70.39    8.70
  -4   2  11   66.09    7.30
  -3  -2  11  230.58   17.00
  -3  -2  11  278.67   18.00
  -3  -2  11  241.98   16.20
  -3   2  11  280.67   16.00
  -3   2  11  281.47   15.40
   3   2 -11  261.07   15.90
  -3   2  11  272.87   14.90
  -3   2  11  272.67   17.70
  -2  -2  11  127.89   11.40
  -2  -2  11  144.19   11.70
  -2  -2  11  139.49   10.50
   2   2 -11  145.29   10.40
  -2   2  11  135.99    9.60
  -2   2  11  139.39   11.60
  -2   2  11  152.08    9.80
  -2   2  11  147.79   10.10
  -1  -2  11   70.19    8.00
  -1  -2  11   64.29    7.60
  -1  -2  11   59.49    6.20
  -1   2  11   69.79    5.40
  -1   2  11   58.39    6.00
  -1   2  11   67.29    6.40
  -1   2  11   93.79    8.70
   0  -2  11  729.93   34.00
   0  -2  11  790.82   37.50
   0  -2  11  775.02   37.70
   0  -2  11  776.22   33.90
   0   2  11  800.92   31.40
   0   2  11  868.51   31.90
   0   2  11  734.33   37.90
   0   2  11  865.51   38.50
   1  -2  11   -1.00    1.10
   1  -2  11    1.00    2.30
   1  -2  11    1.50    1.30
   1  -2  11   -2.10    1.40
   1   2  11   -2.20    1.40
   2  -2  11    6.60    2.30
   2  -2  11    4.60    2.50
   2  -2  11    7.30    3.40
   2   2  11    5.60    2.50
   2   2  11    3.40    2.70
  -2   2 -11    7.10    1.80
   3  -2  11  406.66   23.20
   3  -2  11  337.17   27.50
   3  -2  11  409.36   20.50
  -3  -2 -11  428.36   23.00
  -3   2 -11  442.96   20.20
   3   2  11  432.46   22.80
   4  -2  11    3.30    2.80
   4  -2  11    7.30    3.40
  -4  -2 -11   10.70    4.00
  -4   2 -11    9.00    2.70
   4   2  11    7.90    2.10
   4   2  11    6.40    2.10
   4   2  11    7.30    1.90
   5  -2  11  130.99   12.50
   5  -2  11  102.09   10.80
  -5  -2 -11  133.59   12.20
   5   2  11  141.89   10.70
   5   2  11  135.09    8.90
  -5   2 -11  148.39   10.40
   6  -2  11   86.19    9.90
  -6  -2 -11   78.29   10.10
   6  -2  11   72.29   10.10
   6   2  11   89.19    8.50
  -6   2 -11   88.69    9.60
   6   2  11   87.69    7.70
  -7  -2 -11   25.40    7.10
   7   2  11   23.10    4.30
  -7   2 -11   26.70    6.90
   7   2  11   29.80    5.50
 -11  -3  11  104.69   10.50
 -11  -3  11   94.79   13.10
 -11   3  11  144.59   13.60
 -11   3  11  127.59   15.00
 -10  -3  11    2.90    5.20
 -10  -3  11   11.00    3.10
  10   3 -11   10.70    6.50
 -10   3  11   16.40    5.80
 -10   3  11    6.40    4.80
  -9  -3  11  393.66   26.30
   9  -3 -11  367.26   35.30
  -9  -3  11  374.56   20.30
  -9   3  11  365.46   26.10
  -9   3  11  382.06   27.70
   9   3 -11  426.46   28.20
  -8  -3  11  154.08   16.90
  -8  -3  11  203.08   17.10
  -8  -3  11  215.48   12.10
   8  -3 -11  204.48   17.20
  -8   3  11  230.68   16.30
   8   3 -11  206.68   17.80
  -8   3  11  192.18   17.30
   8   3 -11  193.28   11.90
  -8   3  11  229.48   18.50
  -7  -3  11   97.99    6.50
   7  -3 -11   80.79   10.00
  -7  -3  11   97.89   11.20
  -7  -3  11   87.59   12.10
  -7   3  11   77.49    9.10
   7   3 -11   94.89   11.20
   7   3 -11  104.39    6.60
  -7   3  11   93.19   11.30
   6  -3 -11  772.12   36.20
  -6  -3  11  772.12   41.40
  -6  -3  11  822.32   39.50
   6   3 -11  719.13   32.00
  -6   3  11  705.23   38.20
  -6   3  11  742.73   39.80
  -6   3  11  766.12   36.80
   6   3 -11  796.62   39.80
  -5  -3  11  168.48   12.90
  -5  -3  11  143.79   14.10
  -5  -3  11  152.58   14.40
   5  -3 -11  153.48   10.50
  -5   3  11  148.59   12.60
  -5   3  11  152.68   13.90
  -5   3  11  178.48   12.60
  -4  -3  11  894.21   43.10
  -4  -3  11  870.21   39.80
  -4  -3  11  825.22   42.20
   4   3 -11  823.12   40.20
  -4   3  11  784.82   38.60
  -4   3  11  876.11   38.70
  -4   3  11  741.33   40.50
  -3  -3  11  387.86   24.10
  -3  -3  11  403.46   24.70
  -3  -3  11  424.96   22.20
   3   3 -11  367.86   22.30
  -3   3  11  402.26   21.50
  -3   3  11  395.66   20.90
  -3   3  11  452.05   25.10
  -2  -3  11    0.80    2.80
  -2  -3  11   -2.00    1.60
  -2  -3  11   -0.70    1.70
  -2   3  11    3.00    2.50
   2   3 -11    0.20    2.30
   2   3 -11    3.10    2.30
  -2   3  11   -1.70    2.30
  -1  -3  11 1339.77   59.29
  -1  -3  11 1274.07   54.29
  -1  -3  11 1323.97   59.59
   1   3 -11 1362.36   54.49
  -1   3  11 1303.47   56.19
  -1   3  11 1344.47   59.29
  -1   3  11 1262.97   52.29
   0  -3  11   40.50    6.30
   0  -3  11   54.49    7.60
   0  -3  11   44.70    4.30
   0  -3  11   38.00    4.20
   0   3  11   34.60    6.60
   0   3  11   42.10    6.50
   1  -3  11  409.06   23.90
   1  -3  11  363.16   15.70
   1  -3  11  388.66   22.80
   1  -3  11  405.36   15.90
   1   3  11  399.26   21.50
   1   3  11  365.66   22.30
   2  -3  11  544.85   31.20
   2  -3  11  553.54   29.70
   2  -3  11  502.35   22.30
  -2   3 -11  536.95   22.40
   2   3  11  523.55   28.10
   2   3  11  523.05   27.40
   3  -3  11   11.40    2.40
   3  -3  11    9.80    4.00
   3  -3  11   18.30    5.80
  -3   3 -11   15.80    3.00
   3   3  11    8.80    3.20
   3   3  11    8.20    3.00
  -4  -3 -11  802.02   39.60
   4  -3  11  775.42   40.30
   4  -3  11  807.22   41.80
   4   3  11  748.63   38.30
  -4   3 -11  847.42   36.10
   5  -3  11   58.59    8.80
   5  -3  11   77.09   10.30
  -5  -3 -11   84.89    9.60
  -5   3 -11   80.99    6.90
   5   3  11   75.39    8.50
   5   3  11   65.29    4.90
  -6  -3 -11  121.39   12.20
   6  -3  11  111.09   12.90
   6   3  11  107.79    7.60
  -6   3 -11  108.59   10.30
   6   3  11  107.29   10.70
  -7  -3 -11  339.97   23.10
   7  -3  11  310.97   24.60
   7   3  11  330.77   20.80
  -7   3 -11  337.77   21.00
 -11  -4  11   48.20   10.80
 -11  -4  11   43.50    7.40
 -10  -4  11    7.70    5.70
 -10  -4  11    6.60    2.70
 -10   4  11   -2.10    4.60
 -10   4  11    6.40    4.40
  10   4 -11   -5.30    6.50
  -9  -4  11   64.19    6.30
  -9  -4  11   77.79   12.60
  -9   4  11   58.29   10.70
  -9   4  11   68.79   12.40
   9   4 -11   81.59   12.40
  -8  -4  11   12.50    5.10
  -8  -4  11    8.70    2.30
  -8   4  11    7.40    4.40
  -8   4  11    7.10    4.00
  -8   4  11    8.20    4.10
   8   4 -11   10.00    4.80
  -7  -4  11   46.80    9.80
  -7  -4  11   70.19    4.80
  -7  -4  11   71.19   13.30
  -7  -4  11   57.79   11.00
   7  -4 -11   78.69    9.40
  -7   4  11   62.09   10.80
   7   4 -11   62.89   10.90
  -7   4  11   64.29   10.10
  -7   4  11   65.39    9.00
   7   4 -11   63.79    5.20
   6  -4 -11  108.59   11.70
  -6  -4  11  128.09   14.10
  -6  -4  11  122.99   12.40
  -6  -4  11   98.39   12.30
  -6   4  11  127.89   13.50
  -6   4  11  112.99   11.50
  -6   4  11  138.49   11.80
   6   4 -11  122.09   14.90
  -5  -4  11   37.90    7.50
  -5  -4  11   55.79   10.70
  -5  -4  11   22.40    6.40
   5   4 -11   25.70    6.50
  -5   4  11   41.30    7.50
  -5   4  11   41.00    7.10
  -5   4  11   43.00    8.40
  -4  -4  11   44.50    9.10
  -4  -4  11   47.10    9.10
  -4  -4  11   58.39    7.00
  -4   4  11   54.99    7.00
  -4   4  11   47.50    9.20
  -4   4  11   46.70    6.60
  -3  -4  11   71.99    9.70
  -3  -4  11   58.89    6.70
  -3  -4  11   69.89   11.60
  -3   4  11   51.69    6.20
  -3   4  11   58.59    9.60
   3   4 -11   66.29    8.40
  -3   4  11   70.69    7.30
  -2  -4  11   37.80    5.10
  -2  -4  11   43.20    8.10
  -2  -4  11   36.40    7.30
  -2   4  11   63.59    6.50
   2   4 -11   29.00    5.70
  -2   4  11   45.80    8.40
  -2   4  11   51.59    5.30
   2   4 -11   43.40    5.70
  -1  -4  11    7.80    2.40
  -1  -4  11    9.00    4.80
  -1  -4  11    8.10    4.20
  -1   4  11    0.30    2.00
  -1   4  11    7.70    3.90
   1   4 -11    2.80    2.10
  -1   4  11    4.90    1.60
   0  -4  11   14.90    4.90
   0  -4  11   28.00    3.30
   0  -4  11   25.20    6.50
   0   4  11   27.70    5.80
   0   4  11   26.30    6.40
   0   4 -11   20.20    3.10
   1  -4  11    5.60    3.20
   1  -4  11    9.40    4.50
   1   4  11    6.60    3.30
   1   4  11    9.20    4.10
   2  -4  11    5.60    3.50
   2  -4  11    6.90    3.30
   2   4  11    7.30    3.70
   2   4  11   12.80    4.70
   3  -4  11  143.49   13.30
   3  -4  11  119.69    8.00
   3  -4  11  150.98   14.70
   3   4  11  151.48   13.30
  -3   4 -11  147.39    8.60
   3   4  11  137.69   12.80
   4  -4  11   35.50    7.90
   4  -4  11   32.70    7.60
  -4  -4 -11   56.99    9.30
   4   4  11   40.80    7.90
  -4   4 -11   53.49    5.70
   4   4  11   34.50    7.00
  -5  -4 -11   99.09   11.20
   5  -4  11   90.89   12.10
  -5   4 -11  105.69    8.80
  -6  -4 -11   43.70    9.00
   6  -4  11   33.50    8.10
  -6  -4 -11   50.99    8.90
  -6   4 -11   39.30    7.50
   6   4  11   55.89    4.30
 -10  -5  11   -3.50    3.00
 -10  -5  11    5.60    5.00
 -10  -5  11    2.20    6.50
 -10   5  11    6.70    3.80
 -10   5  11    1.40    4.80
  -9  -5  11  136.79   15.10
  -9  -5  11  163.58   10.60
  -9  -5  11  135.69   17.30
  -9   5  11  160.58   15.00
  -9   5  11  170.48   16.80
   9   5 -11  174.08   19.10
  -8  -5  11   42.00    4.40
  -8  -5  11   56.49   10.10
  -8  -5  11   46.90   11.50
  -8   5  11   44.50    8.70
   8   5 -11   52.59   11.50
  -8   5  11   43.50    9.30
  -7  -5  11   41.80    8.60
  -7  -5  11   53.09   11.10
   7   5 -11   35.20    3.40
  -7   5  11   33.30    7.30
   7   5 -11   57.59   10.50
  -7   5  11   32.10    7.50
  -7   5  11   41.70    9.60
  -6  -5  11  440.36   30.30
  -6  -5  11  506.35   28.40
  -6  -5  11  448.66   30.40
   6   5 -11  463.65   29.50
  -6   5  11  459.95   29.30
  -5  -5  11   25.10    7.40
  -5  -5  11   15.30    5.60
  -5  -5  11   19.40    5.10
  -5   5  11    8.20    3.50
  -5   5  11   10.20    5.30
  -5   5  11   23.30    6.00
   5   5 -11   14.20    5.80
  -4  -5  11  169.68   15.90
  -4  -5  11  150.38   14.60
  -4  -5  11  151.98   12.40
  -4   5  11  161.78   13.20
   4   5 -11  110.99   12.60
  -4   5  11  147.49   14.20
  -4   5  11  126.39   11.30
  -3  -5  11  277.67   21.00
  -3  -5  11  263.67   20.50
  -3  -5  11  278.87   16.60
  -3   5  11  269.47   16.30
  -3   5  11  276.97   18.20
   3   5 -11  235.78   18.60
  -2  -5  11    2.20    3.60
  -2  -5  11    5.10    3.50
  -2   5  11    5.70    3.60
  -2   5  11    6.00    3.60
  -2   5  11   -0.80    3.30
  -1  -5  11  374.46   24.80
  -1  -5  11  342.77   24.30
  -1  -5  11  356.66   18.20
  -1   5  11  356.96   21.70
  -1   5  11  371.56   17.90
  -1   5  11  360.06   23.70
   0  -5  11    7.80    1.90
   0  -5  11   -0.50    3.50
   0  -5  11    8.70    4.60
   0   5  11    4.80    3.70
   0   5 -11    3.90    2.20
   0   5  11    5.80    3.80
   0   5  11    7.20    1.90
   1  -5  11   51.39    9.60
   1  -5  11   37.10    8.10
   1   5  11   37.50    7.40
   2  -5  11  189.38   17.00
   2  -5  11  187.18   16.00
   2   5  11  201.58   16.20
   2   5  11  208.48   15.50
   3  -5  11   24.30    7.30
   3   5  11   12.80    4.70
   3   5  11    8.80    4.40
  -3   5 -11   16.70    2.90
  -4  -5 -11  211.78   17.40
   4  -5  11  231.28   20.20
  -4   5 -11  217.38   12.70
   4   5  11  194.18   16.40
  -5  -5 -11   35.20    8.10
   5   5  11   34.80    8.30
  -9  -6  11    1.70    8.10
  -9  -6  11   19.10    6.20
  -9   6  11    1.00    4.30
  -8  -6  11    1.30    4.40
  -8  -6  11   -0.60    5.20
  -8   6  11    1.10    5.90
  -8   6  11    4.30    4.40
   8   6 -11   -7.60    7.10
  -7  -6  11    3.40    5.90
  -7  -6  11    8.50    4.80
   7   6 -11   16.30    5.60
  -7   6  11   10.20    5.10
  -6  -6  11   -3.10    3.10
  -6  -6  11   -1.20    4.30
   6   6 -11    3.50    3.90
  -6   6  11   -1.60    3.90
  -6   6  11   -1.10    3.00
  -6   6  11    6.50    3.90
  -5  -6  11    5.10    3.50
  -5  -6  11   -4.20    3.20
  -5   6  11    3.50    3.50
  -5   6  11    2.00    4.70
   5   6 -11   -0.60    4.10
  -5   6  11    2.20    3.20
  -4  -6  11   51.89   10.50
  -4  -6  11   34.80    7.10
  -4   6  11   36.70    6.90
  -4   6  11   37.90    8.00
  -4   6  11   45.80    9.60
   4   6 -11   30.60    7.60
  -3  -6  11   39.80    5.00
  -3  -6  11   32.80    8.60
  -3  -6  11   45.60   10.30
  -3   6  11   22.40    4.70
  -3   6  11   23.00    6.80
  -3   6  11   19.40    6.60
  -2  -6  11   19.00    5.90
  -2  -6  11    9.40    3.10
  -2  -6  11   13.30    5.80
  -2   6  11    5.30    2.50
  -2   6  11    6.60    4.60
  -2   6  11    9.10    4.90
  -1  -6  11   50.39   11.90
  -1  -6  11   63.29    5.70
  -1  -6  11   51.69   11.50
  -1   6  11   70.09    6.40
  -1   6  11   54.89    9.40
  -1   6  11   77.49   12.20
   0  -6  11    4.70    4.10
   0  -6  11    5.40    1.90
   0   6  11   11.90    5.00
   0   6  11   10.60    2.80
   0   6  11    8.30    4.40
   1  -6  11   74.49   11.60
   1   6  11   89.99   11.10
   1   6  11   86.49   10.20
   2  -6  11   61.49   11.30
   2   6  11   46.60    9.20
   2   6  11   52.99    9.20
  -3  -6 -11   -5.60    3.90
   3  -6  11    1.00    5.40
   3   6  11   -1.00    3.50
   3   6  11    3.80    4.10
  -4  -6 -11   41.50   10.40
   4  -6  11   64.69   12.70
   4   6  11   33.50    8.40
  -8  -7  11   50.29   16.30
  -8  -7  11   16.90    6.00
  -8   7  11   28.80    8.10
  -8   7  11   20.30    8.30
  -7  -7  11   40.10    8.50
  -7  -7  11   46.20   14.40
  -7   7  11   32.40    8.30
  -7   7  11   46.80   10.00
  -6  -7  11   40.00    8.50
  -6  -7  11   44.70   12.20
   6   7 -11   24.10    9.80
  -6   7  11   33.70    7.80
  -6   7  11   20.00    7.50
  -5  -7  11    3.40    4.40
  -5  -7  11    6.90    4.20
  -5   7  11    5.40    3.60
   5   7 -11   -3.50    4.70
  -5   7  11   -4.70    4.00
  -4  -7  11   20.60    5.50
  -4  -7  11   28.00    9.10
  -4   7  11   38.10    8.10
  -4   7  11   23.80    7.20
   4   7 -11   19.60    6.50
  -3  -7  11   -2.80    2.50
   3   7 -11    3.00    3.10
  -3   7  11    2.10    2.00
  -3   7  11    3.30    3.70
  -3   7  11    3.20    3.80
  -2  -7  11   -4.20    3.70
  -2  -7  11    6.00    2.70
  -2   7  11    0.90    2.00
  -2   7  11    7.80    4.10
  -2   7  11    2.40    3.90
  -1  -7  11    6.20    4.90
  -1   7  11    5.50    3.90
  -1   7  11   -3.10    3.00
  -1   7  11    5.30    2.20
   0  -7  11   15.30    6.40
   0   7  11    7.10    3.60
   0   7  11    0.80    3.70
   1  -7  11   -4.10    3.50
   1   7  11   -8.50    3.10
   1   7  11   -2.80    2.70
   2  -7  11    5.60    5.50
   2   7  11   21.10    6.90
   2   7  11   18.30    5.40
  -3  -7 -11   -9.80    3.60
   3  -7  11   -2.10    5.00
   3   7  11    1.20    4.30
  -5  -8  11   79.69    9.70
  -5  -8  11   93.89   16.20
  -5   8  11   77.89   13.30
  -4  -8  11  113.69   11.50
  -4  -8  11  141.39   18.00
  -4   8  11  119.89   12.90
  -3  -8  11  131.39   17.10
  -3  -8  11  114.49   10.90
  -3   8  11  129.29   12.90
  -2  -8  11  307.47   26.30
  -2   8  11  304.37   19.80
  -2   8  11  284.27   26.20
  -2   8  11  316.87   22.10
  -1  -8  11   -2.00    4.80
  -1   8  11    3.00    3.20
  -1   8  11   -2.40    2.30
   0  -8  11  171.08   19.50
   0   8  11  179.18   20.60
   0   8  11  211.88   25.60
   1  -8  11  288.17   25.10
   1   8  11  251.17   22.30
   1   8  11  294.47   21.00
 -12   0  12   26.40    6.50
 -12   0  12   24.50    8.90
 -11   0  12    9.70    7.10
 -11   0  12   10.40    4.40
 -10   0  12    2.90    4.50
 -10   0  12   -0.70    3.80
  -9   0  12   75.99    7.90
  -9   0  12   67.09   11.90
  -9   0  12   57.99   15.60
  -8   0  12   46.80   10.30
   8   0 -12   39.00    8.00
  -8   0  12   57.39    6.00
  -8   0  12   51.19   10.00
   7   0 -12   38.10    9.10
  -7   0  12   32.70    7.50
   7   0 -12   36.20   11.00
  -7   0  12   53.19    9.00
  -6   0  12   82.99   10.00
   6   0 -12   80.59    7.50
   6   0 -12   87.19    9.20
  -6   0  12  103.69   11.00
  -6   0  12   85.09    7.10
   5   0 -12  345.47   19.20
  -5   0  12  359.16   22.10
  -5   0  12  331.87   16.80
  -5   0  12  345.77   22.00
  -4   0  12  365.36   21.70
  -4   0  12  355.46   16.50
  -4   0  12  321.97   16.00
   4   0 -12  390.06   23.50
  -4   0  12  323.47   20.70
  -3   0  12  202.48   10.20
  -3   0  12  171.98   10.00
  -3   0  12  213.38   14.20
  -3   0  12  213.88   14.70
  -2   0  12  472.55   21.60
  -2   0  12  501.35   26.10
  -2   0  12  492.45   21.60
  -2   0  12  500.55   25.30
  -2   0  12  523.85   25.40
  -1   0  12  725.13   29.50
  -1   0  12  696.13   32.20
  -1   0  12  696.03   33.20
  -1   0  12  688.13   32.10
  -1   0  12  683.73   29.70
   0   0  12  362.16   21.00
   0   0  12  355.86   18.90
   0   0  12  393.06   18.30
   0   0  12  359.16   17.40
   0   0  12  381.56   19.20
   0   0  12  389.56   20.30
   1   0  12  367.96   18.60
   1   0  12  364.56   17.90
   1   0  12  361.16   18.80
   1   0  12  360.76   18.60
   1   0  12  372.06   19.40
   2   0  12  230.28   14.70
   2   0  12  232.18   13.60
   2   0  12  213.68   13.90
   2   0  12  254.87   14.20
   2   0  12  259.57   14.10
   3   0  12  213.88   12.50
   3   0  12  225.28   13.30
  -3   0 -12  223.08   14.00
   3   0  12  236.48   14.10
   3   0  12  241.88   12.90
   4   0  12  246.68   12.70
   4   0  12  246.88   14.40
   4   0  12  231.78   15.00
  -4   0 -12  238.38   15.20
   5   0  12   -3.40    2.00
  -5   0 -12   -0.90    3.20
   5   0  12    0.30    1.80
   6   0  12  131.19   11.90
   6   0  12  126.59   10.30
 -11  -1  12   13.70    5.10
 -11  -1  12   13.40    6.40
 -11   1  12   20.80    5.60
 -11   1  12   12.60    6.70
 -10  -1  12  185.88   13.70
 -10  -1  12  156.88   16.40
 -10   1  12  162.68   16.50
 -10   1  12  158.58   13.90
  -9  -1  12  330.77   23.60
   9  -1 -12  269.27   22.10
  -9  -1  12  327.57   18.30
   9   1 -12  284.27   22.30
  -9   1  12  293.97   19.00
  -9   1  12  319.17   23.40
  -8  -1  12   16.50    6.80
   8  -1 -12   24.70    9.80
  -8  -1  12   25.90    7.70
  -8   1  12   18.10    6.40
  -8   1  12   24.30    5.00
  -8   1  12   16.30    7.00
  -7  -1  12  241.38   19.80
  -7  -1  12  272.37   14.50
  -7  -1  12  311.07   21.00
   7  -1 -12  246.58   17.70
  -7   1  12  230.48   19.00
  -7   1  12  282.07   16.40
   7   1 -12  263.37   18.90
  -7   1  12  291.87   20.90
  -6  -1  12   48.30    8.50
  -6  -1  12   53.89    4.80
  -6  -1  12   60.49   10.10
   6  -1 -12   39.00    6.10
  -6   1  12   67.69    8.80
   6   1 -12   69.79   13.10
  -6   1  12   47.80    8.80
  -6   1  12   65.99    8.00
   6   1 -12   52.39    4.50
  -5  -1  12  347.07   21.70
  -5  -1  12  329.17   15.00
   5  -1 -12  323.97   17.60
   5  -1 -12  417.16   23.60
  -5  -1  12  342.17   15.30
  -5  -1  12  333.77   22.10
  -5   1  12  371.96   22.60
  -5   1  12  329.77   17.80
  -5   1  12  347.87   23.40
   5   1 -12  328.67   19.80
  -4  -1  12  102.09    4.70
  -4  -1  12   96.19    4.50
  -4  -1  12  118.69   10.50
  -4  -1  12   92.29    9.90
  -4   1  12   85.89    9.00
   4   1 -12   92.19    8.50
  -4   1  12  118.69    8.00
  -4   1  12  101.39    7.60
  -4   1  12  110.69   10.90
  -3  -1  12   50.19    6.90
  -3  -1  12   50.59    6.90
  -3  -1  12   47.90    6.40
  -3   1  12   51.99    6.30
   3   1 -12   49.40    5.50
  -3   1  12   47.30    4.90
  -3   1  12   61.49    7.70
  -3   1  12   57.49    5.30
  -2  -1  12  500.35   28.20
  -2  -1  12  588.74   29.80
  -2  -1  12  563.24   29.40
  -2   1  12  627.34   26.90
  -2   1  12  662.53   28.60
  -2   1  12  614.44   30.70
  -2   1  12  551.24   26.20
  -1  -1  12   24.40    4.80
  -1  -1  12   20.10    4.60
  -1  -1  12   27.90    4.90
  -1  -1  12   17.20    4.40
  -1   1  12   21.70    3.70
  -1   1  12   22.80    3.50
  -1   1  12   22.70    4.80
  -1   1  12   25.90    3.80
  -1   1  12   24.00    4.20
   0  -1  12  471.65   22.50
   0  -1  12  424.86   23.00
   0  -1  12  416.46   18.90
   0  -1  12  430.46   19.20
   0  -1  12  460.55   23.50
   0  -1  12  456.25   21.80
   0   1  12  391.56   23.00
   0   1  12  475.85   21.40
   0   1  12  478.25   20.50
   0   1  12  427.06   21.90
   0   1  12  465.35   21.70
   1  -1  12   92.79    8.90
   1  -1  12  111.99    7.30
   1  -1  12  118.09    8.10
   1  -1  12  116.89    7.10
   1  -1  12  120.29    9.40
   1  -1  12  116.69    7.90
   1   1  12  128.59    9.90
   1   1  12  111.79    7.00
   1   1  12  113.29    8.90
   1   1  12  115.09    7.10
   2  -1  12    0.30    1.30
   2  -1  12    2.60    1.70
   2  -1  12    3.80    1.80
   2  -1  12    2.00    2.00
   2   1  12    2.30    1.10
  -2   1 -12    1.70    1.60
   2   1  12    1.90    2.60
   2   1  12    0.50    1.10
   2   1  12    2.90    1.90
   3  -1  12  320.07   18.60
  -3  -1 -12  321.47   18.70
   3  -1  12  331.97   19.60
   3   1  12  364.36   21.30
  -3   1 -12  323.87   17.30
   3   1  12  330.47   15.70
   4  -1  12    2.90    2.50
  -4  -1 -12    2.80    2.50
   4  -1  12    6.90    2.10
   4   1  12    1.90    1.90
   4   1  12    0.10    1.30
   4   1  12    6.50    1.70
   5  -1  12   33.70    7.60
   5  -1  12   47.90    7.00
  -5  -1 -12   35.60    7.00
   5   1  12   42.50    5.10
  -5   1 -12   47.00    7.40
   5   1  12   41.40    5.30
   5   1  12   44.80    5.10
   6  -1  12   10.80    3.70
   6  -1  12    8.80    4.40
  -6  -1 -12    5.50    4.30
   6   1  12   14.30    3.50
  -6   1 -12   11.90    4.40
   6   1  12    6.40    2.80
 -11  -2  12    5.30    4.20
 -11  -2  12   14.30    5.90
 -11   2  12   -6.30    4.50
 -11   2  12   -1.20    4.10
 -10  -2  12   11.60    6.40
 -10  -2  12   -0.10    2.60
 -10   2  12   11.40    6.10
 -10   2  12    7.30    4.20
  -9  -2  12   77.99   10.40
  -9  -2  12   61.09    6.40
   9   2 -12   45.60   13.00
  -9   2  12   66.29    8.30
  -9   2  12   49.90   10.50
  -8  -2  12    7.80    5.70
  -8  -2  12   17.50    5.50
  -8  -2  12   22.00    3.60
   8  -2 -12   16.50    6.10
  -8   2  12   17.40    5.20
   8   2 -12   18.00    5.90
  -8   2  12   16.20    6.90
  -8   2  12   21.80    6.70
   8   2 -12   10.50    3.80
  -7  -2  12   71.09    5.50
  -7  -2  12   85.39   10.60
  -7  -2  12   56.99   10.90
   7  -2 -12   64.39    8.50
  -7   2  12   50.89    9.70
  -7   2  12   83.29   10.10
   7   2 -12   76.99    5.50
  -7   2  12   70.09    7.90
  -6  -2  12   46.80    8.50
  -6  -2  12   29.30    7.50
   6  -2 -12   38.10    6.80
  -6   2  12   41.00    8.20
  -6   2  12   30.40    5.80
   6   2 -12   37.70    7.10
  -6   2  12   35.40    8.00
  -5  -2  12  136.99   13.30
   5  -2 -12  130.69    9.60
  -5  -2  12  131.39   12.20
  -5   2  12  134.09   12.80
   5   2 -12  104.79   12.30
  -5   2  12  123.19    9.70
  -5   2  12  131.59   11.80
  -4  -2  12  356.96   21.10
  -4  -2  12  320.67   21.50
  -4  -2  12  328.87   21.70
  -4   2  12  337.67   21.70
  -4   2  12  338.17   20.00
  -4   2  12  342.07   19.10
   4   2 -12  336.87   19.90
  -3  -2  12   15.20    3.50
  -3  -2  12   14.70    4.80
  -3  -2  12   17.30    5.30
  -3   2  12   17.10    5.20
   3   2 -12   14.70    3.80
  -3   2  12    9.90    3.00
  -3   2  12   11.50    3.40
  -2  -2  12   87.99    9.60
  -2  -2  12   97.69    9.90
  -2  -2  12   97.49    9.80
  -2   2  12  105.79    8.40
  -2   2  12   99.99    7.90
  -2   2  12   97.99    9.70
  -1  -2  12  470.85   26.40
  -1  -2  12  435.66   23.60
  -1  -2  12  494.95   26.70
  -1  -2  12  493.95   23.80
  -1   2  12  519.35   27.20
  -1   2  12  520.85   22.30
  -1   2  12  493.15   24.60
   0  -2  12   35.30    6.60
   0  -2  12   49.40    4.60
   0  -2  12   47.70    6.50
   0  -2  12   41.00    4.60
   0   2  12   48.50    3.40
   0   2  12   43.80    7.30
   0   2  12   49.10    5.50
   1  -2  12  115.49    7.00
   1  -2  12  134.99   11.20
   1  -2  12  107.79    6.60
   1  -2  12   92.39    6.30
   1  -2  12  112.69   10.00
   1   2  12  105.89    8.80
   1   2  12  107.89    9.70
   2  -2  12   39.00    7.30
   2  -2  12   23.80    5.00
   2  -2  12   32.00    3.70
   2   2  12   32.20    6.00
   2   2  12   31.30    5.40
   3  -2  12    2.50    1.90
   3  -2  12   -2.20    1.70
   3  -2  12   -5.00    2.00
   3   2  12   -2.50    2.40
  -3   2 -12    0.30    1.60
   3   2  12    4.20    2.80
   4  -2  12  102.99    9.90
   4  -2  12   79.19    9.90
  -4  -2 -12   86.29    9.30
  -4   2 -12  114.79    8.50
   4   2  12  109.79    9.50
   5  -2  12   20.20    5.10
   5  -2  12   21.20    5.40
  -5  -2 -12   27.20    6.60
   5   2  12   22.80    3.30
   5   2  12   21.20    3.40
  -5   2 -12   29.00    5.40
   5   2  12   27.70    5.00
   6  -2  12   13.10    7.70
  -6  -2 -12   17.50    5.60
  -6   2 -12    9.00    4.40
   6   2  12   10.10    3.80
   6   2  12   14.10    3.10
 -11  -3  12   76.89    8.30
 -11  -3  12   67.99   13.20
 -11   3  12   56.59    9.70
 -11   3  12   49.00   10.60
 -10  -3  12   15.00    6.50
 -10  -3  12   24.10    4.40
 -10   3  12   21.30    6.40
 -10   3  12   26.40    7.80
  -9  -3  12    8.40    5.00
   9   3 -12    7.10    4.40
  -9   3  12   -4.50    3.70
  -9   3  12   -4.70    2.60
  -8  -3  12   68.49   11.20
  -8  -3  12   76.69    5.80
  -8   3  12   79.79    9.40
   8   3 -12   57.29   11.30
  -8   3  12   69.49   12.00
  -8   3  12   56.69   10.30
  -7  -3  12   88.59    5.30
   7  -3 -12   79.49    9.70
  -7  -3  12   62.49   11.00
  -7  -3  12   86.89   14.70
   7   3 -12   97.69   11.10
  -7   3  12  104.09   11.10
   7   3 -12   90.99    5.40
  -7   3  12   81.89   10.70
  -7   3  12   90.99    9.50
   6  -3 -12    6.30    3.30
  -6  -3  12   18.30    6.00
  -6  -3  12    8.00    4.90
  -6  -3  12   16.00    5.60
  -6   3  12    6.20    3.60
  -6   3  12   15.10    4.90
  -5  -3  12    5.70    3.80
  -5  -3  12    2.70    3.80
  -5  -3  12    0.60    3.10
  -5   3  12    0.10    2.60
  -5   3  12    5.10    2.30
   5   3 -12    1.80    2.30
  -5   3  12    2.60    3.20
  -4  -3  12  159.28   14.40
  -4  -3  12  141.99   11.60
  -4  -3  12  153.38   14.10
  -4   3  12  135.09   11.20
  -4   3  12  144.99   11.20
   4   3 -12  145.79   12.60
  -4   3  12  151.88   13.70
  -3  -3  12    1.40    2.30
  -3  -3  12    3.20    2.70
  -3  -3  12    1.40    2.70
  -3   3  12   -0.90    3.40
   3   3 -12    0.70    2.40
  -3   3  12    0.90    1.80
  -3   3  12    6.10    2.90
  -2  -3  12   -0.50    2.10
  -2  -3  12    3.90    2.90
  -2  -3  12   -0.80    1.90
  -2   3  12   -0.10    2.90
  -2   3  12   -0.40    1.70
  -1  -3  12    7.50    3.70
  -1  -3  12    3.60    2.60
  -1  -3  12   -0.10    1.80
   1   3 -12   -2.60    3.30
  -1   3  12   -1.30    1.60
  -1   3  12    6.30    3.70
  -1   3  12    1.70    1.20
   0  -3  12   48.50    8.40
   0  -3  12   49.50    4.70
   0  -3  12   43.20    4.40
   0  -3  12   47.20    8.20
   0   3  12   50.99    6.30
   0   3  12   32.90    7.00
   1  -3  12   11.90    5.00
   1  -3  12   32.20    6.00
   1   3  12   22.60    5.30
   1   3  12   27.70    6.60
   2  -3  12   29.50    7.10
   2  -3  12   20.70    5.00
   2  -3  12   24.20    3.70
   2   3  12   25.60    5.20
   2   3  12   18.30    5.30
   3  -3  12    0.20    2.70
   3  -3  12    4.30    3.00
   3   3  12    1.60    2.60
  -3   3 -12    3.20    2.10
   3   3  12   -1.10    3.10
   4  -3  12    3.30    3.10
   4  -3  12    0.60    2.60
  -4  -3 -12   -2.00    3.10
   4   3  12   -0.60    2.90
  -4   3 -12    2.20    2.30
   5  -3  12    4.30    3.80
  -5  -3 -12   -4.90    3.00
   5   3  12   -0.50    3.40
  -5   3 -12    0.80    3.30
  -6  -3 -12   51.59    9.80
   6  -3  12   48.20   10.20
  -6   3 -12   68.39    8.60
   6   3  12   44.40    7.90
 -10  -4  12   18.30    7.30
 -10  -4  12   12.80    3.30
 -10   4  12   22.90    5.10
 -10   4  12   15.20    6.90
  -9  -4  12   34.90    4.40
  -9  -4  12   38.80    8.70
  -9   4  12   32.20    9.20
  -9   4  12   23.70    7.70
   9   4 -12    9.40   11.20
  -8  -4  12   52.59    4.40
  -8  -4  12   84.29   14.80
  -8  -4  12   60.29   10.50
  -8   4  12   53.69    9.40
   8   4 -12   48.10   10.10
  -8   4  12   55.69   11.00
  -7  -4  12   81.19   13.50
  -7  -4  12   88.09   11.20
  -7   4  12   83.99    9.70
  -7   4  12   79.19   10.50
  -7   4  12   73.29   12.10
  -6  -4  12   29.50    8.20
  -6  -4  12   33.30    7.30
  -6  -4  12   37.70    8.40
  -6   4  12   36.80    7.50
  -6   4  12   38.40    7.70
   6   4 -12   31.60    8.00
  -6   4  12   24.00    7.20
  -5  -4  12    9.50    4.90
  -5  -4  12   19.40    5.10
  -5  -4  12   17.80    5.90
  -5   4  12   18.90    5.90
  -5   4  12   21.30    5.30
  -5   4  12   26.40    5.90
  -4  -4  12   49.40   10.10
  -4  -4  12   68.69    7.90
  -4  -4  12   52.99    9.80
   4   4 -12   73.79    9.40
  -4   4  12   69.89   12.50
  -4   4  12   58.59    7.50
  -3  -4  12   39.90    6.60
  -3  -4  12   30.00    7.80
  -3  -4  12   38.80    8.10
  -3   4  12   36.70    8.10
   3   4 -12   33.90    7.40
  -3   4  12   39.00    7.00
  -3   4  12   42.30    5.20
  -2  -4  12   35.00    8.10
  -2  -4  12   35.30    7.50
  -2  -4  12   31.70    6.10
  -2   4  12   36.00    7.70
  -2   4  12   32.20    4.10
  -2   4  12   42.60    7.50
  -1  -4  12    7.30    2.40
  -1  -4  12    2.00    4.10
  -1  -4  12    5.60    3.80
  -1   4  12    4.50    3.10
  -1   4  12    7.10    1.90
  -1   4  12    3.00    4.00
   0  -4  12    0.80    1.60
   0  -4  12   -0.50    2.10
   0  -4  12    3.20    1.50
   0  -4  12    0.20    2.60
   0   4  12    6.00    3.80
   0   4  12   -2.50    2.80
   1  -4  12   40.80    8.40
   1  -4  12   37.00    6.90
   1   4  12   28.10    6.30
   1   4  12   36.70    7.60
   2  -4  12   25.40    7.00
   2  -4  12   16.50    5.20
   2   4  12   21.00    5.60
   2   4  12   22.80    6.20
   3  -4  12  154.68   15.30
   3  -4  12  111.59   13.00
   3   4  12  140.49   15.00
   3   4  12  146.09   12.70
  -3   4 -12  140.69    7.80
   4  -4  12    2.50    3.60
   4   4  12    1.40    3.80
   4   4  12   -5.20    2.70
  -4   4 -12   -2.10    2.40
   5  -4  12   10.30    5.10
   5   4  12    5.30    4.40
   5   4  12    1.80    4.30
  -5   4 -12   16.10    5.00
  -9  -5  12   68.49   12.80
  -9  -5  12   59.19   10.30
  -9   5  12   77.99   10.10
  -9   5  12   74.59   12.80
  -8  -5  12   15.70    8.60
  -8  -5  12   14.10    5.90
  -8   5  12   25.80    6.70
   8   5 -12   16.20    8.00
  -8   5  12   21.40    6.60
  -7  -5  12  157.28   21.80
  -7  -5  12  109.19   12.10
  -7   5  12   73.99   14.80
  -7   5  12  116.09   12.00
  -7   5  12  109.19   13.70
  -6  -5  12   13.60    5.50
   6   5 -12    9.50    5.50
  -6   5  12   25.80    7.40
  -6   5  12   26.30    6.30
  -6   5  12   16.50    5.00
  -5  -5  12   98.19   10.40
  -5  -5  12   99.69   12.80
  -5   5  12   82.69   11.40
  -5   5  12   77.99    9.20
   5   5 -12   80.19   11.40
  -4  -5  12  141.09   12.20
  -4  -5  12  147.09   15.30
  -4  -5  12  132.49   14.40
  -4   5  12  166.48   12.40
  -4   5  12  137.59   12.60
  -4   5  12  128.39   14.00
  -3  -5  12   35.70    8.70
  -3  -5  12   45.20    5.80
  -3  -5  12   35.90    9.00
  -3   5  12   33.90    7.20
  -3   5  12   30.80    8.10
   3   5 -12   28.20    7.80
  -2  -5  12   84.09   11.60
  -2  -5  12  101.29    8.10
  -2   5  12   75.39    9.30
  -2   5  12   93.29   10.90
  -2   5  12   98.19    7.80
  -1  -5  12   -0.50    4.00
  -1  -5  12    3.90    3.70
  -1   5  12   10.20    3.90
  -1   5  12    9.20    2.20
  -1   5  12    9.80    4.40
   0  -5  12   91.09    7.50
   0  -5  12  109.59   12.60
   0  -5  12   93.79   11.50
   0   5  12   97.79   11.50
   1  -5  12   78.49   10.90
   1   5  12   74.29   10.10
   1   5  12   76.89    9.30
   2  -5  12   45.20    9.10
   2   5  12   54.19    9.70
   2   5  12   58.09    9.20
   3  -5  12  128.89   15.00
   3   5  12  138.39   12.80
   3   5  12  109.89   12.90
   4  -5  12    6.20    5.40
   4   5  12   -1.80    4.50
  -8  -6  12   92.19   11.70
  -8  -6  12  122.19   16.80
  -8   6  12   96.09   12.10
  -7  -6  12   -0.30    3.90
  -7  -6  12   -1.60    4.90
  -7   6  12   -4.40    4.10
  -7   6  12    9.10    4.20
  -6  -6  12  122.19   15.90
  -6  -6  12  119.19   12.30
  -6   6  12  128.69   13.40
  -6   6  12  121.79   14.60
  -5  -6  12   78.59   14.50
  -5   6  12   80.99   10.80
  -5   6  12   62.09    8.10
  -5   6  12   74.59    9.90
  -4  -6  12  164.98   17.00
  -4  -6  12  139.29   12.50
  -4   6  12  180.68   16.50
  -4   6  12  151.88   12.10
  -4   6  12  162.28   14.30
  -3  -6  12   75.69   13.60
  -3  -6  12   58.89    7.00
  -3   6  12   79.59    7.90
  -3   6  12   50.99    9.30
  -3   6  12   63.19   11.10
  -2  -6  12    9.60    4.90
  -2  -6  12    7.40    2.80
  -2   6  12   10.80    5.40
  -2   6  12    2.70    4.40
  -2   6  12   10.30    3.00
  -1  -6  12  175.88   10.40
  -1  -6  12  169.08   17.30
  -1   6  12  172.48   14.70
  -1   6  12  163.08   15.90
  -1   6  12  170.98   11.00
   0  -6  12    1.70    3.80
   0   6  12    2.60    4.50
   0   6  12    2.20    3.40
   1  -6  12  178.38   17.80
   1   6  12  160.58   15.50
   1   6  12  153.38   14.30
   2  -6  12   47.10    9.30
   2   6  12   70.09    9.00
   2   6  12   94.99   11.10
   3  -6  12   59.59   12.70
   3   6  12   59.39   10.40
   3   6  12   51.19    9.70
  -7  -7  12   -0.60    5.60
  -7  -7  12    1.80    4.20
  -7   7  12   -6.80    4.30
  -6  -7  12   18.40    6.50
  -6  -7  12   25.30    8.90
  -6   7  12   24.70    6.40
  -5  -7  12  143.49   17.20
  -5   7  12  157.28   14.80
  -5   7  12  128.09   15.90
  -4  -7  12    5.00    3.70
  -4  -7  12    9.20    5.40
  -4   7  12   10.80    6.20
  -4   7  12   22.80    5.60
  -4   7  12   24.30    4.60
  -3  -7  12  200.38   14.80
  -3  -7  12  230.28   21.70
  -3   7  12  187.48   18.60
  -3   7  12  218.58   15.50
  -3   7  12  219.28   16.90
  -2  -7  12   34.50    8.80
  -2  -7  12   40.10    5.10
  -2   7  12   45.70    8.10
  -2   7  12   22.50    7.30
  -2   7  12   42.30    5.50
  -1  -7  12   73.59   13.30
  -1   7  12   80.69   13.10
  -1   7  12   95.59    8.50
  -1   7  12  101.39   10.60
   0  -7  12  254.47   23.30
   0   7  12  279.67   22.20
   0   7  12  287.97   20.40
   1  -7  12    5.70    5.30
   1   7  12   -5.90    4.00
   1   7  12   -1.60    3.80
   2  -7  12  173.78   19.40
 -11   0  13    0.10    3.80
 -10   0  13   -2.40    3.20
 -10   0  13   -5.00    4.40
  -9   0  13    0.50    5.20
  -9   0  13    1.20    2.80
  -8   0  13   -5.60    3.50
  -8   0  13   -0.30    3.70
  -8   0  13    2.80    2.10
   8   0 -13    0.20    4.10
  -7   0  13    4.60    4.30
   7   0 -13   -2.90    2.70
  -7   0  13   -2.40    1.90
  -7   0  13   -5.40    2.40
   7   0 -13   -4.30    2.30
   6   0 -13    2.40    2.70
  -6   0  13    3.00    1.80
  -6   0  13    4.20    3.40
  -6   0  13   -3.20    2.90
  -5   0  13    0.80    2.50
  -5   0  13   -1.40    1.30
  -5   0  13    3.70    1.50
   5   0 -13   -0.60    2.70
  -5   0  13    0.40    3.10
  -4   0  13   -2.70    1.20
  -4   0  13    3.70    3.30
  -4   0  13   -2.60    1.30
  -4   0  13   -2.10    1.50
  -3   0  13    0.30    2.10
  -3   0  13   -2.90    1.10
  -3   0  13    1.70    1.50
  -3   0  13    0.00    2.40
  -2   0  13    5.80    2.80
  -2   0  13    0.20    1.50
  -2   0  13    1.60    1.90
  -2   0  13    0.30    1.40
  -2   0  13   -0.10    1.30
  -1   0  13    0.20    1.40
  -1   0  13   -0.90    1.50
  -1   0  13   -2.00    1.20
  -1   0  13    0.50    1.50
  -1   0  13    2.50    2.70
   0   0  13    0.10    1.30
   0   0  13   -1.20    1.30
   0   0  13   -1.00    1.90
   0   0  13    2.40    2.00
   0   0  13   -1.10    1.30
   1   0  13    1.50    1.30
   1   0  13   -1.80    1.10
   1   0  13   -1.90    2.20
   2   0  13   -1.80    1.20
   2   0  13    0.10    1.40
   2   0  13    2.90    1.90
   3   0  13    1.20    2.00
   3   0  13    0.30    1.90
  -3   0 -13    0.40    2.00
   3   0  13    1.60    1.80
   4   0  13   -0.40    1.40
  -4   0 -13    1.30    2.60
   4   0  13   -2.00    1.80
   4   0  13   -0.40    2.00
   5   0  13   -3.10    1.90
  -5   0 -13    0.10    3.20
  -6   0 -13   -7.40    3.30
   6   0  13   -2.90    2.50
   6   0  13   -2.60    2.40
 -11  -1  13    3.40    9.90
 -11  -1  13    1.00    4.00
 -11   1  13    2.10    4.40
 -11   1  13   -7.10    5.10
 -10  -1  13    7.40    3.90
 -10  -1  13  -10.40    4.00
 -10   1  13    0.90    4.40
 -10   1  13   -3.30    3.50
  -9  -1  13   11.70    5.70
  -9  -1  13    7.10    3.20
  -9   1  13    2.00    3.90
  -9   1  13    5.80    3.10
  -8  -1  13    0.60    1.60
  -8  -1  13   -8.90    4.00
  -8  -1  13   -2.10    3.80
  -8   1  13   -3.00    1.90
   8   1 -13   -2.80    3.80
  -8   1  13   -4.90    3.60
  -8   1  13    1.70    2.80
   7  -1 -13   -1.40    2.90
  -7  -1  13   -3.20    3.30
  -7  -1  13    1.00    1.50
  -7  -1  13    3.90    4.10
  -7   1  13    0.80    3.30
   7   1 -13   -2.40    3.60
   7   1 -13   -1.30    2.00
  -7   1  13   -2.50    2.00
  -7   1  13    0.40    2.30
  -6  -1  13   26.70    3.00
  -6  -1  13   30.20    6.90
  -6  -1  13   25.70    6.90
   6  -1 -13   34.70    6.60
  -6  -1  13   33.20    3.40
  -6   1  13   34.20    7.20
  -6   1  13   18.60    6.50
   6   1 -13   35.10    7.60
  -5  -1  13   10.10    4.10
  -5  -1  13    6.80    3.60
  -5  -1  13    5.30    1.60
  -5  -1  13    5.60    1.40
   5   1 -13    2.50    3.00
  -5   1  13    0.60    3.10
  -5   1  13    4.70    4.00
  -5   1  13    2.80    1.60
  -5   1  13    7.10    2.30
  -4  -1  13   33.00    6.70
  -4  -1  13   30.00    7.50
  -4   1  13   34.80    4.40
  -4   1  13   32.60    6.50
  -4   1  13   25.60    6.30
   4   1 -13   22.80    5.20
  -4   1  13   35.70    4.30
  -3  -1  13    2.50    2.50
  -3  -1  13    8.60    3.50
  -3  -1  13    2.50    3.00
  -3   1  13    3.10    1.90
  -3   1  13    1.20    1.70
  -3   1  13    6.30    3.60
  -2  -1  13   14.90    4.10
  -2  -1  13   16.10    4.70
  -2  -1  13   14.40    3.90
  -2   1  13   10.00    2.90
  -2   1  13   17.20    4.10
  -2   1  13   24.10    5.60
  -2   1  13   13.20    3.70
  -1  -1  13   87.79    8.70
  -1  -1  13  110.19    9.60
  -1  -1  13  108.19   10.70
  -1   1  13   97.19    8.00
  -1   1  13   95.89    7.50
  -1   1  13   96.29    7.40
  -1   1  13   85.99    9.20
  -1   1  13   97.99    7.40
   0  -1  13    4.10    2.40
   0  -1  13    3.90    3.00
   0  -1  13    1.30    1.60
   0  -1  13    3.40    2.60
   0   1  13   -0.20    1.60
   0   1  13    1.60    1.30
   0   1  13    2.80    2.50
   0   1  13    0.90    2.60
   0   1  13    2.90    1.50
   1  -1  13   -2.10    1.00
   1  -1  13   -3.90    1.60
   1  -1  13    0.40    1.90
   1  -1  13   -5.70    2.80
   1  -1  13   -1.20    1.70
   1   1  13   -0.50    2.30
   1   1  13    1.50    1.50
   1   1  13   -1.30    1.10
   1   1  13   -0.90    0.90
   2  -1  13   26.80    3.90
   2  -1  13   33.50    3.90
   2  -1  13   41.50    5.90
   2  -1  13   35.00    4.90
   2  -1  13   27.00    3.80
   2   1  13   36.30    3.70
   2   1  13   35.80    3.70
   2   1  13   29.50    5.50
   2   1  13   41.90    5.10
   3  -1  13    0.30    1.80
   3  -1  13    1.10    2.40
   3   1  13   -0.10    2.00
   3   1  13    2.20    1.60
   3   1  13    0.30    1.10
   3   1  13   -2.50    2.10
  -4  -1 -13   12.80    4.50
   4  -1  13    9.80    3.10
   4  -1  13    6.40    2.90
   4   1  13   11.60    2.90
  -4   1 -13   10.10    3.70
   4   1  13   11.40    2.70
   5  -1  13    4.80    2.80
  -5  -1 -13    3.10    2.80
   5  -1  13    4.00    3.30
  -5   1 -13    3.20    4.30
   5   1  13    3.70    3.30
   5   1  13   -0.30    2.00
 -11  -2  13   26.90    9.30
 -11   2  13   28.80    8.40
 -11   2  13   18.40    5.60
 -10  -2  13  234.18   14.10
 -10  -2  13  223.28   20.20
 -10   2  13  210.98   20.00
  -9  -2  13   42.00    9.90
  -9   2  13   28.70    6.60
  -9   2  13   32.70    8.10
  -8  -2  13  258.57   13.50
  -8  -2  13  269.77   20.80
  -8   2  13  245.98   20.20
  -8   2  13  247.28   20.60
  -8   2  13  237.78   16.90
   7  -2 -13  120.89   13.20
  -7  -2  13  117.49    6.70
  -7  -2  13  122.59   13.10
  -7  -2  13   97.39   13.10
  -7   2  13  131.49   13.00
   7   2 -13  116.49    6.70
  -7   2  13  122.09   13.30
   7   2 -13  101.99   12.10
  -7   2  13  135.79   10.70
  -6  -2  13   -3.30    3.00
  -6  -2  13   -0.60    3.60
   6   2 -13    5.90    3.80
  -6   2  13    0.30    2.30
  -6   2  13    2.70    3.30
  -6   2  13    1.40    3.40
  -5  -2  13  445.36   28.60
  -5  -2  13  477.25   27.80
  -5  -2  13  509.55   29.60
  -5   2  13  423.76   26.30
  -5   2  13  527.75   25.10
  -5   2  13  515.95   29.40
   5   2 -13  479.55   26.60
  -4  -2  13    0.70    2.20
  -4  -2  13    2.40    2.80
  -4  -2  13    3.90    3.30
   4   2 -13    5.00    2.70
  -4   2  13    5.30    4.20
  -4   2  13    4.00    2.30
  -4   2  13    9.70    2.50
  -3  -2  13   92.99   10.10
  -3  -2  13   87.89    8.90
  -3  -2  13   81.79    9.40
  -3   2  13   89.29   10.20
   3   2 -13   86.79   10.50
  -3   2  13   95.49    8.30
  -3   2  13   81.09    7.40
  -2  -2  13  170.08   13.90
  -2  -2  13  142.29   12.80
  -2  -2  13  181.58   12.50
  -2   2  13  165.98   11.20
  -2   2  13  172.48   14.10
  -2   2  13  174.88   11.10
  -1  -2  13  143.89   10.80
  -1  -2  13  171.58   13.50
  -1  -2  13  142.19   10.30
  -1  -2  13  175.98   16.80
  -1   2  13  149.49   10.70
  -1   2  13  157.28   13.50
  -1   2  13  178.68    9.40
  -1   2  13  168.88    9.50
   0  -2  13  277.57   17.80
   0  -2  13  256.37   14.10
   0  -2  13  282.97   18.30
   0  -2  13  239.78   14.10
   0   2  13  281.17   15.90
   0   2  13  271.77   18.00
   1  -2  13   20.60    5.00
   1  -2  13   21.20    5.60
   1  -2  13   16.10    2.80
   1  -2  13   16.50    2.60
   1   2  13    9.20    2.90
   1   2  13    8.80    3.80
   2  -2  13  291.87   18.60
   2  -2  13  244.98   12.80
   2  -2  13  266.77   17.20
   2  -2  13  261.37   12.40
   2   2  13  257.27   16.30
   2   2  13  246.48   16.50
   3  -2  13  175.78   14.40
   3  -2  13  173.98   13.00
   3   2  13  181.68   13.40
  -3   2 -13  177.98   10.30
   3   2  13  151.98   12.40
   4  -2  13  118.79   11.00
   4  -2  13  113.69   11.90
   4   2  13  160.88   11.70
  -4   2 -13  113.19    8.70
  -5  -2 -13  255.67   18.40
   5  -2  13  253.97   26.50
   5   2  13  245.78   16.50
  -5   2 -13  278.07   16.40
 -10  -3  13   17.10    3.60
 -10  -3  13    3.90    5.70
 -10   3  13    8.00    4.80
 -10   3  13   -1.50    5.10
  -9  -3  13  131.59    8.60
  -9  -3  13  137.39   14.80
  -9   3  13  136.19   15.40
  -9   3  13  140.89   13.30
  -8  -3  13   73.89    4.90
  -8  -3  13   62.99   10.80
  -8   3  13   44.70    9.60
  -8   3  13  100.29   10.30
  -7  -3  13    4.50    4.50
  -7   3  13    8.60    4.00
  -7   3  13    8.80    4.30
  -7   3  13    7.10    4.60
  -6  -3  13  133.29   23.90
  -6  -3  13  135.19   14.70
  -6  -3  13  126.99   12.60
   6   3 -13  122.49   12.80
  -6   3  13  107.49   10.70
  -6   3  13  119.19   12.10
  -6   3  13  127.59   13.50
  -5  -3  13   42.80   11.70
  -5  -3  13   31.00    7.00
  -5  -3  13   30.60    7.60
  -5   3  13   35.80    5.80
  -5   3  13   23.20    5.80
  -5   3  13   21.80    6.70
  -4  -3  13   62.49    9.00
  -4  -3  13   52.39   10.70
  -4  -3  13   58.29   10.40
  -4   3  13   57.69    6.60
  -4   3  13   56.59    6.80
  -4   3  13   57.39   10.20
   4   3 -13   37.10    7.00
  -3  -3  13    4.20    2.90
  -3  -3  13    0.10    4.00
  -3  -3  13    0.70    1.80
  -3   3  13   -0.20    1.90
   3   3 -13   -2.30    2.70
  -3   3  13   -1.50    3.10
  -2  -3  13    0.50    2.40
  -2  -3  13    2.10    1.50
  -2  -3  13   -0.60    2.90
  -2   3  13   -1.50    3.40
  -2   3  13    6.10    3.00
  -2   3  13   -0.40    1.30
  -1  -3  13   35.50    7.40
  -1  -3  13   52.89    5.50
  -1  -3  13   53.79    5.80
  -1  -3  13   52.89    8.10
  -1   3  13   45.40    8.40
  -1   3  13   41.10    3.40
  -1   3  13   45.40    6.80
   0  -3  13  127.89   12.40
   0  -3  13  139.89    8.50
   0  -3  13  140.59    8.50
   0  -3  13  137.49   12.90
   0   3  13  131.99   12.50
   0   3  13  158.88   11.80
   1  -3  13   25.50    5.80
   1  -3  13   34.90    7.70
   1   3  13   26.30    5.50
   1   3  13   43.50    7.90
   2  -3  13   -2.00    2.50
   2  -3  13   -1.30    2.40
   2   3  13    3.70    2.50
   2   3  13    4.90    3.80
   3  -3  13  221.08   17.70
   3  -3  13  212.48   16.80
   3   3  13  250.07   19.90
   4  -3  13   21.70    6.00
   4   3  13   37.10    7.50
   4   3  13   48.10    7.90
   5  -3  13   62.59    9.20
   5   3  13   57.19    9.60
   5   3  13   36.90    7.50
 -10  -4  13   76.79   13.40
 -10  -4  13   47.90   11.40
 -10   4  13   65.89    8.40
 -10   4  13   48.40   11.30
  -9  -4  13   32.90    9.90
  -9  -4  13   19.90    6.70
  -9   4  13   10.40    7.20
  -8  -4  13  156.98   17.50
  -8  -4  13  172.58   16.00
  -8   4  13  142.89   13.60
  -8   4  13  157.58   16.00
  -7  -4  13   83.49   12.40
  -7  -4  13  102.79   11.60
  -7   4  13  100.19   11.00
  -7   4  13   89.89   11.00
  -7   4  13   85.59   11.50
  -6  -4  13    0.20    3.60
  -6   4  13   -1.40    3.50
  -6   4  13   -0.80    3.10
  -6   4  13    1.10    2.50
  -5  -4  13  162.88   15.90
  -5  -4  13  145.29   13.00
   5   4 -13  188.38   16.10
  -5   4  13  145.39   12.50
  -5   4  13  167.48   13.40
  -5   4  13  145.59   14.90
  -4  -4  13   33.40    8.40
  -4  -4  13   15.30    6.10
  -4  -4  13   44.30    7.60
  -4   4  13   31.70    6.20
   4   4 -13   17.10    5.40
  -4   4  13   19.30    4.30
  -4   4  13   24.60    7.60
  -3  -4  13   24.40    6.90
  -3  -4  13   18.90    6.10
  -3  -4  13   19.20    4.70
  -3   4  13   18.80    6.20
  -3   4  13   20.70    5.40
  -3   4  13   28.50    4.20
   3   4 -13    7.70    4.30
  -2  -4  13   48.50    5.70
  -2  -4  13   59.99   10.60
  -2  -4  13   50.19    9.50
  -2   4  13   57.59    7.20
  -2   4  13   61.29   10.20
  -2   4  13   39.10    4.40
  -1  -4  13   16.50    3.00
  -1  -4  13    4.40    3.30
  -1  -4  13   11.20    4.70
  -1   4  13    7.50    4.40
   0  -4  13   40.90    4.90
   0  -4  13   29.20    6.70
   0  -4  13   26.80    6.40
   0  -4  13   39.50    3.50
   0   4  13   33.30    6.80
   1  -4  13    4.30    3.80
   1  -4  13    4.90    3.50
   1   4  13    8.10    5.40
   1   4  13   -0.60    2.40
   2  -4  13   45.20    8.80
   2   4  13   48.20    9.30
   2   4  13   48.50    8.10
   3  -4  13   29.40    7.90
   3   4  13   22.80    6.30
   3   4  13   34.70    7.40
   4  -4  13   45.40   13.00
   4   4  13   24.80    6.60
   4   4  13   16.10    6.60
  -9  -5  13   10.60    7.40
  -9  -5  13   27.70    7.80
  -9   5  13   21.00    7.50
  -9   5  13   23.80    7.10
  -8  -5  13   80.99   11.10
  -8  -5  13   60.19   12.90
  -8   5  13   77.59    9.30
  -8   5  13   87.69   14.30
  -7  -5  13    1.70    3.90
  -7  -5  13   -0.50    4.00
  -7   5  13   -4.40    2.80
  -7   5  13   -5.60    3.30
  -6  -5  13   49.20    8.90
  -6  -5  13   42.00   10.70
  -6   5  13   46.20    8.70
  -6   5  13   59.09    8.50
  -6   5  13   36.30    8.10
  -5  -5  13   25.30    6.50
  -5  -5  13   36.80    9.70
  -5   5  13   27.40    6.80
  -5   5  13   25.60    7.30
  -5   5  13   26.70    5.40
  -4  -5  13   11.40    4.20
  -4  -5  13    8.20    4.50
  -4   5  13   12.00    4.70
  -4   5  13    8.10    5.40
  -3  -5  13   13.00    5.30
  -3  -5  13   16.90    3.90
  -3   5  13    1.00    4.00
  -3   5  13   13.60    3.30
  -3   5  13   10.40    4.50
  -2  -5  13   20.50    7.00
  -2  -5  13   19.70    3.60
  -2   5  13   26.20    7.70
  -2   5  13   17.10    5.40
  -2   5  13   23.50    4.10
  -1  -5  13   24.30    3.70
  -1  -5  13   26.60    8.10
  -1   5  13   12.70    4.60
  -1   5  13   15.30    6.30
  -1   5  13   21.90    2.70
   0  -5  13   14.10    5.50
   0   5  13   16.90    6.90
   0   5  13   17.30    5.00
   1  -5  13  185.08   17.10
   1   5  13  144.99   15.30
   1   5  13  161.38   14.00
   2  -5  13    9.00    5.40
   2   5  13   16.70    5.40
   2   5  13   19.60    6.60
   3  -5  13   84.59   12.40
   3   5  13   91.29   10.50
   3   5  13   86.09   11.20
  -7  -6  13   -2.00    3.80
  -7  -6  13   -2.10    5.90
  -7   6  13    3.60    4.60
  -6  -6  13   -0.60    3.70
  -6   6  13    2.10    3.90
  -6   6  13    6.10    3.10
  -5  -6  13   15.90    5.50
  -5  -6  13   12.30    6.10
  -5   6  13   21.80    5.40
  -5   6  13   18.80    7.00
  -5   6  13    6.90    4.70
  -4  -6  13   -6.30    3.30
  -4  -6  13    0.50    3.30
  -4   6  13    5.60    2.60
  -4   6  13   -6.20    3.60
  -4   6  13    0.20    3.60
  -3  -6  13   18.60    7.20
  -3  -6  13   24.80    5.80
  -3   6  13   23.30    6.90
  -3   6  13   16.20    7.40
  -3   6  13   29.60    5.60
  -2  -6  13   92.29   12.30
  -2  -6  13   90.99    7.50
  -2   6  13   91.69    7.70
  -2   6  13   78.39   10.50
  -2   6  13   68.89   12.30
  -1  -6  13    0.30    4.10
  -1   6  13   -1.40    4.10
  -1   6  13   -5.70    3.30
   0  -6  13   39.30    9.10
   0   6  13   59.59    9.30
   0   6  13   41.70    8.90
   1  -6  13  122.49   15.00
   1   6  13  137.49   13.20
   1   6  13  142.49   14.60
   2  -6  13   -1.20    4.60
   2   6  13   10.20    4.90
   2   6  13    8.00    5.00
  -5  -7  13   20.70    6.40
  -5  -7  13   26.90    8.60
  -5   7  13   32.20    9.50
  -5   7  13   32.90    7.10
  -4  -7  13  109.19   15.70
  -4   7  13  123.99   14.70
  -4   7  13  128.99   12.70
  -3  -7  13   22.00    8.50
  -3  -7  13   14.70    4.70
  -3   7  13   12.00    4.00
  -3   7  13   11.10    4.40
  -2  -7  13   70.19   12.80
  -2   7  13   84.69    9.90
  -2   7  13   82.59    8.10
  -1  -7  13   78.49   14.00
  -1   7  13   89.99    7.50
  -1   7  13   96.79   11.10
   0  -7  13   25.30    9.00
   0   7  13   11.90    5.50
   0   7  13   15.60    7.30
 -10   0  14    8.90    4.40
 -10   0  14    9.10    5.10
  -9   0  14  219.28   19.90
  -9   0  14  230.08   14.70
  -8   0  14   84.19   13.40
  -8   0  14  101.19    8.10
  -7   0  14  121.49    8.30
  -7   0  14  119.79   13.10
  -7   0  14  105.99   12.10
  -6   0  14  131.99    9.20
  -6   0  14  170.28    9.90
   6   0 -14  180.58   12.80
  -6   0  14  175.58   15.50
  -6   0  14  200.08   19.10
  -5   0  14    2.50    3.20
  -5   0  14    7.60    2.20
  -5   0  14    2.50    2.40
  -5   0  14    7.10    2.00
  -4   0  14  275.97   19.50
  -4   0  14  292.47   19.30
  -4   0  14  269.47   13.30
  -4   0  14  293.97   13.50
  -3   0  14  100.99    6.00
  -3   0  14   87.89    9.90
  -3   0  14  106.69    6.20
  -3   0  14  100.69    9.60
  -3   0  14   94.89    9.50
  -2   0  14   31.80    3.20
  -2   0  14   33.10    6.20
  -2   0  14   39.50    3.80
  -2   0  14   35.20    6.10
  -2   0  14   37.20    5.40
  -1   0  14  161.08   12.10
  -1   0  14  136.79    8.20
  -1   0  14  146.69    8.80
  -1   0  14  160.98   11.10
  -1   0  14  140.69   13.20
   0   0  14    3.50    2.00
   0   0  14    4.60    2.30
   0   0  14    5.20    2.00
   0   0  14    9.10    3.40
   0   0  14    4.50    2.50
   1   0  14   20.40    3.80
   1   0  14   18.60    3.90
   1   0  14   17.10    3.40
   1   0  14   24.30    4.70
   2   0  14    2.40    1.90
   2   0  14    3.40    1.90
   2   0  14    1.00    1.50
   2   0  14   -0.70    1.20
   3   0  14   11.60    3.30
   3   0  14   14.50    3.60
   3   0  14   14.80    3.90
   4   0  14    0.10    1.80
   4   0  14   -0.60    2.00
   4   0  14    4.40    2.80
  -5   0 -14   91.19   12.10
 -10  -1  14   -1.60    6.10
 -10  -1  14    1.20    3.70
 -10   1  14    5.30    4.70
 -10   1  14   -0.70    4.30
  -9  -1  14   10.30    3.30
  -9   1  14    9.80    5.70
  -9   1  14   11.00    4.30
  -8  -1  14  185.48   17.10
  -8  -1  14  160.18   10.20
  -8   1  14  157.98   12.00
  -8   1  14  154.58   16.00
  -7  -1  14    3.10    4.80
  -7  -1  14    0.80    1.50
  -7   1  14   -4.20    3.30
  -7   1  14   -5.30    2.00
  -7   1  14   -0.20    3.90
  -6  -1  14   86.99   11.00
   6   1 -14   98.09   10.20
  -6   1  14   84.39   10.60
  -6   1  14   73.29   11.70
  -6   1  14   98.49   11.90
  -5  -1  14  259.97   19.30
  -5  -1  14  255.47   18.70
   5   1 -14  240.78   15.80
  -5   1  14  255.87   18.00
  -5   1  14  243.48   14.20
  -5   1  14  252.97   19.00
  -5   1  14  249.28   13.90
  -4  -1  14   17.70    5.10
  -4  -1  14    5.20    2.60
  -4  -1  14    9.10    4.10
  -4   1  14    5.70    3.20
  -4   1  14    4.20    3.70
  -4   1  14    2.60    1.90
  -4   1  14    4.80    2.70
  -3  -1  14  299.27   19.60
  -3  -1  14  327.57   20.60
  -3  -1  14  297.27   20.30
  -3   1  14  318.87   18.90
  -3   1  14  315.97   16.50
  -3   1  14  330.87   21.20
  -3   1  14  327.97   16.40
  -2  -1  14  245.48   16.40
  -2  -1  14  247.78   16.90
  -2  -1  14  238.88   16.70
  -2   1  14  252.47   15.10
  -2   1  14  250.17   14.10
  -2   1  14  253.77   17.70
  -2   1  14  262.17   13.90
  -2   1  14  283.67   17.20
  -1  -1  14   56.19    6.50
  -1  -1  14   49.00    6.60
  -1  -1  14   53.69    6.50
  -1   1  14   41.90    7.30
  -1   1  14   59.69    5.50
  -1   1  14   43.50    5.50
  -1   1  14   61.19    5.60
  -1   1  14   53.49    5.20
   0  -1  14  266.57   16.60
   0  -1  14  237.78   15.00
   0  -1  14  242.68   16.00
   0   1  14  258.27   13.70
   0   1  14  266.77   17.20
   0   1  14  276.27   17.90
   1  -1  14   46.90    9.80
   1  -1  14   45.80    5.50
   1  -1  14   60.59    7.00
   1  -1  14   56.69    4.30
   1   1  14   40.80    7.10
   1   1  14   67.79    4.90
   1   1  14   46.40    5.60
   1   1  14   60.69    4.90
   2  -1  14   41.20    6.20
   2  -1  14   40.40    4.20
   2  -1  14   50.59    6.00
   2  -1  14   31.60    4.10
   2   1  14   42.40    3.80
   2   1  14   37.60    6.10
   2   1  14   39.30    3.70
   3  -1  14   67.59    7.90
   3  -1  14   68.39    8.40
   3  -1  14   60.29    7.20
   3   1  14   93.09    7.80
   3   1  14   65.49    7.60
   3   1  14   71.79    5.00
   4  -1  14    1.30    2.90
   4  -1  14   -1.90    2.00
   4   1  14    1.40    3.60
  -4   1 -14   -6.20    3.70
   4   1  14    0.80    1.30
   4   1  14    0.20    1.20
 -10   2  14    7.40    6.90
 -10   2  14   12.00    4.50
  -9  -2  14    4.20    3.00
  -9  -2  14    6.10    6.00
  -9   2  14    6.70    6.50
  -9   2  14    6.00    4.10
  -8  -2  14   -1.20    3.70
  -8  -2  14   -1.50    1.70
  -8   2  14    4.70    4.30
  -8   2  14   -5.30    2.90
  -7  -2  14   24.50    7.00
  -7   2  14    3.50    4.40
  -7   2  14   19.00    7.40
  -7   2  14   16.70    4.90
  -6  -2  14   -2.30    3.90
  -6   2  14   -0.50    2.80
  -6   2  14   -3.90    2.30
  -6   2  14   10.70    4.70
  -5  -2  14   62.09   10.40
  -5  -2  14   72.69    9.90
  -5  -2  14   41.30    8.10
   5   2 -14   58.79    8.50
  -5   2  14   64.69    8.00
  -5   2  14   41.60    8.90
  -5   2  14   73.89    7.20
  -4  -2  14   43.30    8.00
  -4  -2  14   23.80    6.60
  -4  -2  14   33.50    7.90
  -4   2  14   23.60    7.10
   4   2 -14   18.50    4.60
  -4   2  14   31.50    5.90
  -4   2  14   32.20    5.20
  -3  -2  14   30.70    6.50
  -3  -2  14   44.40    6.00
  -3  -2  14   29.30    6.80
  -3   2  14   29.70    7.40
  -3   2  14   30.10    5.10
  -3   2  14   34.40    7.10
  -2  -2  14   66.59    8.70
  -2  -2  14   68.89    8.80
  -2  -2  14   67.29    7.40
  -2   2  14   69.39    9.50
  -2   2  14   76.79    6.50
  -2   2  14   63.29    6.60
  -1  -2  14   13.30    4.50
  -1  -2  14    7.80    3.20
  -1   2  14    9.50    3.00
  -1   2  14    9.00    2.40
  -1   2  14    8.30    2.10
  -1   2  14    4.20    3.10
   0  -2  14  118.89   11.30
   0  -2  14  122.59    8.60
   0  -2  14  115.39   11.20
   0   2  14  117.69    9.50
   0   2  14  132.09   12.00
   1  -2  14    6.30    1.90
   1  -2  14   -1.80    2.10
   1  -2  14    3.20    2.80
   1   2  14    1.60    1.90
   1   2  14   -5.80    2.70
   2  -2  14   38.30    7.60
   2  -2  14   42.30    5.90
   2   2  14   24.80    5.50
   2   2  14   25.40    6.10
   3  -2  14   68.59    8.70
   3   2  14   65.89    9.10
   3   2  14   44.90    8.20
   4   2  14    6.80    4.10
   4   2  14   -5.50    4.00
 -10  -3  14    6.60    5.90
 -10   3  14    0.50    4.60
 -10   3  14  -11.50    4.90
  -9  -3  14   16.60    5.40
  -9   3  14   16.50    5.10
  -9   3  14   13.90    6.20
  -8  -3  14    8.10    4.80
  -8   3  14    3.60    4.50
  -7  -3  14   10.20    5.70
  -7  -3  14    4.40    4.30
  -7   3  14    6.30    5.90
  -7   3  14   12.10    4.80
  -7   3  14    9.20    4.60
  -6  -3  14    2.80    3.60
  -6  -3  14    4.10    3.90
  -6   3  14    2.60    4.60
  -6   3  14    4.50    3.80
  -6   3  14   -0.40    3.00
  -5  -3  14    6.00    3.80
  -5  -3  14    7.50    3.70
  -5  -3  14    2.10    3.70
  -5   3  14   -0.10    2.70
  -5   3  14    7.50    5.30
  -5   3  14    1.00    3.30
  -4  -3  14   18.90    6.20
  -4  -3  14   18.50    5.20
  -4  -3  14   11.90    5.20
  -4   3  14   17.80    4.50
  -4   3  14   18.30    5.10
  -4   3  14   23.90    7.20
   4   3 -14   21.10    7.90
  -3  -3  14    2.80    3.10
  -3  -3  14    3.90    2.80
  -3  -3  14   -3.00    3.10
  -3   3  14    4.20    1.90
  -3   3  14   14.20    4.60
  -3   3  14    1.30    2.40
  -2  -3  14   56.79    9.60
  -2  -3  14   74.49    9.80
  -2  -3  14   56.29    6.50
  -2   3  14   73.59    7.60
  -2   3  14   66.99    5.80
  -1  -3  14   26.20    6.80
  -1  -3  14   32.10    4.00
  -1  -3  14   35.40    7.80
  -1   3  14   30.40    6.10
  -1   3  14   27.40    7.40
   0  -3  14   -2.30    2.60
   0  -3  14    3.60    3.10
   0  -3  14    3.70    1.90
   0   3  14    2.60    4.10
   0   3  14    9.80    3.90
   1  -3  14   23.70    6.60
   1  -3  14   12.00    4.30
   1   3  14   15.50    4.60
   1   3  14   20.40    6.10
   2  -3  14   75.59    8.60
   2  -3  14   63.89    9.10
   2   3  14   61.19   10.80
   2   3  14   67.99   10.50
   3  -3  14   20.80    6.00
   3   3  14   17.00    6.70
   3   3  14   26.80    5.90
   4  -3  14   -1.90    2.70
   4   3  14   -1.00    3.90
   4   3  14    8.30    5.30
  -9  -4  14   61.79   12.10
  -9  -4  14   86.79   11.20
  -9   4  14   66.19   12.20
  -8  -4  14   -1.80    4.30
  -8  -4  14   -2.10    4.30
  -8   4  14   -5.00    4.00
  -8   4  14   -1.30    3.60
  -7  -4  14    9.90    5.40
  -7  -4  14   13.10    6.40
  -7   4  14   26.60    6.20
  -7   4  14    0.20    4.80
  -6  -4  14   29.40    6.60
  -6  -4  14   27.10    8.60
  -6   4  14   27.80    5.70
  -6   4  14   16.70    7.30
  -5  -4  14   -4.70    2.80
  -5  -4  14   -8.40    3.00
  -5   4  14   -2.30    2.70
  -5   4  14   -0.40    3.50
  -4  -4  14   18.40    5.00
  -4  -4  14   20.30    7.10
  -4   4  14   24.90    7.00
  -4   4  14   20.40    5.20
  -4   4  14   29.40    5.60
  -3  -4  14    8.50    2.80
  -3  -4  14    7.40    4.00
  -3   4  14    0.30    3.90
  -3   4  14   13.90    3.20
  -3   4  14    4.70    3.40
  -2  -4  14   36.70    8.30
  -2  -4  14   45.30    5.70
  -2   4  14   66.69    8.10
  -2   4  14   52.09   10.70
  -2   4  14   65.89    5.20
  -1  -4  14    3.20    3.20
  -1   4  14   -2.90    3.40
   0  -4  14   34.90    7.90
   0   4  14   48.80    9.60
   0   4  14   58.89   13.20
   1  -4  14  134.09   14.00
   1   4  14  124.69   11.40
   1   4  14  139.79   13.70
   2  -4  14   23.10    6.70
   2   4  14   20.10    5.60
   2   4  14   21.40    6.40
   3  -4  14  130.29   15.30
   3   4  14  119.69   11.70
   3   4  14  138.79   13.80
  -8  -5  14   98.59   12.50
  -8  -5  14   99.59   14.40
  -8   5  14   96.99   10.60
  -8   5  14  108.79   14.50
  -7  -5  14   22.40    6.40
  -7  -5  14   32.30    9.40
  -7   5  14   11.30    6.50
  -6  -5  14    0.90    4.40
  -6  -5  14   -2.60    4.10
  -6   5  14    2.10    4.60
  -6   5  14    1.50    3.90
  -5  -5  14  135.69   15.60
  -5   5  14  177.28   15.40
  -5   5  14  129.79   12.50
  -5   5  14  129.19   14.90
  -4  -5  14    4.90    3.80
  -4  -5  14    1.10    3.30
  -4   5  14    0.90    2.80
  -4   5  14    7.40    4.10
  -4   5  14   -1.10    2.00
  -3  -5  14   41.80    9.70
  -3  -5  14   63.59    7.00
  -3   5  14   35.90    8.80
  -3   5  14   50.79    6.10
  -3   5  14   63.79    8.40
  -2  -5  14   22.80    8.10
  -2   5  14   21.70    5.60
  -2   5  14   24.20    3.90
  -2   5  14   17.20    6.20
  -1  -5  14   22.10    7.40
  -1   5  14   26.00    7.40
  -1   5  14   19.20    6.20
   0  -5  14   56.29   11.80
   0   5  14   59.39    9.20
   1  -5  14   -0.40    3.30
   1   5  14    0.30    3.80
   1   5  14   -3.10    3.90
   2  -5  14   61.09   14.20
   2   5  14  110.49   10.80
   2   5  14  103.29   12.20
  -6  -6  14  203.38   16.90
  -6  -6  14  210.78   21.50
  -6   6  14  232.68   17.80
  -6   6  14  182.78   18.50
  -5  -6  14   15.70    6.60
  -5   6  14   24.00    5.30
  -4  -6  14  273.17   19.10
  -4  -6  14  299.27   25.10
  -4   6  14  326.37   19.60
  -4   6  14  322.57   21.50
  -4   6  14  288.67   24.20
  -3  -6  14   44.40   10.20
  -3  -6  14   30.30    6.30
  -3   6  14   59.49   11.30
  -3   6  14   38.60    5.70
  -3   6  14   45.80    8.40
  -2  -6  14   91.29   15.40
  -2   6  14  100.69   10.40
  -2   6  14   73.89   12.40
  -2   6  14   77.89    8.50
  -1  -6  14  259.47   22.40
  -1   6  14  225.68   17.50
  -1   6  14  240.38   20.60
   0  -6  14   -2.10    4.80
   0   6  14    8.30    5.30
   0   6  14   -4.70    3.00
 -10   0  15   -4.20    4.50
 -10   0  15    9.30    4.10
  -9   0  15   -1.70    4.80
  -9   0  15   10.30    3.20
  -8   0  15   -8.80    3.70
  -8   0  15    2.40    2.70
  -7   0  15    3.10    3.90
  -7   0  15    3.20    1.90
  -6   0  15    2.40    1.70
  -6   0  15    2.20    3.90
  -6   0  15    0.30    2.80
  -5   0  15    2.10    1.40
  -5   0  15    2.80    3.50
  -5   0  15   -0.70    3.50
  -4   0  15   -1.90    2.10
  -4   0  15    1.50    3.20
  -4   0  15   -0.50    2.00
  -4   0  15    0.50    1.30
  -3   0  15   -0.70    1.90
  -3   0  15   -0.80    1.20
  -3   0  15    0.50    1.60
  -3   0  15    0.00    1.60
  -3   0  15   -7.00    3.20
  -2   0  15   -1.20    1.90
  -2   0  15   -5.30    3.30
  -1   0  15   -1.30    1.30
  -1   0  15    1.80    2.00
  -1   0  15    1.90    1.60
   0   0  15    2.20    1.90
   0   0  15   -1.00    1.40
   0   0  15    4.50    3.00
   1   0  15    2.20    2.10
   1   0  15   -2.10    1.40
   1   0  15    0.30    1.40
   2   0  15    6.30    4.10
   2   0  15    0.80    2.00
   2   0  15   -2.30    1.50
   2   0  15    1.10    1.90
   3   0  15   -0.90    2.30
  -9  -1  15   65.39   12.60
  -9   1  15   62.79   10.90
  -9   1  15   39.50    7.60
  -8  -1  15   -7.60    3.20
  -8   1  15   10.80    3.10
  -8   1  15   -1.70    4.60
  -7  -1  15   25.20    7.90
  -7   1  15   16.90    3.90
  -7   1  15   24.70    8.10
  -6  -1  15   35.00    8.30
  -6  -1  15   41.80    9.00
  -6   1  15   42.60    8.60
  -6   1  15   50.09   10.10
  -5  -1  15    8.40    4.30
  -5  -1  15    4.50    5.20
  -5  -1  15    3.30    3.10
  -5   1  15    8.30    2.40
  -5   1  15   16.20    6.10
  -5   1  15    7.60    3.20
  -4  -1  15   23.10    6.40
  -4  -1  15   17.50    5.10
  -4  -1  15   24.50    6.40
  -4   1  15   15.70    4.10
  -4   1  15   16.70    3.30
  -3  -1  15   13.60    3.80
  -3  -1  15    4.50    3.20
  -3  -1  15    3.90    4.30
  -3   1  15    5.80    4.20
  -3   1  15    7.00    2.30
  -3   1  15    6.30    2.80
  -3   1  15    3.60    2.70
  -2  -1  15   38.90    7.30
  -2  -1  15   29.70    6.30
  -2  -1  15   47.40    6.10
  -2   1  15   45.50    5.30
  -2   1  15   30.90    4.20
  -2   1  15   39.10    8.20
  -2   1  15   36.50    5.00
  -1  -1  15    5.20    2.50
  -1  -1  15    5.80    3.00
  -1  -1  15    8.70    3.20
  -1   1  15    1.60    2.20
  -1   1  15   11.10    2.90
  -1   1  15    8.50    4.30
  -1   1  15    6.60    2.30
   0  -1  15   16.50    4.00
   0  -1  15    8.80    2.80
   0  -1  15   14.40    4.50
   0   1  15   14.10    3.00
   0   1  15   11.90    2.90
   0   1  15   17.60    3.10
   0   1  15   15.90    5.50
   1  -1  15   31.80    6.00
   1  -1  15   25.50    4.30
   1  -1  15   28.90    5.80
   1   1  15   25.80    4.10
   1   1  15   24.30    2.80
   1   1  15   20.20    5.10
   2  -1  15    1.70    1.90
   2  -1  15    1.70    1.60
   2   1  15    7.70    2.10
   3  -1  15   19.90    4.80
   3  -1  15   39.20    7.80
   3   1  15   20.90    5.10
  -9  -2  15   -6.40    3.30
  -8  -2  15  220.78   19.50
  -8   2  15  217.58   19.70
  -8   2  15  215.88   15.80
  -7  -2  15   80.19   10.40
  -7   2  15   76.99    8.70
  -7   2  15   61.19   12.00
  -6  -2  15   58.49   10.10
  -6  -2  15   49.40   10.00
  -6   2  15   33.50    8.30
  -6   2  15   45.60    6.80
  -6   2  15   34.50    6.60
  -5  -2  15  160.68   15.60
  -5  -2  15  181.78   15.50
  -5  -2  15  168.48   16.30
  -5   2  15  157.08   13.40
  -5   2  15  192.28   16.70
  -5   2  15  188.28   12.40
  -4  -2  15    3.10    3.70
  -4  -2  15    3.50    3.30
  -4  -2  15   -1.00    3.90
  -4   2  15    3.20    2.30
  -4   2  15    1.50    3.10
  -4   2  15    0.70    3.70
  -3  -2  15   54.29    8.50
  -3  -2  15   64.39    9.00
  -3  -2  15   43.80    8.20
  -3   2  15   54.19    6.40
  -3   2  15   78.79   10.00
  -3   2  15   49.70    6.10
  -2  -2  15   53.39    7.70
  -2  -2  15   57.49    7.00
  -2  -2  15   42.90    7.90
  -2   2  15   50.89    5.30
  -2   2  15   58.09    6.00
  -2   2  15   55.89    5.90
  -2   2  15   50.29    9.20
  -1  -2  15   48.00    7.00
  -1  -2  15   32.70    6.70
  -1  -2  15   49.60    5.50
  -1   2  15   36.40    4.80
  -1   2  15   40.40    3.90
  -1   2  15   39.90    3.60
  -1   2  15   40.30    7.80
   0  -2  15   23.90    3.80
   0  -2  15   18.50    4.50
   0  -2  15   17.00    5.00
   0   2  15   29.90    6.60
   0   2  15   24.20    4.40
   1  -2  15    4.10    3.90
   1  -2  15   -3.80    1.80
   1   2  15    0.10    3.50
   1   2  15   -0.10    2.80
   2  -2  15   19.50    5.90
   2  -2  15   42.70    5.90
   2   2  15   26.50    6.50
   2   2  15   27.10    5.70
   3  -2  15    2.60    3.10
   3   2  15    3.30    3.60
   3   2  15   -3.60    4.30
  -9  -3  15  139.09   17.00
  -9   3  15  153.48   17.50
  -9   3  15  150.98   14.00
  -8  -3  15   28.30    7.30
  -8  -3  15   18.70    7.40
  -8   3  15   14.80    5.00
  -8   3  15    4.90    6.20
  -7  -3  15  173.58   17.80
  -7  -3  15  226.38   18.40
  -7   3  15  193.28   18.70
  -7   3  15  196.68   15.10
  -6  -3  15   13.70    5.70
  -6  -3  15   11.30    6.00
  -6   3  15   20.00    6.90
  -6   3  15   16.70    4.50
  -6   3  15   23.90    5.40
  -5  -3  15  166.98   17.50
  -5  -3  15  186.48   17.20
  -5   3  15  140.19   16.40
  -5   3  15  155.48   15.70
  -5   3  15  183.38   13.60
  -4  -3  15  128.79   14.20
  -4  -3  15  130.19   12.40
  -4   3  15  135.59   14.40
  -4   3  15  125.49   10.90
  -4   3  15  137.09   11.10
  -3  -3  15   33.80    8.40
  -3  -3  15   46.50    9.30
  -3  -3  15   50.39    8.10
  -3   3  15   46.60    9.30
  -3   3  15   36.60    6.30
  -3   3  15   50.19    5.80
  -2  -3  15  343.57   23.50
  -2  -3  15  358.96   23.80
  -2  -3  15  355.36   19.70
  -2   3  15  354.06   16.90
  -2   3  15  344.07   16.60
  -2   3  15  328.97   23.50
  -2   3  15  359.56   20.60
  -1  -3  15   15.50    5.00
  -1  -3  15    9.50    4.40
  -1  -3  15   20.10    3.30
  -1   3  15    6.90    4.00
  -1   3  15    2.60    3.60
   0  -3  15  281.57   19.70
   0  -3  15  206.58   20.20
   0   3  15  252.97   16.30
   0   3  15  218.08   17.90
   1  -3  15  262.37   19.20
   1   3  15  227.48   18.20
   1   3  15  234.48   16.40
   2  -3  15   16.70    9.90
   2   3  15   13.20    5.80
   2   3  15   11.40    5.10
  -8  -4  15  237.38   22.80
  -8  -4  15  277.67   21.10
  -8   4  15  237.58   18.80
  -8   4  15  253.57   22.70
  -7  -4  15   13.70    6.60
  -7  -4  15    3.20    5.20
  -7   4  15   10.50    4.40
  -7   4  15    9.10    6.10
  -6  -4  15   48.00    9.20
  -6  -4  15   59.79   11.50
  -6   4  15   50.59    8.70
  -6   4  15   49.90    8.40
  -6   4  15   48.10   10.60
  -5  -4  15  116.49   13.60
  -5  -4  15  109.59   13.80
  -5   4  15   94.69   12.60
  -5   4  15  108.39   13.20
  -5   4  15  116.99   10.80
  -4  -4  15   20.30    6.80
  -4  -4  15   20.80    5.50
  -4   4  15   17.90    6.90
  -4   4  15   20.20    4.50
  -4   4  15   22.20    6.10
  -3  -4  15  145.89   12.50
  -3  -4  15  172.48   16.50
  -3   4  15  163.18   15.90
  -3   4  15  168.08   11.20
  -2  -4  15   -3.10    2.60
  -2  -4  15   -1.10    2.30
  -2   4  15    0.00    4.80
  -2   4  15    1.20    4.40
  -1  -4  15  154.58   15.40
  -1   4  15  138.79   12.50
  -1   4  15  153.58   15.20
   0   4  15   96.09   10.20
   0   4  15   91.09   11.20
   1  -4  15   63.89   17.40
   1   4  15   91.89   10.30
   1   4  15   96.59   11.20
  -6  -5  15  279.77   23.80
  -6   5  15  225.28   18.20
  -6   5  15  225.48   21.30
  -5  -5  15  319.47   21.90
  -5  -5  15  289.57   25.40
  -5   5  15  371.56   27.10
  -5   5  15  317.17   21.70
  -5   5  15  395.76   22.30
  -4  -5  15   37.10    7.20
  -4  -5  15   59.29   11.60
  -4   5  15   44.50    6.60
  -4   5  15   51.69   10.60
  -4   5  15   51.39    8.30
  -3  -5  15  213.68   15.10
  -3  -5  15  236.18   21.10
  -3   5  15  195.98   15.20
  -3   5  15  278.17   21.00
  -3   5  15  268.17   18.40
  -2  -5  15  170.88   17.40
  -2   5  15  146.59   16.10
  -2   5  15  178.48   14.40
  -1  -5  15   28.60    7.90
  -1   5  15   45.00    9.00
  -1   5  15   36.20    7.20
   0  -5  15  179.58   18.80
   0   5  15  163.08   16.20
   0   5  15  177.18   15.10
  -9   0  16  165.78   17.90
  -8   0  16  125.19   14.70
  -7   0  16  568.64   34.50
  -6   0  16    7.10    5.10
  -5   0  16  311.47   21.50
  -5   0  16  277.37   21.30
  -4   0  16  646.04   35.70
  -4   0  16  618.24   33.70
  -4   0  16  654.63   34.50
  -3   0  16   18.30    5.60
  -3   0  16    9.30    3.40
  -3   0  16   11.50    3.70
  -2   0  16  519.85   27.20
  -2   0  16  523.35   28.00
  -2   0  16  527.55   29.60
  -1   0  16  166.88   13.90
  -1   0  16  186.68   12.90
  -1   0  16  167.48   12.00
   0   0  16   43.80    5.70
   0   0  16   41.00    5.50
   0   0  16   29.90    5.00
   1   0  16  208.38   14.10
   1   0  16  208.08   13.40
   1   0  16  166.08   11.70
   2   0  16   -1.40    1.70
   2   0  16   -1.80    2.10
  -8  -1  16  100.39   13.40
  -8   1  16   66.19   12.30
  -8   1  16  120.49    9.00
  -7  -1  16   16.60    6.40
  -7   1  16   22.60    7.10
  -6  -1  16   39.40    8.80
  -6   1  16   61.89   11.30
  -5  -1  16   18.40    5.90
  -5  -1  16    4.10    5.30
  -5   1  16    9.00    4.20
  -5   1  16    8.20    6.00
  -5   1  16   12.30    2.90
  -4  -1  16   20.50    6.00
  -4  -1  16   11.10    5.00
  -4  -1  16   17.20    7.90
  -4   1  16   18.20    3.20
  -4   1  16   13.10    4.30
  -4   1  16   16.20    6.20
  -3  -1  16   88.39   10.30
  -3  -1  16   86.09   10.70
  -3  -1  16   91.79   10.20
  -3   1  16  102.19    7.10
  -3   1  16   86.49    8.80
  -3   1  16   88.79    8.70
  -2  -1  16    5.00    4.40
  -2  -1  16    4.70    2.90
  -2  -1  16   -0.50    3.70
  -2   1  16   15.70    5.50
  -2   1  16    5.60    3.30
  -2   1  16   10.70    2.60
  -2   1  16    6.80    2.70
  -1  -1  16   12.60    3.80
  -1  -1  16    6.00    3.80
  -1   1  16   13.30    3.40
  -1   1  16   18.20    6.30
  -1   1  16   17.40    3.50
  -1   1  16   17.00    3.50
   0  -1  16    5.10    2.40
   0  -1  16   -1.30    1.80
   0  -1  16    3.50    2.90
   0   1  16   -0.90    2.10
   0   1  16    5.00    4.20
   0   1  16    0.70    1.20
   0   1  16   -1.30    1.50
   1  -1  16   42.60    5.70
   1  -1  16   46.30    6.60
   1   1  16   46.20    5.00
   1   1  16   31.80    7.40
   2  -1  16    2.90    2.60
   2  -1  16   -1.00    2.40
  -8  -2  16  134.79   14.60
  -7  -2  16  425.56   28.20
  -7  -2  16  405.46   29.40
  -7   2  16  467.85   30.90
  -7   2  16  447.36   24.20
  -6  -2  16   12.50    5.20
  -6   2  16   14.00    3.00
  -6   2  16    7.60    5.40
  -5  -2  16  276.27   20.30
  -5  -2  16  297.27   22.20
  -5   2  16  306.47   20.90
  -5   2  16  283.97   16.80
  -5   2  16  282.27   22.10
  -4  -2  16  419.86   26.80
  -4  -2  16  388.96   24.80
  -4   2  16  388.36   20.70
  -4   2  16  404.36   26.90
  -4   2  16  417.26   23.40
  -3  -2  16   17.20    5.20
  -3  -2  16    6.20    4.30
  -3  -2  16    8.00    4.00
  -3   2  16    3.20    2.50
  -3   2  16    5.80    2.30
  -3   2  16    6.90    4.30
  -2  -2  16  328.17   22.70
  -2  -2  16  363.06   23.50
  -2  -2  16  375.46   21.50
  -2   2  16  363.66   18.70
  -2   2  16  380.46   19.80
  -2   2  16  393.36   18.50
  -1  -2  16   90.49   10.60
  -1  -2  16  115.69   11.40
  -1  -2  16  105.59    9.00
  -1   2  16   99.99   12.00
  -1   2  16  115.89    8.80
   0  -2  16   36.10    6.80
   0   2  16   30.30    7.50
   0   2  16   23.30    5.50
   1  -2  16  103.49   12.00
   1   2  16  110.89    9.90
  -7  -3  16   24.10    7.80
  -7  -3  16   27.40    8.90
  -6  -3  16   -3.40    4.80
  -6  -3  16    6.60    4.90
  -6   3  16    5.60    4.30
  -6   3  16    5.60    6.70
  -5  -3  16    6.00    4.60
  -5  -3  16   -1.40    4.20
  -5   3  16   -1.90    2.40
  -5   3  16   -2.10    4.20
  -5   3  16   -4.10    3.00
  -4  -3  16    0.50    4.30
  -4  -3  16    3.70    3.80
  -4   3  16    4.00    4.00
  -4   3  16    1.00    2.90
  -4   3  16   -1.80    3.00
  -3  -3  16   -5.20    3.60
  -3  -3  16    2.30    3.30
  -3   3  16    7.80    2.90
  -3   3  16    1.90    4.80
  -3   3  16    7.60    3.80
  -2  -3  16    4.10    3.60
  -2  -3  16    6.00    3.50
  -2   3  16   12.00    5.90
  -2   3  16    8.60    1.50
  -2   3  16    5.50    3.60
  -1  -3  16    1.00    3.20
  -1   3  16    0.30    3.00
  -1   3  16    1.00    4.00
   0  -3  16   -1.10    3.10
   0   3  16    9.80    5.70
   0   3  16    0.40    3.50
   1   3  16   28.90    6.00
  -6  -4  16   26.70    9.30
  -6  -4  16   12.90    6.10
  -6   4  16   15.80    6.60
  -6   4  16   17.40    6.00
  -5  -4  16  144.89   13.80
  -5  -4  16  119.09   15.20
  -5   4  16  141.39   15.80
  -5   4  16  157.38   13.40
  -5   4  16  140.59   12.10
  -4  -4  16    6.90    4.50
  -4  -4  16    3.90    4.00
  -4   4  16    1.90    2.80
  -4   4  16    6.90    4.20
  -3  -4  16  128.79   15.30
  -3  -4  16  114.79   11.20
  -3   4  16  116.79   14.30
  -3   4  16  136.89    9.20
  -2   4  16   78.49    9.30
  -2   4  16   57.99   10.30
  -1  -4  16    5.40    3.90
  -1   4  16    7.10    4.50
  -1   4  16   15.00    5.10
  -7   0  17   -6.40    4.40
  -6   0  17    2.30    4.50
  -5   0  17   -1.20    3.10
  -5   0  17    6.90    4.90
  -4   0  17   -2.80    2.00
  -4   0  17    5.00    2.70
  -4   0  17   -9.00    3.90
  -3   0  17   -2.90    4.50
  -3   0  17   -3.10    2.50
  -3   0  17   -0.20    2.20
  -2   0  17    5.20    2.90
  -2   0  17    1.40    1.90
  -2   0  17    1.10    5.80
  -1   0  17    2.30    1.70
  -1   0  17   -0.50    2.40
   0   0  17  -11.50    4.20
   0   0  17    1.00    3.30
  -7  -1  17   26.50    8.60
  -7   1  17   26.30    7.80
  -6  -1  17    0.50    4.20
  -6   1  17    6.00    4.00
  -5  -1  17   -0.70    5.40
  -5  -1  17    7.70    4.80
  -4  -1  17   15.20    5.30
  -4  -1  17    3.70    5.00
  -4   1  17    7.10    5.40
  -4   1  17    7.30    4.20
  -4   1  17   10.20    4.10
  -3  -1  17    7.80    3.40
  -3   1  17   10.00    5.50
  -3   1  17    1.70    3.00
  -3   1  17    3.00    2.40
  -2  -1  17   34.50   10.50
  -2  -1  17   10.90    6.10
  -2  -1  17   29.60    6.30
  -2   1  17   29.70    5.20
  -2   1  17   29.20    4.90
  -2   1  17   28.10    7.00
  -1  -1  17   -2.10    2.30
  -1  -1  17   -0.80    4.20
  -1   1  17    5.20    5.10
  -1   1  17    1.20    1.90
  -1   1  17    2.30    1.60
   0  -1  17   13.20    4.00
   0  -1  17   16.60    4.20
   0   1  17   16.70    5.80
  -6  -2  17   75.09   12.20
  -6  -2  17  100.09   13.40
  -6   2  17  102.89   15.40
  -5  -2  17   51.59    9.60
  -5  -2  17   35.90   11.10
  -5   2  17   31.70    7.50
  -5   2  17   27.30    5.40
  -5   2  17   37.50    6.70
  -4  -2  17  174.38   21.30
  -4  -2  17  197.58   16.50
  -4   2  17  210.98   17.20
  -4   2  17  210.58   17.10
  -4   2  17  242.98   18.70
  -4   2  17  177.38   14.20
  -3  -2  17   38.50   11.70
  -3  -2  17   62.79   10.00
  -3   2  17   47.90    6.70
  -3   2  17   42.30    9.80
  -3   2  17   46.30    5.80
  -2  -2  17  243.38   16.30
  -2  -2  17  201.18   17.50
  -2   2  17  205.58   11.90
  -2   2  17  231.38   18.40
  -2   2  17  207.88   11.50
  -1  -2  17  185.28   15.50
  -1   2  17  200.98   17.00
  -4  -3  17   57.19    9.20
  -4  -3  17   48.70    9.60
  -4   3  17   65.39    8.40
  -4   3  17   49.60    8.00
  -4   3  17   55.19   10.90
  -3  -3  17  184.38   14.80
  -3  -3  17  183.28   16.70
  -3   3  17  166.78   13.30
  -3   3  17  206.78   17.40
  -3   3  17  173.08   11.10
  -3   3  17  168.38   12.00
   0   0   0    0.00    0.00

_computing_structure_solution     'SHELXT 2014/5 (Sheldrick, 2014)'
;
_shelx_hkl_checksum              57398
loop_
_space_group_symop_operation_xyz
'x, y, z'
'-x, y+1/2, -z+1/2'
'-x, -y, -z'
'x, -y-1/2, z-1/2'
loop_
_atom_site_label
_atom_site_type_symbol
_atom_site_fract_x
_atom_site_fract_y
_atom_site_fract_z
_atom_site_U_iso_or_equiv
_atom_site_adp_type
_atom_site_occupancy
_atom_site_site_symmetry_order
_atom_site_calc_flag
_atom_site_refinement_flags_posn
_atom_site_refinement_flags_adp
_atom_site_refinement_flags_occupancy
_atom_site_disorder_assembly
_atom_site_disorder_group
C1 C 0.39714(17) 0.2712(2) 0.58080(14) 0.0253(3) Uani 1 1 d . . . . .
C2 C 0.18656(14) 0.60546(17) 0.43044(10) 0.0138(2) Uani 1 1 d . . . . .
C3 C 0.19916(16) 0.79116(17) 0.42716(11) 0.0175(3) Uani 1 1 d . . . . .
H3 H 0.211865 0.857723 0.493840 0.021 Uiso 1 1 calc R U . . .
C4 C 0.19331(16) 0.87617(18) 0.32940(11) 0.0179(3) Uani 1 1 d . . . . .
H4 H 0.203144 1.001048 0.328733 0.022 Uiso 1 1 calc R U . . .
C5 C 0.15951(16) 0.60702(18) 0.23295(11) 0.0174(3) Uani 1 1 d . . . . .
H5 H 0.144611 0.545006 0.164381 0.021 Uiso 1 1 calc R U . . .
C6 C 0.16602(15) 0.51402(17) 0.32847(10) 0.0159(2) Uani 1 1 d . . . . .
H6 H 0.156787 0.389000 0.326144 0.019 Uiso 1 1 calc R U . . .
F1 F 0.48508(12) 0.36677(16) 0.66181(10) 0.0424(3) Uani 1 1 d . . . . .
F2 F 0.41875(12) 0.10150(14) 0.60875(10) 0.0389(3) Uani 1 1 d . . . . .
F3 F 0.43769(12) 0.29766(17) 0.48805(10) 0.0413(3) Uani 1 1 d . . . . .
N1 N 0.19427(13) 0.53378(15) 0.53360(9) 0.0157(2) Uani 1 1 d . . . . .
N2 N 0.17363(14) 0.78377(15) 0.23360(9) 0.0172(2) Uani 1 1 d . . . . .
H2 H 0.178(2) 0.836(3) 0.1738(18) 0.033(6) Uiso 1 1 d . . . . .
O1 O 0.17824(13) 0.30637(13) 0.66756(8) 0.0223(2) Uani 1 1 d . . . . .
O2 O 0.12362(12) 0.21312(13) 0.47119(8) 0.0201(2) Uani 1 1 d . . . . .
S1 S 0.20083(4) 0.33076(4) 0.55907(3) 0.01445(9) Uani 1 1 d . . . . .
loop_
_atom_site_aniso_label
_atom_site_aniso_U_11
_atom_site_aniso_U_22
_atom_site_aniso_U_33
_atom_site_aniso_U_23
_atom_site_aniso_U_13
_atom_site_aniso_U_12
C1 0.0204(7) 0.0219(7) 0.0318(8) 0.0050(6) 0.0044(6) 0.0030(5)
C2 0.0166(6) 0.0124(5) 0.0127(5) -0.0001(4) 0.0043(4) 0.0002(4)
C3 0.0265(7) 0.0125(6) 0.0142(6) -0.0010(4) 0.0069(5) 0.0004(5)
C4 0.0255(7) 0.0120(6) 0.0169(6) 0.0004(5) 0.0068(5) 0.0009(5)
C5 0.0239(6) 0.0154(6) 0.0132(5) -0.0012(5) 0.0054(5) 0.0008(5)
C6 0.0221(6) 0.0127(5) 0.0137(5) -0.0011(4) 0.0063(5) -0.0001(4)
F1 0.0251(5) 0.0414(6) 0.0499(7) -0.0029(5) -0.0074(4) -0.0053(4)
F2 0.0338(6) 0.0232(5) 0.0569(7) 0.0113(5) 0.0078(5) 0.0115(4)
F3 0.0309(5) 0.0534(7) 0.0468(6) 0.0131(5) 0.0229(5) 0.0122(5)
N1 0.0247(6) 0.0105(5) 0.0129(5) 0.0003(4) 0.0067(4) -0.0005(4)
N2 0.0240(6) 0.0153(5) 0.0127(5) 0.0026(4) 0.0058(4) 0.0019(4)
O1 0.0365(6) 0.0158(5) 0.0168(5) 0.0025(4) 0.0109(4) -0.0013(4)
O2 0.0268(5) 0.0136(4) 0.0191(5) -0.0033(4) 0.0052(4) -0.0030(4)
S1 0.01930(16) 0.01050(15) 0.01394(15) 0.00016(10) 0.00526(11) -0.00060(10)
loop_
_atom_type_symbol
_atom_type_description
_atom_type_scat_dispersion_real
_atom_type_scat_dispersion_imag
_atom_type_scat_source
C C 0.0033 0.0016 'International Tables Vol C Tables 4.2.6.8 and 6.1.1.4'
H H 0.0000 0.0000 'International Tables Vol C Tables 4.2.6.8 and 6.1.1.4'
F F 0.0171 0.0103 'International Tables Vol C Tables 4.2.6.8 and 6.1.1.4'
N N 0.0061 0.0033 'International Tables Vol C Tables 4.2.6.8 and 6.1.1.4'
O O 0.0106 0.0060 'International Tables Vol C Tables 4.2.6.8 and 6.1.1.4'
S S 0.1246 0.1234 'International Tables Vol C Tables 4.2.6.8 and 6.1.1.4'
loop_
_geom_angle_atom_site_label_1
_geom_angle_atom_site_label_2
_geom_angle_atom_site_label_3
_geom_angle
_geom_angle_site_symmetry_1
_geom_angle_site_symmetry_3
_geom_angle_publ_flag
F1 C1 F3 108.16(14) . . ?
F1 C1 F2 108.10(13) . . ?
F3 C1 F2 108.25(14) . . ?
F1 C1 S1 111.24(12) . . ?
F3 C1 S1 110.64(10) . . ?
F2 C1 S1 110.35(11) . . ?
N1 C2 C6 127.18(12) . . ?
N1 C2 C3 115.85(11) . . ?
C6 C2 C3 116.97(11) . . ?
C4 C3 C2 120.83(12) . . ?
C4 C3 H3 119.6 . . ?
C2 C3 H3 119.6 . . ?
N2 C4 C3 120.36(12) . . ?
N2 C4 H4 119.8 . . ?
C3 C4 H4 119.8 . . ?
N2 C5 C6 121.75(12) . . ?
N2 C5 H5 119.1 . . ?
C6 C5 H5 119.1 . . ?
C5 C6 C2 119.43(12) . . ?
C5 C6 H6 120.3 . . ?
C2 C6 H6 120.3 . . ?
C2 N1 S1 124.32(9) . . ?
C5 N2 C4 120.65(12) . . ?
C5 N2 H2 119.0(14) . . ?
C4 N2 H2 120.1(14) . . ?
O1 S1 O2 117.43(6) . . ?
O1 S1 N1 107.97(6) . . ?
O2 S1 N1 118.02(6) . . ?
O1 S1 C1 103.54(7) . . ?
O2 S1 C1 103.31(7) . . ?
N1 S1 C1 104.55(7) . . ?
loop_
_geom_bond_atom_site_label_1
_geom_bond_atom_site_label_2
_geom_bond_distance
_geom_bond_site_symmetry_2
_geom_bond_publ_flag
C1 F1 1.3252(19) . ?
C1 F3 1.3280(19) . ?
C1 F2 1.3316(18) . ?
C1 S1 1.8396(16) . ?
C2 N1 1.3778(16) . ?
C2 C6 1.4115(17) . ?
C2 C3 1.4121(18) . ?
C3 C4 1.3645(18) . ?
C3 H3 0.9500 . ?
C4 N2 1.3505(17) . ?
C4 H4 0.9500 . ?
C5 N2 1.3443(18) . ?
C5 C6 1.3688(18) . ?
C5 H5 0.9500 . ?
C6 H6 0.9500 . ?
N1 S1 1.5669(11) . ?
N2 H2 0.85(2) . ?
O1 S1 1.4367(10) . ?
O2 S1 1.4395(10) . ?
loop_
_geom_hbond_atom_site_label_D
_geom_hbond_atom_site_label_H
_geom_hbond_atom_site_label_A
_geom_hbond_distance_DH
_geom_hbond_distance_HA
_geom_hbond_distance_DA
_geom_hbond_angle_DHA
_geom_hbond_site_symmetry_A
N2 H2 N1 0.85(2) 2.05(2) 2.9012(16) 178(2) 4_575
loop_
_geom_torsion_atom_site_label_1
_geom_torsion_atom_site_label_2
_geom_torsion_atom_site_label_3
_geom_torsion_atom_site_label_4
_geom_torsion
_geom_torsion_site_symmetry_1
_geom_torsion_site_symmetry_2
_geom_torsion_site_symmetry_3
_geom_torsion_site_symmetry_4
_geom_torsion_publ_flag
N1 C2 C3 C4 179.88(13) . . . . ?
C6 C2 C3 C4 -0.8(2) . . . . ?
C2 C3 C4 N2 0.7(2) . . . . ?
N2 C5 C6 C2 0.7(2) . . . . ?
N1 C2 C6 C5 179.34(13) . . . . ?
C3 C2 C6 C5 0.08(19) . . . . ?
C6 C2 N1 S1 7.9(2) . . . . ?
C3 C2 N1 S1 -172.82(10) . . . . ?
C6 C5 N2 C4 -0.7(2) . . . . ?
C3 C4 N2 C5 0.0(2) . . . . ?
C2 N1 S1 O1 -168.70(11) . . . . ?
C2 N1 S1 O2 -32.54(14) . . . . ?
C2 N1 S1 C1 81.51(13) . . . . ?
F1 C1 S1 O1 -55.98(12) . . . . ?
F3 C1 S1 O1 -176.22(11) . . . . ?
F2 C1 S1 O1 64.00(13) . . . . ?
F1 C1 S1 O2 -178.93(11) . . . . ?
F3 C1 S1 O2 60.83(13) . . . . ?
F2 C1 S1 O2 -58.95(13) . . . . ?
F1 C1 S1 N1 57.00(12) . . . . ?
F3 C1 S1 N1 -63.24(13) . . . . ?
F2 C1 S1 N1 176.98(11) . . . . ?
