#------------------------------------------------------------------------------
#$Date: 2020-04-04 07:28:20 +0300 (Sat, 04 Apr 2020) $
#$Revision: 250108 $
#$URL: file:///home/coder/svn-repositories/cod/cif/4/03/80/4038096.cif $
#------------------------------------------------------------------------------
#
# This file is available in the Crystallography Open Database (COD),
# http://www.crystallography.net/
#
# All data on this site have been placed in the public domain by the
# contributors.
#
data_4038096
loop_
_publ_author_name
'Tong, Guanghu'
'Ding, Zhengwei'
'Liu, Zhi'
'Ding, You-Song'
'Xu, Liang'
'Zhang, Hailong'
'Li, Pengfei'
_publ_section_title
;
 Total Synthesis of Prostratin, a Bioactive Tigliane Diterpenoid: Access
 to Multi-Stereocenter Cyclohexanes from a Phenol.
;
_journal_issue                   7
_journal_name_full               'The Journal of organic chemistry'
_journal_page_first              4813
_journal_page_last               4837
_journal_paper_doi               10.1021/acs.joc.0c00022
_journal_volume                  85
_journal_year                    2020
_chemical_formula_moiety         'C7 H12 O3'
_chemical_formula_sum            'C7 H12 O3'
_chemical_formula_weight         144.17
_space_group_crystal_system      triclinic
_space_group_IT_number           2
_space_group_name_Hall           '-P 1'
_space_group_name_H-M_alt        'P -1'
_atom_sites_solution_hydrogens   geom
_audit_creation_date             2018-04-13
_audit_creation_method
;
Olex2 1.2
(compiled 2018.04.03 svn.r3497 for OlexSys, GUI svn.r5486)
;
_cell_angle_alpha                92.7660(10)
_cell_angle_beta                 105.4420(10)
_cell_angle_gamma                108.0260(10)
_cell_formula_units_Z            2
_cell_length_a                   5.9092(7)
_cell_length_b                   7.1583(9)
_cell_length_c                   9.1902(11)
_cell_measurement_reflns_used    4206
_cell_measurement_temperature    100(2)
_cell_measurement_theta_max      27.65
_cell_measurement_theta_min      2.32
_cell_volume                     352.68(7)
_computing_molecular_graphics    'Olex2 (Dolomanov et al., 2009)'
_computing_publication_material  'Olex2 (Dolomanov et al., 2009)'
_computing_structure_refinement  'XL (Sheldrick, 2008)'
_computing_structure_solution    'SHELXS-97 (Sheldrick, 1990)'
_diffrn_ambient_temperature      100.15
_diffrn_measured_fraction_theta_full 0.993
_diffrn_measured_fraction_theta_max 0.987
_diffrn_measurement_device_type  'CCD area detector'
_diffrn_measurement_method       'phi and omega scans'
_diffrn_radiation_monochromator  graphite
_diffrn_radiation_type           MoK\a
_diffrn_radiation_wavelength     0.71073
_diffrn_reflns_av_R_equivalents  0.0133
_diffrn_reflns_av_unetI/netI     0.0110
_diffrn_reflns_Laue_measured_fraction_full 0.993
_diffrn_reflns_Laue_measured_fraction_max 0.987
_diffrn_reflns_limit_h_max       7
_diffrn_reflns_limit_h_min       -7
_diffrn_reflns_limit_k_max       9
_diffrn_reflns_limit_k_min       -9
_diffrn_reflns_limit_l_max       11
_diffrn_reflns_limit_l_min       -11
_diffrn_reflns_number            4724
_diffrn_reflns_point_group_measured_fraction_full 0.993
_diffrn_reflns_point_group_measured_fraction_max 0.987
_diffrn_reflns_theta_full        25.242
_diffrn_reflns_theta_max         27.654
_diffrn_reflns_theta_min         2.323
_exptl_absorpt_coefficient_mu    0.105
_exptl_absorpt_correction_type   none
_exptl_crystal_colour            colorless
_exptl_crystal_density_diffrn    1.358
_exptl_crystal_density_method    'not measured'
_exptl_crystal_description       block
_exptl_crystal_F_000             156
_exptl_crystal_size_max          0.364
_exptl_crystal_size_mid          0.289
_exptl_crystal_size_min          0.121
_refine_diff_density_max         0.357
_refine_diff_density_min         -0.227
_refine_diff_density_rms         0.048
_refine_ls_extinction_method     none
_refine_ls_goodness_of_fit_ref   1.079
_refine_ls_hydrogen_treatment    constr
_refine_ls_matrix_type           full
_refine_ls_number_parameters     94
_refine_ls_number_reflns         1627
_refine_ls_number_restraints     0
_refine_ls_restrained_S_all      1.079
_refine_ls_R_factor_all          0.0346
_refine_ls_R_factor_gt           0.0339
_refine_ls_shift/su_max          0.001
_refine_ls_shift/su_mean         0.000
_refine_ls_structure_factor_coef Fsqd
_refine_ls_weighting_details
'w=1/[\s^2^(Fo^2^)+(0.0456P)^2^+0.1468P] where P=(Fo^2^+2Fc^2^)/3'
_refine_ls_weighting_scheme      calc
_refine_ls_wR_factor_gt          0.0902
_refine_ls_wR_factor_ref         0.0908
_reflns_Friedel_coverage         0.000
_reflns_number_gt                1578
_reflns_number_total             1627
_reflns_threshold_expression     'I > 2\s(I)'
_cod_data_source_file            jo0c00022_si_002.cif
_cod_data_source_block           1
_cod_depositor_comments
'Adding full bibliography for 4038084--4038097.cif.'
_cod_database_code               4038096
_shelx_shelxl_version_number     2014/7
_shelx_space_group_comment
;
The symmetry employed for this shelxl refinement is uniquely defined
by the following loop, which should always be used as a source of
symmetry information in preference to the above space-group names.
They are only intended as comments.
;
_olex2_refinement_description
;
1. Fixed Uiso
 At 1.2 times of:
  All C(H) groups, All C(H,H) groups
 At 1.5 times of:
  All O(H) groups
2.a Ternary CH refined with riding coordinates:
 C2(H2A), C3(H3A), C4(H4)
2.b Secondary CH2 refined with riding coordinates:
 C1(H1A,H1B), C7(H7A,H7B)
2.c Aromatic/amide H refined with riding coordinates:
 C5(H5), C6(H6)
2.d Idealised tetrahedral OH refined as rotating group:
 O1(H1), O2(H2), O3(H3)
;
_shelx_res_file
;
    1.res created by SHELXL-2014/7

TITL 1 in P-1
CELL 0.71073 5.9092 7.1583 9.1902 92.766 105.442 108.026
ZERR 2 0.0007 0.0009 0.0011 0.001 0.001 0.001
LATT 1
SFAC C H O
UNIT 14 24 6

L.S. 4
PLAN  20
TEMP -173
BOND
fmap 2
acta
REM <olex2.extras>
REM <HklSrc "%.\\1.hkl">
REM </olex2.extras>

WGHT    0.045600    0.146800
FVAR       0.67598
O1    3    1.224494    1.086036    0.323078    11.00000    0.01409    0.00690 =
         0.02241   -0.00039    0.00984    0.00078
AFIX 147
H1    2    1.344638    1.182038    0.316359    11.00000   -1.50000
AFIX   0
O2    3    0.996865    0.744025    0.509509    11.00000    0.01398    0.01467 =
         0.01121    0.00061    0.00395    0.00608
AFIX 147
H2    2    0.946474    0.803786    0.568282    11.00000   -1.50000
AFIX   0
O3    3    0.641843    0.375190    0.307113    11.00000    0.01181    0.00839 =
         0.02041    0.00232    0.00146    0.00138
AFIX 147
H3    2    0.761016    0.376153    0.381731    11.00000   -1.50000
AFIX   0
C1    1    0.612410    0.565879    0.312265    11.00000    0.00989    0.01027 =
         0.01948    0.00323    0.00410    0.00245
AFIX  23
H1A   2    0.523342    0.577332    0.387715    11.00000   -1.20000
H1B   2    0.507388    0.576115    0.211260    11.00000   -1.20000
AFIX   0
C2    1    0.857470    0.738276    0.354156    11.00000    0.00976    0.00878 =
         0.01271    0.00192    0.00317    0.00264
AFIX  13
H2A   2    0.820279    0.864976    0.344133    11.00000   -1.20000
AFIX   0
C3    1    1.021753    0.724445    0.254893    11.00000    0.01017    0.00799 =
         0.01167    0.00115    0.00344    0.00218
AFIX  13
H3A   2    1.069900    0.603799    0.274853    11.00000   -1.20000
AFIX   0
C4    1    1.264925    0.902089    0.287845    11.00000    0.01067    0.00838 =
         0.01374    0.00095    0.00515    0.00268
AFIX  13
H4    2    1.401496    0.883520    0.370927    11.00000   -1.20000
AFIX   0
C5    1    1.320164    0.898492    0.136521    11.00000    0.01759    0.01202 =
         0.01787    0.00453    0.01081    0.00616
AFIX  43
H5    2    1.478841    0.962370    0.123469    11.00000   -1.20000
AFIX   0
C6    1    1.117953    0.794353    0.023985    11.00000    0.02497    0.01445 =
         0.01321    0.00373    0.00859    0.00851
AFIX  43
H6    2    1.112828    0.779670   -0.080251    11.00000   -1.20000
AFIX   0
C7    1    0.897787    0.702349    0.081449    11.00000    0.01595    0.01295 =
         0.01199    0.00039    0.00183    0.00344
AFIX  23
H7A   2    0.811627    0.561096    0.036794    11.00000   -1.20000
H7B   2    0.777259    0.774805    0.058311    11.00000   -1.20000
AFIX   0
HKLF 4

REM  1 in P-1
REM R1 =  0.0339 for    1578 Fo > 4sig(Fo)  and  0.0346 for all    1627 data
REM     94 parameters refined using      0 restraints

END

WGHT      0.0458      0.1459

REM Highest difference peak  0.357,  deepest hole -0.227,  1-sigma level  0.048
Q1    1   1.1421  0.8185  0.2763  11.00000  0.05    0.36
Q2    1   0.7406  0.6502  0.3351  11.00000  0.05    0.34
Q3    1   1.3046  0.9090  0.2188  11.00000  0.05    0.33
Q4    1   0.9372  0.7306  0.2991  11.00000  0.05    0.31
Q5    1   1.0020  0.7449  0.0469  11.00000  0.05    0.29
Q6    1   0.9592  0.7164  0.1682  11.00000  0.05    0.29
Q7    1   1.2235  0.8257  0.0866  11.00000  0.05    0.24
Q8    1   1.4654  1.0213  0.1348  11.00000  0.05    0.16
Q9    1   1.3686  0.9127  0.3765  11.00000  0.05    0.13
Q10   1   0.9294  0.7406  0.4307  11.00000  0.05    0.13
Q11   1   1.2148  1.0856  0.4213  11.00000  0.05    0.12
Q12   1   1.1104  1.0855  0.3536  11.00000  0.05    0.12
Q13   1   0.4928  0.3267  0.3133  11.00000  0.05    0.12
Q14   1   0.4881  0.6021  0.3370  11.00000  0.05    0.11
Q15   1   0.6375  0.4750  0.3091  11.00000  0.05    0.11
Q16   1   1.2415  0.9911  0.3046  11.00000  0.05    0.11
Q17   1   1.4251  1.3082  0.4389  11.00000  0.05    0.11
Q18   1   0.5611  0.6554  0.4436  11.00000  0.05    0.10
Q19   1   0.6510  0.7220  0.4957  11.00000  0.05    0.10
Q20   1   0.8892  0.9843  0.5594  11.00000  0.05    0.10
;
_shelx_res_checksum              10856
_shelx_hkl_file
;
  -1   0   0  272.91    4.07
  -1   0   0  254.79    4.03
  -1   0   0  261.99    4.44
  -1   0   0  269.41    4.40
  -2   0   0    4.10    0.07
  -2   0   0    4.05    0.08
  -2   0   0    4.17    0.08
  -2   0   0    4.45    0.09
  -3   0   0   79.14    1.15
  -3   0   0   80.40    1.23
  -3   0   0   80.08    1.19
  -3   0   0   80.71    1.29
  -4   0   0    0.78    0.05
  -4   0   0    0.75    0.03
  -4   0   0    0.78    0.04
  -4   0   0    0.82    0.05
  -5   0   0    7.15    0.18
  -5   0   0    7.13    0.16
  -6   0   0    3.64    0.13
  -6   0   0    3.59    0.12
   7  -1   0    1.11    0.09
  -7   1   0    1.10    0.08
   6  -1   0    4.95    0.15
  -6   1   0    4.96    0.14
   5  -1   0    5.70    0.15
  -5   1   0    5.53    0.14
  -5   1   0    5.57    0.15
  -5   1   0    6.16    0.15
  -4   1   0    5.16    0.12
  -4   1   0    5.12    0.12
  -4   1   0    4.92    0.12
  -3   1   0   21.61    0.33
  -3   1   0   22.04    0.36
  -3   1   0   21.69    0.38
  -3   1   0   22.13    0.34
  -2   1   0    9.02    0.14
  -2   1   0    8.94    0.15
  -2   1   0    9.16    0.14
  -2   1   0    9.17    0.16
  -2   1   0    9.00    0.17
  -2   1   0    9.15    0.14
   1  -1   0   17.17    0.27
  -1   1   0   17.55    0.26
  -1   1   0   17.48    0.27
  -1   1   0   17.28    0.27
   0  -1   0   13.76    0.22
   0  -1   0   13.78    0.21
   0   1   0   14.04    0.22
   0   1   0   13.81    0.23
  -1  -1   0   33.28    0.52
  -1  -1   0   31.85    0.46
  -1  -1   0   31.78    0.50
  -1  -1   0   31.38    0.49
  -2  -1   0  458.16    7.15
  -2  -1   0  457.79    7.14
  -2  -1   0  452.15    7.81
  -2  -1   0  451.33    7.62
  -3  -1   0   13.37    0.25
  -3  -1   0   13.78    0.23
  -3  -1   0   13.59    0.23
  -3  -1   0   13.90    0.24
  -4  -1   0  159.27    2.23
  -4  -1   0  153.07    2.49
  -5  -1   0    5.08    0.15
  -5  -1   0    5.05    0.14
  -6  -1   0    0.23    0.05
  -6  -1   0    0.23    0.05
   7  -2   0    8.68    0.22
  -7   2   0    8.98    0.21
   6  -2   0    2.30    0.10
  -6   2   0    2.40    0.10
  -6   2   0    2.40    0.09
   5  -2   0    0.10    0.03
  -5   2   0    0.12    0.03
  -5   2   0    0.09    0.03
   4  -2   0    4.55    0.11
  -4   2   0    4.66    0.12
  -4   2   0    4.84    0.11
   3  -2   0   41.40    0.64
  -3   2   0   40.02    0.59
  -3   2   0   41.60    0.61
  -3   2   0   40.33    0.68
  -3   2   0   40.37    0.60
  -3   2   0   41.64    0.61
   2  -2   0  283.52    4.73
   2  -2   0  293.61    4.84
  -2   2   0  288.83    4.66
  -2   2   0  290.23    4.37
  -2   2   0  283.74    4.63
  -2   2   0  282.74    5.41
   1  -2   0  900.68   13.73
  -1   2   0  931.16   15.58
  -1   2   0 1000.00   13.57
  -1   2   0  935.77   14.45
   0  -2   0  323.14    5.39
   0  -2   0  306.04    4.92
   0  -2   0  309.80    5.11
   0  -2   0  321.16    5.08
   0   2   0  318.51    5.32
  -1  -2   0  556.96    9.29
  -1  -2   0  564.10    8.70
  -1  -2   0  577.65    9.19
  -1  -2   0  549.18    9.10
   1   2   0  575.06    9.03
  -2  -2   0  125.82    1.85
  -2  -2   0  123.81    1.77
  -2  -2   0  120.98    1.87
  -2  -2   0  125.80    1.98
  -3  -2   0    0.62    0.05
  -3  -2   0    0.67    0.04
  -4  -2   0    9.24    0.21
  -4  -2   0    9.50    0.19
  -5  -2   0    0.23    0.04
  -5  -2   0    0.27    0.05
  -6  -2   0   67.92    1.05
  -6  -2   0   67.42    1.13
   7  -3   0    3.64    0.13
  -7   3   0    3.66    0.14
   6  -3   0   44.90    0.74
  -6   3   0   44.95    0.80
  -6   3   0   44.52    0.70
   5  -3   0   29.25    0.49
  -5   3   0   28.49    0.53
   4  -3   0   51.25    0.78
   4  -3   0   52.40    0.82
  -4   3   0   52.70    0.89
  -4   3   0   53.26    0.78
  -4   3   0   53.04    0.79
   3  -3   0    7.43    0.14
   3  -3   0    7.39    0.14
  -3   3   0    7.56    0.12
  -3   3   0    7.50    0.13
  -3   3   0    7.47    0.13
  -3   3   0    7.18    0.16
   2  -3   0   85.27    1.53
   2  -3   0   82.48    1.24
  -2   3   0   86.79    1.42
  -2   3   0   86.35    1.27
  -2   3   0   84.01    1.28
  -2   3   0   83.67    1.40
   1  -3   0   13.55    0.22
   1  -3   0   13.26    0.21
   1  -3   0   13.32    0.23
  -1   3   0   13.42    0.23
  -1   3   0   13.56    0.21
  -1   3   0   13.24    0.24
   0  -3   0    7.38    0.14
   0  -3   0    7.63    0.14
   0  -3   0    7.57    0.14
   0  -3   0    7.58    0.15
   0   3   0    7.42    0.15
  -1  -3   0   33.85    0.53
  -1  -3   0   32.87    0.53
  -1  -3   0   32.99    0.49
  -1  -3   0   32.66    0.52
   1   3   0   33.15    0.53
  -2  -3   0    0.40    0.03
  -2  -3   0    0.46    0.04
  -3  -3   0    8.73    0.19
  -3  -3   0    8.71    0.18
  -4  -3   0   15.84    0.32
  -4  -3   0   15.76    0.29
  -5  -3   0    8.26    0.22
  -5  -3   0    8.52    0.20
   7  -4   0   14.91    0.30
  -7   4   0   15.12    0.35
   6  -4   0    0.29    0.04
  -6   4   0    0.26    0.05
   5  -4   0    2.89    0.09
   5  -4   0    2.79    0.09
  -5   4   0    2.81    0.11
  -5   4   0    2.90    0.07
   4  -4   0    0.29    0.03
   4  -4   0    0.41    0.04
  -4   4   0    0.27    0.03
   3  -4   0    5.05    0.11
   3  -4   0    5.01    0.10
  -3   4   0    5.00    0.11
  -3   4   0    5.09    0.09
  -3   4   0    5.02    0.13
   2  -4   0  779.68   12.40
   2  -4   0  809.00   12.69
  -2   4   0  796.24   14.19
  -2   4   0  810.63   13.13
  -2   4   0  835.45   12.06
   1  -4   0  374.97    6.09
   1  -4   0  391.47    5.57
   1  -4   0  352.47    6.22
  -1   4   0  365.32    6.79
  -1   4   0  382.03    5.91
  -1   4   0  372.36    5.83
   0  -4   0    2.65    0.07
   0  -4   0    2.69    0.07
   0  -4   0    2.54    0.07
   0   4   0    2.65    0.08
   0   4   0    2.50    0.06
  -1  -4   0  147.34    2.28
  -1  -4   0  148.35    2.27
  -1  -4   0  149.43    2.17
  -2  -4   0    4.13    0.10
  -2  -4   0    4.00    0.11
  -3  -4   0    5.89    0.14
  -3  -4   0    5.77    0.16
  -4  -4   0    4.50    0.15
  -4  -4   0    4.55    0.13
  -5  -4   0    3.00    0.12
  -5  -4   0    3.13    0.14
   7  -5   0   14.85    0.30
  -7   5   0   15.19    0.36
   6  -5   0    4.98    0.14
  -6   5   0    4.97    0.17
   5  -5   0    9.28    0.20
  -5   5   0    9.40    0.23
  -5   5   0    9.25    0.17
   4  -5   0   95.58    1.39
  -4   5   0   95.67    1.45
  -4   5   0   96.83    1.58
   3  -5   0    0.76    0.05
  -3   5   0    0.73    0.05
  -3   5   0    0.66    0.06
   2  -5   0    5.55    0.11
   2  -5   0    5.45    0.12
  -2   5   0    5.37    0.13
  -2   5   0    5.49    0.14
  -2   5   0    5.43    0.11
   1  -5   0    4.14    0.10
   1  -5   0    4.23    0.09
  -1   5   0    4.15    0.09
  -1   5   0    4.09    0.11
   0  -5   0   46.67    0.74
   0  -5   0   47.04    0.71
   0  -5   0   48.65    0.78
   0  -5   0   47.05    0.76
   0   5   0   46.90    0.71
   0   5   0   48.70    0.76
  -1  -5   0  119.00    1.81
  -1  -5   0  121.55    1.81
  -1  -5   0  116.14    1.73
  -2  -5   0   27.16    0.48
  -2  -5   0   27.30    0.44
  -3  -5   0    5.04    0.14
  -3  -5   0    5.14    0.15
  -4  -5   0   15.64    0.34
  -4  -5   0   15.72    0.31
   6  -6   0    3.05    0.11
  -6   6   0    2.88    0.13
  -6   6   0    2.87    0.08
   5  -6   0    0.62    0.06
  -5   6   0    0.57    0.07
  -5   6   0    0.63    0.05
   4  -6   0   13.24    0.25
  -4   6   0   12.96    0.25
  -4   6   0   13.46    0.29
   3  -6   0  113.18    1.85
  -3   6   0  117.00    1.76
  -3   6   0  118.16    1.90
  -2   6   0    0.22    0.03
  -2   6   0    0.35    0.05
   1  -6   0   66.69    1.08
   1  -6   0   64.69    0.97
  -1   6   0   65.91    0.96
  -1   6   0   65.76    1.04
   0  -6   0  197.44    2.82
   0  -6   0  196.57    3.00
   0   6   0  195.31    2.86
  -1  -6   0    1.76    0.07
  -1  -6   0    1.77    0.08
  -1  -6   0    1.80    0.09
   1   6   0    1.80    0.07
  -2  -6   0    8.25    0.18
  -2  -6   0    8.07    0.20
   2   6   0    7.95    0.18
  -3  -6   0    4.82    0.15
  -3  -6   0    4.95    0.16
   6  -7   0    2.84    0.11
  -6   7   0    2.67    0.09
  -6   7   0    2.64    0.13
   5  -7   0    3.79    0.12
  -5   7   0    3.64    0.11
  -5   7   0    3.71    0.15
   4  -7   0   19.01    0.34
  -4   7   0   18.49    0.35
  -4   7   0   18.93    0.39
   3  -7   0    1.99    0.08
  -3   7   0    1.92    0.09
  -3   7   0    1.95    0.09
   2  -7   0    0.34    0.04
   2  -7   0    0.24    0.04
  -2   7   0    0.38    0.05
   1  -7   0   24.98    0.42
  -1   7   0   25.20    0.41
   0  -7   0    0.06    0.03
   0   7   0    0.06    0.03
  -1  -7   0    0.04    0.03
   1   7   0    0.10    0.03
  -2  -7   0   95.42    1.42
   2   7   0   95.89    1.43
   5  -8   0    2.46    0.10
  -5   8   0    2.28    0.13
  -5   8   0    2.27    0.10
   4  -8   0   20.69    0.38
  -4   8   0   21.27    0.44
  -4   8   0   21.09    0.40
   3  -8   0   38.72    0.62
  -3   8   0   38.84    0.67
   2  -8   0    2.14    0.09
   1  -8   0   18.51    0.34
   0  -8   0    5.47    0.15
   0   8   0    5.72    0.15
  -1  -8   0    2.85    0.11
   1   8   0    2.75    0.11
   4  -9   0    0.58    0.07
  -4   9   0    0.59    0.07
   3  -9   0    1.48    0.09
  -3   9   0    1.58    0.10
   2  -9   0    2.94    0.11
   1  -9   0   16.66    0.33
   1  -9   1   10.74    0.24
   2  -9   1    0.83    0.07
  -3   9  -1   27.70    0.53
   3  -9   1   27.77    0.48
  -4   9  -1   14.14    0.31
   4  -9   1   14.13    0.30
   1   8  -1   90.15    1.33
  -1  -8   1   88.53    1.34
   0  -8   1   38.27    0.62
   1  -8   1   13.90    0.27
   2  -8   1    6.05    0.16
  -3   8  -1    1.54    0.09
  -3   8  -1    1.49    0.09
   3  -8   1    1.56    0.08
  -4   8  -1    1.08    0.08
  -4   8  -1    1.05    0.09
   4  -8   1    1.07    0.07
  -5   8  -1   28.07    0.50
  -5   8  -1   28.00    0.56
   5  -8   1   27.97    0.49
   2   7  -1   15.75    0.30
  -2  -7   1   15.82    0.33
  -2  -7   1   15.78    0.31
   1   7  -1   13.80    0.26
  -1  -7   1   13.71    0.27
  -1  -7   1   14.11    0.30
   0   7  -1    0.27    0.04
   0  -7   1    0.23    0.04
   1  -7   1   33.88    0.54
  -2   7  -1    1.25    0.07
  -2   7  -1    1.31    0.07
   2  -7   1    1.22    0.07
  -3   7  -1    0.28    0.04
  -3   7  -1    0.26    0.04
   3  -7   1    0.13    0.03
  -4   7  -1    1.26    0.09
  -4   7  -1    1.22    0.07
   4  -7   1    1.33    0.07
  -5   7  -1    6.83    0.16
  -5   7  -1    6.82    0.21
   5  -7   1    6.82    0.17
  -6   7  -1    5.21    0.19
  -6   7  -1    5.20    0.13
   6  -7   1    5.09    0.15
  -3  -6   1   93.91    1.39
  -3  -6   1   93.52    1.49
  -2  -6   1   28.72    0.47
  -2  -6   1   28.57    0.51
  -2  -6   1   28.40    0.51
  -1  -6   1    0.51    0.05
  -1  -6   1    0.37    0.05
   0   6  -1  233.63    3.40
   0  -6   1  235.20    3.43
   0  -6   1  237.51    3.59
  -1   6  -1   52.11    0.87
  -1   6  -1   52.36    0.77
  -1   6  -1   52.76    0.84
   1  -6   1   52.99    0.82
   1  -6   1   51.91    0.79
  -2   6  -1    8.56    0.19
  -2   6  -1    8.52    0.20
   2  -6   1    8.71    0.18
  -3   6  -1    5.85    0.14
  -3   6  -1    6.01    0.16
   3  -6   1    5.70    0.14
  -4   6  -1    0.84    0.05
  -4   6  -1    0.89    0.07
   4  -6   1    0.97    0.06
  -5   6  -1   48.67    0.77
  -5   6  -1   48.56    0.87
   5  -6   1   49.16    0.76
  -6   6  -1   24.98    0.41
  -6   6  -1   24.92    0.51
   6  -6   1   24.68    0.44
  -4  -5   1   11.03    0.26
  -4  -5   1   10.78    0.24
  -3  -5   1    0.24    0.04
  -3  -5   1    0.26    0.04
  -2  -5   1    6.30    0.16
  -2  -5   1    6.39    0.16
  -2  -5   1    6.38    0.14
  -1  -5   1    3.40    0.11
  -1  -5   1    3.52    0.10
  -1  -5   1    3.49    0.10
   0   5  -1   41.14    0.66
   0  -5   1   41.34    0.62
   0  -5   1   40.66    0.66
   0  -5   1   41.13    0.65
  -1   5  -1  116.93    1.71
  -1   5  -1  117.09    1.93
  -1   5  -1  123.16    1.79
   1  -5   1  116.64    1.94
   1  -5   1  118.95    1.92
  -2   5  -1  120.29    1.98
  -2   5  -1  120.84    1.86
   2  -5   1  121.66    1.74
   2  -5   1  123.00    1.88
  -3   5  -1  186.21    2.97
  -3   5  -1  179.33    3.45
   3  -5   1  185.90    2.79
   3  -5   1  181.61    2.64
  -4   5  -1   71.00    1.07
  -4   5  -1   69.61    1.18
   4  -5   1   69.39    1.03
   4  -5   1   69.59    1.08
  -5   5  -1    9.55    0.24
  -5   5  -1    9.38    0.18
   5  -5   1    9.40    0.20
  -6   5  -1    0.31    0.05
  -6   5  -1    0.37    0.03
   6  -5   1    0.26    0.05
  -7   5  -1    2.26    0.13
   7  -5   1    1.82    0.10
  -5  -4   1    1.81    0.09
  -5  -4   1    1.87    0.11
  -4  -4   1    8.31    0.21
  -4  -4   1    8.36    0.19
  -3  -4   1   31.37    0.55
  -3  -4   1   31.67    0.50
  -2  -4   1  148.55    2.16
  -2  -4   1  150.24    2.23
  -2  -4   1  147.15    2.27
  -1  -4   1  173.90    2.50
  -1  -4   1  172.79    2.68
  -1  -4   1  174.42    2.61
   0   4  -1    0.07    0.01
   0   4  -1    0.06    0.02
   0  -4   1    0.06    0.02
   0  -4   1    0.07    0.02
   0  -4   1    0.13    0.02
  -1   4  -1   14.65    0.27
  -1   4  -1   14.86    0.26
  -1   4  -1   14.91    0.23
   1  -4   1   14.97    0.26
   1  -4   1   14.59    0.24
   1  -4   1   15.00    0.25
  -2   4  -1    3.02    0.08
  -2   4  -1    3.26    0.06
  -2   4  -1    3.18    0.09
   2  -4   1    3.10    0.08
   2  -4   1    3.22    0.08
  -3   4  -1   43.92    0.68
  -3   4  -1   43.93    0.75
   3  -4   1   44.69    0.66
   3  -4   1   42.49    0.68
  -4   4  -1   15.84    0.32
  -4   4  -1   15.40    0.27
   4  -4   1   16.16    0.28
   4  -4   1   15.73    0.28
  -5   4  -1    6.28    0.12
  -5   4  -1    6.19    0.17
   5  -4   1    6.20    0.15
   5  -4   1    6.02    0.15
  -6   4  -1  121.25    2.02
   6  -4   1  123.54    1.88
   6  -4   1  121.20    1.78
  -7   4  -1   97.65    1.63
   7  -4   1   93.23    1.43
  -5  -3   1   28.12    0.48
  -5  -3   1   27.74    0.52
  -4  -3   1    1.06    0.06
  -4  -3   1    1.13    0.07
  -3  -3   1   30.09    0.51
  -3  -3   1   29.85    0.47
  -2  -3   1   -0.01    0.01
  -2  -3   1    0.09    0.02
  -2  -3   1    0.01    0.02
   1   3  -1   10.33    0.19
  -1  -3   1   10.38    0.18
  -1  -3   1   10.13    0.19
  -1  -3   1   10.41    0.19
   0   3  -1    7.61    0.14
   0   3  -1    7.79    0.15
   0  -3   1    7.75    0.15
   0  -3   1    7.70    0.14
  -1   3  -1  260.13    4.95
  -1   3  -1  265.98    4.04
  -1   3  -1  255.87    4.70
   1  -3   1  266.79    4.29
   1  -3   1  266.87    4.59
  -2   3  -1    6.59    0.13
  -2   3  -1    6.82    0.10
  -2   3  -1    6.68    0.13
   2  -3   1    6.59    0.13
   2  -3   1    7.57    0.13
  -3   3  -1    0.15    0.02
  -3   3  -1    0.10    0.02
  -3   3  -1    0.19    0.02
   3  -3   1    0.12    0.02
   3  -3   1    0.11    0.02
  -4   3  -1    5.33    0.14
  -4   3  -1    5.44    0.10
   4  -3   1    5.39    0.13
  -5   3  -1    1.77    0.08
  -5   3  -1    1.77    0.08
  -5   3  -1    1.81    0.05
   5  -3   1    1.88    0.08
  -6   3  -1    3.14    0.11
  -6   3  -1    3.12    0.12
   6  -3   1    3.24    0.12
  -7   3  -1    5.30    0.16
  -7   3  -1    5.33    0.18
   7  -3   1    5.44    0.17
  -6  -2   1    1.24    0.08
  -6  -2   1    1.29    0.10
  -5  -2   1   19.32    0.38
  -5  -2   1   19.79    0.35
  -4  -2   1   48.17    0.79
  -4  -2   1   48.36    0.73
  -3  -2   1   17.73    0.29
  -3  -2   1   17.78    0.32
  -2  -2   1  329.36    5.41
  -2  -2   1  319.34    5.40
  -2  -2   1  323.62    5.22
  -2  -2   1  317.73    5.83
   1   2  -1  737.84   11.69
  -1  -2   1  736.71   11.01
  -1  -2   1  717.08   11.82
  -1  -2   1  745.12   11.57
   0   2  -1    2.27    0.06
   0   2  -1    2.31    0.05
   0  -2   1    2.23    0.06
   0  -2   1    2.63    0.05
   0  -2   1    2.33    0.05
  -1   2  -1   45.86    0.64
  -1   2  -1   44.29    0.70
  -1   2  -1   45.54    0.73
   1  -2   1   43.88    0.80
   1  -2   1   45.47    0.70
  -2   2  -1    9.89    0.19
  -2   2  -1    9.94    0.17
  -2   2  -1   10.18    0.17
   2  -2   1    9.83    0.17
  -3   2  -1    4.07    0.08
  -3   2  -1    4.05    0.08
  -3   2  -1    3.91    0.10
  -3   2  -1    4.03    0.09
   3  -2   1    3.99    0.10
  -4   2  -1   47.97    0.72
  -4   2  -1   47.80    0.81
  -4   2  -1   48.53    0.72
  -4   2  -1   48.00    0.72
   4  -2   1   48.42    0.77
  -5   2  -1   93.85    1.38
  -5   2  -1   94.99    1.55
  -5   2  -1   96.01    1.46
   5  -2   1   92.31    1.46
  -6   2  -1   39.73    0.63
  -6   2  -1   38.73    0.70
   6  -2   1   39.06    0.67
  -7   2  -1   11.47    0.26
   7  -2   1   11.46    0.27
  -6  -1   1    5.03    0.15
  -6  -1   1    5.25    0.17
  -5  -1   1    0.23    0.04
  -5  -1   1    0.28    0.04
  -4  -1   1   13.41    0.27
  -4  -1   1   13.92    0.24
  -3  -1   1    6.61    0.12
  -3  -1   1    6.68    0.13
  -3  -1   1    6.67    0.13
  -3  -1   1    6.65    0.15
  -2  -1   1   60.61    0.95
  -2  -1   1   60.12    0.92
  -2  -1   1   59.71    0.90
  -2  -1   1   58.94    0.85
  -2  -1   1   59.54    0.90
  -1  -1   1  195.47    3.14
  -1  -1   1  194.35    3.41
  -1  -1   1  198.68    3.25
   0   1  -1  132.83    2.32
   0  -1   1  133.74    2.17
   0  -1   1  135.72    2.24
   0  -1   1  134.36    2.11
   0  -1   1  134.59    2.37
  -2   1  -1   12.68    0.20
  -2   1  -1   12.70    0.21
  -2   1  -1   12.63    0.23
   2  -1   1   12.76    0.22
  -3   1  -1   34.19    0.52
  -3   1  -1   34.45    0.52
  -3   1  -1   34.21    0.58
   3  -1   1   34.09    0.55
  -4   1  -1    8.61    0.18
  -4   1  -1    8.75    0.17
  -4   1  -1    8.73    0.15
   4  -1   1    8.37    0.18
  -5   1  -1    9.67    0.21
  -5   1  -1    9.56    0.20
   5  -1   1    9.75    0.21
  -6   1  -1    0.05    0.03
   6  -1   1    0.02    0.04
   7  -1   1    4.03    0.15
  -7   0   1    1.16    0.10
  -7   0   1    1.25    0.08
  -6   0   1    6.76    0.19
  -6   0   1    6.92    0.17
  -5   0   1    0.41    0.04
  -5   0   1    0.40    0.05
  -4   0   1   17.57    0.29
  -4   0   1   17.84    0.32
  -4   0   1   17.30    0.32
  -3   0   1  409.67    6.88
  -3   0   1  396.12    7.02
  -3   0   1  402.01    6.11
  -3   0   1  389.06    6.51
  -2   0   1    0.57    0.02
  -2   0   1    0.58    0.02
  -2   0   1    0.60    0.02
  -2   0   1    0.63    0.02
  -2   0   1    0.55    0.03
  -1   0   1    9.65    0.15
  -1   0   1    9.60    0.14
  -1   0   1    9.70    0.15
  -1   0   1    9.62    0.15
   0   0   1   90.05    1.44
   0   0   1   89.38    1.53
  -1   0  -1   14.62    0.25
  -1   0  -1   15.26    0.25
   1   0   1   14.55    0.25
  -2   0  -1   62.98    0.96
  -2   0  -1   62.18    1.04
  -2   0  -1   62.39    0.90
  -2   0  -1   64.60    0.94
  -3   0  -1   32.34    0.54
  -3   0  -1   31.22    0.49
  -3   0  -1   32.67    0.50
  -3   0  -1   32.07    0.52
  -4   0  -1   52.94    0.81
  -4   0  -1   55.04    0.87
  -4   0  -1   55.18    0.90
  -5   0  -1  226.22    3.34
  -5   0  -1  235.59    3.88
   5   0   1  233.19    3.52
  -6   0  -1    4.09    0.13
   6   0   1    4.14    0.15
   7  -1  -1    1.36    0.10
  -7   1   1    1.34    0.08
  -6   1   1   32.52    0.57
  -6   1   1   32.23    0.53
  -5   1   1    3.29    0.11
  -5   1   1    3.45    0.10
  -5   1   1    3.20    0.10
  -4   1   1    3.01    0.08
  -4   1   1    3.09    0.07
  -4   1   1    3.04    0.09
  -4   1   1    2.98    0.09
  -3   1   1    0.02    0.01
  -3   1   1    0.01    0.01
  -2   1   1   70.60    1.01
  -2   1   1   68.77    1.13
  -2   1   1   69.46    1.24
  -2   1   1   69.34    1.00
   1  -1  -1  583.94    8.49
  -1   1   1  579.53    8.95
  -1   1   1  589.67    8.65
  -1   1   1  598.64    8.91
   0  -1  -1  340.99    5.21
   0  -1  -1  324.55    4.96
   0  -1  -1  324.02    5.61
   0   1   1  333.02    5.07
   0   1   1  342.71    5.43
  -1  -1  -1  137.83    1.99
  -1  -1  -1  141.29    2.12
  -1  -1  -1  139.66    2.56
  -2  -1  -1  366.31    5.24
  -2  -1  -1  351.55    6.21
  -2  -1  -1  340.40    6.15
  -3  -1  -1   24.79    0.40
  -3  -1  -1   25.82    0.43
  -3  -1  -1   24.97    0.43
  -4  -1  -1   13.82    0.28
  -4  -1  -1   13.97    0.26
  -5  -1  -1    7.07    0.19
  -5  -1  -1    7.09    0.17
  -6  -1  -1    0.42    0.06
  -6  -1  -1    0.55    0.06
   6   1   1    0.59    0.07
   7  -2  -1    4.33    0.15
  -7   2   1    4.31    0.13
   6  -2  -1   19.10    0.36
  -6   2   1   18.90    0.34
  -6   2   1   18.94    0.38
   5  -2  -1    1.01    0.06
  -5   2   1    1.04    0.06
  -5   2   1    1.01    0.06
   4  -2  -1    0.26    0.03
   3  -2  -1  111.05    1.69
  -3   2   1  111.36    1.80
  -3   2   1  111.82    1.61
   2  -2  -1   21.10    0.32
   2  -2  -1   20.84    0.31
  -2   2   1   20.78    0.32
  -2   2   1   20.73    0.32
  -2   2   1   21.21    0.31
  -2   2   1   20.85    0.36
   1  -2  -1   63.25    0.92
  -1   2   1   62.51    0.96
  -1   2   1   63.20    0.92
   0  -2  -1    8.74    0.15
   0  -2  -1    8.86    0.15
   0  -2  -1    9.00    0.16
   0   2   1    8.59    0.16
   0   2   1    8.90    0.15
  -1  -2  -1    0.97    0.04
  -1  -2  -1    1.01    0.03
   1   2   1    1.09    0.04
  -2  -2  -1    4.38    0.11
  -2  -2  -1    4.40    0.10
  -2  -2  -1    4.43    0.09
  -3  -2  -1  176.77    2.72
  -4  -2  -1   22.26    0.38
  -4  -2  -1   22.49    0.41
  -5  -2  -1    0.20    0.04
  -5  -2  -1    0.25    0.04
  -6  -2  -1   66.02    1.11
  -6  -2  -1   65.73    1.03
  -7   3   1    1.97    0.11
   6  -3  -1   19.09    0.35
  -6   3   1   19.20    0.39
   5  -3  -1    6.26    0.14
  -5   3   1    6.18    0.16
   4  -3  -1    1.29    0.05
   4  -3  -1    1.20    0.05
  -4   3   1    1.28    0.03
  -4   3   1    1.26    0.04
  -4   3   1    1.25    0.03
  -4   3   1    1.26    0.06
   3  -3  -1   27.49    0.42
   3  -3  -1   26.83    0.41
  -3   3   1   26.38    0.47
  -3   3   1   27.70    0.42
  -3   3   1   27.08    0.40
  -3   3   1   26.75    0.42
   2  -3  -1   77.58    1.16
   2  -3  -1   81.53    1.20
  -2   3   1   80.70    1.40
  -2   3   1   76.67    1.30
  -2   3   1   81.69    1.19
  -2   3   1   78.82    1.21
   1  -3  -1  365.39    6.61
   1  -3  -1  342.35    5.71
   1  -3  -1  372.11    5.96
   1  -3  -1  360.06    5.71
  -1   3   1  368.87    6.02
  -1   3   1  368.76    5.82
   0  -3  -1   74.70    1.08
   0  -3  -1   77.23    1.15
   0  -3  -1   73.93    1.14
   0  -3  -1   77.26    1.23
   0   3   1   75.07    1.14
   0   3   1   73.96    1.11
  -1  -3  -1    5.42    0.12
  -1  -3  -1    5.95    0.11
  -1  -3  -1    5.45    0.11
   1   3   1    5.50    0.12
  -2  -3  -1   11.54    0.21
  -2  -3  -1   11.82    0.23
  -3  -3  -1    0.00    0.02
  -3  -3  -1   -0.02    0.02
  -4  -3  -1    4.92    0.15
  -4  -3  -1    4.81    0.14
  -5  -3  -1    6.62    0.18
  -5  -3  -1    6.46    0.19
   7  -4  -1    3.93    0.13
  -7   4   1    4.01    0.15
   6  -4  -1    0.02    0.03
  -6   4   1    0.01    0.03
   5  -4  -1   80.27    1.19
  -5   4   1   81.82    1.35
   4  -4  -1    0.09    0.02
   4  -4  -1    0.05    0.02
  -4   4   1    0.09    0.03
  -4   4   1    0.05    0.02
   3  -4  -1  122.80    1.79
   3  -4  -1  126.59    1.87
  -3   4   1  122.27    1.87
  -3   4   1  124.66    1.79
  -3   4   1  121.81    2.04
   2  -4  -1   34.78    0.52
   2  -4  -1   35.83    0.53
  -2   4   1   35.45    0.52
  -2   4   1   34.74    0.55
  -2   4   1   34.26    0.60
   1  -4  -1   22.01    0.34
   1  -4  -1   22.19    0.39
   1  -4  -1   22.53    0.35
  -1   4   1   21.58    0.34
  -1   4   1   22.42    0.37
   0  -4  -1    0.69    0.04
   0  -4  -1    0.72    0.04
   0  -4  -1    0.64    0.04
   0   4   1    0.81    0.05
   0   4   1    0.64    0.04
  -1  -4  -1    6.28    0.14
  -1  -4  -1    6.21    0.13
   1   4   1    6.30    0.13
  -2  -4  -1    0.05    0.02
  -2  -4  -1    0.06    0.03
  -3  -4  -1   59.71    0.97
  -3  -4  -1   59.97    0.91
  -4  -4  -1    7.29    0.18
  -4  -4  -1    7.34    0.20
  -5  -4  -1    6.79    0.21
  -5  -4  -1    7.15    0.20
   7  -5  -1    7.34    0.18
  -7   5   1    7.73    0.23
   6  -5  -1    6.75    0.16
  -6   5   1    6.69    0.20
   5  -5  -1    6.24    0.14
  -5   5   1    6.05    0.13
  -5   5   1    6.28    0.18
   4  -5  -1   10.12    0.19
  -4   5   1   10.25    0.23
  -4   5   1    9.93    0.19
   3  -5  -1    5.20    0.12
  -3   5   1    5.23    0.11
  -3   5   1    5.20    0.14
  -3   5   1    5.16    0.12
   2  -5  -1   80.12    1.15
  -2   5   1   79.44    1.15
  -2   5   1   79.40    1.22
   1  -5  -1  115.95    1.85
   1  -5  -1  111.71    1.66
   1  -5  -1  115.94    1.73
  -1   5   1  113.01    1.66
  -1   5   1  115.41    1.73
   0  -5  -1   60.95    0.94
   0  -5  -1   60.46    0.90
   0  -5  -1   61.09    0.96
   0  -5  -1   62.21    0.99
   0   5   1   61.51    0.97
   0   5   1   59.20    0.90
  -1  -5  -1  140.89    2.10
  -1  -5  -1  138.11    1.98
   1   5   1  137.13    2.03
  -2  -5  -1   11.46    0.23
  -2  -5  -1   11.76    0.24
   2   5   1   11.35    0.22
  -3  -5  -1    3.07    0.12
  -3  -5  -1    2.99    0.11
   3   5   1    3.14    0.11
  -4  -5  -1    0.27    0.05
  -4  -5  -1    0.25    0.05
   4   5   1    0.32    0.05
   7  -6  -1   12.08    0.26
  -7   6   1   11.72    0.31
   6  -6  -1    0.52    0.06
  -6   6   1    0.55    0.04
  -6   6   1    0.52    0.06
   5  -6  -1    9.00    0.19
  -5   6   1    9.18    0.19
  -5   6   1    9.50    0.24
   4  -6  -1    3.66    0.10
  -4   6   1    3.84    0.13
  -4   6   1    3.71    0.11
   3  -6  -1    2.25    0.08
  -3   6   1    2.32    0.10
  -3   6   1    2.31    0.09
   2  -6  -1    9.15    0.20
   2  -6  -1    8.99    0.18
  -2   6   1    9.15    0.20
  -2   6   1    8.85    0.17
   1  -6  -1    0.53    0.05
   1  -6  -1    0.58    0.05
  -1   6   1    0.54    0.06
  -1   6   1    0.56    0.04
   0  -6  -1   11.93    0.23
   0   6   1   12.10    0.22
  -1  -6  -1   47.19    0.73
   1   6   1   48.32    0.74
  -2  -6  -1   27.61    0.49
  -2  -6  -1   26.49    0.46
   2   6   1   26.83    0.46
  -3  -6  -1   39.92    0.70
  -3  -6  -1   40.01    0.66
   3   6   1   40.58    0.65
   6  -7  -1    3.67    0.12
  -6   7   1    3.81    0.16
  -6   7   1    3.65    0.10
   5  -7  -1    2.00    0.09
  -5   7   1    1.99    0.11
  -5   7   1    1.94    0.08
   4  -7  -1    6.01    0.15
  -4   7   1    5.91    0.15
  -4   7   1    6.16    0.18
   3  -7  -1    0.04    0.03
  -3   7   1    0.00    0.03
   2  -7  -1    1.32    0.07
   2  -7  -1    1.43    0.07
  -2   7   1    1.22    0.08
   1  -7  -1   18.73    0.33
  -1   7   1   18.94    0.33
   0  -7  -1    2.93    0.10
   0   7   1    3.10    0.10
  -1  -7  -1    0.02    0.03
   1   7   1   -0.01    0.03
  -2  -7  -1    0.72    0.07
   2   7   1    0.70    0.07
   5  -8  -1   28.41    0.48
  -5   8   1   28.02    0.50
   4  -8  -1    8.51    0.19
   4  -8  -1    8.14    0.22
  -4   8   1    8.41    0.21
   3  -8  -1    0.36    0.05
   3  -8  -1    0.39    0.05
  -3   8   1    0.46    0.06
   2  -8  -1    0.47    0.05
   1  -8  -1   -0.02    0.03
  -1   8   1    0.06    0.03
   0  -8  -1    3.12    0.11
   0   8   1    2.69    0.10
  -1  -8  -1    1.28    0.08
   1   8   1    1.38    0.09
   4  -9  -1    4.26    0.14
   4  -9  -1    4.31    0.16
  -4   9   1    4.29    0.15
   3  -9  -1   28.77    0.50
  -3   9   1   29.82    0.55
   2  -9  -1    4.94    0.15
   1  -9   2   33.93    0.57
   2  -9   2    0.62    0.07
  -3   9  -2    5.34    0.18
   3  -9   2    5.31    0.16
   1   8  -2    4.63    0.14
  -1  -8   2    4.78    0.14
   0  -8   2    3.78    0.12
   1  -8   2    6.02    0.16
   2  -8   2    1.27    0.07
  -3   8  -2    7.85    0.20
  -3   8  -2    8.07    0.21
   3  -8   2    8.09    0.19
  -4   8  -2    4.02    0.15
  -4   8  -2    4.03    0.13
   4  -8   2    4.03    0.13
  -5   8  -2   38.80    0.74
   5  -8   2   39.39    0.65
  -3  -7   2    2.81    0.13
  -3  -7   2    2.84    0.11
  -2  -7   2   40.03    0.64
  -2  -7   2   39.99    0.69
  -1  -7   2    1.18    0.07
  -1  -7   2    1.21    0.07
   0   7  -2    0.72    0.05
   0  -7   2    0.74    0.06
   0  -7   2    0.74    0.06
   1  -7   2   59.52    0.90
  -2   7  -2    6.93    0.18
  -2   7  -2    6.92    0.18
   2  -7   2    6.87    0.16
  -3   7  -2   31.57    0.58
  -3   7  -2   31.31    0.54
   3  -7   2   31.38    0.51
  -4   7  -2    9.41    0.24
  -4   7  -2    9.18    0.21
   4  -7   2    9.22    0.20
  -5   7  -2    0.13    0.03
  -5   7  -2    0.16    0.05
   5  -7   2    0.11    0.04
  -6   7  -2    0.93    0.10
   6  -7   2    0.84    0.08
  -4  -6   2    2.40    0.12
  -4  -6   2    2.36    0.10
  -3  -6   2   24.20    0.42
  -3  -6   2   23.62    0.45
  -3  -6   2   23.74    0.44
  -2  -6   2    4.26    0.13
  -2  -6   2    4.21    0.12
  -2  -6   2    4.20    0.13
  -1  -6   2    0.12    0.03
  -1  -6   2    0.10    0.03
  -1  -6   2    0.06    0.03
   0  -6   2    4.01    0.11
   0  -6   2    4.08    0.11
  -1   6  -2   -0.02    0.02
  -1   6  -2   -0.01    0.02
   1  -6   2    0.01    0.02
   1  -6   2    0.01    0.02
  -2   6  -2  122.95    2.01
  -2   6  -2  125.50    1.89
   2  -6   2  123.86    1.79
   2  -6   2  125.38    1.92
  -3   6  -2    3.56    0.11
  -3   6  -2    3.53    0.12
   3  -6   2    3.66    0.10
   3  -6   2    3.47    0.10
  -4   6  -2    0.46    0.06
  -4   6  -2    0.48    0.05
   4  -6   2    0.52    0.05
  -5   6  -2   92.95    1.57
  -5   6  -2   93.78    1.42
   5  -6   2   92.94    1.38
  -6   6  -2    6.10    0.20
  -6   6  -2    6.09    0.14
   6  -6   2    6.01    0.17
  -4  -5   2    3.87    0.14
  -4  -5   2    3.70    0.12
  -3  -5   2    0.53    0.06
  -3  -5   2    0.61    0.06
  -3  -5   2    0.54    0.05
  -2  -5   2   14.61    0.29
  -2  -5   2   15.19    0.29
  -2  -5   2   15.02    0.27
  -1  -5   2   93.13    1.36
  -1  -5   2   94.89    1.44
  -1  -5   2   93.67    1.45
   0   5  -2   62.87    0.98
   0  -5   2   62.61    0.92
   0  -5   2   62.23    0.97
   0  -5   2   62.29    0.97
  -1   5  -2   33.61    0.57
  -1   5  -2   33.73    0.49
  -1   5  -2   33.71    0.55
   1  -5   2   32.96    0.51
   1  -5   2   33.48    0.54
  -2   5  -2    2.23    0.08
  -2   5  -2    2.14    0.08
   2  -5   2    2.19    0.07
   2  -5   2    2.16    0.07
  -3   5  -2   10.87    0.21
  -3   5  -2   10.63    0.24
   3  -5   2   10.86    0.21
  -4   5  -2    4.02    0.10
  -4   5  -2    4.09    0.13
   4  -5   2    3.79    0.11
   4  -5   2    3.84    0.11
  -5   5  -2    0.26    0.03
  -5   5  -2    0.14    0.04
   5  -5   2    0.18    0.04
   5  -5   2    0.19    0.04
  -6   5  -2    4.97    0.17
  -6   5  -2    4.96    0.11
   6  -5   2    4.90    0.15
   6  -5   2    5.05    0.16
  -5  -4   2    1.45    0.10
  -5  -4   2    1.60    0.08
  -4  -4   2   17.65    0.32
  -4  -4   2   17.29    0.35
  -3  -4   2    8.24    0.19
  -3  -4   2    8.18    0.17
  -3  -4   2    8.36    0.18
  -2  -4   2   26.13    0.41
  -2  -4   2   26.10    0.44
  -2  -4   2   26.18    0.45
  -1  -4   2    2.52    0.08
  -1  -4   2    2.50    0.08
  -1  -4   2    2.48    0.07
   0   4  -2   37.22    0.58
   0   4  -2   35.36    0.59
   0  -4   2   35.43    0.54
   0  -4   2   35.86    0.57
   0  -4   2   36.94    0.58
  -1   4  -2   40.13    0.58
  -1   4  -2   39.95    0.63
  -1   4  -2   39.92    0.67
   1  -4   2   40.21    0.63
   1  -4   2   39.81    0.60
   1  -4   2   40.81    0.63
  -2   4  -2   52.51    0.80
  -2   4  -2   51.27    0.87
   2  -4   2   52.54    0.81
   2  -4   2   51.90    0.77
  -3   4  -2  114.80    1.90
  -3   4  -2  115.63    1.77
   3  -4   2  117.23    1.65
   3  -4   2  113.65    1.75
  -4   4  -2   69.45    1.17
  -4   4  -2   69.29    1.06
   4  -4   2   69.54    1.03
   4  -4   2   69.60    1.08
  -5   4  -2    3.99    0.14
  -5   4  -2    3.89    0.09
   5  -4   2    3.93    0.12
   5  -4   2    3.98    0.12
  -6   4  -2    3.53    0.14
  -6   4  -2    3.60    0.08
   6  -4   2    3.54    0.12
   6  -4   2    3.40    0.12
  -6  -3   2    0.04    0.04
  -6  -3   2    0.00    0.03
  -5  -3   2    3.29    0.13
  -5  -3   2    3.37    0.11
  -4  -3   2    1.60    0.08
  -4  -3   2    1.22    0.06
  -3  -3   2    0.97    0.05
  -3  -3   2    0.96    0.05
  -3  -3   2    1.06    0.06
  -2  -3   2   15.55    0.26
  -2  -3   2   15.52    0.27
  -2  -3   2   16.06    0.28
   1   3  -2    6.28    0.13
  -1  -3   2    6.10    0.13
  -1  -3   2    7.34    0.14
  -1  -3   2    6.83    0.12
   0   3  -2  137.59    2.19
   0   3  -2  137.08    2.06
   0  -3   2  134.89    2.11
   0  -3   2  138.32    2.44
   0  -3   2  135.49    2.08
  -1   3  -2    0.54    0.03
  -1   3  -2    0.53    0.03
   1  -3   2    0.59    0.03
   1  -3   2    0.55    0.03
  -2   3  -2   76.94    1.20
  -2   3  -2   77.69    1.28
   2  -3   2   78.30    1.13
   2  -3   2   77.19    1.18
  -3   3  -2    0.08    0.02
   3  -3   2    0.11    0.02
   3  -3   2    0.17    0.03
  -4   3  -2   22.10    0.36
  -4   3  -2   22.09    0.42
   4  -3   2   22.67    0.39
  -5   3  -2    7.19    0.18
  -5   3  -2    6.54    0.13
  -5   3  -2    6.51    0.16
   5  -3   2    6.65    0.17
  -6   3  -2   97.52    1.43
  -6   3  -2   96.02    1.43
  -6   3  -2   96.90    1.62
   6  -3   2   95.48    1.52
  -6  -2   2   13.78    0.31
  -6  -2   2   14.02    0.28
  -5  -2   2    7.43    0.17
  -5  -2   2    7.11    0.19
  -4  -2   2    0.49    0.05
  -4  -2   2    0.53    0.04
  -3  -2   2   36.28    0.57
  -3  -2   2   36.31    0.60
  -3  -2   2   36.44    0.55
  -2  -2   2    0.25    0.03
  -2  -2   2    0.17    0.02
  -2  -2   2    0.17    0.02
  -2  -2   2    0.18    0.02
   1   2  -2    1.28    0.04
  -1  -2   2    1.18    0.04
  -1  -2   2    1.23    0.03
  -1  -2   2    1.23    0.04
   0   2  -2  357.21    6.18
   0   2  -2  356.56    5.91
   0  -2   2  364.49    5.60
   0  -2   2  367.12    5.97
   0  -2   2  362.40    6.06
  -1   2  -2   68.63    1.05
  -1   2  -2   65.81    1.48
   1  -2   2   70.05    1.29
   1  -2   2   68.27    0.99
   1  -2   2   67.24    1.05
  -2   2  -2   12.04    0.20
  -2   2  -2   11.44    0.22
  -2   2  -2   11.88    0.20
   2  -2   2   11.67    0.21
  -3   2  -2   58.16    0.83
  -3   2  -2   53.49    0.80
  -3   2  -2   53.11    0.90
   3  -2   2   52.62    0.85
  -4   2  -2   29.37    0.52
  -4   2  -2   29.36    0.47
   4  -2   2   29.58    0.50
  -5   2  -2   -0.04    0.02
  -5   2  -2    0.02    0.01
  -5   2  -2   -0.01    0.03
   5  -2   2    0.20    0.04
  -6   2  -2    4.20    0.13
  -6   2  -2    4.28    0.14
  -6   2  -2    4.14    0.09
   6  -2   2    4.16    0.14
  -6  -1   2    9.53    0.21
  -6  -1   2    9.45    0.24
  -5  -1   2    0.61    0.05
  -5  -1   2    0.58    0.06
  -4  -1   2   67.13    0.98
  -4  -1   2   67.36    1.06
  -3  -1   2   -0.03    0.01
  -3  -1   2   -0.02    0.01
  -3  -1   2   -0.03    0.01
  -3  -1   2   -0.03    0.02
   2   1  -2  369.89    5.87
  -2  -1   2  352.45    5.88
  -2  -1   2  360.87    5.58
  -2  -1   2  359.15    5.81
  -2  -1   2  355.82    6.29
  -2  -1   2  352.39    5.86
   1   1  -2  218.43    3.66
  -1  -1   2  220.16    3.90
  -1  -1   2  219.83    3.34
  -1  -1   2  214.03    3.72
  -1  -1   2  222.17    3.51
   0   1  -2   86.96    1.74
   0  -1   2   90.73    1.28
   0  -1   2   90.80    1.28
   0  -1   2   88.16    1.58
   0  -1   2   90.95    1.37
  -1   1  -2   28.78    0.48
  -1   1  -2   28.78    0.43
   1  -1   2   29.91    0.42
   1  -1   2   29.45    0.46
  -2   1  -2    0.89    0.04
  -2   1  -2    1.04    0.04
  -2   1  -2    0.92    0.03
   2  -1   2    0.94    0.04
  -3   1  -2    1.69    0.06
  -3   1  -2    1.75    0.05
  -3   1  -2    1.80    0.06
   3  -1   2    1.78    0.07
  -4   1  -2   20.84    0.35
  -4   1  -2   20.60    0.38
   4  -1   2   20.14    0.37
  -5   1  -2   25.52    0.43
  -5   1  -2   25.44    0.47
   5  -1   2   25.22    0.46
  -6   1  -2   47.08    0.75
   6  -1   2   46.48    0.79
  -7   0   2   19.39    0.37
  -7   0   2   19.69    0.40
  -6   0   2    0.26    0.04
  -6   0   2    0.24    0.05
  -5   0   2  114.82    1.78
  -5   0   2  115.80    1.66
  -4   0   2    1.58    0.07
  -4   0   2    1.65    0.06
  -4   0   2    1.64    0.06
  -4   0   2    1.66    0.06
  -3   0   2    3.72    0.08
  -3   0   2    3.64    0.08
  -3   0   2    3.68    0.09
  -3   0   2    3.79    0.08
  -3   0   2    3.84    0.07
   2   0  -2    0.89    0.03
  -2   0   2    0.99    0.02
  -2   0   2    0.93    0.03
  -2   0   2    1.08    0.04
  -2   0   2    0.91    0.03
   1   0  -2  484.21    7.91
  -1   0   2  466.15    7.35
  -1   0   2  469.24    7.47
   0   0  -2  156.37    2.93
   0   0  -2  163.83    2.43
   0   0   2  162.40    2.72
   0   0   2  158.41    2.75
   0   0   2  160.37    2.53
  -1   0  -2  128.21    2.63
  -1   0  -2  137.09    2.02
   1   0   2  142.52    2.08
   1   0   2  138.17    2.20
  -2   0  -2  382.31    5.45
  -2   0  -2  351.14    6.61
  -2   0  -2  369.48    6.14
   2   0   2  362.87    6.38
  -3   0  -2   77.28    1.12
  -3   0  -2   76.91    1.27
   3   0   2   76.88    1.19
  -4   0  -2    1.87    0.07
  -4   0  -2    1.68    0.07
   4   0   2    1.81    0.08
  -5   0  -2   17.21    0.32
   5   0   2   17.48    0.34
  -6   0  -2    1.03    0.08
   6   0   2    1.02    0.09
  -7   1   2    0.63    0.08
  -7   1   2    0.63    0.06
  -6   1   2    0.02    0.03
  -6   1   2    0.00    0.03
  -5   1   2    0.83    0.05
  -5   1   2    0.77    0.05
  -5   1   2    0.79    0.06
  -5   1   2    0.80    0.05
  -4   1   2    2.74    0.07
  -4   1   2    2.69    0.08
  -4   1   2    2.69    0.08
  -4   1   2    2.72    0.07
  -3   1   2  138.18    2.11
  -3   1   2  138.76    2.24
  -3   1   2  138.80    1.98
  -3   1   2  138.32    2.01
  -2   1   2   40.88    0.61
  -2   1   2   41.06    0.58
  -2   1   2   40.65    0.62
  -2   1   2   40.68    0.59
   1  -1  -2  142.09    2.19
   1  -1  -2  147.24    2.75
  -1   1   2  142.03    2.13
  -1   1   2  135.48    2.43
  -1   1   2  143.93    2.24
   0  -1  -2  107.22    1.55
   0  -1  -2  107.58    1.76
   0   1   2  111.75    1.64
   0   1   2  108.79    1.64
   0   1   2  109.05    1.57
  -1  -1  -2    5.18    0.10
  -1  -1  -2    5.12    0.10
  -1  -1  -2    5.05    0.10
   1   1   2    5.18    0.11
   1   1   2    5.35    0.10
  -2  -1  -2   25.00    0.41
  -2  -1  -2   24.43    0.41
  -2  -1  -2   24.15    0.38
  -3  -1  -2   23.67    0.41
  -3  -1  -2   23.37    0.38
  -3  -1  -2   24.11    0.41
  -4  -1  -2  117.58    1.72
  -4  -1  -2  120.46    1.84
  -5  -1  -2    0.41    0.05
   5   1   2    0.37    0.06
  -6  -1  -2    5.02    0.16
   6   1   2    5.23    0.17
   7  -2  -2    2.51    0.11
  -7   2   2    2.65    0.10
  -6   2   2    0.45    0.05
  -6   2   2    0.46    0.06
  -6   2   2    0.48    0.06
  -5   2   2   10.16    0.19
  -5   2   2   10.25    0.22
  -5   2   2    9.89    0.19
  -5   2   2   10.13    0.21
  -4   2   2   28.13    0.43
  -4   2   2   28.41    0.46
  -4   2   2   28.30    0.43
  -4   2   2   27.80    0.49
   3  -2  -2    4.24    0.09
  -3   2   2    4.21    0.09
  -3   2   2    4.30    0.07
  -3   2   2    4.35    0.08
  -3   2   2    4.28    0.11
  -3   2   2    4.35    0.09
   2  -2  -2  222.00    3.68
  -2   2   2  227.00    3.66
  -2   2   2  222.06    3.72
  -2   2   2  230.83    3.35
   1  -2  -2  227.77    3.51
   1  -2  -2  211.24    3.43
  -1   2   2  220.40    3.27
  -1   2   2  214.80    3.64
   0  -2  -2  115.07    1.66
   0  -2  -2  116.19    1.88
   0  -2  -2  117.70    1.75
   0   2   2  114.66    1.68
   0   2   2  116.96    1.73
  -1  -2  -2    3.28    0.08
  -1  -2  -2    3.41    0.08
  -1  -2  -2    3.41    0.08
   1   2   2    3.46    0.09
   1   2   2    3.46    0.08
  -2  -2  -2    7.10    0.13
  -2  -2  -2    6.39    0.14
  -2  -2  -2    6.19    0.13
  -3  -2  -2    4.76    0.13
  -4  -2  -2    0.03    0.03
  -4  -2  -2    0.04    0.03
  -5  -2  -2    1.03    0.08
  -5  -2  -2    1.04    0.08
  -6   3   2    1.54    0.09
   5  -3  -2   16.94    0.29
   5  -3  -2   17.31    0.30
  -5   3   2   17.11    0.28
  -5   3   2   16.96    0.34
   4  -3  -2   14.42    0.25
   4  -3  -2   14.24    0.24
  -4   3   2   14.26    0.28
  -4   3   2   14.53    0.24
  -4   3   2   14.44    0.22
  -4   3   2   14.33    0.23
   3  -3  -2   18.77    0.30
   3  -3  -2   19.22    0.30
  -3   3   2   19.45    0.30
  -3   3   2   19.10    0.30
  -3   3   2   18.68    0.35
  -3   3   2   18.97    0.30
   2  -3  -2  218.52    3.78
   2  -3  -2  229.09    3.98
  -2   3   2  232.95    3.84
  -2   3   2  233.66    3.42
  -2   3   2  229.94    3.43
   1  -3  -2    1.60    0.05
   1  -3  -2    1.64    0.04
   1  -3  -2    1.64    0.03
  -1   3   2    1.48    0.05
   0  -3  -2    8.19    0.15
   0  -3  -2    8.15    0.15
   0  -3  -2    8.50    0.16
   0   3   2    8.06    0.15
   0   3   2    8.23    0.16
  -1  -3  -2   14.33    0.25
  -1  -3  -2   14.43    0.25
  -1  -3  -2   14.52    0.24
   1   3   2   14.86    0.26
   1   3   2   14.43    0.24
  -2  -3  -2    6.79    0.15
  -2  -3  -2    6.94    0.16
  -2  -3  -2    6.93    0.14
   2   3   2    6.96    0.14
  -3  -3  -2    0.15    0.03
  -3  -3  -2    0.13    0.03
  -4  -3  -2    0.07    0.03
  -4  -3  -2    0.07    0.03
  -5  -3  -2    4.43    0.16
  -5  -3  -2    4.28    0.15
   5   3   2    4.43    0.13
   7  -4  -2   38.91    0.63
  -7   4   2   39.77    0.73
   6  -4  -2   14.21    0.26
  -6   4   2   14.15    0.31
   5  -4  -2   12.34    0.23
  -5   4   2   12.41    0.27
   4  -4  -2    0.91    0.05
  -4   4   2    0.92    0.06
  -4   4   2    0.88    0.04
   3  -4  -2   89.23    1.31
  -3   4   2   92.58    1.31
  -3   4   2   89.70    1.47
  -3   4   2   88.01    1.36
   2  -4  -2   11.55    0.23
   2  -4  -2   11.47    0.20
  -2   4   2   11.82    0.20
  -2   4   2   11.56    0.21
   1  -4  -2    7.13    0.15
   1  -4  -2    7.42    0.13
   1  -4  -2    7.27    0.14
  -1   4   2    7.21    0.15
  -1   4   2    7.21    0.14
   0  -4  -2  319.75    4.74
   0  -4  -2  309.49    5.38
   0  -4  -2  310.42    5.74
   0   4   2  317.07    4.53
   0   4   2  321.64    4.74
  -1  -4  -2    6.02    0.13
  -1  -4  -2    5.97    0.13
  -1  -4  -2    5.93    0.12
   1   4   2    5.96    0.13
  -2  -4  -2   55.39    0.89
  -2  -4  -2   56.35    0.84
   2   4   2   55.17    0.84
  -3  -4  -2    1.89    0.09
  -3  -4  -2    1.91    0.08
   3   4   2    1.91    0.08
  -4  -4  -2    0.10    0.04
  -4  -4  -2    0.08    0.04
   4   4   2    0.12    0.04
   7  -5  -2    0.37    0.05
  -7   5   2    0.37    0.06
   6  -5  -2    1.25    0.07
  -6   5   2    1.29    0.09
   5  -5  -2   21.75    0.36
  -5   5   2   21.41    0.35
  -5   5   2   21.88    0.43
   4  -5  -2   97.58    1.41
  -4   5   2   98.68    1.61
  -4   5   2   96.75    1.47
   3  -5  -2   18.69    0.31
  -3   5   2   18.89    0.31
  -3   5   2   18.79    0.33
   2  -5  -2    0.02    0.02
   2  -5  -2    0.00    0.02
  -2   5   2    0.00    0.02
  -2   5   2    0.03    0.02
   1  -5  -2   47.19    0.71
   1  -5  -2   47.66    0.80
  -1   5   2   47.81    0.72
  -1   5   2   48.89    0.77
   0  -5  -2    0.78    0.05
   0  -5  -2    0.79    0.05
   0   5   2    0.71    0.05
  -1  -5  -2   13.21    0.24
  -1  -5  -2   13.37    0.25
   1   5   2   13.24    0.24
  -2  -5  -2   28.48    0.47
  -2  -5  -2   28.75    0.50
   2   5   2   27.87    0.47
  -3  -5  -2    1.23    0.08
  -3  -5  -2    1.26    0.08
   3   5   2    1.16    0.08
  -4  -5  -2   42.00    0.74
  -4  -5  -2   41.48    0.70
   4   5   2   41.39    0.68
  -7   6   2    3.82    0.16
   6  -6  -2    4.53    0.13
  -6   6   2    4.60    0.10
  -6   6   2    4.58    0.16
   5  -6  -2   12.45    0.24
  -5   6   2   12.46    0.29
  -5   6   2   11.94    0.23
   4  -6  -2   34.59    0.54
  -4   6   2   33.93    0.56
   3  -6  -2   40.64    0.71
   3  -6  -2   40.74    0.62
  -3   6   2   40.15    0.62
  -3   6   2   40.51    0.66
   2  -6  -2   92.39    1.35
   2  -6  -2   93.66    1.53
  -2   6   2   94.99    1.45
  -2   6   2   93.69    1.36
   1  -6  -2   22.74    0.41
   1  -6  -2   22.27    0.37
  -1   6   2   22.53    0.41
  -1   6   2   22.33    0.37
   0  -6  -2   33.21    0.53
   0   6   2   33.50    0.53
  -1  -6  -2    5.11    0.13
   1   6   2    5.19    0.14
  -2  -6  -2    0.00    0.03
   2   6   2   -0.01    0.03
  -3  -6  -2    9.68    0.23
   3   6   2    9.80    0.23
   6  -7  -2    1.24    0.08
  -6   7   2    1.03    0.06
   5  -7  -2    1.20    0.07
  -5   7   2    1.08    0.06
   4  -7  -2   26.01    0.43
   4  -7  -2   25.78    0.50
  -4   7   2   25.47    0.45
   3  -7  -2   39.44    0.61
   3  -7  -2   39.31    0.70
  -3   7   2   38.81    0.66
   2  -7  -2    0.42    0.05
   2  -7  -2    0.45    0.05
  -2   7   2    0.63    0.05
  -2   7   2    0.50    0.06
   1  -7  -2    0.04    0.03
  -1   7   2    0.03    0.03
   0  -7  -2    1.45    0.07
   0   7   2    1.47    0.08
  -1  -7  -2    3.72    0.12
   1   7   2    3.75    0.12
  -2  -7  -2   12.05    0.26
   2   7   2   11.88    0.26
   5  -8  -2    1.73    0.09
   5  -8  -2    1.75    0.11
  -5   8   2    1.73    0.09
   4  -8  -2   20.92    0.37
   4  -8  -2   21.43    0.44
  -4   8   2   21.10    0.40
   3  -8  -2   15.54    0.33
   3  -8  -2   14.97    0.29
  -3   8   2   15.28    0.32
   2  -8  -2   68.27    1.03
   1  -8  -2   14.18    0.28
  -1   8   2   14.56    0.28
   0  -8  -2   11.57    0.25
   0   8   2   11.60    0.25
   3  -9  -2   27.44    0.48
  -3   9   2   27.97    0.53
   2  -9  -2    2.28    0.10
   1  -9   3    0.23    0.05
   2  -9   3   16.26    0.32
  -1  -8   3    0.15    0.04
   0  -8   3    0.79    0.06
   1  -8   3    2.05    0.09
   2  -8   3    4.40    0.13
  -3   8  -3    5.97    0.18
  -3   8  -3    6.44    0.19
   3  -8   3    6.27    0.16
  -4   8  -3    6.73    0.18
  -4   8  -3    6.44    0.20
   4  -8   3    6.53    0.17
  -3  -7   3    8.53    0.23
  -3  -7   3    8.42    0.20
  -3  -7   3    8.21    0.22
  -2  -7   3    2.29    0.09
  -2  -7   3    2.32    0.11
  -1  -7   3   11.50    0.25
  -1  -7   3   11.39    0.23
   0  -7   3   12.40    0.24
   0  -7   3   12.54    0.26
   1  -7   3   19.25    0.34
   1  -7   3   19.25    0.35
  -2   7  -3    0.16    0.04
  -2   7  -3    0.16    0.04
   2  -7   3    0.22    0.04
   2  -7   3    0.17    0.04
  -3   7  -3   13.46    0.30
  -3   7  -3   13.41    0.28
   3  -7   3   13.21    0.26
  -4   7  -3    1.55    0.10
  -4   7  -3    1.61    0.08
   4  -7   3    1.78    0.09
  -5   7  -3    1.07    0.09
  -5   7  -3    1.21    0.07
   5  -7   3    1.07    0.08
  -4  -6   3    0.00    0.04
  -4  -6   3    0.23    0.04
  -3  -6   3    8.87    0.22
  -3  -6   3    8.68    0.21
  -3  -6   3    9.13    0.20
  -2  -6   3   17.71    0.31
  -2  -6   3   17.39    0.35
  -2  -6   3   17.73    0.34
  -1  -6   3   69.54    1.05
  -1  -6   3   72.57    1.12
  -1  -6   3   70.40    1.12
   0  -6   3   28.26    0.48
   0  -6   3   28.47    0.46
  -1   6  -3   18.37    0.35
  -1   6  -3   18.38    0.34
   1  -6   3   18.28    0.32
   1  -6   3   18.52    0.33
  -2   6  -3   15.42    0.31
  -2   6  -3   15.42    0.30
   2  -6   3   16.00    0.29
   2  -6   3   15.29    0.28
  -3   6  -3    0.00    0.02
   3  -6   3   -0.01    0.03
   3  -6   3    0.03    0.03
  -4   6  -3    0.30    0.05
  -4   6  -3    0.33    0.04
   4  -6   3    0.36    0.04
   4  -6   3    0.31    0.04
  -5   6  -3    0.58    0.07
  -5   6  -3    0.73    0.05
   5  -6   3    0.68    0.07
   5  -6   3    0.54    0.07
  -6   6  -3    4.05    0.16
   6  -6   3    3.96    0.14
  -4  -5   3    3.13    0.11
  -4  -5   3    3.03    0.12
  -4  -5   3    3.15    0.11
  -3  -5   3   60.66    0.98
  -3  -5   3   60.13    0.90
  -3  -5   3   59.68    0.96
  -2  -5   3   81.66    1.28
  -2  -5   3   80.28    1.26
  -2  -5   3   81.61    1.18
  -1  -5   3    8.42    0.17
  -1  -5   3    8.57    0.19
  -1  -5   3    8.60    0.18
   0  -5   3   27.47    0.43
   0  -5   3   28.21    0.47
   0  -5   3   27.35    0.47
  -1   5  -3    0.79    0.05
  -1   5  -3    0.74    0.05
   1  -5   3    0.79    0.05
   1  -5   3    0.77    0.05
  -2   5  -3    0.76    0.05
  -2   5  -3    0.85    0.05
   2  -5   3    0.80    0.05
   2  -5   3    0.77    0.05
  -3   5  -3   74.05    1.14
  -3   5  -3   72.98    1.23
   3  -5   3   74.08    1.09
  -4   5  -3   61.91    1.07
  -4   5  -3   62.42    0.97
   4  -5   3   62.28    0.94
   4  -5   3   62.36    0.98
  -5   5  -3    9.02    0.19
  -5   5  -3    9.62    0.24
   5  -5   3    9.17    0.21
   5  -5   3    8.92    0.20
  -6   5  -3   22.66    0.48
  -6   5  -3   22.87    0.39
   6  -5   3   22.85    0.43
   6  -5   3   23.32    0.42
  -5  -4   3    0.59    0.07
  -5  -4   3    0.65    0.06
  -4  -4   3    5.10    0.13
  -4  -4   3    5.28    0.13
  -4  -4   3    5.19    0.16
  -3  -4   3   27.11    0.43
  -3  -4   3   26.47    0.47
  -3  -4   3   26.01    0.45
  -2  -4   3   22.51    0.40
  -2  -4   3   22.55    0.39
  -2  -4   3   22.48    0.36
  -1  -4   3   18.82    0.30
  -1  -4   3   18.34    0.32
  -1  -4   3   18.67    0.33
   0   4  -3   95.57    1.44
   0   4  -3   96.72    1.53
   0  -4   3   94.88    1.39
   0  -4   3   93.54    1.50
   0  -4   3   95.67    1.46
  -1   4  -3   50.10    0.79
  -1   4  -3   50.27    0.83
   1  -4   3   50.32    0.74
   1  -4   3   51.15    0.79
   1  -4   3   50.79    0.79
  -2   4  -3   10.91    0.20
  -2   4  -3   10.75    0.22
   2  -4   3   10.72    0.20
  -3   4  -3    9.69    0.19
  -3   4  -3    9.65    0.21
   3  -4   3    9.77    0.19
   3  -4   3    9.85    0.19
  -4   4  -3    0.38    0.04
  -4   4  -3    0.32    0.04
   4  -4   3    0.27    0.04
   4  -4   3    0.28    0.04
  -5   4  -3   40.43    0.73
  -5   4  -3   39.79    0.63
   5  -4   3   39.34    0.64
   5  -4   3   40.38    0.67
  -6   4  -3    0.17    0.03
  -6   4  -3    0.18    0.05
   6  -4   3    0.15    0.05
   6  -4   3    0.16    0.04
  -6  -3   3   13.84    0.32
  -5  -3   3   27.21    0.51
  -5  -3   3   27.89    0.46
  -4  -3   3   12.18    0.23
  -4  -3   3   12.50    0.23
  -4  -3   3   12.51    0.26
  -3  -3   3   13.15    0.24
  -3  -3   3   13.55    0.23
  -3  -3   3   13.10    0.26
  -2  -3   3   69.85    1.07
  -2  -3   3   70.54    1.01
  -2  -3   3   69.98    1.09
   1   3  -3   68.22    1.03
   1   3  -3   68.23    1.08
  -1  -3   3   66.61    1.19
  -1  -3   3   67.27    0.99
  -1  -3   3   67.49    1.03
   0   3  -3    1.95    0.06
   0   3  -3    1.94    0.06
   0  -3   3    1.90    0.06
   0  -3   3    1.91    0.06
   0  -3   3    1.93    0.06
  -1   3  -3    3.93    0.09
  -1   3  -3    3.89    0.09
   1  -3   3    4.02    0.09
   1  -3   3    3.86    0.09
   1  -3   3    3.92    0.09
  -2   3  -3    0.03    0.02
  -2   3  -3    0.02    0.01
  -3   3  -3    0.33    0.03
  -3   3  -3    0.35    0.04
   3  -3   3    0.35    0.04
   3  -3   3    0.33    0.04
  -4   3  -3    8.05    0.16
  -4   3  -3    7.98    0.19
   4  -3   3    8.18    0.18
  -5   3  -3    0.83    0.07
  -5   3  -3    0.55    0.06
  -5   3  -3    0.64    0.04
   5  -3   3    0.62    0.06
  -6   3  -3    0.32    0.03
  -6   3  -3    0.34    0.05
  -6   3  -3    0.40    0.05
   6  -3   3    0.29    0.05
  -6  -2   3   17.78    0.38
  -6  -2   3   18.19    0.35
  -5  -2   3   22.34    0.43
  -5  -2   3   22.87    0.38
  -4  -2   3   32.11    0.50
  -4  -2   3   32.31    0.55
  -4  -2   3   32.45    0.51
  -3  -2   3  193.28    3.05
  -3  -2   3  200.20    3.03
  -3  -2   3  205.61    2.87
  -2  -2   3   60.94    1.04
  -2  -2   3   59.96    0.94
  -2  -2   3   60.67    0.92
  -2  -2   3   61.38    0.88
  -2  -2   3   62.10    0.92
   1   2  -3   19.21    0.31
   1   2  -3   19.40    0.31
  -1  -2   3   18.73    0.31
  -1  -2   3   18.56    0.31
  -1  -2   3   18.94    0.28
  -1  -2   3   18.92    0.29
   0   2  -3   24.54    0.41
   0   2  -3   24.80    0.40
   0  -2   3   24.94    0.40
   0  -2   3   24.66    0.37
   0  -2   3   24.27    0.40
   0  -2   3   26.91    0.37
  -1   2  -3   29.95    0.46
  -1   2  -3   29.56    0.49
   1  -2   3   28.74    0.47
   1  -2   3   29.74    0.44
   1  -2   3   30.04    0.46
  -2   2  -3   25.18    0.44
  -2   2  -3   25.64    0.39
   2  -2   3   25.27    0.41
  -3   2  -3    0.11    0.02
  -3   2  -3    0.06    0.02
   3  -2   3    0.05    0.02
  -4   2  -3   26.10    0.48
  -4   2  -3   26.86    0.44
   4  -2   3   26.81    0.46
  -5   2  -3    7.75    0.18
  -5   2  -3    8.30    0.20
   5  -2   3    8.15    0.20
  -6   2  -3    0.05    0.04
  -7  -1   3   11.06    0.28
  -6  -1   3   11.22    0.26
  -6  -1   3   11.41    0.24
  -5  -1   3   16.86    0.33
  -5  -1   3   17.08    0.30
  -4  -1   3  350.90    5.59
  -4  -1   3  350.32    5.40
  -4  -1   3  363.71    5.06
   3   1  -3   13.49    0.22
  -3  -1   3   13.15    0.24
  -3  -1   3   12.65    0.21
  -3  -1   3   12.97    0.21
  -3  -1   3   13.01    0.22
   2   1  -3    4.89    0.09
  -2  -1   3    5.04    0.10
  -2  -1   3    4.96    0.11
  -2  -1   3    4.95    0.09
  -2  -1   3    4.85    0.10
   1   1  -3   35.73    0.56
  -1  -1   3   34.91    0.54
  -1  -1   3   35.11    0.51
  -1  -1   3   35.33    0.50
  -1  -1   3   34.13    0.54
   0   1  -3   48.16    0.77
   0  -1   3   47.12    0.69
   0  -1   3   47.78    0.72
   0  -1   3   48.46    0.68
   0  -1   3   47.48    0.95
  -1   1  -3  245.81    4.81
  -1   1  -3  258.10    4.23
   1  -1   3  258.54    4.53
   1  -1   3  258.60    4.55
   1  -1   3  267.24    3.84
  -2   1  -3    1.50    0.05
  -2   1  -3    1.33    0.05
   2  -1   3    1.33    0.04
   2  -1   3    1.29    0.05
  -3   1  -3   41.53    0.63
  -3   1  -3   40.43    0.70
   3  -1   3   42.04    0.67
   3  -1   3   42.33    0.60
  -4   1  -3   80.87    1.34
  -4   1  -3   81.75    1.20
   4  -1   3   81.53    1.27
  -5   1  -3   10.39    0.23
  -5   1  -3    9.90    0.22
   5  -1   3   10.00    0.23
  -6   1  -3    0.59    0.07
   6  -1   3    0.64    0.08
  -7   0   3    3.18    0.14
  -6   0   3   11.12    0.25
  -6   0   3   11.25    0.23
  -5   0   3   12.85    0.23
  -5   0   3   12.42    0.26
   4   0  -3   80.22    1.28
  -4   0   3   78.74    1.16
  -4   0   3   81.15    1.14
  -4   0   3   78.65    1.23
   3   0  -3   48.66    0.78
  -3   0   3   48.94    0.69
  -3   0   3   47.40    0.72
  -3   0   3   47.77    0.75
  -3   0   3   48.00    0.71
   2   0  -3  838.06   13.73
  -2   0   3  852.43   11.86
  -2   0   3  845.38   13.13
  -2   0   3  811.70   12.53
  -2   0   3  787.38   12.67
   1   0  -3  104.10    1.68
  -1   0   3  102.98    1.52
  -1   0   3  105.64    1.60
  -1   0   3  105.60    1.58
   0   0  -3  546.11    7.73
   0   0  -3  485.70    8.90
   0   0   3  530.73    8.49
   0   0   3  534.96    7.95
   0   0   3  529.65    8.44
  -1   0  -3    1.14    0.04
  -1   0  -3    1.12    0.04
   1   0   3    1.26    0.04
   1   0   3    1.22    0.03
   1   0   3    1.34    0.04
  -2   0  -3    6.53    0.13
  -2   0  -3    6.54    0.13
   2   0   3    6.29    0.14
   2   0   3    6.83    0.12
  -3   0  -3   47.25    0.72
  -3   0  -3   47.93    0.80
   3   0   3   48.29    0.77
   3   0   3   48.37    0.70
  -4   0  -3   35.41    0.62
  -4   0  -3   35.62    0.57
   4   0   3   35.67    0.61
   4   0   3   36.79    0.55
  -5   0  -3   17.37    0.33
   5   0   3   17.24    0.35
  -6   0  -3   18.95    0.37
   6   0   3   19.07    0.39
  -7   1   3    1.85    0.10
  -6   1   3   31.05    0.51
  -6   1   3   30.89    0.54
  -5   1   3   23.12    0.41
  -5   1   3   23.30    0.38
  -5   1   3   23.65    0.37
  -4   1   3    8.38    0.15
  -4   1   3    8.20    0.16
  -4   1   3    8.19    0.17
   3  -1  -3  239.45    3.82
  -3   1   3  233.49    3.73
  -3   1   3  242.96    3.59
  -3   1   3  238.49    3.73
  -3   1   3  233.03    4.20
   2  -1  -3   20.95    0.36
   2  -1  -3   21.09    0.30
  -2   1   3   20.27    0.32
  -2   1   3   20.77    0.32
  -2   1   3   21.40    0.33
   1  -1  -3   42.45    0.60
   1  -1  -3   43.17    0.68
  -1   1   3   40.41    0.61
  -1   1   3   41.49    0.76
  -1   1   3   41.84    0.64
   0  -1  -3    1.95    0.04
   0   1   3    1.98    0.06
   0   1   3    1.98    0.05
   0   1   3    2.12    0.05
  -1  -1  -3   19.96    0.34
  -1  -1  -3   20.00    0.31
   1   1   3   20.24    0.33
   1   1   3   19.82    0.31
   1   1   3   20.67    0.33
  -2  -1  -3  147.62    2.61
  -2  -1  -3  149.67    2.43
   2   1   3  152.09    2.15
   2   1   3  148.90    2.56
  -3  -1  -3   70.58    1.04
  -3  -1  -3   70.08    1.16
   3   1   3   70.74    1.11
   3   1   3   71.13    1.03
  -4  -1  -3    1.72    0.08
   4   1   3    1.64    0.07
   4   1   3    1.64    0.09
  -5  -1  -3    7.17    0.18
   5   1   3    7.02    0.19
  -6   2   3   24.06    0.46
  -6   2   3   24.66    0.40
  -6   2   3   24.47    0.43
  -5   2   3   52.35    0.77
  -5   2   3   52.63    0.78
  -5   2   3   52.86    0.83
  -5   2   3   51.51    0.88
  -4   2   3  164.05    2.78
  -4   2   3  158.06    2.35
   3  -2  -3  100.84    1.67
   3  -2  -3  102.76    1.47
  -3   2   3  102.37    1.52
  -3   2   3  105.01    1.54
  -3   2   3  101.70    1.54
   2  -2  -3   11.54    0.17
   2  -2  -3   11.68    0.22
  -2   2   3   11.28    0.19
  -2   2   3   11.33    0.19
   1  -2  -3  168.20    2.33
   1  -2  -3  164.03    2.66
  -1   2   3  162.25    2.59
  -1   2   3  165.42    2.48
  -1   2   3  161.39    2.38
   0  -2  -3    9.26    0.17
   0  -2  -3    8.96    0.15
   0   2   3    9.25    0.16
   0   2   3    9.24    0.17
   0   2   3    9.36    0.16
  -1  -2  -3   49.87    0.73
  -1  -2  -3   49.50    0.82
   1   2   3   50.99    0.78
   1   2   3   49.88    0.73
   1   2   3   50.35    0.78
  -2  -2  -3   25.09    0.40
  -2  -2  -3   24.92    0.42
  -2  -2  -3   24.94    0.42
   2   2   3   24.74    0.39
  -3  -2  -3   18.03    0.34
  -3  -2  -3   17.90    0.32
  -3  -2  -3   17.96    0.32
   3   2   3   17.95    0.30
   3   2   3   17.57    0.33
  -4  -2  -3   11.29    0.24
   4   2   3   11.58    0.22
   4   2   3   11.38    0.25
  -5  -2  -3   53.02    0.85
   5   2   3   53.69    0.90
   5   2   3   54.28    0.83
  -6   3   3  101.25    1.67
   5  -3  -3   32.01    0.49
  -5   3   3   32.16    0.50
  -5   3   3   32.12    0.58
   4  -3  -3    0.44    0.03
  -4   3   3    0.39    0.02
  -4   3   3    0.41    0.02
  -4   3   3    0.37    0.03
   3  -3  -3   16.57    0.26
   3  -3  -3   16.57    0.31
  -3   3   3   16.99    0.27
  -3   3   3   16.47    0.27
  -3   3   3   16.70    0.27
   2  -3  -3    5.66    0.13
  -2   3   3    5.74    0.12
  -2   3   3    5.64    0.11
   1  -3  -3    0.00    0.01
   1  -3  -3    0.01    0.01
  -1   3   3    0.00    0.01
  -1   3   3    0.01    0.02
   0  -3  -3    0.14    0.02
   0  -3  -3    0.15    0.02
   0  -3  -3    0.12    0.02
   0   3   3    0.13    0.02
   0   3   3    0.08    0.02
  -1  -3  -3   16.89    0.28
  -1  -3  -3   16.89    0.30
  -1  -3  -3   16.54    0.29
   1   3   3   17.06    0.28
  -2  -3  -3   26.11    0.42
  -2  -3  -3   26.33    0.45
  -2  -3  -3   26.00    0.44
   2   3   3   25.71    0.42
  -3  -3  -3   74.68    1.17
  -3  -3  -3   73.08    1.10
   3   3   3   74.30    1.10
  -4  -3  -3    8.93    0.21
  -4  -3  -3    9.21    0.23
   4   3   3    9.04    0.20
   4   3   3    9.11    0.23
   5   3   3    1.26    0.08
   5   3   3    1.40    0.11
  -6   4   3   14.89    0.32
   5  -4  -3   25.76    0.41
  -5   4   3   26.06    0.42
   4  -4  -3  151.33    2.64
  -4   4   3  152.81    2.30
  -4   4   3  156.34    2.22
   3  -4  -3  216.36    3.55
   3  -4  -3  218.45    3.11
  -3   4   3  214.58    3.27
  -3   4   3  220.38    3.76
   2  -4  -3   33.12    0.57
   2  -4  -3   32.98    0.49
  -2   4   3   33.33    0.51
  -2   4   3   33.00    0.53
   1  -4  -3    0.77    0.04
   1  -4  -3    0.76    0.05
  -1   4   3    0.81    0.05
  -1   4   3    0.73    0.04
   0  -4  -3   30.54    0.47
   0  -4  -3   30.58    0.49
   0  -4  -3   31.10    0.52
   0   4   3   31.21    0.48
   0   4   3   30.76    0.52
  -1  -4  -3    3.53    0.10
  -1  -4  -3    3.57    0.10
  -1  -4  -3    3.55    0.09
   1   4   3    3.52    0.10
  -2  -4  -3   25.09    0.44
  -2  -4  -3   24.76    0.41
   2   4   3   24.44    0.41
  -3  -4  -3    1.52    0.08
  -3  -4  -3    1.58    0.08
   3   4   3    1.52    0.08
  -4  -4  -3   23.49    0.44
  -4  -4  -3   23.92    0.46
   4   4   3   24.02    0.42
   5  -5  -3   32.81    0.51
  -5   5   3   32.37    0.51
   4  -5  -3   65.28    1.11
   4  -5  -3   66.24    0.97
  -4   5   3   66.63    0.97
  -4   5   3   65.99    1.01
   3  -5  -3   20.92    0.40
   3  -5  -3   20.89    0.34
  -3   5   3   21.35    0.34
  -3   5   3   20.99    0.36
   2  -5  -3    5.10    0.11
   2  -5  -3    5.19    0.13
  -2   5   3    5.08    0.13
  -2   5   3    4.95    0.12
   1  -5  -3   67.46    0.99
   1  -5  -3   68.49    1.12
  -1   5   3   67.15    1.00
  -1   5   3   68.33    1.06
   0  -5  -3    0.17    0.03
   0  -5  -3    0.19    0.03
   0   5   3    0.16    0.03
  -1  -5  -3   93.40    1.36
   1   5   3   92.93    1.37
  -2  -5  -3    0.03    0.03
   2   5   3    0.03    0.03
  -3  -5  -3    7.47    0.20
  -3  -5  -3    7.32    0.19
   3   5   3    7.64    0.18
  -6   6   3   26.46    0.43
   5  -6  -3   76.45    1.12
   5  -6  -3   75.64    1.29
  -5   6   3   75.86    1.17
   4  -6  -3    4.64    0.11
   4  -6  -3    4.65    0.15
  -4   6   3    4.38    0.12
   3  -6  -3   11.31    0.21
   3  -6  -3   11.07    0.25
  -3   6   3   11.06    0.23
  -3   6   3   11.22    0.21
   2  -6  -3   91.66    1.52
   2  -6  -3   93.22    1.34
  -2   6   3   93.57    1.44
  -2   6   3   92.53    1.35
   1  -6  -3    6.63    0.15
   1  -6  -3    6.63    0.16
  -1   6   3    6.63    0.19
  -1   6   3    6.67    0.15
   0  -6  -3    1.63    0.07
   0   6   3    1.53    0.07
  -1  -6  -3   13.71    0.27
   1   6   3   14.24    0.27
  -2  -6  -3    3.73    0.12
   2   6   3    3.87    0.13
   6  -7  -3    1.32    0.10
  -6   7   3    1.38    0.06
   5  -7  -3    4.31    0.16
   5  -7  -3    4.43    0.12
  -5   7   3    4.36    0.12
   4  -7  -3    0.52    0.07
   4  -7  -3    0.49    0.05
  -4   7   3    0.56    0.06
   3  -7  -3    4.95    0.13
   3  -7  -3    4.87    0.15
  -3   7   3    4.94    0.14
  -3   7   3    4.67    0.12
   2  -7  -3    7.63    0.19
   2  -7  -3    7.44    0.17
  -2   7   3    7.56    0.17
  -2   7   3    7.79    0.20
   1  -7  -3    3.31    0.10
  -1   7   3    3.30    0.11
   0  -7  -3    3.38    0.11
   0   7   3    3.06    0.11
  -1  -7  -3    9.93    0.22
   1   7   3   10.16    0.23
   5  -8  -3   38.89    0.73
  -5   8   3   38.64    0.66
   4  -8  -3    5.77    0.18
   4  -8  -3    5.60    0.15
  -4   8   3    5.82    0.17
   3  -8  -3    1.25    0.07
   3  -8  -3    1.31    0.09
  -3   8   3    1.11    0.08
   2  -8  -3    6.66    0.16
  -2   8   3    6.55    0.16
   1  -8  -3    4.84    0.14
  -1   8   3    4.75    0.14
   0  -8  -3    4.70    0.14
   0   8   3    4.60    0.14
  -1  -8   4    0.58    0.06
  -1  -8   4    0.82    0.07
   0  -8   4    2.26    0.10
   0  -8   4    2.20    0.10
   1  -8   4    2.75    0.10
   2  -8   4    7.55    0.18
  -3   8  -4    1.38    0.09
  -3   8  -4    1.50    0.10
   3  -8   4    1.50    0.09
  -4   8  -4    6.76    0.19
  -4   8  -4    7.11    0.21
   4  -8   4    6.82    0.18
  -2  -7   4    3.26    0.13
  -2  -7   4    3.32    0.11
  -1  -7   4    5.36    0.14
  -1  -7   4    5.11    0.15
   0  -7   4    6.12    0.15
   0  -7   4    6.11    0.16
   1  -7   4   34.76    0.59
   1  -7   4   34.71    0.56
  -2   7  -4   45.84    0.77
  -2   7  -4   46.28    0.81
   2  -7   4   45.58    0.72
   2  -7   4   46.34    0.76
  -3   7  -4    8.02    0.20
  -3   7  -4    8.00    0.21
   3  -7   4    7.81    0.18
   3  -7   4    8.15    0.19
  -4   7  -4   13.08    0.27
  -4   7  -4   12.72    0.30
   4  -7   4   12.67    0.26
  -5   7  -4   18.04    0.41
  -5   7  -4   18.46    0.36
   5  -7   4   18.09    0.35
  -4  -6   4   32.72    0.54
  -4  -6   4   32.20    0.59
  -4  -6   4   32.07    0.60
  -3  -6   4   10.34    0.22
  -3  -6   4   10.55    0.25
  -3  -6   4   10.05    0.24
  -2  -6   4   50.36    0.83
  -2  -6   4   50.59    0.77
  -2  -6   4   50.34    0.84
  -1  -6   4   33.61    0.53
  -1  -6   4   32.60    0.57
   0  -6   4   19.53    0.36
   0  -6   4   19.39    0.33
   1  -6   4   12.23    0.24
   1  -6   4   12.00    0.23
  -2   6  -4    1.60    0.08
  -2   6  -4    1.65    0.08
   2  -6   4    1.62    0.07
   2  -6   4    1.59    0.07
  -3   6  -4   29.43    0.56
  -3   6  -4   29.82    0.51
   3  -6   4   30.18    0.49
   3  -6   4   31.01    0.52
  -4   6  -4   61.57    0.99
  -4   6  -4   62.13    1.08
   4  -6   4   63.69    1.00
   4  -6   4   62.72    0.95
  -5   6  -4    9.22    0.25
  -5   6  -4    9.23    0.20
   5  -6   4    9.29    0.22
   5  -6   4    9.12    0.22
  -4  -5   4    0.08    0.04
  -4  -5   4    0.13    0.03
  -4  -5   4    0.18    0.04
  -3  -5   4    0.05    0.03
  -3  -5   4   -0.01    0.03
  -3  -5   4    0.05    0.03
  -2  -5   4    9.71    0.21
  -2  -5   4    9.88    0.19
  -2  -5   4    9.88    0.22
  -1  -5   4    1.84    0.08
  -1  -5   4    1.84    0.07
  -1  -5   4    1.81    0.08
   0  -5   4    4.29    0.10
   0  -5   4    4.06    0.13
   0  -5   4    4.40    0.12
  -1   5  -4   12.11    0.24
  -1   5  -4   12.34    0.24
   1  -5   4   12.10    0.22
   1  -5   4   12.19    0.24
  -2   5  -4  134.32    2.18
  -2   5  -4  134.53    2.21
   2  -5   4  135.55    1.94
   2  -5   4  136.43    2.10
  -3   5  -4  104.11    1.71
  -3   5  -4  104.29    1.58
   3  -5   4  103.88    1.51
  -4   5  -4    6.44    0.15
  -4   5  -4    6.24    0.18
   4  -5   4    6.21    0.16
   4  -5   4    6.31    0.16
  -5   5  -4    5.81    0.14
  -5   5  -4    5.85    0.18
   5  -5   4    5.89    0.16
   5  -5   4    5.66    0.16
  -6   5  -4    9.84    0.27
   6  -5   4   10.44    0.25
   6  -5   4   10.00    0.24
  -5  -4   4   23.25    0.46
  -5  -4   4   22.73    0.41
  -4  -4   4   22.12    0.39
  -4  -4   4   21.95    0.42
  -4  -4   4   22.33    0.37
  -3  -4   4   62.54    0.98
  -3  -4   4   62.89    1.01
  -3  -4   4   62.59    0.92
  -2  -4   4    4.73    0.11
  -2  -4   4    4.86    0.13
  -2  -4   4    4.84    0.12
  -1  -4   4    2.57    0.08
  -1  -4   4    2.57    0.07
  -1  -4   4    2.54    0.08
   0   4  -4   89.39    1.44
   0   4  -4   88.28    1.36
   0  -4   4   89.11    1.41
   0  -4   4   89.30    1.36
   0  -4   4   89.99    1.29
  -1   4  -4    7.93    0.17
  -1   4  -4    7.90    0.17
   1  -4   4    7.81    0.15
   1  -4   4    7.99    0.16
  -2   4  -4   53.69    0.82
  -2   4  -4   52.87    0.88
   2  -4   4   51.63    0.78
  -3   4  -4   19.49    0.34
  -3   4  -4   18.82    0.37
   3  -4   4   19.31    0.34
   3  -4   4   19.38    0.33
  -4   4  -4    4.64    0.12
  -4   4  -4    4.84    0.15
   4  -4   4    4.73    0.13
   4  -4   4    4.71    0.13
  -5   4  -4   54.48    0.85
  -5   4  -4   53.73    0.95
   5  -4   4   53.75    0.89
   5  -4   4   54.48    0.84
  -6   4  -4    0.01    0.04
  -6   4  -4    0.02    0.02
   6  -4   4    0.07    0.04
   6  -4   4    0.00    0.04
  -6  -3   4   36.51    0.67
  -5  -3   4   39.40    0.69
  -5  -3   4   39.84    0.64
  -4  -3   4    2.77    0.09
  -4  -3   4    2.99    0.11
  -4  -3   4    3.08    0.09
  -3  -3   4   13.20    0.26
  -3  -3   4   13.08    0.24
  -3  -3   4   13.18    0.22
  -2  -3   4   14.77    0.24
  -2  -3   4   14.49    0.27
  -2  -3   4   14.98    0.26
   1   3  -4   18.05    0.31
   1   3  -4   17.76    0.30
  -1  -3   4   17.87    0.28
  -1  -3   4   17.64    0.30
  -1  -3   4   17.20    0.31
   0   3  -4   87.82    1.45
   0   3  -4   89.36    1.35
   0  -3   4   88.32    1.40
   0  -3   4   89.42    1.47
   0  -3   4   91.62    1.35
  -1   3  -4  131.85    2.06
  -1   3  -4  133.63    2.18
   1  -3   4  133.81    1.93
   1  -3   4  133.86    2.09
   1  -3   4  136.27    2.37
  -2   3  -4   11.99    0.22
  -2   3  -4   12.09    0.24
   2  -3   4   12.11    0.21
   2  -3   4   12.00    0.23
  -3   3  -4   78.25    1.19
  -3   3  -4   76.92    1.28
   3  -3   4   79.92    1.14
   3  -3   4   77.26    1.21
  -4   3  -4   18.27    0.32
  -4   3  -4   18.37    0.37
   4  -3   4   18.54    0.34
  -5   3  -4    7.02    0.15
  -5   3  -4    6.93    0.19
  -5   3  -4    7.14    0.18
   5  -3   4    6.99    0.18
  -6   3  -4    2.05    0.07
  -6   3  -4    1.98    0.10
  -6   3  -4    2.01    0.11
   6  -3   4    2.08    0.11
  -6  -2   4   30.61    0.57
  -5  -2   4    2.90    0.11
  -5  -2   4    3.05    0.08
  -4  -2   4   50.36    0.78
  -4  -2   4   51.04    0.75
  -4  -2   4   50.41    0.82
  -3  -2   4  250.01    3.60
  -3  -2   4  250.40    3.83
  -3  -2   4  252.16    4.16
  -3  -2   4  242.84    4.41
   2   2  -4    0.02    0.01
  -2  -2   4    0.05    0.02
  -2  -2   4    0.06    0.01
  -2  -2   4    0.01    0.01
  -2  -2   4    0.02    0.02
   1   2  -4    0.65    0.04
   1   2  -4    0.67    0.03
  -1  -2   4    0.73    0.03
  -1  -2   4    0.74    0.04
  -1  -2   4    0.60    0.04
  -1  -2   4    0.59    0.03
   0   2  -4   58.17    0.94
   0   2  -4   58.19    0.89
   0  -2   4   57.35    0.92
   0  -2   4   58.37    0.85
   0  -2   4   59.26    0.89
   0  -2   4   59.79    0.84
  -1   2  -4   45.33    0.74
   1  -2   4   45.04    0.66
   1  -2   4   46.33    0.65
   1  -2   4   44.96    0.70
   1  -2   4   44.70    0.71
  -2   2  -4  253.08    3.57
   2  -2   4  247.20    4.59
  -3   2  -4   30.15    0.53
  -3   2  -4   29.84    0.47
   3  -2   4   30.39    0.51
  -4   2  -4    4.45    0.13
  -4   2  -4    4.36    0.12
   4  -2   4    4.30    0.13
  -5   2  -4   20.89    0.42
  -5   2  -4   20.83    0.38
   5  -2   4   21.14    0.40
  -6   2  -4    4.20    0.11
  -6   2  -4    4.41    0.15
  -6   2  -4    4.35    0.15
   6  -2   4    4.20    0.15
  -7  -1   4   57.88    0.98
  -6  -1   4    1.62    0.09
  -5  -1   4    1.72    0.05
  -5  -1   4    1.74    0.08
  -4  -1   4    0.07    0.02
  -4  -1   4    0.17    0.03
  -4  -1   4    0.08    0.02
  -4  -1   4    0.06    0.02
   3   1  -4   14.23    0.24
  -3  -1   4   13.63    0.25
  -3  -1   4   13.72    0.23
  -3  -1   4   14.06    0.22
  -3  -1   4   14.35    0.24
   2   1  -4    2.69    0.06
  -2  -1   4    2.60    0.07
  -2  -1   4    2.55    0.07
  -2  -1   4    2.70    0.05
  -2  -1   4    2.64    0.07
   1   1  -4  155.31    2.48
  -1  -1   4  154.45    2.37
  -1  -1   4  153.29    2.36
  -1  -1   4  157.67    2.23
  -1  -1   4  151.40    2.33
   0   1  -4  106.44    1.77
   0  -1   4  109.60    1.66
   0  -1   4  108.76    1.57
   0  -1   4  108.76    1.55
  -1   1  -4  623.09    9.50
  -1   1  -4  576.60   10.65
   1  -1   4  622.21   10.14
   1  -1   4  641.34    9.21
  -2   1  -4   52.41    0.88
  -2   1  -4   52.90    0.78
   2  -1   4   53.42    0.83
   2  -1   4   54.31    0.77
  -3   1  -4    6.33    0.14
  -3   1  -4    6.46    0.15
   3  -1   4    6.44    0.15
  -4   1  -4    2.61    0.10
  -4   1  -4    3.01    0.10
   4  -1   4    2.57    0.10
  -5   1  -4    2.32    0.10
  -5   1  -4    2.26    0.10
   5  -1   4    2.19    0.10
  -6   1  -4    1.93    0.10
   6  -1   4    1.96    0.11
  -7   0   4    5.78    0.18
  -6   0   4    0.09    0.03
  -5   0   4  157.39    2.33
  -5   0   4  161.01    2.42
   4   0  -4   16.70    0.30
  -4   0   4   16.42    0.30
  -4   0   4   17.26    0.26
  -4   0   4   16.48    0.29
  -4   0   4   16.73    0.27
   3   0  -4   15.97    0.28
  -3   0   4   16.18    0.28
  -3   0   4   16.20    0.26
  -3   0   4   15.79    0.27
  -3   0   4   16.35    0.24
   2   0  -4  327.23    5.85
  -2   0   4  333.78    5.47
  -2   0   4  332.92    5.27
  -2   0   4  331.23    5.65
   1   0  -4   90.76    1.48
  -1   0   4   92.00    1.33
  -1   0   4   91.14    1.41
  -1   0   4   93.00    1.41
   0   0  -4   21.01    0.36
   0   0  -4   21.30    0.31
   0   0   4   20.77    0.32
   0   0   4   20.95    0.34
  -1   0  -4  150.66    2.49
  -1   0  -4  150.99    2.19
   1   0   4  153.69    2.31
   1   0   4  154.47    2.20
   1   0   4  153.90    2.32
  -2   0  -4    9.02    0.18
  -2   0  -4    9.26    0.17
   2   0   4    9.00    0.18
   2   0   4    9.74    0.16
  -3   0  -4  201.94    3.37
  -3   0  -4  210.72    3.00
   3   0   4  209.34    3.38
   3   0   4  208.70    3.17
  -4   0  -4   51.08    0.79
  -4   0  -4   51.48    0.86
   4   0   4   50.23    0.83
  -5   0  -4    4.27    0.14
   5   0   4    4.61    0.15
  -6   1   4    0.83    0.06
  -6   1   4    0.87    0.07
   5  -1  -4    7.43    0.17
  -5   1   4    7.24    0.16
  -5   1   4    7.44    0.17
   4  -1  -4    7.36    0.16
  -4   1   4    7.37    0.15
  -4   1   4    7.19    0.15
  -4   1   4    7.53    0.13
   3  -1  -4  138.23    1.96
   3  -1  -4  139.03    2.25
  -3   1   4  137.61    2.37
  -3   1   4  137.66    2.03
  -3   1   4  141.20    2.11
   2  -1  -4   98.69    1.56
  -2   1   4   94.00    1.43
  -2   1   4   95.84    1.76
  -2   1   4  100.04    1.48
   1  -1  -4  371.69    5.35
   1  -1  -4  367.66    6.35
  -1   1   4  362.48    5.99
  -1   1   4  371.84    6.10
  -1   1   4  372.74    6.37
   0  -1  -4    4.26    0.08
   0  -1  -4    5.02    0.10
   0   1   4    4.39    0.09
   0   1   4    4.34    0.09
   0   1   4    4.22    0.10
  -1  -1  -4   13.79    0.25
  -1  -1  -4   13.54    0.23
   1   1   4   13.59    0.23
   1   1   4   14.30    0.25
   1   1   4   13.87    0.24
  -2  -1  -4  151.07    2.61
  -2  -1  -4  156.21    2.18
   2   1   4  150.99    2.31
   2   1   4  153.86    2.20
  -3  -1  -4    1.05    0.05
  -3  -1  -4    0.89    0.06
   3   1   4    0.92    0.06
   3   1   4    0.87    0.05
  -4  -1  -4    0.18    0.04
   4   1   4    0.20    0.03
   4   1   4    0.13    0.04
  -5  -1  -4    6.39    0.18
   5   1   4    6.32    0.19
   6  -2  -4    6.85    0.17
  -6   2   4    6.58    0.15
   5  -2  -4   51.78    0.87
  -5   2   4   51.66    0.78
   4  -2  -4   34.49    0.51
   4  -2  -4   33.90    0.59
  -4   2   4   34.20    0.53
  -4   2   4   34.38    0.54
  -4   2   4   34.23    0.52
  -4   2   4   33.82    0.52
   3  -2  -4   17.55    0.33
   3  -2  -4   19.14    0.27
  -3   2   4   17.59    0.29
  -3   2   4   18.15    0.29
  -3   2   4   17.65    0.29
   2  -2  -4   36.84    0.51
   2  -2  -4   34.94    0.61
  -2   2   4   36.97    0.54
  -2   2   4   36.10    0.54
  -2   2   4   35.66    0.56
   1  -2  -4   43.92    0.63
   1  -2  -4   43.35    0.72
  -1   2   4   43.70    0.65
  -1   2   4   45.23    0.67
  -1   2   4   43.29    0.68
   0  -2  -4   72.52    1.04
   0  -2  -4   71.86    1.19
   0   2   4   73.54    1.06
   0   2   4   72.65    1.11
   0   2   4   74.44    1.11
  -1  -2  -4  111.48    1.83
  -1  -2  -4  113.01    1.87
   1   2   4  114.99    1.66
   1   2   4  117.13    1.74
  -2  -2  -4   56.51    0.93
  -2  -2  -4   56.53    0.84
   2   2   4   56.15    0.84
   2   2   4   56.54    0.89
  -3  -2  -4   12.27    0.24
  -3  -2  -4   12.24    0.24
   3   2   4   12.42    0.23
   3   2   4   12.41    0.25
  -4  -2  -4   37.58    0.62
   4   2   4   38.16    0.60
   4   2   4   37.92    0.66
  -5  -2  -4   12.02    0.27
   5   2   4   11.97    0.28
   6  -3  -4    2.35    0.10
  -6   3   4    2.35    0.09
   5  -3  -4    0.35    0.04
  -5   3   4    0.29    0.03
   4  -3  -4   10.78    0.23
   4  -3  -4   11.11    0.19
  -4   3   4   10.74    0.19
   3  -3  -4   85.44    1.21
   3  -3  -4   85.54    1.39
  -3   3   4   84.11    1.28
  -3   3   4   84.97    1.23
   2  -3  -4   30.74    0.54
   2  -3  -4   31.90    0.46
  -2   3   4   30.77    0.48
  -2   3   4   31.06    0.50
   1  -3  -4   46.79    0.79
   1  -3  -4   47.87    0.69
  -1   3   4   47.57    0.71
  -1   3   4   47.35    0.74
   0  -3  -4   82.13    1.35
   0  -3  -4   82.75    1.18
   0   3   4   84.90    1.25
   0   3   4   80.94    1.20
   0   3   4   83.38    1.27
  -1  -3  -4   10.64    0.21
  -1  -3  -4   10.65    0.20
   1   3   4   10.55    0.20
   1   3   4   10.70    0.20
   2   3   4    0.03    0.03
   2   3   4    0.03    0.02
  -3  -3  -4    3.07    0.11
   3   3   4    3.16    0.12
   3   3   4    3.14    0.10
  -4  -3  -4    6.76    0.18
   4   3   4    6.70    0.19
   4   3   4    6.60    0.16
   7  -4  -4   26.68    0.52
   6  -4  -4   19.55    0.40
   5  -4  -4   54.70    0.94
  -5   4   4   54.96    0.82
  -5   4   4   53.81    0.82
   4  -4  -4   74.95    1.09
   4  -4  -4   75.03    1.25
  -4   4   4   76.30    1.11
  -4   4   4   75.71    1.14
   3  -4  -4  171.82    2.96
   3  -4  -4  175.20    2.88
  -3   4   4  179.95    2.65
  -3   4   4  175.97    3.04
   2  -4  -4    0.06    0.02
   2  -4  -4    0.02    0.02
  -2   4   4    0.03    0.02
   1  -4  -4   17.66    0.32
   1  -4  -4   17.32    0.28
  -1   4   4   17.38    0.32
  -1   4   4   16.99    0.29
   0  -4  -4    3.22    0.09
   0  -4  -4    3.33    0.09
   0   4   4    3.37    0.09
  -1  -4  -4   47.46    0.78
  -1  -4  -4   46.21    0.71
   1   4   4   46.58    0.72
   1   4   4   48.36    0.77
  -2  -4  -4  105.02    1.52
   2   4   4  102.99    1.52
   2   4   4  104.00    1.61
  -3  -4  -4    3.17    0.11
   3   4   4    3.13    0.11
   3   4   4    3.16    0.12
   4   4   4    4.72    0.16
   4   4   4    4.66    0.14
   7  -5  -4    0.02    0.04
   6  -5  -4    4.31    0.15
   5  -5  -4   17.75    0.37
  -5   5   4   18.11    0.30
   4  -5  -4   71.93    1.21
   4  -5  -4   72.95    1.06
  -4   5   4   72.85    1.07
  -4   5   4   71.08    1.11
   3  -5  -4   27.68    0.52
   3  -5  -4   30.06    0.44
  -3   5   4   28.36    0.46
  -3   5   4   28.35    0.48
   2  -5  -4    2.35    0.09
   2  -5  -4    2.35    0.07
  -2   5   4    2.24    0.09
  -2   5   4    2.26    0.08
   1  -5  -4   56.38    0.94
   1  -5  -4   55.73    0.83
  -1   5   4   55.59    0.85
  -1   5   4   56.94    0.90
   0  -5  -4   52.53    0.80
   0  -5  -4   54.12    0.88
   0   5   4   52.94    0.81
  -1  -5  -4   14.55    0.27
   1   5   4   14.22    0.27
  -2  -5  -4    6.29    0.16
   2   5   4    6.30    0.16
  -3  -5  -4    3.90    0.14
   3   5   4    3.89    0.13
   7  -6  -4    0.33    0.06
   6  -6  -4    0.27    0.05
  -6   6   4    0.31    0.03
   5  -6  -4   35.74    0.66
  -5   6   4   35.28    0.58
   4  -6  -4    5.57    0.17
  -4   6   4    5.65    0.14
  -4   6   4    5.69    0.14
   3  -6  -4    5.71    0.13
   3  -6  -4    5.40    0.15
  -3   6   4    5.50    0.15
  -3   6   4    5.56    0.13
   2  -6  -4   20.97    0.34
   2  -6  -4   20.23    0.39
  -2   6   4   20.40    0.35
  -2   6   4   20.62    0.38
   1  -6  -4   14.79    0.27
   1  -6  -4   14.83    0.29
  -1   6   4   14.77    0.28
   0  -6  -4   31.58    0.51
   0   6   4   31.38    0.52
  -1  -6  -4    0.17    0.04
   1   6   4    0.10    0.03
  -2  -6  -4    8.24    0.20
   2   6   4    8.25    0.20
   6  -7  -4    5.47    0.19
  -6   7   4    5.47    0.14
   5  -7  -4   13.47    0.31
  -5   7   4   13.39    0.27
   4  -7  -4    2.32    0.11
  -4   7   4    2.26    0.10
   3  -7  -4    8.02    0.21
   3  -7  -4    8.24    0.17
  -3   7   4    8.08    0.20
  -3   7   4    7.96    0.18
   2  -7  -4    0.33    0.05
   2  -7  -4    0.30    0.04
  -2   7   4    0.25    0.04
  -2   7   4    0.27    0.05
   1  -7  -4   14.08    0.27
  -1   7   4   13.96    0.28
   0  -7  -4    2.79    0.10
   0   7   4    3.01    0.11
  -1  -7  -4    2.35    0.10
   1   7   4    2.45    0.11
   5  -8  -4   51.88    0.94
   4  -8  -4    2.35    0.12
  -4   8   4    2.52    0.11
   3  -8  -4    3.00    0.12
   3  -8  -4    2.94    0.10
  -3   8   4    2.95    0.11
  -3   8   4    2.97    0.13
   2  -8  -4    5.92    0.15
  -2   8   4    5.93    0.16
   1  -8  -4    0.43    0.05
  -1   8   4    0.44    0.05
  -1  -8   5    0.48    0.05
  -1  -8   5    0.46    0.06
   0  -8   5    2.10    0.09
   0  -8   5    2.18    0.10
   1  -8   5    8.40    0.21
   1  -8   5    8.39    0.20
   2  -8   5   14.80    0.29
   2  -8   5   14.89    0.31
  -3   8  -5   40.19    0.70
   3  -8   5   40.26    0.66
  -2  -7   5   27.42    0.47
  -2  -7   5   28.14    0.52
  -1  -7   5    1.84    0.08
  -1  -7   5    1.76    0.09
   0  -7   5    5.20    0.14
   0  -7   5    5.19    0.15
   1  -7   5   56.22    0.92
   1  -7   5   56.96    0.86
   2  -7   5    1.75    0.09
   2  -7   5    1.73    0.08
  -3   7  -5    0.49    0.07
  -3   7  -5    0.42    0.05
   3  -7   5    0.52    0.06
   3  -7   5    0.49    0.06
  -4   7  -5   13.54    0.29
  -4   7  -5   13.37    0.32
   4  -7   5   13.03    0.27
   4  -7   5   13.16    0.28
  -3  -6   5    3.26    0.12
  -3  -6   5    3.46    0.13
  -2  -6   5    2.53    0.11
  -2  -6   5    2.59    0.09
  -2  -6   5    2.56    0.10
  -1  -6   5    4.80    0.12
  -1  -6   5    4.77    0.14
   0  -6   5   32.09    0.51
   0  -6   5   32.78    0.56
   1  -6   5   16.85    0.30
   1  -6   5   17.24    0.32
  -2   6  -5    0.14    0.03
  -2   6  -5    0.24    0.04
   2  -6   5    0.13    0.03
  -3   6  -5   87.19    1.38
  -3   6  -5   89.61    1.48
   3  -6   5   90.62    1.39
   3  -6   5   87.16    1.31
  -4   6  -5   38.48    0.72
  -4   6  -5   39.41    0.66
   4  -6   5   39.63    0.64
   4  -6   5   40.01    0.67
  -5   6  -5    1.83    0.09
  -5   6  -5    1.94    0.12
   5  -6   5    1.86    0.10
   5  -6   5    1.84    0.10
  -4  -5   5    0.47    0.05
  -4  -5   5    0.47    0.06
  -3  -5   5    1.17    0.08
  -3  -5   5    1.27    0.07
  -3  -5   5    1.30    0.06
  -2  -5   5   32.05    0.54
  -2  -5   5   31.71    0.55
  -2  -5   5   31.84    0.50
  -1  -5   5  128.17    1.97
  -1  -5   5  128.78    1.95
  -1  -5   5  127.77    1.85
   0  -5   5   41.50    0.69
   0  -5   5   42.31    0.63
  -1   5  -5    9.48    0.20
  -1   5  -5    9.42    0.20
   1  -5   5    9.49    0.20
   1  -5   5    9.70    0.19
  -2   5  -5    1.22    0.07
  -2   5  -5    1.24    0.07
   2  -5   5    1.27    0.06
   2  -5   5    1.25    0.07
  -3   5  -5   31.56    0.57
  -3   5  -5   30.61    0.52
   3  -5   5   30.89    0.53
   3  -5   5   30.71    0.50
  -4   5  -5    1.10    0.08
  -4   5  -5    0.98    0.06
   4  -5   5    1.07    0.08
   4  -5   5    1.09    0.07
  -5   5  -5   -0.01    0.02
  -5   5  -5    0.01    0.04
   5  -5   5    0.03    0.04
   5  -5   5    0.03    0.04
  -5  -4   5   13.74    0.27
  -5  -4   5   13.90    0.32
  -4  -4   5   28.40    0.52
  -4  -4   5   28.66    0.49
  -3  -4   5    1.88    0.09
  -3  -4   5    2.05    0.07
  -3  -4   5    1.88    0.08
  -2  -4   5    2.52    0.09
  -2  -4   5    2.58    0.07
  -2  -4   5    2.61    0.09
  -1  -4   5   17.37    0.32
  -1  -4   5   17.52    0.28
  -1  -4   5   17.42    0.32
   0   4  -5    3.87    0.10
   0   4  -5    3.68    0.11
   0  -4   5    3.47    0.10
   0  -4   5    3.64    0.09
   0  -4   5    3.56    0.10
  -1   4  -5   78.48    1.20
  -1   4  -5   76.06    1.27
   1  -4   5   77.27    1.20
   1  -4   5   79.26    1.13
  -2   4  -5  178.68    2.68
  -2   4  -5  175.11    2.87
   2  -4   5  177.67    2.55
  -3   4  -5    0.83    0.06
  -3   4  -5    0.81    0.05
   3  -4   5    0.88    0.06
   3  -4   5    0.90    0.06
  -4   4  -5   27.61    0.47
  -4   4  -5   27.30    0.52
   4  -4   5   27.35    0.49
   4  -4   5   27.76    0.46
  -5   4  -5   13.04    0.26
  -5   4  -5   13.10    0.31
   5  -4   5   13.17    0.27
   5  -4   5   13.12    0.28
  -6  -3   5   21.75    0.45
  -5  -3   5    0.68    0.07
  -5  -3   5    0.74    0.05
  -4  -3   5    6.48    0.17
  -4  -3   5    6.15    0.14
  -3  -3   5    3.13    0.10
  -3  -3   5    3.30    0.09
  -2  -3   5    0.01    0.02
  -2  -3   5    0.08    0.02
  -2  -3   5    0.09    0.02
  -2  -3   5    0.03    0.02
   1   3  -5   27.71    0.45
  -1  -3   5   27.29    0.40
  -1  -3   5   26.47    0.45
  -1  -3   5   26.96    0.41
  -1  -3   5   26.49    0.44
   0   3  -5   28.00    0.46
   0   3  -5   27.56    0.47
   0  -3   5   28.41    0.46
   0  -3   5   28.43    0.42
   0  -3   5   27.59    0.42
   0  -3   5   28.01    0.46
  -1   3  -5    0.27    0.03
  -1   3  -5    0.31    0.03
   1  -3   5    0.27    0.03
   1  -3   5    0.28    0.03
  -2   3  -5   14.18    0.26
  -2   3  -5   14.18    0.28
   2  -3   5   14.14    0.26
   2  -3   5   13.89    0.25
  -3   3  -5   28.72    0.52
  -3   3  -5   29.40    0.48
   3  -3   5   29.30    0.47
   3  -3   5   28.94    0.50
  -4   3  -5   23.08    0.45
  -4   3  -5   23.78    0.40
   4  -3   5   23.62    0.43
  -5   3  -5    0.29    0.05
  -5   3  -5    0.24    0.03
   5  -3   5    0.28    0.05
  -6  -2   5   62.89    1.05
  -5  -2   5    4.04    0.10
  -5  -2   5    4.25    0.14
  -4  -2   5   -0.01    0.02
  -4  -2   5    0.01    0.02
  -4  -2   5    0.03    0.02
  -3  -2   5   50.78    0.81
  -3  -2   5   49.93    0.78
  -3  -2   5   50.51    0.76
   2   2  -5   22.55    0.37
  -2  -2   5   22.36    0.33
  -2  -2   5   22.39    0.38
  -2  -2   5   22.60    0.37
  -2  -2   5   22.20    0.36
   1   2  -5   10.91    0.20
   1   2  -5   10.66    0.20
  -1  -2   5   10.81    0.17
  -1  -2   5   10.77    0.20
  -1  -2   5   10.63    0.18
  -1  -2   5   10.47    0.20
   0   2  -5    3.72    0.08
   0  -2   5    3.06    0.08
   0  -2   5    3.11    0.07
   0  -2   5    3.17    0.09
   0  -2   5    3.12    0.07
  -1   2  -5   62.81    1.05
   1  -2   5   63.62    0.92
   1  -2   5   66.10    0.99
   1  -2   5   64.86    0.93
   1  -2   5   64.06    0.99
  -2   2  -5  163.37    2.70
  -2   2  -5  169.27    2.41
   2  -2   5  165.21    2.52
  -3   2  -5   37.80    0.67
  -3   2  -5   39.06    0.60
   3  -2   5   38.98    0.64
  -4   2  -5    5.63    0.15
  -4   2  -5    5.47    0.15
   4  -2   5    5.47    0.15
  -5   2  -5    0.47    0.06
  -5   2  -5    0.42    0.05
   5  -2   5    0.41    0.06
  -6  -1   5    1.40    0.09
  -5  -1   5    4.11    0.12
  -5  -1   5    3.97    0.13
  -5  -1   5    4.07    0.09
  -4  -1   5  145.30    2.19
  -4  -1   5  147.06    2.10
  -4  -1   5  144.85    2.25
   3   1  -5   45.30    0.73
  -3  -1   5   45.09    0.69
  -3  -1   5   44.97    0.68
  -3  -1   5   45.09    0.72
   2   1  -5  232.06    3.82
  -2  -1   5  239.29    4.45
  -2  -1   5  238.37    3.46
  -2  -1   5  248.47    3.50
  -2  -1   5  240.17    3.61
   1   1  -5   94.16    1.50
  -1  -1   5   92.64    1.55
  -1  -1   5   93.85    1.44
  -1  -1   5   93.06    1.36
  -1  -1   5   94.84    1.33
   0   1  -5    9.77    0.19
   0  -1   5    9.93    0.19
   0  -1   5   10.07    0.16
   0  -1   5    9.86    0.17
  -1   1  -5    0.63    0.04
  -1   1  -5    0.62    0.03
   1  -1   5    0.70    0.04
   1  -1   5    0.62    0.04
   1  -1   5    0.67    0.03
  -2   1  -5   22.84    0.41
  -2   1  -5   22.76    0.37
   2  -1   5   23.04    0.39
  -3   1  -5    0.18    0.03
  -3   1  -5    0.17    0.03
   3  -1   5    0.18    0.04
  -4   1  -5   39.16    0.70
  -4   1  -5   39.57    0.63
   4  -1   5   40.08    0.67
  -5   1  -5    0.14    0.04
  -5   1  -5    0.08    0.04
   5  -1   5    0.03    0.04
  -7   0   5    0.70    0.08
  -6   0   5    0.09    0.03
  -6   0   5    0.14    0.04
  -5   0   5   36.57    0.61
  -5   0   5   36.41    0.58
  -5   0   5   36.96    0.56
   4   0  -5    6.64    0.14
  -4   0   5    6.92    0.13
  -4   0   5    6.83    0.15
  -4   0   5    6.79    0.15
   3   0  -5   22.85    0.40
  -3   0   5   23.00    0.37
  -3   0   5   23.50    0.39
  -3   0   5   23.32    0.37
   2   0  -5   42.17    0.69
  -2   0   5   40.75    0.64
  -2   0   5   41.72    0.62
  -2   0   5   42.73    0.65
   1   0  -5    2.35    0.06
  -1   0   5    2.24    0.06
  -1   0   5    2.34    0.06
  -1   0   5    2.24    0.07
   0   0  -5  478.55    6.92
   0   0  -5  446.41    8.27
   0   0   5  465.72    7.76
   0   0   5  454.56    7.85
   0   0   5  468.74    7.18
  -1   0  -5    3.25    0.08
  -1   0  -5    3.24    0.09
   1   0   5    3.67    0.09
   1   0   5    3.27    0.08
   1   0   5    3.22    0.09
  -2   0  -5    2.49    0.08
  -2   0  -5    2.46    0.08
   2   0   5    2.69    0.07
   2   0   5    2.52    0.09
  -3   0  -5  115.36    1.67
  -3   0  -5  116.09    1.91
   3   0   5  114.53    1.77
  -4   0  -5    1.06    0.07
  -4   0  -5    1.01    0.07
   4   0   5    1.06    0.08
  -5   0  -5    4.14    0.14
   5   0   5    4.14    0.15
  -7   1   5    1.77    0.09
  -6   1   5    8.23    0.18
   5  -1  -5    2.09    0.08
  -5   1   5    2.09    0.08
  -5   1   5    2.10    0.08
   4  -1  -5   24.30    0.43
  -4   1   5   24.64    0.40
  -4   1   5   24.72    0.38
  -4   1   5   24.52    0.41
   3  -1  -5    9.96    0.20
  -3   1   5   10.04    0.19
  -3   1   5    9.82    0.18
  -3   1   5   10.45    0.18
   2  -1  -5   14.54    0.27
  -2   1   5   14.13    0.25
  -2   1   5   14.69    0.24
  -2   1   5   14.59    0.24
   1  -1  -5   13.46    0.25
   1  -1  -5   13.67    0.20
  -1   1   5   13.37    0.23
  -1   1   5   13.48    0.22
  -1   1   5   13.07    0.24
   0  -1  -5   10.20    0.17
   0  -1  -5    9.98    0.20
   0   1   5   10.00    0.19
   0   1   5   10.21    0.18
   0   1   5   10.05    0.18
  -1  -1  -5   25.25    0.39
  -1  -1  -5   25.23    0.44
   1   1   5   25.60    0.42
   1   1   5   25.16    0.39
  -2  -1  -5   49.77    0.83
  -2  -1  -5   49.53    0.75
   2   1   5   49.76    0.79
   2   1   5   49.71    0.74
  -3  -1  -5   22.95    0.42
  -3  -1  -5   23.26    0.40
   3   1   5   23.59    0.38
   3   1   5   23.16    0.42
  -4  -1  -5   17.09    0.34
  -4  -1  -5   16.75    0.32
   4   1   5   16.83    0.34
  -5  -1  -5    1.83    0.10
   5   1   5    1.57    0.10
  -7   2   5    2.58    0.10
  -6   2   5    7.91    0.18
   5  -2  -5   37.47    0.65
  -5   2   5   37.01    0.59
   4  -2  -5   57.47    0.96
  -4   2   5   57.29    0.87
  -4   2   5   58.39    0.86
   3  -2  -5    3.71    0.10
  -3   2   5    3.61    0.09
  -3   2   5    3.58    0.08
  -2   2   5    0.76    0.04
  -2   2   5    0.89    0.03
  -2   2   5    0.69    0.04
   1  -2  -5    0.99    0.03
   1  -2  -5    0.98    0.05
  -1   2   5    0.97    0.05
  -1   2   5    1.03    0.04
  -1   2   5    0.96    0.05
   0  -2  -5    0.81    0.04
   0  -2  -5    0.75    0.04
   0   2   5    0.67    0.05
   0   2   5    0.71    0.04
   0   2   5    0.61    0.04
  -1  -2  -5   98.76    1.64
  -1  -2  -5   99.62    1.43
   1   2   5   99.06    1.44
   1   2   5  100.89    1.52
  -2  -2  -5   33.34    0.53
  -2  -2  -5   33.45    0.57
   2   2   5   33.38    0.56
   2   2   5   33.54    0.52
  -3  -2  -5    0.25    0.04
  -3  -2  -5    0.25    0.03
   3   2   5    0.29    0.04
   3   2   5    0.22    0.04
  -4  -2  -5    4.67    0.15
   4   2   5    4.73    0.15
   6  -3  -5   15.43    0.33
  -6   3   5   15.78    0.29
   5  -3  -5    4.20    0.13
  -5   3   5    4.12    0.08
  -5   3   5    4.19    0.12
   4  -3  -5  129.46    2.07
  -4   3   5  126.80    1.93
  -4   3   5  128.24    1.88
   3  -3  -5   26.23    0.47
  -3   3   5   26.11    0.43
  -3   3   5   26.08    0.42
   2  -3  -5   90.35    1.48
   2  -3  -5   93.43    1.30
  -2   3   5   90.44    1.39
  -2   3   5   91.39    1.33
   1  -3  -5    2.08    0.07
   1  -3  -5    2.07    0.06
  -1   3   5    2.14    0.08
  -1   3   5    2.10    0.07
   0  -3  -5   11.39    0.22
   0  -3  -5   11.39    0.20
   0   3   5   11.43    0.21
   0   3   5   11.53    0.23
  -1  -3  -5    8.10    0.16
  -1  -3  -5    8.15    0.17
   1   3   5    8.11    0.17
   1   3   5    8.32    0.17
  -2  -3  -5    7.41    0.17
  -2  -3  -5    7.26    0.16
   2   3   5    7.10    0.17
   2   3   5    7.04    0.16
  -3  -3  -5   10.47    0.23
   3   3   5   11.01    0.22
   3   3   5   10.51    0.24
  -4  -3  -5    0.38    0.06
   4   3   5    0.30    0.05
   4   3   5    0.27    0.06
   7  -4  -5    8.35    0.23
   6  -4  -5   26.31    0.51
  -6   4   5   27.02    0.45
   5  -4  -5    5.50    0.16
  -5   4   5    5.41    0.11
  -5   4   5    5.61    0.14
   4  -4  -5    0.77    0.06
  -4   4   5    0.79    0.04
  -4   4   5    0.79    0.05
   3  -4  -5    7.65    0.18
  -3   4   5    7.69    0.16
  -3   4   5    7.76    0.16
   2  -4  -5   86.93    1.22
   2  -4  -5   85.12    1.40
  -2   4   5   85.82    1.25
  -2   4   5   84.73    1.31
   1  -4  -5    0.28    0.03
   1  -4  -5    0.26    0.03
  -1   4   5    0.24    0.03
  -1   4   5    0.23    0.03
   0  -4  -5   26.45    0.47
   0  -4  -5   27.40    0.43
   0   4   5   26.82    0.44
  -1  -4  -5   44.97    0.75
  -1  -4  -5   44.59    0.69
   1   4   5   44.40    0.69
  -2  -4  -5   17.00    0.32
   2   4   5   17.09    0.31
  -3  -4  -5    0.59    0.06
   3   4   5    0.55    0.06
   7  -5  -5    0.06    0.04
   6  -5  -5   48.85    0.87
  -6   5   5   48.98    0.74
   5  -5  -5    8.02    0.21
  -5   5   5    8.30    0.18
  -5   5   5    8.27    0.17
   4  -5  -5   61.39    1.06
  -4   5   5   62.12    0.97
  -4   5   5   62.51    0.93
   3  -5  -5    6.55    0.17
  -3   5   5    6.72    0.15
  -3   5   5    6.68    0.16
   2  -5  -5    0.09    0.02
   2  -5  -5    0.13    0.03
  -2   5   5    0.08    0.03
  -2   5   5    0.05    0.03
   1  -5  -5   33.81    0.59
   1  -5  -5   33.60    0.52
  -1   5   5   33.40    0.54
  -1   5   5   33.29    0.58
   0  -5  -5   16.16    0.29
   0  -5  -5   16.22    0.31
   0   5   5   16.08    0.30
  -1  -5  -5   14.57    0.28
   1   5   5   14.37    0.28
  -2  -5  -5   11.34    0.24
   2   5   5   11.22    0.24
   6  -6  -5   22.31    0.46
  -6   6   5   22.54    0.38
   5  -6  -5    1.11    0.08
  -5   6   5    1.10    0.07
  -5   6   5    1.14    0.06
   4  -6  -5    0.50    0.06
  -4   6   5    0.45    0.05
  -4   6   5    0.47    0.05
   3  -6  -5    7.53    0.19
  -3   6   5    7.61    0.17
  -3   6   5    7.58    0.18
   2  -6  -5   49.10    0.86
   2  -6  -5   51.10    0.75
  -2   6   5   50.07    0.78
  -2   6   5   49.63    0.82
   1  -6  -5    1.35    0.07
   1  -6  -5    1.27    0.06
  -1   6   5    1.34    0.07
   0  -6  -5   47.24    0.72
   0   6   5   46.11    0.74
  -1  -6  -5    3.95    0.13
   1   6   5    3.98    0.13
   6  -7  -5   46.76    0.87
   5  -7  -5    0.56    0.08
  -5   7   5    0.50    0.06
   4  -7  -5   14.34    0.32
  -4   7   5   13.95    0.27
  -4   7   5   14.10    0.29
   3  -7  -5    5.56    0.17
  -3   7   5    5.60    0.16
  -3   7   5    5.58    0.15
   2  -7  -5    4.67    0.14
  -2   7   5    4.67    0.14
   1  -7  -5    9.05    0.20
  -1   7   5    9.08    0.21
   0  -7  -5    0.40    0.05
   0   7   5    0.34    0.05
   4  -8  -5   12.72    0.30
  -4   8   5   12.36    0.28
   3  -8  -5    0.78    0.08
  -3   8   5    0.85    0.08
  -3   8   5    0.82    0.07
  -2   8   5   22.61    0.41
   0  -8   6    0.23    0.05
   0  -8   6    0.28    0.05
   1  -8   6   13.29    0.29
   1  -8   6   13.00    0.27
   2  -8   6   18.12    0.35
   2  -8   6   18.35    0.37
  -2  -7   6   15.68    0.34
  -1  -7   6    0.41    0.05
  -1  -7   6    0.44    0.05
   0  -7   6   12.89    0.28
   0  -7   6   13.01    0.25
   1  -7   6   12.72    0.27
   1  -7   6   12.28    0.25
   2  -7   6    0.09    0.04
   2  -7   6    0.11    0.04
  -3   7  -6    0.33    0.05
  -3   7  -6    0.26    0.05
   3  -7   6    0.39    0.06
   3  -7   6    0.32    0.05
  -4   7  -6    1.29    0.10
  -4   7  -6    1.30    0.08
   4  -7   6    1.39    0.09
   4  -7   6    1.40    0.10
  -3  -6   6   15.13    0.32
  -3  -6   6   15.44    0.34
  -2  -6   6    7.99    0.21
  -2  -6   6    8.08    0.20
  -1  -6   6   32.96    0.52
  -1  -6   6   32.96    0.58
   0  -6   6  115.23    1.63
   0  -6   6  110.26    1.75
   1  -6   6   28.66    0.46
   1  -6   6   28.27    0.50
  -2   6  -6    3.00    0.11
  -2   6  -6    2.92    0.11
   2  -6   6    2.96    0.10
   2  -6   6    2.96    0.11
  -3   6  -6    3.26    0.12
  -3   6  -6    3.27    0.13
   3  -6   6    3.18    0.12
   3  -6   6    3.21    0.11
  -4   6  -6    1.90    0.09
  -4   6  -6    1.95    0.11
   4  -6   6    1.89    0.10
   4  -6   6    1.91    0.11
  -4  -5   6    4.67    0.14
  -4  -5   6    4.82    0.16
  -3  -5   6    4.55    0.13
  -3  -5   6    4.49    0.15
  -2  -5   6    5.90    0.16
  -2  -5   6    5.79    0.16
  -1  -5   6    2.59    0.10
  -1  -5   6    2.50    0.08
  -1  -5   6    2.57    0.10
   0  -5   6    4.39    0.13
   0  -5   6    4.54    0.11
  -1   5  -6   31.71    0.57
   1  -5   6   32.15    0.55
   1  -5   6   32.34    0.50
  -2   5  -6   14.62    0.29
  -2   5  -6   14.85    0.31
   2  -5   6   14.62    0.29
   2  -5   6   14.85    0.27
  -3   5  -6   27.88    0.49
  -3   5  -6   28.01    0.53
   3  -5   6   28.64    0.47
   3  -5   6   27.86    0.50
  -4   5  -6   38.59    0.64
  -4   5  -6   38.15    0.71
   4  -5   6   38.50    0.62
   4  -5   6   38.07    0.66
  -5   5  -6    0.15    0.05
   5  -5   6    0.05    0.04
   5  -5   6   -0.02    0.04
  -5  -4   6    5.19    0.17
  -5  -4   6    5.37    0.14
  -4  -4   6   12.09    0.27
  -4  -4   6   12.27    0.25
  -3  -4   6    2.71    0.09
  -3  -4   6    2.67    0.10
  -2  -4   6    0.12    0.03
  -2  -4   6    0.11    0.03
  -1  -4   6   13.70    0.26
  -1  -4   6   13.70    0.23
  -1  -4   6   13.51    0.27
   0   4  -6    0.05    0.02
   0  -4   6    0.12    0.02
   0  -4   6    0.01    0.02
  -1   4  -6   16.30    0.30
  -1   4  -6   16.30    0.31
   1  -4   6   16.16    0.30
   1  -4   6   16.39    0.28
  -2   4  -6   10.04    0.22
  -2   4  -6   10.35    0.21
   2  -4   6   10.34    0.20
   2  -4   6   10.10    0.22
  -3   4  -6    0.42    0.04
  -3   4  -6    0.43    0.06
   3  -4   6    0.35    0.05
   3  -4   6    0.36    0.04
  -4   4  -6    0.07    0.03
   4  -4   6    0.07    0.04
   4  -4   6    0.09    0.04
  -5   4  -6   11.55    0.24
  -5   4  -6   11.16    0.29
   5  -4   6   11.63    0.27
   5  -4   6   11.71    0.25
  -5  -3   6   10.85    0.22
  -5  -3   6   11.00    0.26
  -4  -3   6   14.72    0.30
  -4  -3   6   14.46    0.27
  -3  -3   6    3.21    0.11
  -3  -3   6    3.24    0.10
  -3  -3   6    3.27    0.10
  -2  -3   6   54.46    0.88
  -2  -3   6   54.12    0.86
  -2  -3   6   55.91    0.82
   1   3  -6    3.29    0.08
  -1  -3   6    3.19    0.07
  -1  -3   6    3.08    0.09
  -1  -3   6    3.22    0.08
  -1  -3   6    3.15    0.10
   0   3  -6   11.89    0.23
   0   3  -6   11.73    0.23
   0  -3   6   11.80    0.20
   0  -3   6   11.62    0.23
   0  -3   6   11.55    0.23
   0  -3   6   11.93    0.20
  -1   3  -6    0.38    0.04
   1  -3   6    0.41    0.05
   1  -3   6    0.54    0.04
  -2   3  -6    4.68    0.12
  -2   3  -6    4.78    0.13
   2  -3   6    4.53    0.13
   2  -3   6    4.65    0.11
  -3   3  -6    2.03    0.09
  -3   3  -6    1.97    0.08
   3  -3   6    2.04    0.09
   3  -3   6    2.04    0.08
  -4   3  -6    5.70    0.15
  -4   3  -6    6.28    0.18
   4  -3   6    5.80    0.16
  -5   3  -6    1.38    0.07
  -5   3  -6    1.31    0.09
   5  -3   6    1.22    0.09
  -6  -2   6    0.86    0.08
  -6  -2   6    0.76    0.05
  -5  -2   6   21.30    0.36
  -5  -2   6   21.41    0.41
  -4  -2   6    0.28    0.03
  -4  -2   6    0.31    0.04
  -4  -2   6    0.26    0.04
  -3  -2   6   84.63    1.31
  -3  -2   6   83.28    1.28
  -3  -2   6   84.42    1.23
   2   2  -6   39.82    0.65
  -2  -2   6   39.82    0.60
  -2  -2   6   39.15    0.63
  -2  -2   6   39.07    0.64
   1   2  -6  105.91    1.67
  -1  -2   6  101.39    1.58
  -1  -2   6  103.95    1.51
  -1  -2   6  101.52    1.62
   0   2  -6   23.84    0.42
   0  -2   6   23.96    0.41
   0  -2   6   24.57    0.37
   0  -2   6   24.58    0.37
   0  -2   6   24.46    0.41
  -1   2  -6    2.49    0.08
   1  -2   6    2.51    0.07
   1  -2   6    2.49    0.08
  -2   2  -6    9.51    0.21
   2  -2   6    9.51    0.20
  -3   2  -6    0.39    0.05
  -3   2  -6    0.37    0.04
   3  -2   6    0.34    0.05
  -4   2  -6    0.20    0.04
  -4   2  -6    0.20    0.04
   4  -2   6    0.19    0.04
  -5   2  -6   -0.02    0.03
  -5   2  -6    0.22    0.05
   5  -2   6   -0.01    0.04
  -6  -1   6   39.66    0.69
  -5  -1   6   13.70    0.28
  -5  -1   6   13.87    0.27
  -5  -1   6   13.96    0.24
  -4  -1   6   50.75    0.78
  -4  -1   6   51.46    0.83
  -4  -1   6   51.44    0.79
   3   1  -6   15.49    0.28
  -3  -1   6   16.19    0.28
  -3  -1   6   16.12    0.28
  -3  -1   6   15.77    0.29
   2   1  -6    0.45    0.03
  -2  -1   6    0.39    0.04
  -2  -1   6    0.40    0.03
  -2  -1   6    0.39    0.04
   1   1  -6   69.71    1.11
  -1  -1   6   67.77    1.05
  -1  -1   6   69.10    1.00
  -1  -1   6   67.80    1.08
   0   1  -6   12.62    0.24
   0  -1   6   12.43    0.23
   0  -1   6   11.93    0.23
   0  -1   6   12.38    0.21
   0  -1   6   12.70    0.20
  -1   1  -6   47.57    0.79
  -1   1  -6   46.84    0.69
   1  -1   6   47.28    0.69
   1  -1   6   46.32    0.75
  -2   1  -6   49.26    0.84
  -2   1  -6   51.22    0.75
   2  -1   6   50.09    0.80
  -3   1  -6   10.07    0.22
  -3   1  -6   10.15    0.21
   3  -1   6   10.17    0.22
  -4   1  -6   17.65    0.36
  -4   1  -6   17.40    0.33
   4  -1   6   17.44    0.35
  -5   1  -6   -0.03    0.03
  -5   1  -6    0.02    0.03
   5  -1   6   -0.01    0.04
  -6   0   6   25.39    0.44
  -6   0   6   26.07    0.47
  -5   0   6    0.36    0.04
  -5   0   6    0.48    0.03
  -5   0   6    0.37    0.04
   4   0  -6    1.36    0.06
  -4   0   6    1.38    0.06
  -4   0   6    1.49    0.05
  -4   0   6    1.43    0.07
   3   0  -6   87.79    1.40
  -3   0   6   87.60    1.27
  -3   0   6   86.18    1.49
  -3   0   6   85.65    1.31
   2   0  -6   65.88    1.09
  -2   0   6   67.50    1.04
  -2   0   6   67.77    1.02
   1   0  -6   29.09    0.50
  -1   0   6   29.38    0.47
  -1   0   6   28.84    0.47
  -1   0   6   29.48    0.45
   0   0  -6  103.94    1.46
   0   0  -6  101.23    1.70
   0   0   6  102.39    1.48
   0   0   6  103.44    1.56
   0   0   6  104.20    1.59
  -1   0  -6    3.52    0.09
  -1   0  -6    3.55    0.10
   1   0   6    3.67    0.10
   1   0   6    3.44    0.08
  -2   0  -6    0.16    0.03
  -2   0  -6    0.11    0.03
   2   0   6    0.08    0.02
   2   0   6    0.14    0.03
  -3   0  -6   12.83    0.25
  -3   0  -6   13.05    0.27
   3   0   6   13.02    0.27
  -4   0  -6    0.54    0.06
  -4   0  -6    0.51    0.06
   4   0   6    0.44    0.06
  -7   1   6    6.33    0.17
  -6   1   6    7.39    0.18
   5  -1  -6   11.52    0.24
  -5   1   6   11.18    0.19
  -5   1   6   11.31    0.23
   4  -1  -6   20.74    0.38
  -4   1   6   20.53    0.36
  -4   1   6   20.40    0.34
  -4   1   6   21.19    0.35
   3  -1  -6   40.69    0.68
  -3   1   6   39.69    0.63
  -3   1   6   41.62    0.64
   2  -1  -6   43.17    0.71
  -2   1   6   43.46    0.66
  -2   1   6   41.74    0.67
  -2   1   6   42.25    0.64
   1  -1  -6    0.43    0.04
  -1   1   6    0.40    0.04
  -1   1   6    0.49    0.04
  -1   1   6    0.41    0.03
   0  -1  -6   48.28    0.82
   0  -1  -6   49.85    0.72
   0   1   6   49.71    0.74
   0   1   6   48.70    0.78
   0   1   6   50.75    0.77
  -1  -1  -6  115.29    1.94
  -1  -1  -6  117.37    1.68
   1   1   6  119.81    1.69
   1   1   6  118.18    1.79
  -2  -1  -6   24.55    0.40
  -2  -1  -6   24.49    0.44
   2   1   6   24.32    0.39
   2   1   6   24.44    0.43
  -3  -1  -6    5.81    0.15
  -3  -1  -6    6.14    0.15
   3   1   6    6.00    0.16
  -4  -1  -6    3.99    0.14
  -4  -1  -6    4.12    0.13
   4   1   6    4.12    0.14
  -7   2   6   22.94    0.41
  -6   2   6    6.89    0.17
   5  -2  -6    5.89    0.15
  -5   2   6    6.04    0.15
  -5   2   6    6.09    0.11
   4  -2  -6   12.33    0.25
  -4   2   6   12.06    0.23
  -4   2   6   12.08    0.21
   3  -2  -6   28.98    0.51
  -3   2   6   28.56    0.47
  -3   2   6   29.40    0.46
   2  -2  -6    1.57    0.07
  -2   2   6    1.55    0.06
  -2   2   6    1.56    0.06
   1  -2  -6   14.19    0.27
  -1   2   6   14.56    0.27
  -1   2   6   14.53    0.25
   0  -2  -6    7.89    0.17
   0  -2  -6    8.07    0.15
   0   2   6    7.84    0.16
   0   2   6    7.96    0.16
   0   2   6    8.09    0.18
  -1  -2  -6    1.53    0.07
  -1  -2  -6    1.55    0.06
   1   2   6    1.62    0.07
   1   2   6    1.55    0.06
  -2  -2  -6    0.61    0.05
  -2  -2  -6    0.65    0.05
   2   2   6    0.65    0.06
   2   2   6    0.65    0.05
  -3  -2  -6    5.36    0.14
  -3  -2  -6    5.30    0.15
   3   2   6    5.19    0.15
   3   2   6    5.35    0.14
  -4  -2  -6    0.74    0.07
   4   2   6    0.78    0.08
  -7   3   6   69.97    1.07
   6  -3  -6    7.24    0.19
  -6   3   6    7.57    0.18
   5  -3  -6   33.17    0.60
  -5   3   6   33.44    0.54
  -5   3   6   33.75    0.52
   4  -3  -6    0.01    0.03
  -4   3   6    0.07    0.03
  -4   3   6    0.07    0.02
   3  -3  -6   19.17    0.36
  -3   3   6   18.92    0.33
  -3   3   6   19.29    0.33
   2  -3  -6    4.29    0.12
  -2   3   6    4.20    0.11
  -2   3   6    4.07    0.11
   1  -3  -6    1.17    0.06
  -1   3   6    1.17    0.06
  -1   3   6    1.13    0.06
   0  -3  -6   58.62    0.99
   0  -3  -6   60.07    0.87
   0   3   6   59.93    0.90
  -1  -3  -6   45.38    0.69
  -1  -3  -6   45.32    0.77
   1   3   6   44.60    0.70
  -2  -3  -6    1.79    0.08
  -2  -3  -6    1.98    0.09
   2   3   6    1.80    0.09
   2   3   6    1.84    0.08
  -3  -3  -6    4.06    0.13
   3   3   6    4.09    0.14
   3   3   6    4.11    0.13
   7  -4  -6   10.16    0.26
   6  -4  -6    0.03    0.04
   5  -4  -6   87.83    1.45
  -5   4   6   86.81    1.31
   4  -4  -6    0.02    0.03
  -4   4   6    0.07    0.03
  -4   4   6    0.08    0.02
   3  -4  -6   75.06    1.25
  -3   4   6   74.28    1.11
  -3   4   6   75.54    1.16
   2  -4  -6   45.35    0.78
  -2   4   6   46.08    0.74
  -2   4   6   46.26    0.71
   1  -4  -6   16.24    0.31
  -1   4   6   16.55    0.31
  -1   4   6   15.91    0.29
   0  -4  -6    6.69    0.16
   0  -4  -6    7.02    0.15
   0   4   6    6.87    0.16
  -1  -4  -6    0.00    0.03
  -1  -4  -6    0.01    0.02
   1   4   6    0.05    0.03
  -2  -4  -6    0.26    0.05
   2   4   6    0.31    0.04
   7  -5  -6    3.03    0.13
   6  -5  -6    2.51    0.12
  -6   5   6    2.52    0.10
  -6   5   6    2.48    0.07
   5  -5  -6   17.06    0.36
  -5   5   6   17.75    0.32
  -5   5   6   17.62    0.31
   4  -5  -6    0.02    0.03
  -4   5   6    0.09    0.03
  -4   5   6    0.02    0.02
   3  -5  -6    0.19    0.04
  -3   5   6    0.17    0.03
  -3   5   6    0.16    0.03
   2  -5  -6    4.89    0.14
  -2   5   6    5.08    0.14
  -2   5   6    4.97    0.13
   1  -5  -6  204.49    3.32
  -1   5   6  204.83    2.93
   0  -5  -6    4.19    0.12
   0  -5  -6    4.33    0.12
   0   5   6    4.20    0.13
  -1  -5  -6   15.30    0.29
   1   5   6   14.64    0.29
  -2  -5  -6   15.31    0.31
   2   5   6   14.91    0.30
   6  -6  -6   20.92    0.44
  -6   6   6   21.04    0.36
   5  -6  -6    5.31    0.17
  -5   6   6    5.30    0.15
  -5   6   6    5.31    0.14
   4  -6  -6    1.34    0.09
  -4   6   6    1.34    0.07
  -4   6   6    1.46    0.08
   3  -6  -6    0.33    0.05
  -3   6   6    0.33    0.04
  -3   6   6    0.30    0.05
   2  -6  -6    3.37    0.12
  -2   6   6    3.49    0.12
  -2   6   6    3.52    0.13
   1  -6  -6    0.45    0.06
  -1   6   6    0.39    0.05
   0  -6  -6    0.49    0.06
   0   6   6    0.47    0.05
  -1  -6  -6   14.90    0.30
   1   6   6   14.13    0.30
  -5   7   6    2.63    0.10
   4  -7  -6    1.25    0.09
  -4   7   6    1.31    0.08
  -4   7   6    1.28    0.08
   3  -7  -6    1.89    0.10
  -3   7   6    1.63    0.09
  -3   7   6    1.68    0.10
   2  -7  -6   53.34    0.92
  -2   7   6   53.33    0.84
  -1   7   6   20.22    0.38
  -2  -7   7    0.68    0.08
  -1  -7   7   64.05    1.06
   0  -7   7   59.14    0.98
   1  -7   7   14.02    0.27
   1  -7   7   13.97    0.30
   2  -7   7    0.00    0.04
   2  -7   7    0.07    0.04
  -3   7  -7    4.70    0.17
  -3   7  -7    4.86    0.17
   3  -7   7    4.95    0.16
   3  -7   7    4.73    0.14
  -3  -6   7   10.61    0.25
  -3  -6   7   10.48    0.26
  -2  -6   7    3.21    0.13
  -1  -6   7   11.04    0.26
   0  -6   7    1.58    0.09
   1  -6   7    0.21    0.04
   1  -6   7    0.23    0.05
  -2   6  -7   20.10    0.41
   2  -6   7   20.37    0.36
   2  -6   7   20.20    0.39
  -3   6  -7   12.88    0.28
  -3   6  -7   12.82    0.30
   3  -6   7   12.85    0.26
   3  -6   7   12.80    0.28
  -4   6  -7    2.63    0.11
   4  -6   7    2.74    0.13
   4  -6   7    2.74    0.12
  -4  -5   7    2.23    0.11
  -4  -5   7    2.27    0.10
  -3  -5   7    0.77    0.07
  -3  -5   7    0.90    0.07
  -2  -5   7   89.90    1.42
  -2  -5   7   88.81    1.39
  -1  -5   7   20.55    0.39
   0  -5   7    1.30    0.08
  -1   5  -7   60.52    1.03
   1  -5   7   61.43    0.99
   1  -5   7   62.31    0.92
  -2   5  -7    1.36    0.08
  -2   5  -7    1.03    0.07
   2  -5   7    1.21    0.07
   2  -5   7    1.20    0.08
  -3   5  -7   10.07    0.23
  -3   5  -7   10.16    0.25
   3  -5   7    9.88    0.21
   3  -5   7   10.10    0.24
  -4   5  -7    0.10    0.04
  -4   5  -7    0.08    0.03
   4  -5   7    0.07    0.04
   4  -5   7    0.06    0.04
  -5  -4   7    0.28    0.05
  -4  -4   7    5.49    0.15
  -4  -4   7    5.42    0.17
  -3  -4   7    0.37    0.05
  -3  -4   7    0.44    0.05
  -2  -4   7    4.56    0.13
  -2  -4   7    4.64    0.14
  -1  -4   7   20.18    0.37
  -1  -4   7   20.11    0.37
   0   4  -7    1.23    0.06
   0  -4   7    1.23    0.07
  -1   4  -7   18.23    0.35
   1  -4   7   17.99    0.34
   1  -4   7   18.45    0.31
  -2   4  -7    9.57    0.21
  -2   4  -7    9.45    0.22
   2  -4   7    9.71    0.19
   2  -4   7    9.41    0.22
  -3   4  -7   20.48    0.38
  -3   4  -7   20.79    0.42
   3  -4   7   20.72    0.39
   3  -4   7   21.10    0.37
  -4   4  -7    8.72    0.23
  -4   4  -7    8.80    0.21
   4  -4   7    8.50    0.22
   4  -4   7    8.81    0.21
  -5  -3   7    5.36    0.17
  -5  -3   7    5.46    0.14
  -4  -3   7    2.77    0.11
  -4  -3   7    2.77    0.09
  -3  -3   7   67.81    1.00
  -3  -3   7   67.52    1.05
  -3  -3   7   65.11    1.07
  -2  -3   7  125.68    1.94
  -2  -3   7  130.95    1.84
  -2  -3   7  127.03    2.42
   1   3  -7   19.49    0.35
  -1  -3   7   19.93    0.32
  -1  -3   7   19.35    0.35
  -1  -3   7   19.74    0.35
   0   3  -7    2.40    0.08
   0  -3   7    2.25    0.09
  -1   3  -7   16.94    0.33
  -1   3  -7   17.34    0.32
   1  -3   7   17.46    0.29
   1  -3   7   17.37    0.32
  -2   3  -7    0.12    0.03
   2  -3   7    0.14    0.03
   2  -3   7    0.12    0.03
  -3   3  -7    7.81    0.20
   3  -3   7    7.96    0.18
   3  -3   7    7.83    0.19
  -4   3  -7    2.68    0.10
  -4   3  -7    2.61    0.12
   4  -3   7    2.61    0.11
   4  -3   7    2.47    0.11
  -6  -2   7    0.05    0.04
  -6  -2   7    0.03    0.02
  -5  -2   7   44.76    0.70
  -5  -2   7   43.10    0.75
  -5  -2   7   44.38    0.70
  -4  -2   7    9.46    0.19
  -4  -2   7    9.35    0.21
  -4  -2   7    9.68    0.20
  -3  -2   7   54.14    0.85
  -3  -2   7   52.68    0.87
  -3  -2   7   55.30    0.82
   2   2  -7    9.94    0.19
  -2  -2   7    9.89    0.20
  -2  -2   7   10.01    0.19
  -2  -2   7    9.49    0.20
   1   2  -7   19.38    0.35
  -1  -2   7   19.09    0.34
  -1  -2   7   19.23    0.32
   0   2  -7   55.98    0.92
   0  -2   7   54.97    0.82
   0  -2   7   56.08    0.88
  -1   2  -7    1.08    0.06
   1  -2   7    1.04    0.05
   1  -2   7    1.02    0.06
  -2   2  -7    0.35    0.05
   2  -2   7    0.30    0.04
  -3   2  -7   23.02    0.39
  -3   2  -7   22.36    0.44
   3  -2   7   22.62    0.42
  -4   2  -7    0.63    0.06
  -4   2  -7    0.59    0.07
   4  -2   7    0.49    0.06
  -6  -1   7    5.88    0.16
  -6  -1   7    6.02    0.13
  -6  -1   7    6.51    0.18
  -5  -1   7    6.14    0.16
  -5  -1   7    6.23    0.17
  -5  -1   7    6.24    0.13
  -4  -1   7   46.97    0.73
  -4  -1   7   46.57    0.73
  -4  -1   7   46.98    0.76
   3   1  -7   47.31    0.79
  -3  -1   7   48.38    0.75
  -3  -1   7   48.11    0.73
  -3  -1   7   48.10    0.77
   2   1  -7    2.43    0.07
  -2  -1   7    1.97    0.07
  -2  -1   7    2.09    0.07
  -2  -1   7    2.63    0.08
   1   1  -7  243.54    3.90
  -1  -1   7  243.34    3.66
  -1  -1   7  240.94    4.62
   0   1  -7   53.07    0.88
   0  -1   7   53.25    0.84
   0  -1   7   53.18    0.84
   0  -1   7   52.57    0.78
  -1   1  -7   71.38    1.04
  -1   1  -7   71.90    1.18
   1  -1   7   71.51    1.12
  -2   1  -7    1.60    0.07
  -2   1  -7    1.51    0.07
   2  -1   7    1.56    0.08
  -3   1  -7    1.84    0.09
  -3   1  -7    1.69    0.08
   3  -1   7    1.76    0.09
  -4   1  -7    9.67    0.22
  -4   1  -7    9.32    0.23
   4  -1   7    9.66    0.23
  -6   0   7   21.17    0.39
  -5   0   7    0.08    0.03
  -5   0   7    0.12    0.02
   4   0  -7   10.62    0.21
  -4   0   7   10.60    0.21
  -4   0   7   10.57    0.21
  -4   0   7   10.76    0.20
   3   0  -7    0.18    0.03
  -3   0   7    0.14    0.02
  -3   0   7    0.14    0.03
  -3   0   7    0.08    0.02
   2   0  -7    3.50    0.09
  -2   0   7    3.39    0.09
  -2   0   7    3.36    0.09
   1   0  -7   54.76    0.90
  -1   0   7   54.12    0.84
  -1   0   7   53.66    0.81
  -1   0   7   54.47    0.85
   0   0  -7    0.08    0.02
   0   0   7    0.07    0.02
   0   0   7    0.05    0.02
   0   0   7    0.03    0.02
  -1   0  -7   48.46    0.81
  -1   0  -7   48.07    0.71
   1   0   7   47.78    0.77
   1   0   7   47.92    0.72
  -2   0  -7   97.23    1.61
  -2   0  -7  100.81    1.44
   2   0   7   98.58    1.53
  -3   0  -7   33.78    0.55
  -3   0  -7   33.38    0.60
   3   0   7   33.09    0.58
  -4   0  -7    1.72    0.09
  -4   0  -7    1.47    0.09
   4   0   7    1.67    0.10
  -7   1   7    1.11    0.08
  -6   1   7   14.94    0.30
  -5   1   7   19.04    0.34
  -5   1   7   18.97    0.31
   4  -1  -7   29.19    0.51
  -4   1   7   29.22    0.47
  -4   1   7   28.88    0.48
   3  -1  -7   52.22    0.87
  -3   1   7   52.27    0.81
   2  -1  -7   77.92    1.26
  -2   1   7   76.89    1.18
  -2   1   7   77.53    1.13
  -2   1   7   76.20    1.18
   1  -1  -7    7.30    0.16
  -1   1   7    7.26    0.15
  -1   1   7    7.22    0.16
  -1   1   7    7.86    0.15
   0  -1  -7    6.06    0.15
   0   1   7    6.62    0.14
   0   1   7    6.47    0.14
  -1  -1  -7    0.74    0.05
  -1  -1  -7    0.79    0.06
   1   1   7    0.77    0.05
  -2  -1  -7    1.05    0.06
  -2  -1  -7    0.99    0.06
   2   1   7    1.03    0.07
   2   1   7    1.08    0.06
  -3  -1  -7    4.23    0.13
  -3  -1  -7    4.13    0.13
   3   1   7    4.17    0.14
  -4  -1  -7    1.33    0.09
   4   1   7    1.30    0.09
  -7   2   7   38.18    0.63
  -6   2   7   56.69    0.88
   4  -2  -7   15.93    0.31
  -4   2   7   16.05    0.28
  -4   2   7   16.14    0.29
   3  -2  -7   14.37    0.28
  -3   2   7   14.22    0.26
  -3   2   7   14.14    0.26
   2  -2  -7   44.32    0.75
  -2   2   7   44.51    0.70
  -2   2   7   42.87    0.67
   1  -2  -7    5.88    0.14
  -1   2   7    5.32    0.14
  -1   2   7    5.44    0.13
   0  -2  -7   46.03    0.77
   0   2   7   45.21    0.70
  -1  -2  -7   44.11    0.67
  -1  -2  -7   43.76    0.75
   1   2   7   44.19    0.71
   1   2   7   44.51    0.68
  -2  -2  -7    1.59    0.08
  -2  -2  -7    1.71    0.08
   2   2   7    1.68    0.08
   2   2   7    1.71    0.08
  -3  -2  -7    1.69    0.08
  -3  -2  -7    1.81    0.09
   3   2   7    1.89    0.10
  -7   3   7    0.06    0.04
   6  -3  -7    1.91    0.10
  -6   3   7    2.11    0.05
  -6   3   7    1.94    0.09
   5  -3  -7   10.82    0.25
  -5   3   7   10.88    0.23
  -5   3   7   10.82    0.20
   4  -3  -7    2.77    0.10
  -4   3   7    2.85    0.10
  -4   3   7    2.75    0.08
   3  -3  -7   71.45    1.19
  -3   3   7   72.42    1.07
  -3   3   7   71.78    1.11
   2  -3  -7  134.58    2.20
  -2   3   7  137.67    2.06
  -2   3   7  136.25    1.97
   1  -3  -7    8.77    0.20
  -1   3   7    9.16    0.19
  -1   3   7    9.10    0.20
   0  -3  -7   11.03    0.24
   0   3   7   11.08    0.22
  -1  -3  -7    3.26    0.11
   1   3   7    3.25    0.11
  -2  -3  -7    0.08    0.03
  -2  -3  -7    0.05    0.03
   2   3   7    0.00    0.03
  -3  -3  -7    0.04    0.04
   3   3   7    0.06    0.04
   7  -4  -7    2.84    0.13
  -7   4   7    3.01    0.12
   6  -4  -7    4.71    0.16
  -6   4   7    4.88    0.15
  -6   4   7    4.99    0.10
   5  -4  -7   30.16    0.56
  -5   4   7   30.02    0.49
   4  -4  -7    0.10    0.03
  -4   4   7    0.06    0.02
  -4   4   7    0.04    0.03
   3  -4  -7    1.87    0.09
  -3   4   7    2.02    0.08
  -3   4   7    1.88    0.08
   2  -4  -7    0.87    0.06
  -2   4   7    0.79    0.06
  -2   4   7    1.02    0.07
   1  -4  -7   41.70    0.72
  -1   4   7   41.43    0.66
   0  -4  -7  185.03    3.08
   0   4   7  182.56    2.65
  -1  -4  -7    0.48    0.06
   1   4   7    0.51    0.06
  -2  -4  -7    4.66    0.14
   2   4   7    4.69    0.14
   6  -5  -7    4.17    0.15
  -6   5   7    4.26    0.14
  -6   5   7    4.16    0.10
   5  -5  -7    0.90    0.08
  -5   5   7    0.92    0.06
  -5   5   7    0.96    0.07
   4  -5  -7   51.01    0.89
  -4   5   7   50.91    0.80
  -4   5   7   51.56    0.82
   3  -5  -7    0.62    0.06
  -3   5   7    0.71    0.06
  -3   5   7    0.73    0.06
   2  -5  -7    0.20    0.04
  -2   5   7    0.14    0.04
  -2   5   7    0.20    0.04
   1  -5  -7   14.99    0.31
  -1   5   7   14.84    0.29
   0  -5  -7    0.83    0.07
   0   5   7    0.87    0.07
   1   5   7    2.19    0.10
   6  -6  -7    0.04    0.04
  -6   6   7    0.06    0.03
   5  -6  -7    0.21    0.05
  -5   6   7    0.23    0.04
  -5   6   7    0.18    0.04
  -4   6   7   21.64    0.40
  -4   6   7   21.53    0.39
   3  -6  -7    0.02    0.03
  -3   6   7    0.01    0.03
  -3   6   7    0.05    0.03
   2  -6  -7   27.51    0.52
  -2   6   7   27.87    0.48
   1  -6  -7   61.51    1.06
  -1   6   7   63.12    0.97
   0   6   7    1.54    0.09
   4  -7  -7   23.93    0.48
  -4   7   7   23.13    0.43
  -4   7   7   23.56    0.45
   3  -7  -7    0.60    0.07
  -3   7   7    0.71    0.07
  -3   7   7    0.58    0.07
   2  -7  -7    4.87    0.16
  -2   7   7    4.91    0.15
  -1  -7   8    6.80    0.21
   0  -7   8   13.62    0.31
   1  -7   8    0.49    0.06
  -2  -6   8    1.49    0.10
  -1  -6   8   94.21    1.50
   0  -6   8    4.50    0.15
   1  -6   8    2.11    0.11
  -2   6  -8   45.28    0.81
   2  -6   8   45.10    0.77
  -3   6  -8    5.23    0.18
  -3   6  -8    5.19    0.18
   3  -6   8    5.22    0.15
   3  -6   8    5.31    0.17
  -3  -5   8   28.20    0.51
  -3  -5   8   28.36    0.53
  -2  -5   8   15.84    0.32
  -2  -5   8   16.04    0.33
  -1  -5   8    1.68    0.09
   0  -5   8    8.72    0.21
  -1   5  -8    1.11    0.07
   1  -5   8    1.16    0.08
  -2   5  -8    1.37    0.08
   2  -5   8    1.34    0.09
  -3   5  -8   65.16    1.05
  -3   5  -8   63.61    1.12
   3  -5   8   65.47    0.99
   3  -5   8   64.96    1.06
  -4  -4   8    8.36    0.22
  -4  -4   8    8.17    0.20
  -3  -4   8    0.74    0.06
  -3  -4   8    0.71    0.07
  -2  -4   8   77.18    1.23
  -2  -4   8   79.05    1.25
  -2  -4   8   79.01    1.16
  -1  -4   8   48.81    0.80
   0   4  -8   48.16    0.81
   0  -4   8   47.60    0.79
  -1   4  -8   11.46    0.25
   1  -4   8   11.27    0.25
  -2   4  -8    0.43    0.06
  -2   4  -8    0.42    0.06
   2  -4   8    0.64    0.07
  -3   4  -8    0.75    0.07
  -3   4  -8    0.63    0.07
   3  -4   8    0.72    0.07
  -4   4  -8    4.96    0.15
   4  -4   8    5.10    0.19
  -5  -3   8   12.73    0.26
  -5  -3   8   12.48    0.29
  -4  -3   8    0.00    0.03
  -4  -3   8    0.02    0.02
  -4  -3   8    0.10    0.03
  -3  -3   8    0.23    0.03
  -3  -3   8    0.21    0.04
  -3  -3   8    0.26    0.04
  -2  -3   8   36.98    0.61
  -2  -3   8   36.52    0.62
  -2  -3   8   36.57    0.57
   1   3  -8   10.97    0.22
  -1  -3   8   10.69    0.23
  -1  -3   8   10.82    0.23
   0   3  -8   14.35    0.28
   0  -3   8   14.06    0.28
  -1   3  -8    0.24    0.04
  -2   3  -8   29.55    0.55
  -3   3  -8    6.11    0.18
   3  -3   8    6.02    0.17
   3  -3   8    6.11    0.16
  -4   3  -8   19.16    0.41
  -4   3  -8   19.38    0.38
   4  -3   8   20.41    0.37
   4  -3   8   19.14    0.39
  -5  -2   8    6.16    0.18
  -5  -2   8    6.43    0.15
  -5  -2   8    6.40    0.17
  -4  -2   8    1.02    0.07
  -4  -2   8    1.08    0.07
  -4  -2   8    1.08    0.06
  -3  -2   8   61.83    0.93
  -3  -2   8   61.27    0.96
  -3  -2   8   60.52    0.98
   2   2  -8   43.72    0.71
  -2  -2   8   41.81    0.69
  -2  -2   8   41.35    0.69
  -2  -2   8   42.99    0.65
   1   2  -8   14.16    0.27
  -1  -2   8   13.89    0.27
  -1  -2   8   14.27    0.25
  -1  -2   8   14.07    0.27
   0   2  -8  149.77    2.39
   0  -2   8  147.83    2.30
  -1   2  -8   16.65    0.33
  -2   2  -8   38.27    0.68
   2  -2   8   37.89    0.65
  -3   2  -8    1.72    0.09
   3  -2   8    1.67    0.09
  -4   2  -8    5.32    0.17
   4  -2   8    5.22    0.17
  -6  -1   8    1.59    0.09
  -6  -1   8    1.65    0.06
  -4  -1   8   43.61    0.69
  -4  -1   8   43.93    0.70
  -4  -1   8   44.09    0.72
   3   1  -8    0.82    0.05
  -3  -1   8    0.86    0.06
  -3  -1   8    0.79    0.05
   2   1  -8    1.60    0.07
  -2  -1   8    1.59    0.07
  -2  -1   8    1.44    0.07
  -2  -1   8    1.76    0.07
   1   1  -8    1.94    0.08
  -1  -1   8    1.94    0.08
   0   1  -8   -0.01    0.02
   0  -1   8    0.00    0.02
   0  -1   8    0.00    0.02
  -1   1  -8   48.38    0.83
   1  -1   8   49.05    0.79
  -2   1  -8    0.19    0.04
   2  -1   8    0.14    0.04
  -3   1  -8    0.02    0.03
  -3   1  -8    0.03    0.03
   3  -1   8   -0.05    0.03
   4  -1   8   74.61    1.22
  -6   0   8    0.56    0.04
  -6   0   8    0.55    0.06
  -5   0   8    5.25    0.12
  -5   0   8    5.32    0.15
  -4   0   8   43.11    0.68
  -4   0   8   42.88    0.68
   3   0  -8   29.66    0.52
  -3   0   8   29.90    0.49
  -3   0   8   29.38    0.49
  -3   0   8   29.71    0.48
   2   0  -8  123.61    2.00
  -2   0   8  125.86    1.88
  -2   0   8  123.68    1.92
   1   0  -8  121.13    1.92
  -1   0   8  118.82    1.81
  -1   0   8  118.87    1.72
  -1   0   8  117.14    2.08
   0   0  -8    0.48    0.05
   0   0   8    0.48    0.04
  -1   0  -8    1.59    0.08
   1   0   8    1.79    0.08
  -2   0  -8    0.75    0.06
   2   0   8    0.67    0.07
  -3   0  -8    0.10    0.04
   3   0   8    0.09    0.04
  -6   1   8    0.43    0.05
  -6   1   8    0.61    0.04
  -5   1   8    7.08    0.15
  -5   1   8    6.93    0.17
   4  -1  -8    1.56    0.07
  -4   1   8    1.53    0.06
  -4   1   8    1.44    0.08
   3  -1  -8   28.07    0.50
  -3   1   8   28.15    0.47
   2  -1  -8    3.51    0.11
  -2   1   8    3.60    0.11
  -2   1   8    3.52    0.10
   1  -1  -8    5.25    0.14
  -1   1   8    5.32    0.14
  -1   1   8    5.70    0.13
   0  -1  -8   18.84    0.36
   0   1   8   19.23    0.34
   0   1   8   18.65    0.32
  -1  -1  -8    4.12    0.13
   1   1   8    4.15    0.11
   1   1   8    4.24    0.12
  -2  -1  -8   13.40    0.29
   2   1   8   13.51    0.28
  -3  -1  -8   35.57    0.65
   3   1   8   35.67    0.62
  -6   2   8    6.67    0.18
  -6   2   8    6.67    0.13
   5  -2  -8   11.36    0.25
  -5   2   8   11.47    0.24
  -5   2   8   11.33    0.21
   4  -2  -8   10.07    0.22
  -4   2   8    9.83    0.20
  -4   2   8    9.74    0.21
   3  -2  -8   18.83    0.36
  -3   2   8   18.83    0.34
  -3   2   8   18.73    0.33
   2  -2  -8   86.46    1.42
  -2   2   8   86.86    1.28
  -2   2   8   86.78    1.34
   1  -2  -8   95.31    1.56
  -1   2   8   96.43    1.41
  -1   2   8   95.65    1.48
   0  -2  -8    0.06    0.03
   0   2   8    0.09    0.03
  -1  -2  -8    4.58    0.14
   1   2   8    4.81    0.13
  -2  -2  -8    4.70    0.14
   6  -3  -8    4.07    0.14
  -6   3   8    4.22    0.10
  -6   3   8    4.23    0.14
   5  -3  -8    1.84    0.09
  -5   3   8    1.89    0.09
  -5   3   8    1.88    0.07
   4  -3  -8   28.02    0.51
  -4   3   8   27.55    0.47
  -4   3   8   27.44    0.47
   3  -3  -8    0.13    0.03
  -3   3   8    0.18    0.03
  -3   3   8    0.15    0.03
   2  -3  -8    3.99    0.12
  -2   3   8    3.98    0.12
  -2   3   8    3.91    0.12
   1  -3  -8    8.29    0.20
  -1   3   8    8.55    0.19
   0  -3  -8    3.59    0.12
   0   3   8    3.55    0.11
  -1  -3  -8    5.75    0.16
   1   3   8    5.78    0.15
  -2  -3  -8   19.03    0.38
   2   3   8   18.94    0.35
   6  -4  -8    3.28    0.13
  -6   4   8    3.19    0.09
  -6   4   8    3.46    0.13
   5  -4  -8    7.32    0.20
  -5   4   8    7.66    0.17
   4  -4  -8   19.42    0.39
  -4   4   8   19.50    0.36
  -4   4   8   19.32    0.35
   3  -4  -8   89.84    1.49
  -3   4   8   91.59    1.39
  -3   4   8   88.04    1.34
   2  -4  -8    1.43    0.08
  -2   4   8    1.57    0.08
  -2   4   8    1.51    0.08
   1  -4  -8    0.79    0.07
  -1   4   8    0.68    0.06
   0  -4  -8   27.89    0.51
   0   4   8   27.59    0.48
  -1  -4  -8    0.37    0.05
   1   4   8    0.35    0.05
   6  -5  -8   37.57    0.70
  -6   5   8   38.01    0.63
   5  -5  -8    0.09    0.04
  -5   5   8   -0.01    0.02
  -5   5   8    0.02    0.03
   4  -5  -8    1.38    0.09
  -4   5   8    1.26    0.08
  -4   5   8    1.33    0.08
   3  -5  -8   11.58    0.27
  -3   5   8   11.69    0.25
  -3   5   8   11.71    0.26
   2  -5  -8    5.02    0.15
  -2   5   8    4.99    0.15
   1  -5  -8    3.48    0.12
  -1   5   8    3.94    0.13
   0  -5  -8    0.21    0.04
   0   5   8    0.18    0.04
   5  -6  -8    1.96    0.11
  -5   6   8    2.01    0.10
   4  -6  -8   10.01    0.25
  -4   6   8   10.01    0.23
  -4   6   8   10.12    0.23
   3  -6  -8   14.11    0.32
  -3   6   8   14.32    0.30
  -3   6   8   14.60    0.31
   2  -6  -8   20.67    0.42
  -2   6   8   20.97    0.39
   1  -6  -8    0.02    0.04
  -1   6   8    0.04    0.04
  -1  -6   9   16.73    0.36
   0  -6   9    5.33    0.17
   1  -6   9    0.07    0.04
  -3  -5   9   14.54    0.31
  -3  -5   9   14.74    0.33
  -2  -5   9    1.20    0.09
  -1  -5   9    3.38    0.13
   0  -5   9    2.48    0.11
  -1   5  -9    8.34    0.21
   1  -5   9    8.53    0.22
  -2   5  -9    2.05    0.11
   2  -5   9    2.39    0.12
  -4  -4   9    8.38    0.22
  -4  -4   9    8.07    0.20
  -3  -4   9   10.47    0.24
  -3  -4   9   10.30    0.25
  -2  -4   9    0.05    0.03
  -2  -4   9    0.05    0.03
  -1  -4   9    6.71    0.18
   0   4  -9    4.87    0.14
   0  -4   9    4.80    0.15
  -1   4  -9   14.74    0.31
   1  -4   9   14.50    0.30
  -2   4  -9   13.74    0.31
   2  -4   9   13.37    0.29
  -3   4  -9   25.57    0.51
  -3   4  -9   26.16    0.48
  -5  -3   9    1.43    0.10
  -4  -3   9    0.52    0.06
  -4  -3   9    0.55    0.07
  -4  -3   9    0.52    0.06
  -3  -3   9    0.03    0.03
  -3  -3   9    0.03    0.03
  -3  -3   9    0.04    0.03
  -2  -3   9    0.11    0.03
  -2  -3   9    0.13    0.03
  -2  -3   9    0.08    0.03
   1   3  -9    2.56    0.09
  -1  -3   9    2.47    0.10
   0   3  -9    0.40    0.05
   0  -3   9    0.30    0.04
  -1   3  -9    7.71    0.19
   1  -3   9    7.48    0.19
  -2   3  -9    0.08    0.04
   2  -3   9    0.02    0.03
  -3   3  -9   19.24    0.40
  -3   3  -9   18.98    0.38
   3  -3   9   18.80    0.38
  -5  -2   9    0.64    0.07
  -5  -2   9    0.61    0.07
  -5  -2   9    0.65    0.05
  -4  -2   9    7.05    0.17
  -4  -2   9    6.96    0.18
  -4  -2   9    6.88    0.17
  -3  -2   9   36.30    0.62
  -3  -2   9   37.25    0.59
  -3  -2   9   36.52    0.61
   2   2  -9    1.00    0.06
  -2  -2   9    0.92    0.06
  -2  -2   9    0.95    0.06
  -2  -2   9    0.84    0.06
   1   2  -9    4.16    0.12
  -1  -2   9    3.97    0.12
   0   2  -9    0.19    0.03
   0  -2   9    0.23    0.04
  -1   2  -9   11.56    0.25
   1  -2   9   11.46    0.25
  -2   2  -9   28.65    0.54
   2  -2   9   28.53    0.51
  -3   2  -9    4.37    0.15
   3  -2   9    4.53    0.16
  -5  -1   9    0.64    0.07
  -5  -1   9    0.69    0.05
  -4  -1   9   23.13    0.41
  -4  -1   9   22.91    0.42
  -4  -1   9   23.43    0.41
   3   1  -9    0.02    0.03
  -3  -1   9    0.07    0.03
  -3  -1   9    0.01    0.02
  -3  -1   9    0.07    0.03
   2   1  -9    4.71    0.13
  -2  -1   9    4.54    0.12
  -2  -1   9    4.59    0.12
  -2  -1   9    4.50    0.13
   1   1  -9   16.31    0.32
  -1  -1   9   15.80    0.30
  -1  -1   9   16.18    0.29
   0   1  -9   14.32    0.29
   0  -1   9   14.27    0.28
  -1   1  -9   19.72    0.39
   1  -1   9   20.25    0.37
  -2   1  -9    0.04    0.03
   2  -1   9    0.03    0.04
  -3   1  -9    1.32    0.09
   3  -1   9    1.32    0.10
  -6   0   9    0.09    0.04
  -6   0   9    0.11    0.03
  -5   0   9   10.42    0.23
  -5   0   9   10.47    0.21
  -4   0   9    2.03    0.08
  -4   0   9    2.01    0.09
   3   0  -9   11.01    0.23
  -3   0   9   10.67    0.22
  -3   0   9   10.67    0.22
   2   0  -9   36.15    0.63
  -2   0   9   36.03    0.60
   1   0  -9    0.23    0.04
  -1   0   9    0.22    0.03
  -1   0   9    0.18    0.03
   0   0  -9    0.50    0.06
   0   0   9    0.55    0.05
   0   0   9    0.52    0.06
  -1   0  -9   24.52    0.46
   1   0   9   24.59    0.44
  -2   0  -9    0.01    0.03
   2   0   9    0.00    0.03
   3   0   9   55.36    0.93
  -6   1   9    1.00    0.08
  -6   1   9    1.16    0.05
  -5   1   9    0.48    0.06
  -5   1   9    0.55    0.05
   4  -1  -9    1.90    0.08
  -4   1   9    1.77    0.07
  -4   1   9    1.88    0.09
   3  -1  -9    9.74    0.22
  -3   1   9    9.89    0.21
   2  -1  -9    0.07    0.03
  -2   1   9    0.06    0.03
  -2   1   9    0.05    0.03
   1  -1  -9    1.40    0.07
  -1   1   9    1.38    0.07
   0  -1  -9   15.54    0.32
   0   1   9   15.85    0.29
  -1  -1  -9    3.53    0.12
  -2  -1  -9    4.99    0.15
   2   1   9    4.86    0.15
  -6   2   9    0.71    0.08
  -6   2   9    0.76    0.05
   5  -2  -9    1.66    0.09
  -5   2   9    1.72    0.09
  -5   2   9    1.59    0.07
   4  -2  -9    1.40    0.08
  -4   2   9    1.72    0.07
  -4   2   9    1.46    0.08
   3  -2  -9    5.50    0.15
  -3   2   9    5.50    0.14
  -3   2   9    5.55    0.15
   2  -2  -9    1.13    0.07
  -2   2   9    1.07    0.07
  -2   2   9    1.02    0.07
   1  -2  -9   18.68    0.36
  -1   2   9   18.06    0.33
   0  -2  -9   15.92    0.33
   0   2   9   16.11    0.30
  -1  -2  -9    0.52    0.06
   1   2   9    0.52    0.06
  -2  -2  -9   14.65    0.32
   6  -3  -9   13.42    0.30
  -6   3   9   13.17    0.28
  -6   3   9   12.65    0.24
   5  -3  -9    7.76    0.20
  -5   3   9    7.85    0.20
  -5   3   9    7.71    0.17
   4  -3  -9    3.56    0.13
  -4   3   9    3.53    0.12
  -4   3   9    3.62    0.11
   3  -3  -9    0.02    0.03
  -3   3   9    0.02    0.03
  -3   3   9    0.02    0.03
   2  -3  -9    7.50    0.19
  -2   3   9    8.02    0.19
  -2   3   9    7.53    0.18
   1  -3  -9    1.10    0.08
  -1   3   9    1.08    0.07
   0  -3  -9    0.57    0.07
   0   3   9    0.54    0.06
  -1  -3  -9   20.68    0.41
   1   3   9   20.10    0.37
   5  -4  -9   54.09    0.94
  -5   4   9   52.90    0.85
   4  -4  -9    1.82    0.10
  -4   4   9    1.79    0.09
  -4   4   9    1.98    0.10
   3  -4  -9    7.26    0.19
  -3   4   9    7.43    0.18
  -3   4   9    7.28    0.18
   2  -4  -9    2.29    0.10
  -2   4   9    2.29    0.10
   1  -4  -9    9.94    0.23
  -1   4   9    9.61    0.22
   0  -4  -9    0.66    0.07
   0   4   9    0.61    0.07
   5  -5  -9    8.77    0.23
  -5   5   9    8.56    0.22
   4  -5  -9    5.08    0.16
  -4   5   9    5.14    0.16
  -4   5   9    5.09    0.15
   3  -5  -9    5.01    0.16
  -3   5   9    4.92    0.15
  -3   5   9    4.84    0.15
   2  -5  -9    0.26    0.05
  -2   5   9    0.25    0.05
   1  -5  -9   31.96    0.59
  -1   5   9   31.08    0.55
  -2  -5  10   10.50    0.26
  -1  -5  10    4.59    0.16
   0  -5  10    0.84    0.08
  -1   5 -10    2.79    0.12
   1  -5  10    2.77    0.13
  -3  -4  10    0.07    0.03
  -3  -4  10    0.10    0.04
  -2  -4  10    0.10    0.04
  -1  -4  10   11.07    0.26
   0   4 -10    5.68    0.16
   0  -4  10    5.70    0.17
  -1   4 -10    0.77    0.07
   1  -4  10    0.78    0.08
   2  -4  10    1.04    0.10
  -4  -3  10   12.00    0.26
  -4  -3  10   12.18    0.28
  -4  -3  10   11.58    0.26
  -3  -3  10    1.25    0.07
  -3  -3  10    1.19    0.08
  -3  -3  10    1.22    0.08
  -2  -3  10    3.94    0.13
  -2  -3  10    3.97    0.13
   1   3 -10    0.03    0.03
  -1  -3  10    0.07    0.03
   0   3 -10    3.46    0.12
   0  -3  10    3.40    0.13
  -1   3 -10    1.50    0.09
   1  -3  10    1.51    0.10
  -2   3 -10    1.90    0.10
   2  -3  10    2.05    0.11
  -4  -2  10    1.91    0.09
  -4  -2  10    1.71    0.09
  -4  -2  10    1.77    0.09
  -3  -2  10   31.64    0.52
  -3  -2  10   30.95    0.55
  -3  -2  10   29.96    0.54
  -2  -2  10   10.71    0.24
  -2  -2  10   10.82    0.24
  -2  -2  10   11.15    0.22
   1   2 -10   10.67    0.24
  -1  -2  10   10.68    0.24
   0   2 -10    1.35    0.08
   0  -2  10    1.43    0.08
  -1   2 -10    1.21    0.08
   1  -2  10    1.15    0.09
  -2   2 -10    3.74    0.14
  -5  -1  10   12.88    0.26
  -5  -1  10   13.29    0.28
  -4  -1  10    3.22    0.11
  -4  -1  10    3.28    0.12
  -3  -1  10   14.39    0.28
  -3  -1  10   13.74    0.28
   2   1 -10   11.34    0.24
  -2  -1  10   11.25    0.23
  -2  -1  10   10.69    0.23
  -2  -1  10   11.21    0.24
   1   1 -10   32.12    0.58
  -1  -1  10   32.28    0.55
   0   1 -10    0.96    0.07
   0  -1  10    0.87    0.07
  -1   1 -10    3.10    0.12
  -2   1 -10    0.47    0.06
   2  -1  10    0.39    0.06
  -5   0  10    0.35    0.05
  -5   0  10    0.29    0.04
  -4   0  10    0.43    0.05
  -4   0  10    0.43    0.05
   3   0 -10    9.17    0.21
  -3   0  10    8.73    0.20
  -3   0  10    8.79    0.20
   2   0 -10   22.14    0.42
  -2   0  10   21.67    0.38
  -2   0  10   21.78    0.40
   1   0 -10    1.07    0.07
  -1   0  10    1.13    0.07
   0   0 -10    4.45    0.14
  -1   0 -10   13.14    0.29
   1   0  10   12.99    0.28
  -2   0 -10   15.88    0.36
   2   0  10   16.32    0.34
  -5   1  10    0.77    0.06
  -5   1  10    0.60    0.07
   4  -1 -10   13.87    0.29
  -4   1  10   14.38    0.29
  -4   1  10   14.03    0.28
   3  -1 -10    0.30    0.04
  -3   1  10    0.27    0.04
   2  -1 -10    0.22    0.04
  -2   1  10    0.18    0.04
  -2   1  10    0.26    0.04
   1  -1 -10    8.37    0.21
  -1   1  10    8.59    0.19
   0  -1 -10    4.11    0.14
   0   1  10    4.14    0.13
  -1  -1 -10    0.94    0.08
   5  -2 -10   14.60    0.31
  -5   2  10   15.22    0.29
  -5   2  10   14.90    0.31
   4  -2 -10   23.07    0.44
  -4   2  10   23.31    0.42
  -4   2  10   23.27    0.42
   3  -2 -10   10.19    0.24
  -3   2  10   10.54    0.23
  -3   2  10   10.35    0.23
   2  -2 -10    6.77    0.18
  -2   2  10    6.43    0.17
  -2   2  10    6.55    0.18
   1  -2 -10    0.12    0.04
  -1   2  10    0.13    0.04
   0  -2 -10    3.08    0.12
   0   2  10    2.96    0.11
  -1  -2 -10    3.35    0.13
   5  -3 -10   20.75    0.41
  -5   3  10   20.49    0.37
  -5   3  10   20.36    0.39
   4  -3 -10   49.15    0.86
  -4   3  10   49.41    0.79
  -4   3  10   48.86    0.80
   3  -3 -10    3.49    0.13
  -3   3  10    3.72    0.13
  -3   3  10    3.60    0.13
   2  -3 -10    2.57    0.11
  -2   3  10    2.64    0.11
   1  -3 -10    4.27    0.14
  -1   3  10    4.15    0.14
   0  -3 -10    1.69    0.10
   0   3  10    1.64    0.09
   4  -4 -10   15.63    0.34
  -4   4  10   16.11    0.32
  -4   4  10   15.87    0.32
   3  -4 -10   22.30    0.45
  -3   4  10   22.99    0.43
  -3   4  10   22.33    0.42
   2  -4 -10   17.56    0.37
  -2   4  10   18.28    0.35
   1  -4 -10    1.29    0.09
  -1   4  10    1.57    0.09
  -1  -4  11    3.17    0.13
  -3  -3  11    4.84    0.15
  -3  -3  11    4.88    0.16
  -2  -3  11    4.91    0.15
  -1  -3  11    0.19    0.04
   0   3 -11    7.88    0.21
   0  -3  11    8.05    0.21
  -3  -2  11    3.61    0.13
  -3  -2  11    3.58    0.13
  -3  -2  11    3.47    0.12
  -2  -2  11    4.20    0.14
   1   2 -11    2.04    0.10
  -1  -2  11    2.35    0.10
   0   2 -11   42.34    0.75
   0  -2  11   42.29    0.73
  -1   2 -11    0.17    0.05
   1  -2  11    0.31    0.06
  -4  -1  11    1.07    0.07
  -4  -1  11    1.08    0.08
  -3  -1  11    2.52    0.11
  -3  -1  11    2.67    0.11
   2   1 -11    4.29    0.14
  -2  -1  11    4.28    0.13
   1   1 -11    2.25    0.10
   0   1 -11    4.52    0.15
   0  -1  11    4.46    0.14
   1  -1  11    0.66    0.08
  -4   0  11    1.20    0.08
  -4   0  11    1.16    0.07
   3   0 -11   17.61    0.35
  -3   0  11   17.31    0.33
  -3   0  11   17.13    0.34
   2   0 -11   21.30    0.41
  -2   0  11   21.13    0.38
   1   0 -11   18.25    0.37
   0   0 -11    7.12    0.20
   4  -1 -11    0.25    0.05
  -4   1  11    0.37    0.05
  -4   1  11    0.14    0.04
   3  -1 -11    0.23    0.05
  -3   1  11    0.28    0.05
  -3   1  11    0.25    0.04
   2  -1 -11    5.10    0.16
  -2   1  11    4.86    0.14
   1  -1 -11    0.83    0.08
  -1   1  11    0.90    0.07
   0  -1 -11    7.45    0.21
   4  -2 -11   26.63    0.51
  -4   2  11   26.61    0.48
  -4   2  11   26.95    0.48
   3  -2 -11    2.90    0.12
  -3   2  11    2.99    0.12
  -3   2  11    3.16    0.12
   2  -2 -11   12.55    0.28
  -2   2  11   12.36    0.27
   1  -2 -11    3.34    0.13
  -1   2  11    3.10    0.12
   3  -3 -11    1.16    0.09
  -3   3  11    1.16    0.09
  -3   3  11    1.11    0.08
   2  -3 -11    1.99    0.11
  -2   3  11    2.16    0.11
   0   0   0    0.00    0.00
;
_shelx_hkl_checksum              61423
_olex2_submission_special_instructions 'No special instructions were received'
loop_
_space_group_symop_operation_xyz
'x, y, z'
'-x, -y, -z'
loop_
_atom_site_label
_atom_site_type_symbol
_atom_site_fract_x
_atom_site_fract_y
_atom_site_fract_z
_atom_site_U_iso_or_equiv
_atom_site_adp_type
_atom_site_occupancy
_atom_site_site_symmetry_order
_atom_site_calc_flag
_atom_site_refinement_flags_posn
_atom_site_refinement_flags_adp
_atom_site_refinement_flags_occupancy
_atom_site_disorder_assembly
_atom_site_disorder_group
O1 O 1.22449(13) 1.08604(10) 0.32308(8) 0.01431(18) Uani 1 1 d . . . . .
H1 H 1.3446 1.1820 0.3164 0.021 Uiso 1 1 calc GR . . . .
O2 O 0.99687(12) 0.74402(10) 0.50951(8) 0.01297(17) Uani 1 1 d . . . . .
H2 H 0.9465 0.8038 0.5683 0.019 Uiso 1 1 calc GR . . . .
O3 O 0.64184(13) 0.37519(10) 0.30711(8) 0.01469(18) Uani 1 1 d . . . . .
H3 H 0.7610 0.3762 0.3817 0.022 Uiso 1 1 calc GR . . . .
C1 C 0.61241(17) 0.56588(14) 0.31227(11) 0.0134(2) Uani 1 1 d . . . . .
H1A H 0.5233 0.5773 0.3877 0.016 Uiso 1 1 calc R . . . .
H1B H 0.5074 0.5761 0.2113 0.016 Uiso 1 1 calc R . . . .
C2 C 0.85747(17) 0.73828(13) 0.35416(10) 0.0106(2) Uani 1 1 d . . . . .
H2A H 0.8203 0.8650 0.3441 0.013 Uiso 1 1 calc R . . . .
C3 C 1.02175(17) 0.72445(13) 0.25489(10) 0.0101(2) Uani 1 1 d . . . . .
H3A H 1.0699 0.6038 0.2749 0.012 Uiso 1 1 calc R . . . .
C4 C 1.26492(17) 0.90209(13) 0.28784(11) 0.0108(2) Uani 1 1 d . . . . .
H4 H 1.4015 0.8835 0.3709 0.013 Uiso 1 1 calc R . . . .
C5 C 1.32016(19) 0.89849(14) 0.13652(11) 0.0143(2) Uani 1 1 d . . . . .
H5 H 1.4788 0.9624 0.1235 0.017 Uiso 1 1 calc R . . . .
C6 C 1.1180(2) 0.79435(15) 0.02398(11) 0.0164(2) Uani 1 1 d . . . . .
H6 H 1.1128 0.7797 -0.0803 0.020 Uiso 1 1 calc R . . . .
C7 C 0.89779(18) 0.70235(14) 0.08145(11) 0.0145(2) Uani 1 1 d . . . . .
H7A H 0.8116 0.5611 0.0368 0.017 Uiso 1 1 calc R . . . .
H7B H 0.7773 0.7748 0.0583 0.017 Uiso 1 1 calc R . . . .
loop_
_atom_site_aniso_label
_atom_site_aniso_U_11
_atom_site_aniso_U_22
_atom_site_aniso_U_33
_atom_site_aniso_U_23
_atom_site_aniso_U_13
_atom_site_aniso_U_12
O1 0.0141(3) 0.0069(3) 0.0224(4) -0.0004(3) 0.0098(3) 0.0008(3)
O2 0.0140(3) 0.0147(3) 0.0112(3) 0.0006(2) 0.0040(3) 0.0061(3)
O3 0.0118(3) 0.0084(3) 0.0204(4) 0.0023(3) 0.0015(3) 0.0014(3)
C1 0.0099(4) 0.0103(4) 0.0195(5) 0.0032(3) 0.0041(4) 0.0025(3)
C2 0.0098(4) 0.0088(4) 0.0127(4) 0.0019(3) 0.0032(3) 0.0026(3)
C3 0.0102(4) 0.0080(4) 0.0117(4) 0.0011(3) 0.0034(3) 0.0022(3)
C4 0.0107(4) 0.0084(4) 0.0137(4) 0.0010(3) 0.0051(3) 0.0027(3)
C5 0.0176(5) 0.0120(4) 0.0179(5) 0.0045(3) 0.0108(4) 0.0062(4)
C6 0.0250(5) 0.0144(5) 0.0132(4) 0.0037(3) 0.0086(4) 0.0085(4)
C7 0.0159(5) 0.0130(4) 0.0120(4) 0.0004(3) 0.0018(3) 0.0034(4)
loop_
_atom_type_symbol
_atom_type_description
_atom_type_scat_dispersion_real
_atom_type_scat_dispersion_imag
_atom_type_scat_source
C C 0.0033 0.0016 'International Tables Vol C Tables 4.2.6.8 and 6.1.1.4'
H H 0.0000 0.0000 'International Tables Vol C Tables 4.2.6.8 and 6.1.1.4'
O O 0.0106 0.0060 'International Tables Vol C Tables 4.2.6.8 and 6.1.1.4'
loop_
_geom_angle_atom_site_label_1
_geom_angle_atom_site_label_2
_geom_angle_atom_site_label_3
_geom_angle
_geom_angle_site_symmetry_1
_geom_angle_site_symmetry_3
_geom_angle_publ_flag
O3 C1 C2 113.77(7) . . ?
O2 C2 C1 109.75(7) . . ?
O2 C2 C3 107.44(7) . . ?
C3 C2 C1 113.29(8) . . ?
C2 C3 C4 114.84(8) . . ?
C2 C3 C7 115.32(8) . . ?
C4 C3 C7 104.83(7) . . ?
O1 C4 C3 110.88(7) . . ?
O1 C4 C5 109.37(7) . . ?
C5 C4 C3 102.14(7) . . ?
C6 C5 C4 111.27(9) . . ?
C5 C6 C7 112.00(9) . . ?
C6 C7 C3 102.23(8) . . ?
loop_
_geom_bond_atom_site_label_1
_geom_bond_atom_site_label_2
_geom_bond_distance
_geom_bond_site_symmetry_2
_geom_bond_publ_flag
O1 C4 1.4459(11) . ?
O2 C2 1.4372(11) . ?
O3 C1 1.4286(11) . ?
C1 C2 1.5230(12) . ?
C2 C3 1.5188(13) . ?
C3 C4 1.5407(12) . ?
C3 C7 1.5442(13) . ?
C4 C5 1.5115(13) . ?
C5 C6 1.3302(15) . ?
C6 C7 1.5081(14) . ?
