#------------------------------------------------------------------------------
#$Date: 2022-01-27 11:51:17 +0200 (Thu, 27 Jan 2022) $
#$Revision: 272277 $
#$URL: file:///home/coder/svn-repositories/cod/cif/4/03/89/4038968.cif $
#------------------------------------------------------------------------------
#
# This file is available in the Crystallography Open Database (COD),
# http://www.crystallography.net/
#
# All data on this site have been placed in the public domain by the
# contributors.
#
data_4038968
loop_
_publ_author_name
'Lamprecht, Zandria'
'Malan, Frederick P.'
'Liles, David C.'
'Lotz, Simon'
'Bezuidenhout, Daniela I.'
_publ_section_title
;
 Synthesis and structure of annulated
 dithieno[2,3-b;3&#x02B9;,2&#x02B9;-d]thienyl- and ring-opened
 3,3&#x02B9;-bithienyl Fischer carbene complexes
;
_journal_name_full               'Journal of Organometallic Chemistry'
_journal_page_first              121466
_journal_paper_doi               10.1016/j.jorganchem.2020.121466
_journal_volume                  925
_journal_year                    2020
_chemical_formula_sum            'C16 H8 Cr O6 S3'
_chemical_formula_weight         444.40
_space_group_crystal_system      triclinic
_space_group_IT_number           2
_space_group_name_Hall           '-P 1'
_space_group_name_H-M_alt        'P -1'
_atom_sites_solution_hydrogens   geom
_audit_creation_method           SHELXL-2018/3
_cell_angle_alpha                104.167(3)
_cell_angle_beta                 97.269(3)
_cell_angle_gamma                104.205(3)
_cell_formula_units_Z            2
_cell_length_a                   6.8382(7)
_cell_length_b                   9.8055(10)
_cell_length_c                   14.0893(13)
_cell_measurement_reflns_used    9036
_cell_measurement_temperature    150(2)
_cell_measurement_theta_max      27.23
_cell_measurement_theta_min      2.32
_cell_volume                     870.30(15)
_computing_structure_refinement  'SHELXL-2018/3 (Sheldrick, 2018)'
_computing_structure_solution    'SHELXT 2014/5 (Sheldrick, 2014)'
_diffrn_ambient_temperature      150(2)
_diffrn_measured_fraction_theta_full 0.994
_diffrn_measured_fraction_theta_max 0.994
_diffrn_measurement_device_type  'Bruker kappa, Photon 100 CMOS'
_diffrn_measurement_method       '\f and \w scans'
_diffrn_radiation_type           MoK\a
_diffrn_radiation_wavelength     0.71073
_diffrn_reflns_av_R_equivalents  0.0354
_diffrn_reflns_av_unetI/netI     0.0224
_diffrn_reflns_Laue_measured_fraction_full 0.994
_diffrn_reflns_Laue_measured_fraction_max 0.994
_diffrn_reflns_limit_h_max       8
_diffrn_reflns_limit_h_min       -8
_diffrn_reflns_limit_k_max       11
_diffrn_reflns_limit_k_min       -11
_diffrn_reflns_limit_l_max       16
_diffrn_reflns_limit_l_min       -16
_diffrn_reflns_number            20020
_diffrn_reflns_point_group_measured_fraction_full 0.994
_diffrn_reflns_point_group_measured_fraction_max 0.994
_diffrn_reflns_theta_full        24.712
_diffrn_reflns_theta_max         24.712
_diffrn_reflns_theta_min         2.236
_diffrn_source                   'I\ms micro focus'
_exptl_absorpt_coefficient_mu    1.048
_exptl_absorpt_correction_T_max  1.0000
_exptl_absorpt_correction_T_min  0.4421
_exptl_absorpt_correction_type   multi-scan
_exptl_absorpt_process_details   'SADABS (Bruker, 2015)'
_exptl_crystal_colour            red
_exptl_crystal_density_diffrn    1.696
_exptl_crystal_description       block
_exptl_crystal_F_000             448
_exptl_crystal_size_max          0.451
_exptl_crystal_size_mid          0.320
_exptl_crystal_size_min          0.240
_refine_diff_density_max         0.295
_refine_diff_density_min         -0.255
_refine_diff_density_rms         0.052
_refine_ls_extinction_coef       0.0060(11)
_refine_ls_extinction_expression Fc^*^=kFc[1+0.001xFc^2^\l^3^/sin(2\q)]^-1/4^
_refine_ls_extinction_method     'SHELXL-2018/3 (Sheldrick 2018)'
_refine_ls_goodness_of_fit_ref   1.047
_refine_ls_hydrogen_treatment    constr
_refine_ls_matrix_type           full
_refine_ls_number_parameters     237
_refine_ls_number_reflns         2957
_refine_ls_number_restraints     0
_refine_ls_restrained_S_all      1.047
_refine_ls_R_factor_all          0.0324
_refine_ls_R_factor_gt           0.0280
_refine_ls_shift/su_max          0.000
_refine_ls_shift/su_mean         0.000
_refine_ls_structure_factor_coef Fsqd
_refine_ls_weighting_details
'w=1/[\s^2^(Fo^2^)+(0.0269P)^2^+0.8754P] where P=(Fo^2^+2Fc^2^)/3'
_refine_ls_weighting_scheme      calc
_refine_ls_wR_factor_gt          0.0672
_refine_ls_wR_factor_ref         0.0692
_reflns_Friedel_coverage         0.000
_reflns_Friedel_fraction_full    .
_reflns_Friedel_fraction_max     .
_reflns_number_gt                2696
_reflns_number_total             2957
_reflns_threshold_expression     'I > 2\s(I)'
_cod_data_source_file            1111114.cif
_cod_data_source_block           PCOD1111114
_cod_depositor_comments
;
The following automatic conversions were performed:

data item '_exptl_absorpt_correction_type' value 'Multi-scan' was
changed to 'multi-scan' in accordance with the built-in table derived
from the CIF Core dictionary named 'cif_core.dic' version 2.4.5 last
updated on 2014-11-21.

Automatic conversion script
Id: cif_fix_values 8738 2021-04-28 16:35:53Z antanas 
;
_cod_database_code               4038968
_shelx_shelxl_version_number     2018/3
_shelx_space_group_comment
;
The symmetry employed for this shelxl refinement is uniquely defined
by the following loop, which should always be used as a source of
symmetry information in preference to the above space-group names.
They are only intended as comments.
;
_shelx_res_file
;
TITL mo_ZL321F4_1_0m_a.res in P-1
    mo_ZL321F4_1_0m_a.res
    created by SHELXL-2018/3 at 16:52:44 on 25-Jun-2019
REM Old TITL mo_ZL321F4_1_0m in P-1
REM SHELXT solution in P-1
REM R1 0.163,  Rweak 0.011,  Alpha 0.042,  Orientation as input
REM Formula found by SHELXT:  C16 O6 S4
CELL  0.71073   6.8382   9.8055  14.0893  104.167   97.269  104.205
ZERR    2.000   0.0007   0.0010   0.0013    0.003    0.003    0.003
LATT  1
SFAC C H O S W Cr
UNIT 32 16 12 6 0 2
TEMP -123.150
L.S. 10
BOND $H
CONF
ACTA
SHEL 99 0.85
LIST 6
FMAP 2
PLAN 20
WGHT    0.026900    0.875400
EXTI    0.005992
FVAR       0.71806
CR1   6    0.641206    0.719451    0.877125    11.00000    0.02876    0.02733 =
         0.01718    0.01003    0.00604    0.00940
S1    4    0.774135    0.517131    0.556724    11.00000    0.02990    0.02919 =
         0.02066    0.00977    0.00800    0.00995
S2    4    0.816020    0.630750    0.368974    11.00000    0.03432    0.03819 =
         0.01946    0.01135    0.00978    0.01212
S3    4    0.809016    0.921421    0.311407    11.00000    0.03219    0.04559 =
         0.02492    0.02042    0.00725    0.00842
O1    3    0.313106    0.465346    0.900906    11.00000    0.03894    0.05561 =
         0.05975    0.03569    0.01204    0.00450
O2    3    1.018188    0.684244    0.998405    11.00000    0.03730    0.03932 =
         0.03892    0.01079   -0.00346    0.01239
O3    3    0.545951    0.892346    1.066898    11.00000    0.06535    0.06346 =
         0.02666    0.01012    0.01816    0.03230
O4    3    0.942961    1.000419    0.870229    11.00000    0.05551    0.03100 =
         0.03463    0.01272    0.00680    0.00225
O5    3    0.276215    0.770514    0.759410    11.00000    0.04163    0.06850 =
         0.04675    0.03477    0.00714    0.02379
O6    3    0.734126    0.465370    0.731944    11.00000    0.04494    0.02801 =
         0.02193    0.01283    0.01065    0.01507
C1    1    0.443337    0.556045    0.891148    11.00000    0.03478    0.03885 =
         0.02636    0.01616    0.00553    0.01428
C2    1    0.873091    0.692065    0.953330    11.00000    0.03423    0.02427 =
         0.02170    0.00629    0.00632    0.00629
C3    1    0.584944    0.829141    0.995356    11.00000    0.03908    0.04051 =
         0.02503    0.01483    0.00716    0.01572
C4    1    0.828431    0.893946    0.869805    11.00000    0.04044    0.03086 =
         0.01635    0.00651    0.00377    0.01359
C5    1    0.417237    0.753101    0.802062    11.00000    0.03598    0.03580 =
         0.02475    0.01438    0.01026    0.01060
C6    1    0.701206    0.596976    0.749347    11.00000    0.02244    0.02847 =
         0.02308    0.01131    0.00291    0.00568
C7    1    0.724927    0.381803    0.804214    11.00000    0.10021    0.03338 =
         0.02429    0.01742    0.01595    0.02851
AFIX  23
H7A   2    0.590018    0.367909    0.824878    11.00000   -1.20000
H7B   2    0.834229    0.435342    0.864267    11.00000   -1.20000
AFIX   0
C8    1    0.753774    0.237586    0.757332    11.00000    0.04389    0.03153 =
         0.03636    0.01630    0.01753    0.01625
AFIX 137
H8A   2    0.646653    0.186178    0.697241    11.00000   -1.50000
H8B   2    0.744342    0.178812    0.804603    11.00000   -1.50000
H8C   2    0.889441    0.252211    0.739087    11.00000   -1.50000
AFIX   0
C9    1    0.718855    0.639296    0.657630    11.00000    0.02070    0.02770 =
         0.01828    0.00674    0.00472    0.00525
C10   1    0.701508    0.765815    0.634920    11.00000    0.01903    0.02963 =
         0.02117    0.01019    0.00312    0.00492
AFIX  43
H10   2    0.671444    0.843923    0.679853    11.00000   -1.20000
AFIX   0
C11   1    0.733218    0.766728    0.537789    11.00000    0.01772    0.02987 =
         0.01930    0.01002    0.00279    0.00491
C12   1    0.772631    0.638559    0.488323    11.00000    0.02142    0.03346 =
         0.01812    0.01083    0.00490    0.00474
C13   1    0.741496    0.866171    0.476820    11.00000    0.01650    0.03358 =
         0.02196    0.01236    0.00231    0.00422
C14   1    0.782321    0.804662    0.385333    11.00000    0.02246    0.03796 =
         0.02052    0.01402    0.00402    0.00803
C15   1    0.731897    1.013133    0.486948    11.00000    0.01876    0.03477 =
         0.02578    0.01243    0.00260    0.00631
AFIX  43
H15   2    0.706653    1.074031    0.544995    11.00000   -1.20000
AFIX   0
C16   1    0.762945    1.055046    0.404290    11.00000    0.02484    0.03714 =
         0.03427    0.01887    0.00153    0.00645
AFIX  43
H16   2    0.759805    1.148689    0.397768    11.00000   -1.20000
AFIX   0
HKLF 4
REM  mo_ZL321F4_1_0m_a.res in P-1
REM wR2 = 0.0692, GooF = S = 1.047, Restrained GooF = 1.047 for all data
REM R1 = 0.0280 for 2696 Fo > 4sig(Fo) and 0.0324 for all 2957 data
REM 237 parameters refined using 0 restraints
END
WGHT      0.0269      0.8758
REM Highest difference peak  0.295,  deepest hole -0.255,  1-sigma level  0.052
Q1    1   0.7266  0.4223  0.8646  11.00000  0.05    0.30
Q2    1   0.7486  0.7001  0.3596  11.00000  0.05    0.28
Q3    1   0.7625  0.5767  0.5137  11.00000  0.05    0.25
Q4    1   0.5295  0.7878  0.8568  11.00000  0.05    0.24
Q5    1   0.7571  1.0908  0.5364  11.00000  0.05    0.23
Q6    1   0.7494  0.7829  0.5946  11.00000  0.05    0.23
Q7    1   0.7365  0.5892  0.6143  11.00000  0.05    0.23
Q8    1   0.5607  0.5845  0.8622  11.00000  0.05    0.22
Q9    1   0.6822  0.6853  0.5028  11.00000  0.05    0.21
Q10   1   0.4968  0.3310  0.7821  11.00000  0.05    0.21
Q11   1   0.7483  0.9567  0.4963  11.00000  0.05    0.21
Q12   1   0.8212  0.7411  0.3769  11.00000  0.05    0.20
Q13   1   0.7738  0.7194  0.6599  11.00000  0.05    0.20
Q14   1   0.7576  0.6549  0.8866  11.00000  0.05    0.20
Q15   1   0.7888  0.5282  0.3353  11.00000  0.05    0.20
Q16   1   0.9505  0.4603  0.8453  11.00000  0.05    0.19
Q17   1   0.8642  0.4170  0.8163  11.00000  0.05    0.19
Q18   1   0.6492  0.6887  0.6407  11.00000  0.05    0.19
Q19   1   0.8224  0.7982  0.8712  11.00000  0.05    0.19
Q20   1   0.6744  0.8173  0.6609  11.00000  0.05    0.18
;
_shelx_res_checksum              81216
_shelx_hkl_file
;
  -1   0   0  253.07   10.40
  -1   0   0  271.07   11.40
  -1   0   0  282.27   10.70
  -1   0   0  267.97   10.50
   1   0   0  287.27   10.40
   1   0   0  282.27   10.60
   1   0   0  276.47   10.50
   1   0   0  277.77   10.50
  -2   0   0 9254.17  332.67
  -3   0   0   38.20    3.60
  -3   0   0   39.20    3.30
  -3   0   0   40.80    3.80
  -3   0   0   32.90    5.90
   3   0   0   38.10    3.00
   3   0   0   39.80    4.90
   3   0   0   43.90    3.30
  -4   0   0  606.54   25.30
  -4   0   0  627.74   25.00
  -4   0   0  639.14   25.70
  -4   0   0  591.14   29.20
  -4   0   0  609.14   25.60
   4   0   0  570.14   23.90
   4   0   0  597.54   24.40
   4   0   0  617.34   26.90
   4   0   0  653.23   23.90
  -5   0   0  289.17   14.60
  -5   0   0  291.27   14.50
  -5   0   0  260.17   13.80
   5   0   0  283.47   13.30
   5   0   0  295.67   15.10
   5   0   0  286.17   15.90
   5   0   0  309.57   12.80
  -6   0   0   -0.20    2.80
  -6   0   0    4.50    2.80
  -6   0   0    1.90    3.30
   6   0   0    4.50    2.20
   6   0   0    2.30    2.40
   6   0   0   10.20    4.60
   6   0   0    6.40    2.30
  -7   0   0   28.40    6.70
  -7   0   0   28.40    6.70
  -7   0   0   35.70    6.40
   7   0   0   19.20    4.50
   7   0   0   29.70    5.40
   7   0   0   36.80    5.90
  -8   0   0    2.50    5.10
  -8   0   0    5.50    4.60
   8   0   0    4.50    6.20
   8   0   0   -4.30    4.00
   8  -1   0   25.60    7.40
   8  -1   0   32.70    5.20
   8  -1   0   28.10    5.00
   8  -1   0   28.70    5.20
  -8   1   0   29.90    6.70
  -8   1   0   37.40    9.10
  -8   1   0   28.40    6.10
   7  -1   0   32.80    7.30
   7  -1   0   32.80    6.10
   7  -1   0   32.20    4.80
   7  -1   0   35.70    5.90
  -7   1   0   25.90    5.40
  -7   1   0   31.90    5.60
  -7   1   0   37.00    6.10
   6  -1   0   93.09    5.80
   6  -1   0   80.89    9.00
   6  -1   0   82.29    6.20
  -6   1   0   81.99    7.40
  -6   1   0   68.09    6.80
  -6   1   0   75.29    7.40
   5  -1   0  292.37   15.90
   5  -1   0  287.57   13.10
  -5   1   0  285.07   14.20
  -5   1   0  310.87   14.10
  -5   1   0  227.18   20.40
  -5   1   0  286.57   14.30
   4  -1   0  158.98    7.70
   4  -1   0  149.09    7.80
   4  -1   0  143.19    7.20
  -4   1   0  149.19    8.30
  -4   1   0  151.28    8.40
  -4   1   0  159.28   13.20
  -4   1   0  146.69    7.90
  -4   1   0  153.68    8.80
   3  -1   0  231.78   12.50
   3  -1   0  210.78   10.20
   3  -1   0  220.28   10.20
   3  -1   0  221.28    9.30
  -3   1   0  223.98   10.40
  -3   1   0  186.58   11.40
  -3   1   0  228.58   10.10
  -3   1   0  226.68   14.00
   2  -1   0  262.67   12.80
   2  -1   0  245.48   10.20
   2  -1   0  255.47   10.20
   2  -1   0  258.37    9.80
  -2   1   0  227.58   13.40
  -2   1   0  248.38   10.20
  -2   1   0  253.77   10.50
  -2   1   0  255.27   10.00
  -2   1   0  246.38   10.40
  -1   1   0 6050.29  218.08
   0  -1   0  677.23   23.30
   0  -1   0  609.44   23.30
   0   1   0  624.64   23.60
   0   1   0  603.74   23.10
   0   1   0  628.54   23.60
  -1  -1   0 2942.01  113.79
  -1  -1   0 3193.48  114.49
  -1  -1   0 3346.97  113.79
   1   1   0 3348.36  113.79
   1   1   0 3074.89  113.79
   1   1   0 3227.38  114.09
   1   1   0 3004.60  114.19
  -2  -1   0 1010.50   38.00
  -2  -1   0  994.70   38.40
  -2  -1   0 1046.30   38.20
  -2  -1   0 1049.49   38.40
   2   1   0 1000.50   39.00
   2   1   0 1016.70   38.00
   2   1   0 1040.70   38.20
   2   1   0  998.30   37.70
   2   1   0  997.00   37.90
  -3  -1   0   62.99    4.50
  -3  -1   0   60.29    4.80
  -3  -1   0   58.79    4.80
  -3  -1   0   62.09    4.80
  -3  -1   0   63.39    6.50
   3   1   0   66.59    4.50
   3   1   0   66.69    4.50
   3   1   0   63.59    4.70
   3   1   0   58.69    4.10
   3   1   0   65.69    5.50
   3   1   0   61.09    5.20
  -4  -1   0    5.90    4.60
  -4  -1   0    7.50    2.40
  -4  -1   0   11.10    2.90
  -4  -1   0    9.00    2.20
   4   1   0    8.20    2.20
   4   1   0   11.40    2.70
   4   1   0   12.80    3.00
   4   1   0   13.00    3.00
   4   1   0   10.60    3.30
   4   1   0    8.50    2.40
  -5  -1   0  297.37   14.60
  -5  -1   0  279.97   14.50
  -5  -1   0  278.37   14.70
   5   1   0  289.47   15.30
   5   1   0  284.97   13.60
   5   1   0  300.47   16.10
  -6  -1   0   95.69    8.50
  -6  -1   0  100.89    8.40
  -6  -1   0   94.99    8.10
   6   1   0  102.29    6.70
   6   1   0   92.29    7.50
   6   1   0   91.79    8.80
   6   1   0  105.59    8.30
   6   1   0   99.79    7.40
  -7  -1   0    1.80    3.70
  -7  -1   0    3.60    6.40
  -7  -1   0   -3.60    4.30
   7   1   0    1.70    3.20
   7   1   0    6.00    4.00
   7   1   0   10.10    4.70
   7   1   0    8.10    3.20
  -8  -1   0   13.10    5.60
  -8  -1   0    7.10    5.20
  -8  -1   0    5.90    6.40
   8   1   0    4.50    5.40
   8   1   0   -1.10    4.30
   8   1   0    7.00    3.70
   8  -2   0   14.30    4.20
   8  -2   0   12.60    6.50
   8  -2   0   16.50    3.80
  -8   2   0   10.10    4.80
  -8   2   0   16.20    4.90
   7  -2   0   -0.70    2.40
   7  -2   0    2.00    4.70
   7  -2   0    1.10    2.30
  -7   2   0    6.10    3.70
  -7   2   0   -6.00    3.00
  -7   2   0    1.50    3.20
   6  -2   0   86.69    6.20
   6  -2   0   90.79    9.70
   6  -2   0   82.59    5.60
  -6   2   0   74.49    6.80
  -6   2   0   77.59    7.40
  -6   2   0   85.09    7.10
   5  -2   0  162.88    8.40
   5  -2   0  165.78   11.00
  -5   2   0  162.68    9.30
  -5   2   0  157.88    9.00
  -5   2   0  151.78    9.60
  -5   2   0  165.98    8.30
  -5   2   0  141.59   18.00
   4  -2   0  137.29    6.90
   4  -2   0  126.09    6.20
   4  -2   0  133.59    7.00
   4  -2   0  134.49    9.00
  -4   2   0  122.39    7.30
  -4   2   0  138.49    8.20
  -4   2   0  119.29    7.00
  -4   2   0  138.89    6.70
  -4   2   0  137.79    7.50
   3  -2   0  284.37   12.00
   3  -2   0  281.67   15.80
   3  -2   0  268.47   12.40
   3  -2   0  296.77   14.00
  -3   2   0  318.07   12.00
  -3   2   0  248.78   12.60
  -3   2   0  311.97   12.80
  -3   2   0  253.17   17.50
   2  -2   0   83.59    4.10
   2  -2   0   81.59    4.00
   2  -2   0   81.29    4.10
   2  -2   0   80.69    7.60
   2  -2   0   88.39    3.90
  -2   2   0   74.79    3.80
  -2   2   0   81.79    4.20
  -2   2   0   85.39    4.50
  -2   2   0   84.19    4.20
  -2   2   0   69.89    5.60
   1  -2   0   81.89    4.10
   1  -2   0   83.39    5.00
   1  -2   0   87.69    4.00
   1  -2   0   95.69    3.70
   1  -2   0   89.99    4.20
  -1   2   0   84.69    3.80
  -1   2   0   79.99    4.50
  -1   2   0   73.79    4.60
  -1   2   0   86.79    4.30
  -1   2   0   86.29    3.90
  -1   2   0   83.19    4.60
   0  -2   0  131.89    5.10
   0  -2   0  137.39    6.00
   0  -2   0  123.99    6.00
   0  -2   0  131.99    6.70
   0  -2   0  138.59    6.50
   0  -2   0  133.39    6.30
   0   2   0  113.19    6.50
   0   2   0  128.39    6.10
   0   2   0  133.69    7.20
   0   2   0  137.09    6.20
   0   2   0  133.39    5.90
  -1  -2   0 1098.89   46.20
  -1  -2   0 1240.88   46.50
  -1  -2   0 1249.57   47.50
  -1  -2   0 1251.07   46.70
  -1  -2   0 1230.78   47.80
  -1  -2   0 1247.28   45.70
  -1  -2   0 1346.67   46.80
   1   2   0 1283.77   46.70
   1   2   0 1247.18   47.10
   1   2   0 1276.27   46.40
   1   2   0 1244.48   45.60
   1   2   0 1210.28   46.40
   1   2   0 1376.26   46.70
  -2  -2   0  138.09    7.40
  -2  -2   0  128.69    7.90
  -2  -2   0  133.49    7.40
  -2  -2   0  136.49    7.30
  -2  -2   0  134.39    6.80
   2   2   0  138.19    6.50
   2   2   0  124.39    7.60
   2   2   0  146.59    7.20
   2   2   0  143.29    7.10
   2   2   0  136.59    7.10
   2   2   0  129.29    7.70
  -3  -2   0  973.30   37.80
  -3  -2   0  938.31   37.60
  -3  -2   0  949.71   39.60
   3   2   0  958.80   37.30
   3   2   0  984.50   37.00
   3   2   0  993.20   39.00
   3   2   0  971.90   38.70
   3   2   0  991.90   37.70
   3   2   0  999.60   37.60
  -4  -2   0  729.63   31.00
  -4  -2   0  782.82   31.90
  -4  -2   0  773.32   31.40
   4   2   0  747.83   32.10
   4   2   0  802.02   31.10
   4   2   0  777.52   32.20
   4   2   0  742.53   30.10
   4   2   0  775.72   30.50
  -5  -2   0   38.10    5.80
  -5  -2   0   39.00    5.50
  -5  -2   0   40.30    5.50
   5   2   0   32.20    5.50
   5   2   0   30.80    4.60
   5   2   0   25.60    4.70
   5   2   0   39.70    6.00
   5   2   0   40.20    3.80
  -6  -2   0   14.20    4.60
  -6  -2   0   12.20    4.10
  -6  -2   0   14.30    3.60
   6   2   0   12.40    3.90
   6   2   0   23.90    4.30
   6   2   0   13.50    3.60
   6   2   0   18.00    4.80
  -7  -2   0    0.10    3.90
  -7  -2   0    1.30    4.50
  -7  -2   0    8.80    5.20
   7   2   0    4.70    5.70
   7   2   0   -2.70    4.00
   7   2   0    4.60    3.30
   8  -3   0   20.90    6.60
   8  -3   0   12.70    3.50
   8  -3   0   11.30    3.90
  -8   3   0   14.80    5.40
  -8   3   0   15.50    5.80
  -8   3   0   13.40    5.60
   7  -3   0   56.49    5.40
   7  -3   0   53.39    5.60
  -7   3   0   50.29    7.40
  -7   3   0   43.20    6.10
  -7   3   0   53.69    7.00
   6  -3   0  217.08   10.50
   6  -3   0  225.38   11.00
   6  -3   0  204.88   13.50
  -6   3   0  219.78   12.80
  -6   3   0  231.98   12.40
  -6   3   0  212.78   11.80
   5  -3   0  127.19    6.80
   5  -3   0  115.59    9.20
   5  -3   0  135.19   12.80
  -5   3   0  117.09    7.80
  -5   3   0  134.59    7.10
  -5   3   0  124.19    7.70
  -5   3   0  108.79    7.30
  -5   3   0  102.89   17.40
   4  -3   0 1598.04   61.29
   4  -3   0 1771.52   67.99
   4  -3   0 1802.52   64.19
   4  -3   0 1670.03   61.99
   4  -3   0 1642.14   62.09
  -4   3   0 1717.73   63.29
  -4   3   0 1597.24   62.19
  -4   3   0 1613.14   69.89
  -4   3   0 1610.04   62.69
  -4   3   0 1801.92   62.29
   3  -3   0   27.10    2.60
   3  -3   0   27.90    2.60
   3  -3   0   37.60    7.30
   3  -3   0   26.20    2.40
   3  -3   0   32.50    3.50
   3  -3   0   30.20    2.50
  -3   3   0   21.20    5.20
  -3   3   0   25.00    2.60
  -3   3   0   21.00    4.30
  -3   3   0   28.00    2.30
  -3   3   0   26.90    2.60
  -3   3   0   25.00    3.40
   2  -3   0 2523.85   85.09
   2  -3   0 2300.37   84.69
   2  -3   0 2416.96   88.59
   2  -3   0 2248.48   84.69
   2  -3   0 2320.87   84.19
  -2   3   0 2358.76   85.09
  -2   3   0 2338.67   84.49
  -2   3   0 2299.97   84.19
  -2   3   0 2327.87   85.39
  -2   3   0 2154.18   85.09
  -2   3   0 2423.96   86.79
   1  -3   0 1932.61   70.59
   1  -3   0 1984.90   71.09
   1  -3   0 1903.21   70.99
   1  -3   0 2006.00   70.99
   1  -3   0 1925.61   70.89
  -1   3   0 1898.91   70.69
  -1   3   0 1971.70   71.09
  -1   3   0 1951.40   70.99
  -1   3   0 1965.10   71.59
  -1   3   0 1880.61   70.39
   0  -3   0   97.09    4.00
   0  -3   0   96.89    5.30
   0  -3   0   92.79    5.70
   0  -3   0   94.59    5.10
   0  -3   0  100.99    5.60
   0  -3   0   99.39    6.10
   0  -3   0   86.89    5.40
   0   3   0   95.49    5.40
   0   3   0   93.19    5.40
   0   3   0  102.79    5.20
   0   3   0  102.59    6.30
   0   3   0   96.39    5.40
  -1  -3   0   24.90    2.10
  -1  -3   0   23.20    3.10
  -1  -3   0   20.00    3.60
  -1  -3   0   26.10    3.00
  -1  -3   0   27.60    3.60
  -1  -3   0   21.60    3.10
   1   3   0   20.80    2.70
   1   3   0   25.10    3.20
   1   3   0   24.40    1.30
   1   3   0   24.70    3.00
   1   3   0   23.40    2.90
   1   3   0   28.80    3.20
  -2  -3   0  190.08   10.00
  -2  -3   0  191.48    9.00
  -2  -3   0  192.18   10.50
  -2  -3   0  192.88   11.60
  -2  -3   0  195.18    9.80
  -2  -3   0  182.88   11.10
  -2  -3   0  188.28    9.60
   2   3   0  190.68    9.50
   2   3   0  193.18   10.30
   2   3   0  182.08    9.50
   2   3   0  190.78    9.90
   2   3   0  199.68    8.70
   2   3   0  189.48    9.70
  -3  -3   0  413.96   18.90
  -3  -3   0  436.66   21.90
  -3  -3   0  417.96   18.70
  -3  -3   0  419.46   18.50
   3   3   0  423.66   18.70
   3   3   0  449.76   19.80
   3   3   0  436.36   16.70
   3   3   0  437.96   17.80
   3   3   0  424.66   18.50
   3   3   0  429.96   19.50
  -4  -3   0   38.20    5.10
  -4  -3   0   38.30    4.90
  -4  -3   0   33.40    4.80
   4   3   0   33.30    5.20
   4   3   0   37.30    3.30
   4   3   0   39.30    5.10
   4   3   0   40.70    5.30
   4   3   0   39.30    4.20
  -5  -3   0   17.80    4.10
  -5  -3   0   10.80    2.90
  -5  -3   0   16.70    3.70
   5   3   0   10.60    3.50
   5   3   0   12.60    3.60
   5   3   0   10.20    2.80
   6   3   0   30.90    6.40
   6   3   0   30.30    5.20
  -7  -3   0   47.80    9.20
  -7  -3   0   54.09    8.70
  -7  -3   0   57.19    9.30
   7   3   0   73.09    8.30
   7   3   0   59.69   10.40
   8  -4   0   56.29    6.70
   8  -4   0   66.59    7.00
  -8   4   0   69.29    9.10
  -8   4   0   51.59    9.90
  -8   4   0   78.79    8.90
   7  -4   0    3.90    2.40
   7  -4   0   -7.50   10.40
   7  -4   0   -0.80    2.50
  -7   4   0    1.30    3.70
  -7   4   0    8.70    4.20
  -7   4   0   -5.90    3.00
   6  -4   0   49.30    5.90
   6  -4   0   47.80    9.20
   6  -4   0   46.10    4.50
   6  -4   0   59.39    4.60
  -6   4   0   33.50    5.00
  -6   4   0   47.60    5.40
  -6   4   0   34.20    5.10
   5  -4   0  487.95   20.60
   5  -4   0  485.35   26.00
   5  -4   0  483.55   19.60
  -5   4   0  480.75   20.80
  -5   4   0  469.65   20.20
  -5   4   0  486.85   27.90
   4  -4   0   76.29    4.60
   4  -4   0   76.39    4.80
   4  -4   0   77.49   11.00
   4  -4   0   82.69    5.40
  -4   4   0   69.29    9.90
  -4   4   0   83.49    4.70
  -4   4   0   74.69    5.90
  -4   4   0   64.69    4.80
  -4   4   0   77.39    5.30
  -4   4   0   76.49    8.20
   3  -4   0 2018.80   80.29
   3  -4   0 2008.50   72.89
   3  -4   0 1999.70   73.59
   3  -4   0 2193.38   73.89
   3  -4   0 2015.80   73.49
  -3   4   0 1926.91   72.79
  -3   4   0 1928.41   77.19
  -3   4   0 2046.00   74.09
  -3   4   0 2024.50   73.89
  -3   4   0 1917.61   75.79
  -3   4   0 1903.41   73.29
  -3   4   0 2093.89   74.69
   2  -4   0  120.09    6.30
   2  -4   0  110.69    7.80
   2  -4   0  115.59    6.70
   2  -4   0  115.89    4.90
   2  -4   0  115.69    6.00
  -2   4   0  110.79    5.60
  -2   4   0  119.29    7.00
  -2   4   0  106.99    5.50
  -2   4   0  112.39    5.40
  -2   4   0  112.69    6.40
  -2   4   0  107.59    6.70
  -2   4   0  111.39    6.70
   1  -4   0   55.19    4.30
   1  -4   0   51.89    4.20
   1  -4   0   49.99    4.10
   1  -4   0   53.09    4.00
   1  -4   0   49.40    2.60
   1  -4   0   51.99    3.80
  -1   4   0   45.40    4.10
  -1   4   0   53.69    3.90
  -1   4   0   56.79    4.80
  -1   4   0   53.59    4.30
  -1   4   0   53.59    3.70
   0  -4   0  462.75   19.10
   0  -4   0  487.75   22.10
   0  -4   0  459.65   17.30
   0  -4   0  457.85   19.40
   0  -4   0  473.35   20.50
   0   4   0  466.55   19.30
   0   4   0  459.55   19.50
   0   4   0  460.15   20.80
  -1  -4   0  574.04   23.60
  -1  -4   0  588.24   23.50
  -1  -4   0  575.84   23.80
  -1  -4   0  562.24   21.90
  -1  -4   0  542.15   24.90
  -1  -4   0  581.04   25.10
   1   4   0  544.55   23.20
   1   4   0  572.34   23.80
   1   4   0  589.84   25.50
   1   4   0  579.24   23.60
   1   4   0  573.34   23.40
   1   4   0  555.14   20.70
   1   4   0  596.94   23.40
  -2  -4   0   14.60    2.60
  -2  -4   0    8.70    3.20
  -2  -4   0   17.30    2.70
  -2  -4   0   11.10    2.80
  -2  -4   0   13.50    3.80
  -2  -4   0   10.50    3.10
   2   4   0   15.00    1.50
   2   4   0   13.60    3.10
   2   4   0   14.80    3.00
   2   4   0   11.20    2.20
   2   4   0   17.60    3.30
  -3  -4   0  229.78   12.60
  -3  -4   0  205.58   11.60
  -3  -4   0  239.58   12.40
  -3  -4   0  225.28   12.00
  -3  -4   0  232.68   15.00
   3   4   0  232.88   12.60
   3   4   0  254.47   12.80
   3   4   0  246.78    9.80
   3   4   0  219.38   12.00
   3   4   0  235.78   10.90
   3   4   0  232.38   12.20
  -4  -4   0   40.10    5.10
  -4  -4   0   33.80    5.20
  -4  -4   0   39.30    5.40
   4   4   0   26.90    3.50
   4   4   0   39.50    5.80
   4   4   0   33.50    4.50
  -5  -4   0   52.39    6.50
  -5  -4   0   53.89    6.30
  -5  -4   0   42.30    7.00
   5   4   0   48.70    7.20
   5   4   0   43.70    4.50
  -6  -4   0  128.69   16.80
  -6  -4   0   88.19    8.90
  -6  -4   0   93.39    9.10
  -6  -4   0  100.59   10.70
   6   4   0  104.89   10.70
   6   4   0   79.19    7.10
   6   4   0   90.69    9.10
  -7  -4   0   45.90    7.60
  -7  -4   0   35.40    7.50
  -7  -4   0   45.80    7.00
   7   4   0   43.00    8.40
   7   4   0   44.40    6.80
   8  -5   0  146.99    9.40
   8  -5   0  141.89    9.40
  -8   5   0  161.68   11.60
  -8   5   0  151.98   11.40
  -8   5   0  189.38   13.70
   7  -5   0  226.88   26.70
   7  -5   0  226.48   11.80
  -7   5   0  236.68   19.00
  -7   5   0  232.98   13.20
  -7   5   0  262.47   14.50
   6  -5   0    6.60    7.60
   6  -5   0   -1.60    2.30
   6  -5   0    0.20    1.60
   6  -5   0    0.40    1.70
  -6   5   0   -0.30    2.40
  -6   5   0   -0.70    2.10
   5  -5   0  784.62   31.10
   5  -5   0  756.32   30.30
   5  -5   0  800.32   30.90
   5  -5   0  798.02   38.40
  -5   5   0  766.42   35.90
  -5   5   0  766.32   34.00
  -5   5   0  790.52   31.50
  -5   5   0  838.52   31.00
   4  -5   0  568.94   22.70
   4  -5   0  558.34   21.80
   4  -5   0  602.54   22.90
   4  -5   0  539.95   30.10
  -4   5   0  561.04   26.80
  -4   5   0  578.54   22.70
  -4   5   0  564.14   23.50
  -4   5   0  554.64   22.00
  -4   5   0  534.35   25.50
  -4   5   0  563.84   23.40
   3  -5   0   40.00    4.20
   3  -5   0   52.39    3.00
   3  -5   0   49.90    8.10
   3  -5   0   50.09    4.30
   3  -5   0   47.10    3.60
  -3   5   0   43.00    5.50
  -3   5   0   48.80    3.50
  -3   5   0   47.70    3.10
  -3   5   0   43.20    4.20
  -3   5   0   55.99    5.40
  -3   5   0   45.90    6.40
  -3   5   0   48.10    4.70
   2  -5   0  117.79    7.90
   2  -5   0  107.09    5.20
   2  -5   0  108.29    6.20
   2  -5   0  112.79    4.60
   2  -5   0  112.39    6.50
   2  -5   0  110.39    6.80
  -2   5   0  114.39    6.90
  -2   5   0  105.99    7.00
  -2   5   0  104.69    7.20
  -2   5   0  111.19    7.70
  -2   5   0  112.69    5.30
  -2   5   0  104.89    5.60
   1  -5   0   12.70    2.60
   1  -5   0   14.90    2.50
   1  -5   0   11.50    1.40
   1  -5   0   11.40    2.90
   1  -5   0    9.80    2.40
   1  -5   0   13.20    2.50
  -1   5   0   12.20    2.90
  -1   5   0   12.70    3.30
  -1   5   0   11.60    2.60
  -1   5   0   12.50    2.10
  -1   5   0    8.90    2.00
   0  -5   0  339.57   15.60
   0  -5   0  331.47   15.00
   0  -5   0  340.57   13.10
   0  -5   0  350.36   15.60
   0  -5   0  330.67   15.10
   0  -5   0  347.27   16.90
   0  -5   0  332.47   16.40
   0   5   0  340.87   17.30
   0   5   0  334.57   15.20
   0   5   0  352.26   15.50
   0   5   0  354.16   15.90
   0   5   0  344.47   14.90
  -1  -5   0   91.99    5.20
  -1  -5   0   93.19    6.10
  -1  -5   0   96.49    7.60
  -1  -5   0   93.29    7.10
  -1  -5   0  100.89    7.30
  -1  -5   0   85.09    7.90
   1   5   0   96.19    6.50
   1   5   0  106.19    9.00
   1   5   0  103.39    6.90
   1   5   0   92.49    6.70
   1   5   0   93.89    6.30
   1   5   0   95.39    7.10
  -2  -5   0   79.69    6.60
  -2  -5   0   69.99    5.30
  -2  -5   0   62.19    5.40
  -2  -5   0   84.59    7.70
   2   5   0   71.29    6.70
   2   5   0   66.39    6.30
   2   5   0   74.79    6.10
   2   5   0   78.29    6.10
   2   5   0   75.89    3.70
  -3  -5   0   12.90    4.80
  -3  -5   0   11.60    3.20
  -3  -5   0   13.00    2.90
   3   5   0    9.90    2.90
   3   5   0   13.90    2.40
   3   5   0   10.00    2.80
  -4  -5   0    2.90    3.60
  -4  -5   0    3.00    3.20
  -4  -5   0    0.70    4.90
  -4  -5   0   -0.40    2.80
   4   5   0   -1.40    2.60
   4   5   0    3.00    1.50
   4   5   0    0.00    2.90
  -5  -5   0   -0.80    4.00
  -5  -5   0    3.30    3.40
  -5  -5   0   -3.60    6.30
   5   5   0   -1.70    2.00
   5   5   0    4.40    3.20
   5   5   0    1.50    4.60
  -6  -5   0   79.49   11.00
  -6  -5   0   72.29    9.20
  -6  -5   0   72.59    9.00
   6   5   0   76.89    6.50
   6   5   0   70.79    8.90
   6   5   0   79.09   10.80
   8  -6   0   94.69   24.90
   8  -6   0  129.99    9.10
   8  -6   0  124.09    8.30
  -8   6   0  114.89   10.00
  -8   6   0  102.69   12.80
  -8   6   0  128.69   10.30
   7  -6   0   64.59   13.50
   7  -6   0   38.40    6.90
   7  -6   0   42.50    4.70
  -7   6   0   40.60    6.20
  -7   6   0   46.00    6.00
   6  -6   0  129.99    7.40
   6  -6   0  112.49    6.80
  -6   6   0  125.99    8.20
  -6   6   0  121.59    7.40
   5  -6   0   72.49    5.10
   5  -6   0   67.69    4.40
   5  -6   0   66.69    5.20
   5  -6   0   68.59    5.60
   5  -6   0   50.99   11.60
  -5   6   0   71.49   10.30
  -5   6   0   65.59    9.60
  -5   6   0   65.19    7.40
  -5   6   0   73.49    5.40
  -5   6   0   65.69    4.80
   4  -6   0    1.30    1.10
   4  -6   0   -1.60    8.00
   4  -6   0   -0.60    2.00
   4  -6   0    1.40    1.40
   4  -6   0    2.10    1.40
  -4   6   0    1.10    1.20
  -4   6   0    1.30    1.40
  -4   6   0    0.60    2.60
  -4   6   0   -1.50    4.50
  -4   6   0    4.70    3.90
   3  -6   0   38.90    6.80
   3  -6   0   42.40    3.20
   3  -6   0   44.40    5.00
   3  -6   0   35.70    3.60
   3  -6   0   42.30    2.60
  -3   6   0   34.40    5.50
  -3   6   0   41.10    4.30
  -3   6   0   40.40    6.00
  -3   6   0   39.80    3.20
  -3   6   0   38.30    3.00
   2  -6   0  736.13   28.60
   2  -6   0  670.73   25.90
   2  -6   0  698.63   27.60
   2  -6   0  670.73   28.70
   2  -6   0  673.13   27.40
  -2   6   0  675.83   26.70
  -2   6   0  673.43   27.90
  -2   6   0  694.83   28.50
  -2   6   0  671.43   28.80
  -2   6   0  696.63   30.00
   1  -6   0   13.20    2.50
   1  -6   0   13.40    3.00
   1  -6   0   15.40    1.70
   1  -6   0   13.60    2.90
   1  -6   0   13.80    3.90
  -1   6   0   13.10    3.50
  -1   6   0   14.80    2.60
  -1   6   0   10.20    2.30
  -1   6   0   11.10    3.70
  -1   6   0   19.40    3.90
   0  -6   0   30.00    5.20
   0  -6   0   29.50    4.90
   0  -6   0   25.40    3.60
   0   6   0   26.50    3.50
   0   6   0   24.40    4.40
   0   6   0   27.10    5.70
   0   6   0   27.00    3.50
   0   6   0   32.10    4.60
  -1  -6   0  449.36   20.20
  -1  -6   0  435.46   17.60
  -1  -6   0  403.06   19.90
  -1  -6   0  428.66   21.60
  -1  -6   0  449.26   19.30
   1   6   0  449.95   19.40
   1   6   0  439.46   19.70
   1   6   0  436.86   20.30
   1   6   0  441.76   19.90
  -2  -6   0   93.99    7.70
  -2  -6   0   88.89    6.70
  -2  -6   0   81.09    6.30
  -2  -6   0   95.59    8.90
   2   6   0   94.39    7.20
   2   6   0   90.49    7.90
   2   6   0   90.79    7.50
  -3  -6   0   11.60    3.40
  -3  -6   0   10.50    3.40
   3   6   0   12.90    3.60
   3   6   0   17.60    2.70
   3   6   0   10.80    3.40
  -4  -6   0  157.48   10.40
  -4  -6   0  167.68   11.60
  -4  -6   0  118.09   13.10
   4   6   0  141.89   10.90
   4   6   0  161.88   10.80
   4   6   0  161.18    7.80
  -5  -6   0   24.10    5.10
  -5  -6   0   27.20    9.10
  -5  -6   0   19.10    6.20
   5   6   0   19.60    4.80
   5   6   0   30.40    4.20
  -6  -6   0    1.80    5.80
  -6  -6   0   -0.70    4.90
  -6  -6   0   18.60    9.90
   6   6   0    4.40    4.80
   6   6   0    7.70    5.50
   8  -7   0   18.70    4.00
  -8   7   0    8.10    3.50
  -8   7   0    9.70    4.10
  -8   7   0   26.90    6.70
   7  -7   0   50.89    6.40
   7  -7   0   26.90   14.30
   7  -7   0   56.89    5.10
  -7   7   0   56.99    6.20
   6  -7   0   19.30    3.30
   6  -7   0   41.20    9.40
   6  -7   0   22.50    4.00
   6  -7   0   22.10    3.30
  -6   7   0   33.30    4.80
  -6   7   0   16.40    2.80
   5  -7   0   42.70    4.50
   5  -7   0   48.70    3.60
   5  -7   0   48.90    4.80
  -5   7   0   49.10    4.70
  -5   7   0   41.80    7.30
  -5   7   0   37.00    5.70
  -5   7   0   47.60    9.20
  -5   7   0   48.00    4.00
   4  -7   0  473.05   20.10
   4  -7   0  500.65   18.50
   4  -7   0  480.45   19.40
   4  -7   0  494.85   29.40
  -4   7   0  452.55   20.00
  -4   7   0  485.95   19.20
  -4   7   0  489.55   19.70
  -4   7   0  435.56   24.40
   3  -7   0  731.33   32.20
   3  -7   0  695.33   27.80
   3  -7   0  668.03   26.50
  -3   7   0  670.33   26.90
  -3   7   0  711.43   26.80
  -3   7   0  667.93   29.50
  -3   7   0  680.03   29.80
   2  -7   0  617.74   26.50
   2  -7   0  663.33   26.90
   2  -7   0  649.34   24.80
   2  -7   0  683.13   27.80
  -2   7   0  658.73   27.90
  -2   7   0  640.34   25.80
  -2   7   0  627.14   27.00
   1  -7   0  320.07   15.40
   1  -7   0  326.57   16.00
   1  -7   0  341.47   15.80
  -1   7   0  290.87   14.60
  -1   7   0  318.57   15.80
  -1   7   0  300.17   14.20
   0  -7   0   55.49    6.50
   0  -7   0   57.19    6.50
   0  -7   0   62.59    5.80
   0   7   0   48.00    5.10
   0   7   0   54.79    5.30
  -1  -7   0   25.50    3.90
  -1  -7   0   22.50    3.60
  -1  -7   0   37.50    5.90
  -1  -7   0   35.70    4.90
  -1  -7   0   23.30    4.40
   1   7   0   22.10    4.70
   1   7   0   25.00    4.00
   1   7   0   28.40    4.90
  -2  -7   0  364.46   20.20
  -2  -7   0  331.57   17.40
  -2  -7   0  319.77   15.40
  -2  -7   0  343.97   18.30
  -2  -7   0  343.87   16.50
   2   7   0  345.77   17.10
   2   7   0  337.07   16.90
  -3  -7   0  258.87   14.10
  -3  -7   0  293.97   18.80
  -3  -7   0  247.48   15.20
   3   7   0  255.67   14.80
   3   7   0  262.57   14.50
  -4  -7   0  120.39   11.70
  -4  -7   0   96.69   15.20
  -4  -7   0  113.19    9.20
   4   7   0  130.19   10.60
   4   7   0  123.49   13.60
  -5  -7   0   47.90    8.20
   5   7   0   54.39    9.90
   5   7   0   56.59    8.20
   7  -8   0   20.00    4.30
  -7   8   0   15.60    3.70
  -7   8   0   23.70    4.20
   6  -8   0   18.30    3.20
   6  -8   0   15.80    3.20
   6  -8   0   13.40    3.20
  -6   8   0   19.00    4.10
  -6   8   0   20.20    7.10
   5  -8   0  111.19    7.40
   5  -8   0  119.59   21.40
   5  -8   0  110.49    6.70
  -5   8   0  101.79    9.30
  -5   8   0  102.39    6.00
  -5   8   0  102.19    6.80
  -5   8   0   92.49   12.20
  -5   8   0   88.59   11.70
   4  -8   0  455.95   19.60
   4  -8   0  454.55   18.60
   4  -8   0  493.15   27.90
  -4   8   0  443.06   18.30
  -4   8   0  455.95   18.70
  -4   8   0  406.76   22.20
  -4   8   0  436.76   24.50
  -4   8   0  459.15   18.90
   3  -8   0  166.68    9.40
   3  -8   0  197.48   15.10
   3  -8   0  148.99    8.00
  -3   8   0  171.18   11.00
  -3   8   0  152.18    8.30
   2  -8   0 1158.88   42.00
   2  -8   0 1126.79   44.40
   2  -8   0 1138.79   44.40
  -2   8   0 1115.49   45.60
  -2   8   0 1073.49   44.60
  -2   8   0 1151.88   43.30
   1  -8   0   19.80    4.30
   1  -8   0   18.70    4.30
  -1   8   0   14.00    4.60
  -1   8   0   25.20    3.90
  -1   8   0   24.20    4.30
   0  -8   0  188.08   12.50
   0  -8   0  203.78   12.00
   0  -8   0  219.88   11.90
   0   8   0  195.88   11.20
   0   8   0  192.88   10.80
   0   8   0  192.38   12.60
  -1  -8   0   11.10    3.90
  -1  -8   0   14.20    3.30
  -1  -8   0   18.10    4.80
  -1  -8   0    8.40    2.50
   1   8   0    9.30    4.70
   1   8   0    8.80    2.90
   1   8   0   16.10    4.00
  -2  -8   0   15.60    4.90
  -2  -8   0   14.00    5.10
  -2  -8   0   19.50    5.60
  -2  -8   0   15.10    3.80
   2   8   0   12.50    3.90
   2   8   0   11.10    3.30
  -3  -8   0   77.19   11.20
  -3  -8   0   73.69   11.40
  -3  -8   0   96.89   10.60
  -3  -8   0   95.59    8.20
   3   8   0  102.89    8.50
   3   8   0  104.69    9.50
  -4  -8   0    4.40    6.00
  -4  -8   0   -4.10    6.20
  -4  -8   0    3.60    4.20
   4   8   0    3.30    4.30
   4   8   0   10.10    4.50
   7  -9   0  144.59    9.80
   7  -9   0  147.39   10.00
  -7   9   0  147.89   10.00
  -7   9   0  154.68    9.40
   6  -9   0    5.40    2.80
   6  -9   0    2.20    2.80
  -6   9   0    4.50    3.10
  -6   9   0    5.50    7.20
  -6   9   0    1.20    1.80
   5  -9   0   32.20   14.00
   5  -9   0   34.50    4.80
   5  -9   0   29.10    4.90
  -5   9   0   35.30    9.00
  -5   9   0   29.90    5.60
   4  -9   0   82.99    6.10
   4  -9   0  122.29   17.10
   4  -9   0   85.69    7.10
  -4   9   0   87.19    6.10
  -4   9   0   82.09   10.00
  -4   9   0   87.19    5.60
   3  -9   0  106.69    7.80
   3  -9   0  119.09   12.30
  -3   9   0  113.39   11.50
  -3   9   0   98.79    9.00
  -3   9   0  111.09    6.80
   2  -9   0  112.99    8.70
   2  -9   0  131.09   10.30
   2  -9   0  126.89    6.20
   2  -9   0  124.59    8.30
  -2   9   0  117.69    7.60
  -2   9   0  108.79   10.90
  -2   9   0  130.69    9.00
   1  -9   0   57.69    6.40
   1  -9   0   71.69    7.70
  -1   9   0   51.79    5.70
  -1   9   0   51.09    5.50
  -1   9   0   55.29    7.90
   0  -9   0   63.79    8.80
   0  -9   0   58.09    7.60
   0   9   0   55.29    6.00
   0   9   0   52.39    6.00
   0   9   0   50.29    7.80
  -1  -9   0    5.20    4.50
  -1  -9   0    6.00    4.90
   1   9   0   11.60    4.30
   1   9   0    8.60    3.30
  -2  -9   0    5.60    4.80
  -2  -9   0   10.40    3.80
  -2  -9   0   18.20    7.40
  -2  -9   0   14.20    5.10
   2   9   0   15.80    4.10
   2   9   0   12.00    4.20
  -3  -9   0    8.30    7.30
  -3  -9   0    0.00    6.20
  -3  -9   0   10.40    4.00
   3   9   0    8.80    4.30
   3   9   0   11.90    4.70
   6 -10   0  110.19    8.30
  -6  10   0   96.59   15.30
  -6  10   0  103.09    6.80
  -6  10   0  105.59    7.90
   5 -10   0  118.29    7.40
   4 -10   0   38.20   11.00
   4 -10   0   30.60    5.00
   4 -10   0   32.80    5.90
  -4  10   0   30.50    4.00
  -4  10   0   15.00    7.10
   3 -10   0    5.70    2.80
   3 -10   0    1.40    6.50
  -3  10   0    4.40    2.60
  -3  10   0   -1.50    3.90
   2 -10   0   11.10    3.70
   2 -10   0    9.40    4.00
   2 -10   0    4.00    4.90
  -2  10   0   19.00    4.40
  -2  10   0   11.10    3.60
   1 -10   0  171.28   16.70
   1 -10   0  170.48   11.50
   1 -10   0  195.58   12.80
  -1  10   0  141.69   13.40
  -1  10   0  142.99   12.10
   0 -10   0   20.70    5.50
   0 -10   0   10.10    4.60
   0  10   0   15.40    4.60
   0  10   0    9.60    4.00
  -1 -10   0  254.67   16.90
   1  10   0  254.47   14.70
   1  10   0  278.37   15.10
  -2 -10   0   13.00    5.90
  -2 -10   0   -4.50    6.30
  -2 -10   0   10.60    6.20
   2  10   0   -3.90    3.80
   2  10   0    2.80    4.70
   5 -11   0   27.60    4.30
   5 -11   0   21.90    4.40
  -5  11   0   23.00    3.50
  -5  11   0   23.60   11.00
  -5  11   0   32.30    5.50
   4 -11   0  139.09    9.80
  -4  11   0  142.19    8.00
  -4  11   0  128.59    8.30
  -4  11   0  126.99   15.80
   3 -11   0    5.20    7.70
   3 -11   0   -0.70    3.50
  -3  11   0    2.70    5.90
  -3  11   0   -1.10    2.50
   2 -11   0    7.50    4.40
   2 -11   0   10.00    6.40
  -2  11   0    8.70    4.70
  -2  11   0   11.00    3.40
   1 -11   0    7.80    4.40
   1 -11   0   10.70    4.90
  -1  11   0    9.30    4.20
  -1  11   0   15.20    4.20
   0 -11   0   87.49   10.00
   0 -11   0   63.19    9.80
   0  11   0   85.49    8.20
   0  11   0   77.89    7.80
  -1 -11   0   49.10   10.00
   1  11   0   54.59    7.80
   1  11   0   45.20    7.40
   4 -12   0    7.50    3.80
  -4  12   0    9.30    3.10
  -4  12   0    1.20    8.40
  -4  12   0   10.30    2.70
   3 -12   0   -1.00    3.40
  -3  12   0    7.80    7.10
  -3  12   0    2.60    2.80
   2 -12   0   -3.50    4.10
   2 -12   0   -3.10    3.50
  -2  12   0   -1.10    4.90
  -2  12   0   -0.30    2.80
   1 -12   0    4.90    4.60
  -1  12   0    4.50    4.40
  -1  12   0    8.50    3.40
  -1  12  -1   66.89    7.50
  -1  12  -1   56.59    8.80
   1 -12   1   42.90    7.50
   1 -12   1   76.89   10.20
  -2  12  -1   39.80    6.40
  -2  12  -1   30.10    7.00
   2 -12   1   37.00    7.00
   2 -12   1   39.30    6.30
  -3  12  -1   -7.30    6.50
  -3  12  -1    1.20    3.00
   3 -12   1    7.50    4.30
  -4  12  -1    1.60    2.40
  -4  12  -1    1.60    2.60
  -4  12  -1    5.30   10.20
   4 -12   1    0.30    3.50
   1  11  -1   17.60    4.40
   1  11  -1   22.80    4.70
  -1 -11   1   10.60    5.80
   0  11  -1   45.90    7.00
   0 -11   1   61.89   10.50
   0 -11   1   56.89    9.60
  -1  11  -1   12.40    4.90
  -1  11  -1    9.60    3.90
   1 -11   1   21.50    5.50
   1 -11   1   19.20    5.10
   1 -11   1   17.40    4.50
  -2  11  -1   -2.10    4.60
  -2  11  -1   -0.80    2.40
   2 -11   1   -0.80    3.00
   2 -11   1   -3.90    3.60
   2 -11   1   12.00    5.90
  -3  11  -1   30.60    8.50
  -3  11  -1   48.90    5.60
   3 -11   1   49.10    7.50
  -4  11  -1   66.89    6.10
  -4  11  -1   42.40   11.80
  -4  11  -1   59.89    5.50
   4 -11   1   59.09    6.00
   4 -11   1   71.49    7.50
  -5  11  -1    4.00    3.10
  -5  11  -1   -3.00    9.50
  -5  11  -1    0.30    2.20
   5 -11   1    1.40   17.60
   5 -11   1    9.00    3.30
   5 -11   1    8.40    3.50
  -6  11  -1   12.70    4.00
  -6  11  -1   13.80   10.30
  -6  11  -1   17.50    3.00
   6 -11   1    8.50    3.50
   6 -11   1    1.70    3.70
   3  10  -1    7.80    4.10
  -3 -10   1    8.30    4.60
   2  10  -1  177.38   12.50
   2  10  -1  171.48   11.30
  -2 -10   1  180.98   15.10
  -2 -10   1  154.48   14.70
  -2 -10   1  177.48   11.60
   1  10  -1   42.80    6.30
   1  10  -1   55.19    7.80
  -1 -10   1   66.09   10.90
   0  10  -1   67.39    7.40
   0  10  -1   61.39    7.40
   0 -10   1   72.89    9.50
   0 -10   1   68.09    8.40
  -1  10  -1   37.20    5.80
  -1  10  -1   38.60    5.80
   1 -10   1   24.60    5.80
   1 -10   1   36.00    5.90
   1 -10   1   31.80    5.30
  -2  10  -1   67.39    6.30
  -2  10  -1   73.59    8.50
   2 -10   1   78.89    8.10
   2 -10   1   87.49    9.90
   2 -10   1   70.49    6.70
  -3  10  -1  351.56   20.70
  -3  10  -1  385.86   17.40
   3 -10   1  410.46   21.90
   3 -10   1  355.96   15.90
   3 -10   1  387.46   18.30
  -4  10  -1   32.30    4.80
  -4  10  -1   30.30   10.20
  -4  10  -1   40.00    5.10
   4 -10   1   45.50   18.30
   4 -10   1   40.30    5.80
   4 -10   1   50.19    4.80
  -5  10  -1   28.70   10.10
  -5  10  -1   39.40    5.20
  -5  10  -1   24.70    3.90
   5 -10   1   35.30    5.50
  -6  10  -1   14.40    9.30
  -6  10  -1   14.50    3.10
  -6  10  -1   19.30    3.10
   6 -10   1   15.10    3.70
   4   9  -1    0.90    4.60
   4   9  -1    5.20    4.30
  -4  -9   1   -3.50    7.70
  -4  -9   1   -7.20    7.20
  -4  -9   1   -0.50    4.90
   3   9  -1  239.98   13.90
   3   9  -1  238.28   15.20
  -3  -9   1  252.37   17.20
  -3  -9   1  225.18   14.10
  -3  -9   1  260.57   16.50
  -3  -9   1  270.27   19.40
   2   9  -1  123.79    9.80
   2   9  -1  131.59   10.20
  -2  -9   1  161.88   13.20
  -2  -9   1  122.89    9.50
  -2  -9   1  144.59   12.10
   1   9  -1  197.58   11.90
   1   9  -1  218.58   12.60
  -1  -9   1  214.08   14.90
  -1  -9   1  220.28   13.90
  -1  -9   1  200.68   12.00
   0   9  -1   -0.20    2.30
   0   9  -1    2.30    2.50
   0  -9   1   10.50    4.70
   0  -9   1    4.10    3.30
   0  -9   1    2.80    3.30
  -1   9  -1   -0.50    1.90
  -1   9  -1    2.70    2.80
  -1   9  -1   -0.60    5.10
   1  -9   1    1.20    4.00
   1  -9   1   -3.90    2.70
  -2   9  -1  181.38    9.80
  -2   9  -1  172.88   13.00
  -2   9  -1  161.28   11.10
   2  -9   1  182.18   12.00
   2  -9   1  173.58    8.10
   2  -9   1  189.48   10.40
   2  -9   1  187.78   11.20
  -3   9  -1   28.00    6.40
  -3   9  -1   36.00    4.10
  -3   9  -1   23.00    6.70
   3  -9   1   38.60    5.20
   3  -9   1   39.70    6.80
   3  -9   1   48.50    3.80
  -4   9  -1  349.96   21.90
  -4   9  -1  385.86   24.20
  -4   9  -1  405.56   16.80
  -4   9  -1  404.36   17.50
   4  -9   1  429.56   16.80
   4  -9   1  389.96   18.10
   4  -9   1  461.25   27.70
  -5   9  -1    3.00    1.60
  -5   9  -1    1.00    7.20
   5  -9   1    0.90    1.60
   5  -9   1    3.80    2.00
   5  -9   1    3.70    2.50
   5  -9   1   25.90   11.90
  -6   9  -1   12.70    3.30
  -6   9  -1   18.40    7.70
  -6   9  -1    9.80    2.50
   6  -9   1   14.10    3.30
   6  -9   1   11.90    2.30
   6  -9   1   33.80   14.40
   6  -9   1   15.90    3.20
  -7   9  -1   -2.00    2.80
  -7   9  -1   -1.30    3.00
   7  -9   1    0.20    2.20
   7  -9   1    0.90    3.00
   4   8  -1   12.30    4.20
   4   8  -1   22.90    6.00
  -4  -8   1   19.30    4.90
  -4  -8   1   20.30    8.90
  -4  -8   1   21.30    6.70
   3   8  -1    9.30    4.40
   3   8  -1   17.80    4.00
  -3  -8   1    8.30    3.90
  -3  -8   1   -2.20    6.60
  -3  -8   1    3.70    4.40
   2   8  -1   41.30    5.80
   2   8  -1   41.20    6.30
  -2  -8   1   52.89    7.50
  -2  -8   1   41.20    5.80
  -2  -8   1   61.59    9.10
  -2  -8   1   59.89    8.50
   1   8  -1  211.58   12.20
   1   8  -1  204.58   12.00
  -1  -8   1  208.88   13.00
  -1  -8   1  214.28   12.10
  -1  -8   1  231.58   14.50
  -1  -8   1  239.48   13.30
   0   8  -1    1.10    2.30
   0   8  -1   -0.60    3.70
   0  -8   1    0.00    2.80
   0  -8   1   -2.10    3.20
  -1   8  -1   14.00    3.10
  -1   8  -1    8.90    4.50
  -1   8  -1   14.50    3.20
   1  -8   1   10.50    3.60
   1  -8   1   14.30    3.40
  -2   8  -1   13.60    5.20
  -2   8  -1   12.70    2.40
  -2   8  -1   14.20    3.70
   2  -8   1   13.30    2.10
   2  -8   1   20.30    3.40
   2  -8   1   18.20    3.60
   2  -8   1   18.30    4.20
  -3   8  -1   65.69    9.40
  -3   8  -1   53.99    8.50
  -3   8  -1   66.19    5.00
   3  -8   1   64.29    4.30
   3  -8   1   67.49    9.70
   3  -8   1   70.39    5.70
  -4   8  -1  250.27   18.50
  -4   8  -1  267.47   12.50
  -4   8  -1  269.07   11.80
  -4   8  -1  240.48   16.40
  -4   8  -1  267.17   13.30
   4  -8   1  291.17   22.80
   4  -8   1  281.47   13.10
   4  -8   1  288.17   12.00
   4  -8   1  282.67   11.10
  -5   8  -1   15.30    7.00
  -5   8  -1   15.70    5.00
  -5   8  -1   14.60    2.20
  -5   8  -1   17.80    3.20
  -5   8  -1   28.60    8.00
   5  -8   1   27.70   10.70
   5  -8   1   17.40    2.60
   5  -8   1   20.90    3.40
   5  -8   1   16.20    2.60
  -6   8  -1  263.27   11.30
  -6   8  -1  219.58   11.90
  -6   8  -1  239.48   12.50
   6  -8   1  187.68   22.80
   6  -8   1  236.38   11.80
   6  -8   1  226.08   10.60
   6  -8   1  235.28   11.40
  -7   8  -1  113.39    8.00
  -7   8  -1  126.29    9.00
   7  -8   1  110.09    6.80
   7  -8   1   94.39    7.90
   5   7  -1   18.50    4.70
   5   7  -1   16.10    5.50
  -5  -7   1   10.20    9.20
  -5  -7   1   25.90    5.80
  -5  -7   1   28.10    8.60
   4   7  -1   28.10    5.60
   4   7  -1   29.10    6.10
  -4  -7   1   20.80    5.30
  -4  -7   1   22.50    4.70
  -4  -7   1   27.10    8.10
   3   7  -1   13.80    3.50
   3   7  -1   18.90    2.70
  -3  -7   1   22.80    5.50
  -3  -7   1   19.30    4.20
   2   7  -1   52.39    5.70
   2   7  -1   53.49    6.10
  -2  -7   1   50.79    6.90
  -2  -7   1   39.60    8.10
  -2  -7   1   48.30    5.90
  -2  -7   1   38.70    5.10
   1   7  -1  220.88   11.80
   1   7  -1  206.18   12.80
   1   7  -1  228.88   12.30
  -1  -7   1  229.98   12.20
  -1  -7   1  217.78   10.00
  -1  -7   1  229.38   13.00
  -1  -7   1  215.28   13.10
  -1  -7   1  236.38   13.80
   0   7  -1  818.82   33.10
   0   7  -1  796.12   33.20
   0   7  -1  797.82   33.80
   0  -7   1  833.82   34.70
   0  -7   1  820.32   33.40
   0  -7   1  845.12   34.20
   0  -7   1  848.82   30.40
   0  -7   1  811.22   34.10
  -1   7  -1   45.50    4.40
  -1   7  -1   32.00    7.00
  -1   7  -1   46.60    4.40
   1  -7   1   45.00    4.70
   1  -7   1   55.09    8.60
   1  -7   1   46.60    4.90
   1  -7   1   51.79    2.70
  -2   7  -1  136.99    7.60
  -2   7  -1  130.69    9.00
  -2   7  -1  142.09   10.00
   2  -7   1  145.99    8.30
   2  -7   1  140.19    7.80
   2  -7   1  133.39    6.30
  -3   7  -1  422.66   17.80
  -3   7  -1  431.76   17.50
  -3   7  -1  420.26   21.80
  -3   7  -1  436.76   18.10
  -3   7  -1  443.26   21.70
   3  -7   1  446.56   16.60
   3  -7   1  430.66   18.50
   3  -7   1  438.96   22.70
  -4   7  -1   49.80    7.10
  -4   7  -1   58.09    3.90
  -4   7  -1   43.80    7.00
  -4   7  -1   56.69   10.10
  -4   7  -1   58.09    4.60
   4  -7   1   46.70   10.50
   4  -7   1   63.19    4.80
   4  -7   1   53.19    4.30
  -5   7  -1  750.92   29.30
  -5   7  -1  810.32   36.40
  -5   7  -1  711.13   31.60
  -5   7  -1  767.32   30.40
  -5   7  -1  712.33   33.70
   5  -7   1  788.02   41.40
   5  -7   1  751.72   30.00
   5  -7   1  762.92   28.90
  -6   7  -1  198.08   10.80
  -6   7  -1  192.38   10.00
   6  -7   1  184.68    9.10
   6  -7   1  202.68    9.80
   6  -7   1  181.28   10.00
   6  -7   1  172.18   24.20
  -7   7  -1  463.45   21.00
  -7   7  -1  448.26   20.10
   7  -7   1  424.66   18.90
   7  -7   1  454.15   19.60
  -8   7  -1   77.19    8.30
  -8   7  -1   63.99    7.40
   8  -7   1   52.49    6.50
   8  -7   1   44.30    6.30
   6   6  -1    1.50    5.10
   6   6  -1   -1.70    4.30
  -6  -6   1   -2.00    9.50
  -6  -6   1    7.60    5.40
  -6  -6   1    1.80    8.40
   5   6  -1  302.57   13.80
   5   6  -1  307.57   17.80
   5   6  -1  334.57   16.80
  -5  -6   1  302.47   18.30
  -5  -6   1  275.27   16.30
   4   6  -1    1.40    2.10
   4   6  -1   -2.10    3.10
   4   6  -1    2.00    2.60
  -4  -6   1    0.10    3.70
  -4  -6   1    5.70    3.30
  -4  -6   1   10.90    7.30
   3   6  -1  119.89    8.90
   3   6  -1  131.79    6.60
   3   6  -1  125.89    8.50
  -3  -6   1  116.49    9.40
  -3  -6   1  125.49    8.90
   2   6  -1  193.78   11.00
   2   6  -1  182.08   11.60
   2   6  -1  191.58   10.80
  -2  -6   1  200.68   11.00
  -2  -6   1  180.08    9.40
  -2  -6   1  180.48   12.30
  -2  -6   1  190.98   11.60
   1   6  -1  688.63   31.70
   1   6  -1  718.43   29.30
   1   6  -1  690.23   29.20
   1   6  -1  732.33   29.90
  -1  -6   1  733.73   29.50
  -1  -6   1  728.03   27.20
  -1  -6   1  692.03   29.90
  -1  -6   1  707.13   31.10
   0   6  -1  381.46   17.40
   0   6  -1  350.66   18.30
   0   6  -1  404.06   20.00
   0   6  -1  391.86   17.60
   0   6  -1  413.16   18.40
   0  -6   1  420.86   18.90
   0  -6   1  403.36   17.90
   0  -6   1  414.56   15.40
   0  -6   1  423.56   19.20
   0  -6   1  398.46   18.30
  -1   6  -1  164.88   10.60
  -1   6  -1  157.48    8.30
  -1   6  -1  154.08    8.60
  -1   6  -1  138.49    9.30
  -1   6  -1  159.38    9.60
   1  -6   1  151.38    8.80
   1  -6   1  170.98    6.90
   1  -6   1  145.99    9.50
   1  -6   1  154.38    8.70
   1  -6   1  168.38   10.10
   1  -6   1  159.08    6.40
   1  -6   1  163.08    9.50
  -2   6  -1  185.48   10.70
  -2   6  -1  177.48   10.30
  -2   6  -1  173.58   10.10
  -2   6  -1  193.68   11.20
  -2   6  -1  182.38    8.80
   2  -6   1  175.58    9.20
   2  -6   1  175.98   10.10
   2  -6   1  194.48   11.00
   2  -6   1  183.18    7.60
  -3   6  -1   43.80    3.50
  -3   6  -1   35.80    6.80
  -3   6  -1   40.80    6.30
  -3   6  -1   46.80    5.80
  -3   6  -1   37.80    5.00
  -3   6  -1   43.30    4.70
  -3   6  -1   41.10    3.00
   3  -6   1   44.60    3.10
   3  -6   1   45.40    4.80
   3  -6   1   42.40    3.90
   3  -6   1   35.30    7.30
  -4   6  -1  374.56   17.20
  -4   6  -1  374.46   20.70
  -4   6  -1  350.16   15.00
  -4   6  -1  336.97   18.60
  -4   6  -1  387.36   16.00
   4  -6   1  368.66   24.60
   4  -6   1  380.96   16.60
   4  -6   1  393.16   15.10
   4  -6   1  364.76   15.80
  -5   6  -1  106.59    6.90
  -5   6  -1  110.49   11.00
  -5   6  -1  119.49    5.90
  -5   6  -1  107.39    6.30
  -5   6  -1  100.49   10.50
  -5   6  -1  110.29   12.20
   5  -6   1  106.29    5.90
   5  -6   1  102.49    6.50
  -6   6  -1  109.09    7.20
  -6   6  -1  112.59    7.90
   6  -6   1  151.38   21.70
   6  -6   1  111.89    6.60
  -7   6  -1  103.59   10.10
  -7   6  -1  117.79    8.70
   7  -6   1  108.49    7.50
   7  -6   1  110.99    7.20
  -8   6  -1    9.90    4.70
   8  -6   1   39.00   17.50
   6   5  -1  156.68    9.40
   6   5  -1  151.68   11.00
   6   5  -1  148.89   13.30
  -6  -5   1  148.99   11.90
  -6  -5   1  165.88   14.00
  -6  -5   1  165.98   12.50
   5   5  -1  190.28   12.90
   5   5  -1  192.48   11.70
   5   5  -1  189.28    9.70
  -5  -5   1  175.88   11.80
  -5  -5   1  190.88   13.20
  -5  -5   1  172.58   13.60
   4   5  -1    1.70    2.80
   4   5  -1    1.50    3.40
  -4  -5   1   -0.40    2.80
  -4  -5   1    0.00    2.90
   3   5  -1   16.00    3.40
   3   5  -1   19.70    4.00
   3   5  -1   14.60    2.70
  -3  -5   1   14.40    3.30
  -3  -5   1   10.50    2.70
   2   5  -1   90.59    7.20
   2   5  -1   87.49    6.40
   2   5  -1   89.69    6.60
   2   5  -1   93.69    4.60
   2   5  -1   92.09    7.60
  -2  -5   1   83.39    6.50
  -2  -5   1   91.69    8.50
  -2  -5   1   83.79    5.50
  -2  -5   1   93.79    6.90
   1   5  -1  352.76   17.60
   1   5  -1  338.57   15.40
   1   5  -1  358.46   16.20
   1   5  -1  344.37   15.60
   1   5  -1  342.67   15.50
   1   5  -1  361.16   16.40
  -1  -5   1  293.67   15.60
  -1  -5   1  358.76   13.80
  -1  -5   1  325.57   17.00
  -1  -5   1  350.16   15.80
  -1  -5   1  342.57   17.20
   0   5  -1   49.30    6.40
   0   5  -1   47.40    3.90
   0   5  -1   49.00    4.90
   0   5  -1   46.30    4.90
   0   5  -1   52.29    4.10
   0  -5   1   40.20    4.30
   0  -5   1   50.39    4.20
   0  -5   1   43.50    5.00
   0  -5   1   59.79    4.80
   0  -5   1   43.80    4.90
   0  -5   1   34.60    7.40
   0  -5   1   49.30    2.90
  -1   5  -1  219.48   11.40
  -1   5  -1  205.68   10.90
  -1   5  -1  201.78   10.10
  -1   5  -1  202.38   10.70
  -1   5  -1  210.08    9.80
   1  -5   1  201.48   10.20
   1  -5   1  207.58   10.30
   1  -5   1  210.38   10.10
   1  -5   1  219.08    8.70
   1  -5   1  208.88   10.80
   1  -5   1  211.08   10.70
  -2   5  -1   77.09    6.20
  -2   5  -1   84.09    4.70
  -2   5  -1   76.99    5.60
  -2   5  -1   77.19    5.30
  -2   5  -1   86.59    6.80
  -2   5  -1   77.59    6.10
  -2   5  -1   84.09    6.20
   2  -5   1   81.19    4.20
   2  -5   1   76.69    5.40
   2  -5   1   85.29    7.10
   2  -5   1   77.29    4.90
   2  -5   1   87.59    5.70
  -3   5  -1  112.99    5.90
  -3   5  -1  115.09    7.10
  -3   5  -1  105.09    5.30
  -3   5  -1  107.69    9.90
  -3   5  -1  114.49    7.00
  -3   5  -1  111.29    6.80
  -3   5  -1  112.99    8.40
   3  -5   1  119.29    5.80
   3  -5   1  122.89    6.80
   3  -5   1  107.79   12.00
   3  -5   1  105.49    5.90
   3  -5   1  106.99    6.70
  -4   5  -1   73.79    6.60
  -4   5  -1   75.59    5.20
  -4   5  -1   77.59    5.80
  -4   5  -1   86.29    8.80
  -4   5  -1   75.29    4.40
  -4   5  -1   87.39    9.20
   4  -5   1   80.49    5.10
   4  -5   1   84.69   11.50
   4  -5   1   76.99    4.70
   4  -5   1   78.29    5.80
  -5   5  -1   79.49    5.80
  -5   5  -1   67.09   12.00
  -5   5  -1   67.59    5.20
   5  -5   1   71.89    6.20
   5  -5   1  102.69   15.80
   5  -5   1   67.19    4.80
  -6   5  -1    6.10    2.30
  -6   5  -1    6.80    2.60
   6  -5   1   22.80    9.10
   6  -5   1    8.10    2.10
  -7   5  -1   37.40    6.40
  -7   5  -1   28.40    4.40
   7  -5   1   34.50    4.70
   7  -5   1    9.50   11.70
  -8   5  -1   33.80    6.00
  -8   5  -1   46.70    7.40
  -8   5  -1   35.90    5.60
   8  -5   1   38.60    5.80
   8  -5   1   37.70    5.10
   7   4  -1   -0.50    5.50
   7   4  -1   -6.00    3.90
   7   4  -1    2.20    3.60
  -7  -4   1    3.30    5.00
  -7  -4   1    7.30    5.80
  -7  -4   1    2.30    6.50
   6   4  -1  176.78   16.60
   6   4  -1  161.08   11.10
   6   4  -1  167.88    9.70
  -6  -4   1  159.48   11.60
  -6  -4   1  168.48   12.90
  -6  -4   1  171.88   11.70
  -6  -4   1  117.09   18.60
   5   4  -1   15.60    3.80
   5   4  -1   16.60    4.30
   5   4  -1   19.70    3.60
  -5  -4   1   20.50    4.40
  -5  -4   1   15.40    3.90
  -5  -4   1   12.90    3.40
   4   4  -1  496.65   22.10
   4   4  -1  495.35   22.80
   4   4  -1  477.45   19.60
  -4  -4   1  480.75   22.10
  -4  -4   1  493.45   25.20
  -4  -4   1  471.45   21.80
  -4  -4   1  489.25   22.70
   3   4  -1  422.76   18.70
   3   4  -1  391.06   18.50
   3   4  -1  412.36   19.10
   3   4  -1  383.26   18.40
   3   4  -1  420.46   16.20
  -3  -4   1  402.56   18.50
  -3  -4   1  397.16   17.60
  -3  -4   1  409.06   18.70
  -3  -4   1  406.96   19.00
  -3  -4   1  443.36   21.20
  -3  -4   1  370.46   20.30
   2   4  -1  159.38    9.10
   2   4  -1  149.29    8.60
   2   4  -1  169.88    9.10
   2   4  -1  153.48    8.90
   2   4  -1  160.18    8.80
   2   4  -1  156.08    6.80
  -2  -4   1  156.68    7.70
  -2  -4   1  141.49    8.90
  -2  -4   1  178.28   10.70
  -2  -4   1  147.69    8.80
  -2  -4   1  132.09    9.20
  -2  -4   1  154.68    8.70
  -2  -4   1  150.28   10.10
   1   4  -1    6.80    2.50
   1   4  -1    7.50    2.00
   1   4  -1    6.70    1.60
   1   4  -1    5.20    3.60
   1   4  -1    6.10    1.90
   1   4  -1    6.90    1.30
  -1  -4   1    8.90    2.80
  -1  -4   1    7.30    1.40
  -1  -4   1    8.60    2.40
  -1  -4   1    9.50    2.60
  -1  -4   1    7.00    2.10
   0   4  -1  234.28   11.20
   0   4  -1  231.18   10.60
   0   4  -1  237.18   11.90
   0   4  -1  227.28   10.70
   0   4  -1  237.28   11.30
   0  -4   1  226.78   10.90
   0  -4   1  240.98   11.60
   0  -4   1  238.88   11.30
   0  -4   1  225.38   11.10
   0  -4   1  237.78   10.80
   0  -4   1  231.08   11.30
  -1   4  -1    0.90    1.30
  -1   4  -1    0.30    1.50
  -1   4  -1    2.00    1.50
  -1   4  -1    2.00    1.60
  -1   4  -1   -0.10    0.80
   1  -4   1    3.10    1.40
   1  -4   1    1.30    0.90
   1  -4   1    1.80    1.50
   1  -4   1    2.60    1.30
   1  -4   1    1.90    1.10
   1  -4   1    1.90    1.10
  -2   4  -1  450.25   18.40
  -2   4  -1  442.86   19.00
  -2   4  -1  411.06   17.50
  -2   4  -1  475.15   18.80
  -2   4  -1  451.75   17.90
  -2   4  -1  442.96   20.50
  -2   4  -1  416.36   17.60
   2  -4   1  464.05   17.40
   2  -4   1  438.56   18.70
   2  -4   1  488.45   18.60
   2  -4   1  438.66   17.80
   2  -4   1  446.86   20.30
  -3   4  -1  480.75   19.30
  -3   4  -1  507.55   19.70
  -3   4  -1  468.25   18.60
  -3   4  -1  442.76   21.80
  -3   4  -1  453.65   19.90
  -3   4  -1  492.55   23.70
   3  -4   1  478.45   26.30
   3  -4   1  481.65   19.10
   3  -4   1  535.85   20.60
   3  -4   1  496.75   19.20
   3  -4   1  474.45   19.60
  -4   4  -1  198.78   11.20
  -4   4  -1  220.28   15.70
  -4   4  -1  222.48   10.20
  -4   4  -1  209.08   10.70
  -4   4  -1  208.98    9.80
  -4   4  -1  215.28    9.10
   4  -4   1  217.48   10.00
   4  -4   1  202.78    9.50
   4  -4   1  239.18   11.90
   4  -4   1  236.08   16.20
   4  -4   1  219.08    9.90
  -5   4  -1   13.00    8.50
  -5   4  -1   13.90    2.50
  -5   4  -1   19.50    3.00
   5  -4   1   14.80    4.30
   5  -4   1   17.90    5.70
   5  -4   1   14.50    2.50
  -6   4  -1   21.10    4.10
  -6   4  -1   19.70    3.60
  -6   4  -1   13.30    3.40
   6  -4   1   13.30    5.30
   6  -4   1   21.40    7.90
   6  -4   1   12.30    2.60
  -7   4  -1  264.77   15.60
  -7   4  -1  232.78   13.60
  -7   4  -1  236.48   14.40
   7  -4   1  246.58   12.30
  -8   4  -1   31.90    5.30
  -8   4  -1   34.10    6.70
  -8   4  -1   22.70    5.30
   8  -4   1   31.70    4.80
   8  -4   1   31.90    5.80
   7   3  -1   10.60    5.80
   7   3  -1    0.50    3.30
   7   3  -1    0.80    3.60
  -7  -3   1   -0.30    4.30
  -7  -3   1    3.00    5.70
  -7  -3   1    5.80    4.90
   6   3  -1    3.90    3.50
   6   3  -1   -2.30    2.40
   6   3  -1    6.20    3.20
  -6  -3   1    4.40    3.50
  -6  -3   1    4.20    4.10
  -6  -3   1    2.00    3.60
   5   3  -1  224.28   12.10
   5   3  -1  205.68   10.30
   5   3  -1  208.98   12.90
  -5  -3   1  210.78   12.40
  -5  -3   1  214.88   12.90
  -5  -3   1  192.28   12.00
   4   3  -1  223.38   10.20
   4   3  -1  227.78   12.70
   4   3  -1  233.18   12.20
  -4  -3   1  216.58   11.90
  -4  -3   1  221.38   12.40
  -4  -3   1  233.18   12.50
   3   3  -1  470.35   20.60
   3   3  -1  456.35   21.00
   3   3  -1  469.35   20.30
   3   3  -1  508.45   18.70
   3   3  -1  482.35   21.30
  -3  -3   1  486.35   21.00
  -3  -3   1  475.15   20.50
  -3  -3   1  467.35   22.00
  -3  -3   1  470.85   19.80
  -3  -3   1  478.65   21.00
   2   3  -1    2.00    1.60
   2   3  -1   -0.80    1.50
   2   3  -1    2.40    1.80
   2   3  -1    2.40    1.90
   2   3  -1    1.90    0.80
   2   3  -1    4.50    1.90
  -2  -3   1    0.60    1.10
  -2  -3   1    1.80    2.20
  -2  -3   1   -0.20    1.50
  -2  -3   1    0.00    1.80
  -2  -3   1    0.90    1.30
  -2  -3   1    0.90    2.80
  -2  -3   1    0.10    1.50
   1   3  -1 1701.33   61.29
   1   3  -1 1644.24   61.09
   1   3  -1 1703.33   61.19
   1   3  -1 1584.04   59.19
   1   3  -1 1660.93   60.69
   1   3  -1 1618.64   60.99
  -1  -3   1 1660.43   61.29
  -1  -3   1 1583.34   61.99
  -1  -3   1 1669.43   61.29
  -1  -3   1 1583.34   61.09
  -1  -3   1 1634.04   59.69
  -1  -3   1 1688.03   61.79
   0   3  -1 1080.79   39.50
   0   3  -1 1040.10   39.10
   0   3  -1 1064.89   40.00
   0   3  -1 1079.99   39.60
   0   3  -1 1011.10   39.00
   0  -3   1 1056.29   37.70
   0  -3   1 1023.10   39.40
   0  -3   1 1014.90   39.20
   0  -3   1 1037.20   39.50
   0  -3   1 1045.10   39.20
   0  -3   1 1034.80   39.60
  -1   3  -1  285.17   11.90
  -1   3  -1  288.17   11.30
  -1   3  -1  266.87   12.50
  -1   3  -1  279.07   12.00
  -1   3  -1  277.97   12.20
  -1   3  -1  269.97   11.30
  -1   3  -1  280.97   11.90
   1  -3   1  271.27   11.60
   1  -3   1  278.57   11.60
   1  -3   1  277.97   11.10
   1  -3   1  283.97   12.20
   1  -3   1  297.17   11.90
   1  -3   1  287.17   11.40
  -2   3  -1 1378.36   50.99
  -2   3  -1 1381.46   53.49
  -2   3  -1 1394.66   51.79
  -2   3  -1 1296.97   54.89
  -2   3  -1 1390.66   51.99
  -2   3  -1 1409.86   51.49
   2  -3   1 1402.46   51.69
   2  -3   1 1613.44   53.19
   2  -3   1 1377.86   51.39
   2  -3   1 1420.56   55.79
   2  -3   1 1403.66   51.59
  -3   3  -1   81.29    4.80
  -3   3  -1   66.29    9.10
  -3   3  -1   85.59    4.70
  -3   3  -1   81.49    4.10
  -3   3  -1   78.09    4.40
  -3   3  -1   80.39    5.70
   3  -3   1   85.39    4.90
   3  -3   1   79.39   10.00
   3  -3   1   87.59    4.90
   3  -3   1   79.59    4.50
   3  -3   1   84.49    4.30
   3  -3   1   94.69    7.30
  -4   3  -1   10.40    7.00
  -4   3  -1   10.00    3.10
  -4   3  -1   15.50    2.60
  -4   3  -1   12.00    2.10
  -4   3  -1   14.00    2.70
   4  -3   1   11.30    1.80
   4  -3   1    6.90    1.80
   4  -3   1    7.60    1.60
   4  -3   1   11.00    3.90
   4  -3   1    2.00    3.80
  -5   3  -1   99.19    5.70
  -5   3  -1   77.69   14.40
  -5   3  -1   79.79    6.30
  -5   3  -1   90.39    6.30
   5  -3   1   93.89    5.70
   5  -3   1   86.99    9.40
  -6   3  -1  343.87   16.70
  -6   3  -1  316.87   16.00
  -6   3  -1  343.27   16.90
   6  -3   1  344.77   15.30
   6  -3   1  317.57   19.00
   6  -3   1  340.67   26.40
  -7   3  -1    4.30    4.40
  -7   3  -1    8.30    3.40
  -7   3  -1   11.80    3.70
   7  -3   1    8.70    2.90
  -8   3  -1  242.08   15.40
  -8   3  -1  221.08   14.90
   8  -3   1  222.08   18.10
   8  -3   1  255.27   13.30
   8  -3   1  254.97   12.80
   7   2  -1   11.60    3.80
  -7  -2   1   12.00    5.80
  -7  -2   1    8.40    4.50
  -7  -2   1   15.70    5.40
   6   2  -1    9.30    3.50
   6   2  -1   19.70    5.00
   6   2  -1   15.30    3.20
  -6  -2   1   13.40    4.00
  -6  -2   1   17.50    4.40
  -6  -2   1   13.00    4.00
   5   2  -1   34.90    4.10
   5   2  -1   38.50    5.50
   5   2  -1   33.00    4.80
   5   2  -1   38.20    5.30
   5   2  -1   40.90    5.60
  -5  -2   1   39.50    5.30
  -5  -2   1   35.80    5.40
  -5  -2   1   37.30    5.40
   4   2  -1  239.98   13.20
   4   2  -1  247.88   12.20
   4   2  -1  243.28   11.80
   4   2  -1  253.37   11.20
   4   2  -1  275.77   13.30
  -4  -2   1  256.27   12.70
  -4  -2   1  250.27   12.80
  -4  -2   1  255.27   13.00
   3   2  -1  128.19    6.80
   3   2  -1  123.09    7.90
   3   2  -1  131.29    7.20
   3   2  -1  132.49    7.50
   3   2  -1  142.29    6.40
   3   2  -1  133.59    7.50
   3   2  -1  138.99    8.00
  -3  -2   1  131.49    7.20
  -3  -2   1  132.19    7.40
  -3  -2   1  129.09    7.80
  -3  -2   1  108.79    7.30
  -3  -2   1  133.09    8.80
   2   2  -1  278.87   12.40
   2   2  -1  277.77   11.90
   2   2  -1  265.17   12.70
   2   2  -1  283.97   11.60
   2   2  -1  276.17   10.90
   2   2  -1  260.57   12.20
   2   2  -1  285.07   12.40
  -2  -2   1  264.57   12.10
  -2  -2   1  287.77   11.60
  -2  -2   1  291.37   12.80
  -2  -2   1  270.67   12.50
  -2  -2   1  257.77   12.80
  -2  -2   1  279.07   13.10
   1   2  -1  144.99    6.60
   1   2  -1  140.39    6.90
   1   2  -1  134.49    6.90
   1   2  -1  146.79    6.80
   1   2  -1  146.19    7.00
   1   2  -1  139.19    5.80
  -1  -2   1  138.69    7.00
  -1  -2   1  140.59    6.60
  -1  -2   1  130.59    6.90
  -1  -2   1  147.59    6.10
  -1  -2   1  139.09    7.00
  -1  -2   1  139.39    7.50
  -1  -2   1  144.29    7.00
   0   2  -1 1738.33   60.99
   0   2  -1 1754.92   60.89
   0   2  -1 1634.74   60.59
   0   2  -1 1744.63   60.59
   0   2  -1 1610.84   61.49
   0  -2   1 1680.23   60.79
   0  -2   1 1417.96   60.99
   0  -2   1 1745.23   60.99
  -1   2  -1 1641.64   59.29
  -1   2  -1 1583.74   58.59
  -1   2  -1 1639.94   60.69
  -1   2  -1 1687.33   58.79
  -1   2  -1 1609.04   58.49
   1  -2   1 1580.14   58.39
   1  -2   1 1651.93   58.69
   1  -2   1 1561.04   59.59
   1  -2   1 1573.24   60.59
   1  -2   1 1642.24   58.59
  -2   2  -1    4.40    2.20
  -2   2  -1    2.70    3.10
  -2   2  -1    6.80    1.70
  -2   2  -1    5.80    1.20
  -2   2  -1    8.90    1.50
  -2   2  -1    5.30    1.00
  -2   2  -1    6.80    1.20
   2  -2   1    4.80    3.30
   2  -2   1    9.30    1.10
   2  -2   1    7.60    1.40
   2  -2   1    8.00    1.20
   2  -2   1    9.40    1.50
   2  -2   1    7.40    2.60
  -3   2  -1    0.70    1.00
  -3   2  -1    0.90    0.80
  -3   2  -1    3.50    1.50
  -3   2  -1    0.30    1.60
  -3   2  -1    2.30    4.70
  -3   2  -1    1.10    1.50
   3  -2   1    0.50    1.10
   3  -2   1    0.50    0.70
   3  -2   1    0.70    1.10
   3  -2   1    2.30    3.20
  -4   2  -1   96.19    5.10
  -4   2  -1   81.39    5.40
  -4   2  -1   79.69    5.70
  -4   2  -1   96.79    7.40
  -4   2  -1   94.19   12.90
   4  -2   1  109.89    8.50
   4  -2   1   94.29    5.50
   4  -2   1   85.49    5.50
   4  -2   1   92.49    9.10
   4  -2   1   87.09    4.80
  -5   2  -1  416.16   19.00
  -5   2  -1  440.56   17.70
  -5   2  -1  416.26   18.70
  -5   2  -1  406.26   19.20
   5  -2   1  486.35   24.60
   5  -2   1  419.66   18.20
   5  -2   1  435.76   21.30
  -6   2  -1   34.60    5.20
  -6   2  -1   30.70    5.50
  -6   2  -1   29.60    5.60
   6  -2   1   29.20    6.90
   6  -2   1   40.60    4.30
  -7   2  -1  329.67   17.30
  -7   2  -1  316.47   17.20
  -7   2  -1  295.37   16.70
   7  -2   1  312.87   19.30
   7  -2   1  334.37   15.50
  -8   2  -1   98.99    9.90
  -8   2  -1  102.29   10.90
  -8   2  -1   68.29    9.60
   8  -2   1   94.79    7.60
   8  -2   1   88.99    7.60
   8  -2   1   69.59   11.40
   8   1  -1   68.49   11.30
   8   1  -1   54.99    7.90
  -8  -1   1   63.99   10.20
  -8  -1   1   52.69    7.80
   7   1  -1    1.30    3.50
   7   1  -1   -0.50    3.00
   7   1  -1   -5.70    4.30
  -7  -1   1    1.30    4.80
  -7  -1   1    2.30    4.10
  -7  -1   1    3.50    3.80
   6   1  -1   45.00    5.40
   6   1  -1   36.30    4.90
   6   1  -1   35.00    5.30
  -6  -1   1   39.20    6.20
  -6  -1   1   39.40    5.50
  -6  -1   1   37.60    5.90
   5   1  -1   91.29    6.70
   5   1  -1  105.79    7.40
   5   1  -1   96.09    6.40
   5   1  -1   99.09    6.00
   5   1  -1   88.09    7.80
  -5  -1   1  109.99    8.00
  -5  -1   1   92.89    7.20
  -5  -1   1   91.09    7.50
   4   1  -1  107.99    5.80
   4   1  -1  101.29    6.40
   4   1  -1   99.09    7.40
   4   1  -1  108.59    6.90
   4   1  -1  106.49    6.60
   4   1  -1  118.69    7.50
  -4  -1   1   99.19    9.50
  -4  -1   1  110.79    6.80
  -4  -1   1   99.99    7.00
  -4  -1   1  106.39    7.00
   3   1  -1   34.90    4.30
   3   1  -1   36.50    3.70
   3   1  -1   35.40    3.50
   3   1  -1   37.40    2.90
   3   1  -1   34.80    3.60
   3   1  -1   36.40    3.30
   3   1  -1   33.60    3.10
  -3  -1   1   31.90    3.30
  -3  -1   1   37.00    4.00
  -3  -1   1   33.00    3.50
  -3  -1   1   35.30    3.40
   2   1  -1 1280.27   47.80
   2   1  -1 1298.17   48.20
   2   1  -1 1346.37   47.90
   2   1  -1 1232.48   48.80
   2   1  -1 1221.18   47.30
   2   1  -1 1279.87   48.30
   2   1  -1 1346.47   48.30
  -2  -1   1 1355.36   49.40
  -2  -1   1 1314.27   47.80
  -2  -1   1 1314.37   48.20
  -2  -1   1 1296.97   48.50
  -2  -1   1 1321.77   48.70
   1   1  -1 1275.37   51.79
   1   1  -1 1401.46   51.39
   1   1  -1 1442.76   51.79
   1   1  -1 1453.65   51.79
   1   1  -1 1401.96   50.89
  -1  -1   1 1403.66   51.49
  -1  -1   1 1403.56   51.79
  -1  -1   1 1476.15   51.89
  -1  -1   1 1376.16   51.59
  -1  -1   1 1460.65   51.39
  -1  -1   1 1448.56   51.69
   0   1  -1  423.76   16.40
   0   1  -1  423.86   16.00
   0   1  -1  447.76   16.40
   0  -1   1  429.06   16.20
   0  -1   1  472.65   16.30
   0  -1   1  412.86   16.20
  -1   1  -1    2.00    0.50
  -1   1  -1    1.90    0.70
  -1   1  -1    2.80    2.20
  -1   1  -1    1.80    0.40
  -1   1  -1    2.00    0.90
   1  -1   1    1.20    0.50
   1  -1   1    1.10    0.70
   1  -1   1    1.40    0.40
   1  -1   1    2.20    1.50
   1  -1   1    0.50    2.20
  -2   1  -1  582.94   23.20
  -2   1  -1  591.34   22.10
  -2   1  -1  538.75   26.20
  -2   1  -1  603.24   22.40
  -2   1  -1  604.54   22.30
   2  -1   1  603.94   22.50
   2  -1   1  588.74   22.80
   2  -1   1  610.74   22.00
   2  -1   1  600.24   22.00
  -3   1  -1  369.76   17.20
  -3   1  -1  416.46   16.70
  -3   1  -1  406.86   18.50
   3  -1   1  408.16   16.00
   3  -1   1  420.86   15.80
   3  -1   1  431.96   20.00
   3  -1   1  398.96   16.70
   3  -1   1  418.96   17.20
  -4   1  -1   37.20    3.90
  -4   1  -1   32.50    3.70
  -4   1  -1   49.00    9.80
  -4   1  -1   35.00    3.80
  -4   1  -1   34.90    5.20
   4  -1   1   40.70    3.50
   4  -1   1   37.70    3.40
   4  -1   1   33.70    3.70
   4  -1   1   40.60    3.00
  -5   1  -1  107.39    7.50
  -5   1  -1  115.49    7.90
  -5   1  -1  125.79    8.00
   5  -1   1  131.59    6.20
   5  -1   1  123.49    7.20
  -6   1  -1    1.40    2.70
  -6   1  -1   -2.30    2.90
  -6   1  -1    0.40    2.90
   6  -1   1    3.20    4.20
   6  -1   1    0.80    1.80
   6  -1   1    2.30    1.70
  -7   1  -1   58.79    7.80
  -7   1  -1   67.79    8.20
  -7   1  -1   64.09    8.00
   7  -1   1   58.59    9.70
   7  -1   1   54.79    9.30
   7  -1   1   76.79    6.00
  -8   1  -1    1.90    4.80
  -8   1  -1    3.30    6.00
  -8   1  -1    1.00    4.70
   8  -1   1    7.30    3.90
   8  -1   1    9.10    3.40
   8  -1   1    3.80    6.00
   8  -1   1    1.10    4.80
   8   0  -1    5.60    3.50
   8   0  -1   -2.60    5.90
  -8   0   1   -2.40    5.20
  -8   0   1    2.10    4.30
  -8   0   1   -0.30    5.60
   7   0  -1   24.90    5.70
   7   0  -1   21.90    4.00
   7   0  -1   18.00    6.70
   7   0  -1   30.80    5.60
  -7   0   1   23.20    5.30
  -7   0   1   15.30    5.60
   6   0  -1   73.39    4.90
   6   0  -1   63.99    5.50
   6   0  -1   65.29    6.30
   6   0  -1   70.39    6.10
   6   0  -1   77.09    8.30
  -6   0   1   64.89    7.00
  -6   0   1   68.09    6.90
  -6   0   1   70.59    7.70
   5   0  -1   93.49    8.50
   5   0  -1   89.69    5.30
   5   0  -1   80.29    5.90
   5   0  -1   91.39    7.80
   5   0  -1   90.79    5.60
  -5   0   1   85.69    7.00
  -5   0   1   80.69    6.50
  -5   0   1  109.09   16.00
  -5   0   1   75.59    6.60
   4   0  -1   11.30    2.70
   4   0  -1   12.80    2.30
   4   0  -1    8.50    1.80
   4   0  -1    8.80    1.90
   4   0  -1   10.70    2.30
   4   0  -1   14.00    3.40
  -4   0   1    7.50    2.00
  -4   0   1    5.80    3.90
  -4   0   1    9.40    2.20
  -4   0   1    6.10    2.20
  -4   0   1    6.00    1.70
   3   0  -1 1060.59   38.60
   3   0  -1 1101.39   38.50
   3   0  -1 1056.39   40.40
   3   0  -1 1014.00   38.70
   3   0  -1 1009.20   39.30
  -3   0   1  992.50   40.00
  -3   0   1 1016.40   39.20
  -3   0   1 1099.49   39.70
  -3   0   1  911.11   41.00
  -3   0   1  980.50   38.70
   2   0  -1 3012.70  107.79
   2   0  -1 2950.50  107.69
   2   0  -1 2893.11  108.79
   2   0  -1 3001.40  107.79
   2   0  -1 3060.69  107.49
  -2   0   1 3007.40  107.99
  -2   0   1 2987.20  108.19
  -2   0   1 3051.89  107.69
  -2   0   1 2953.10  109.39
  -2   0   1 2973.60  107.69
   1   0  -1   66.09    3.20
   1   0  -1   63.69    3.10
   1   0  -1   64.59    3.40
   1   0  -1   63.59    3.00
   1   0  -1   62.69    2.90
  -1   0   1   65.09    3.10
  -1   0   1   64.29    3.30
  -1   0   1   66.99    3.00
  -1   0   1   71.39    3.00
  -1   0   1   71.19    3.10
  -1   0  -1 1848.62   66.59
  -1   0  -1 1787.52   65.09
  -1   0  -1 1789.02   64.99
  -1   0  -1 1809.02   65.39
   1   0   1 1824.22   65.39
   1   0   1 1765.92   66.19
   1   0   1 1812.62   65.29
   1   0   1 1805.62   64.89
  -2   0  -1 9999.00  349.87
   2   0   1 9437.76  348.87
  -3   0  -1  905.11   35.40
  -3   0  -1  895.61   34.60
  -3   0  -1  913.71   34.60
   3   0   1  917.31   34.30
   3   0   1  840.62   34.30
   3   0   1  910.11   34.10
   3   0   1  955.00   35.30
  -4   0  -1 3933.01  146.19
  -4   0  -1 3771.32  145.39
  -4   0  -1 3973.00  145.69
  -4   0  -1 4006.00  150.98
   4   0   1 4186.18  144.79
   4   0   1 3861.71  145.09
   4   0   1 4158.98  148.39
   4   0   1 4167.68  144.79
   4   0   1 3971.90  145.29
  -5   0  -1    9.00    2.70
  -5   0  -1    7.50    2.80
  -5   0  -1   13.90    3.20
   5   0   1   12.40    2.70
   5   0   1   13.40    3.00
  -6   0  -1  186.18   11.80
  -6   0  -1  190.28   12.30
  -6   0  -1  207.18   12.00
   6   0   1  203.88   13.80
   6   0   1  201.68   13.30
   6   0   1  198.58   10.80
   6   0   1  204.38   10.60
  -7   0  -1   84.29    9.20
  -7   0  -1  100.79   11.40
  -7   0  -1   79.09    9.40
   7   0   1   97.59    7.10
   7   0   1   97.09    7.90
   7   0   1   99.79    9.60
   7   0   1   97.99   10.70
  -8   0  -1   -0.80    4.70
  -8   0  -1    7.00    5.20
  -8   0  -1    3.20    5.60
   8   0   1    3.80    4.90
   8   0   1    1.00    3.10
   8   0   1   -1.10    3.60
   8   0   1    8.00    6.60
   8  -1  -1   64.59   11.20
   8  -1  -1   67.19    7.50
  -8   1   1   86.69   11.20
  -8   1   1   80.29    9.40
  -8   1   1   75.59    9.90
   7  -1  -1   29.70    5.40
   7  -1  -1   44.70    5.90
   7  -1  -1   41.10    5.60
   7  -1  -1   46.70    5.90
  -7   1   1   39.50    7.00
  -7   1   1   41.60    6.70
  -7   1   1   41.10    6.10
   6  -1  -1    8.30    3.60
   6  -1  -1    7.70    3.50
   6  -1  -1    6.60    2.30
   6  -1  -1    9.30    2.10
   6  -1  -1   11.90    4.90
  -6   1   1   12.50    3.60
  -6   1   1    2.40    2.50
  -6   1   1    7.80    2.80
   5  -1  -1    3.40    2.50
   5  -1  -1    8.50    2.20
   5  -1  -1    8.60    2.00
  -5   1   1    4.60    2.60
  -5   1   1    8.30    7.60
  -5   1   1    5.90    2.20
  -5   1   1    8.00    2.10
   4  -1  -1  547.75   22.20
   4  -1  -1  569.04   22.30
   4  -1  -1  523.25   21.50
   4  -1  -1  551.64   21.80
  -4   1   1  526.35   22.50
  -4   1   1  572.44   22.90
  -4   1   1  597.64   22.20
  -4   1   1  585.84   23.30
  -4   1   1  525.75   27.40
  -4   1   1  550.64   22.90
   3  -1  -1    7.60    2.90
   3  -1  -1    5.90    1.40
   3  -1  -1    8.80    1.80
  -3   1   1    9.70    3.50
  -3   1   1    8.30    1.60
  -3   1   1    6.50    1.80
  -3   1   1   10.00    1.80
   2  -1  -1  362.06   16.10
   2  -1  -1  373.96   14.30
   2  -1  -1  364.26   14.30
   2  -1  -1  367.26   14.00
   2  -1  -1  369.56   14.30
   2  -1  -1  377.76   14.90
  -2   1   1  375.26   14.30
  -2   1   1  361.26   14.40
  -2   1   1  370.26   14.40
  -2   1   1  359.76   14.30
   1  -1  -1  234.88    9.00
   1  -1  -1  247.28    9.20
   1  -1  -1  228.78    9.00
   1  -1  -1  243.28    9.00
   1  -1  -1  236.58    9.30
  -1   1   1  252.27    9.10
  -1   1   1  233.08    9.30
  -1   1   1  232.88    8.90
  -1   1   1  245.98    9.00
  -1   1   1  235.08    9.00
  -1   1   1  240.38    9.20
  -1   1   1  209.18   10.70
  -1   1   1  241.38    9.00
   0  -1  -1  274.67   11.40
   0  -1  -1  261.17   10.60
   0  -1  -1  279.67   10.80
   0  -1  -1  266.67   10.50
   0  -1  -1  281.27   10.60
   0  -1  -1  280.87   11.60
   0   1   1  262.57   11.30
   0   1   1  277.17   10.50
   0   1   1  281.17   10.90
   0   1   1  297.77   11.30
   0   1   1  299.27   11.80
   0   1   1  281.87   10.50
   0   1   1  289.67   10.60
   0   1   1  288.17   10.60
   0   1   1  267.57   10.50
  -1  -1  -1 6029.20  216.78
   1   1   1 5934.21  216.48
  -2  -1  -1  347.47   14.20
  -2  -1  -1  327.77   15.60
  -2  -1  -1  353.46   14.60
  -2  -1  -1  343.17   14.60
  -2  -1  -1  344.87   14.40
   2   1   1  350.16   13.90
   2   1   1  368.96   14.30
   2   1   1  332.17   15.70
   2   1   1  330.17   14.00
   2   1   1  361.06   14.30
   2   1   1  339.67   15.20
   2   1   1  352.86   14.70
  -3  -1  -1 6994.50  267.37
  -3  -1  -1 6966.00  269.07
  -3  -1  -1 7396.86  268.07
  -3  -1  -1 7791.92  270.57
   3   1   1 8137.29  267.17
   3   1   1 7212.78  270.07
   3   1   1 7055.99  266.87
   3   1   1 7957.30  267.67
   3   1   1 7481.55  268.97
  -4  -1  -1   28.40    3.70
  -4  -1  -1   26.60    4.00
  -4  -1  -1   27.40    3.90
   4   1   1   30.40    3.30
   4   1   1   27.30    4.00
   4   1   1   31.00    4.10
   4   1   1   27.20    4.80
  -5  -1  -1 1121.29   45.40
  -5  -1  -1 1117.39   44.40
  -5  -1  -1 1092.19   44.40
   5   1   1 1193.58   43.80
   5   1   1 1140.99   46.40
   5   1   1 1134.79   43.60
   5   1   1 1083.69   46.30
  -6  -1  -1    0.50    3.30
  -6  -1  -1    2.30    3.10
  -6  -1  -1   -2.30    3.00
   6   1   1    1.70    2.50
   6   1   1    2.20    4.20
  -7  -1  -1   63.19    8.00
  -7  -1  -1   52.99    8.40
  -7  -1  -1   46.90    8.50
   7   1   1   47.20    5.70
   7   1   1   44.00    7.50
   7   1   1   53.19    8.20
   7   1   1   42.10    6.70
  -8  -1  -1   13.50    6.60
  -8  -1  -1   16.70    5.70
  -8  -1  -1   10.10    6.40
   8   1   1   14.20    4.40
   8   1   1   -0.30    5.90
   8  -2  -1    0.20    3.00
   8  -2  -1   -5.60    5.70
  -8   2   1    3.00    4.30
  -8   2   1   -0.60    4.60
   7  -2  -1   45.20    5.70
   7  -2  -1   55.59    6.60
   7  -2  -1   40.40    5.50
  -7   2   1   53.79    7.70
  -7   2   1   51.49    7.20
  -7   2   1   41.50    6.80
   6  -2  -1    4.20    4.80
   6  -2  -1   12.50    4.10
   6  -2  -1   10.40    2.60
   6  -2  -1    9.80    2.40
  -6   2   1   10.00    3.80
  -6   2   1    9.50    3.00
  -6   2   1    6.90    3.10
   5  -2  -1  144.39    7.60
   5  -2  -1  132.29    9.30
   5  -2  -1  137.49    7.30
  -5   2   1  120.59    7.70
  -5   2   1  139.59    8.30
  -5   2   1  146.09   16.80
  -5   2   1  141.39    8.80
  -5   2   1  134.39    8.80
   4  -2  -1  229.98   10.50
   4  -2  -1  234.98   10.30
   4  -2  -1  222.18   11.90
   4  -2  -1  236.68   10.60
   4  -2  -1  244.88   15.10
   4  -2  -1  229.98    9.90
  -4   2   1  236.38   17.70
  -4   2   1  257.37   10.70
  -4   2   1  244.48   11.40
  -4   2   1  221.88   10.80
  -4   2   1  228.58   11.30
  -4   2   1  224.98   11.00
   3  -2  -1   30.20    2.70
   3  -2  -1   30.10    2.90
   3  -2  -1   39.20    5.60
   3  -2  -1   29.10    2.60
   3  -2  -1   30.70    2.50
  -3   2   1   16.90    5.30
  -3   2   1   30.20    2.60
  -3   2   1   30.10    3.10
  -3   2   1   30.50    2.90
  -3   2   1   33.10    2.80
   2  -2  -1 1687.23   57.89
   2  -2  -1 1482.25   57.89
   2  -2  -1 1594.74   58.19
   2  -2  -1 1650.83   57.89
   2  -2  -1 1550.74   57.69
   2  -2  -1 1659.93   61.79
   2  -2  -1 1599.54   57.69
  -2   2   1 1599.64   57.89
  -2   2   1 1570.84   59.19
  -2   2   1 1535.55   57.89
  -2   2   1 1547.55   57.69
  -2   2   1 1632.34   58.29
  -2   2   1 1621.44   61.29
   1  -2  -1   32.80    2.50
   1  -2  -1   34.80    2.10
   1  -2  -1   32.50    2.00
   1  -2  -1   33.30    2.50
   1  -2  -1   32.10    2.30
  -1   2   1   33.40    1.80
  -1   2   1   33.00    1.60
  -1   2   1   30.90    1.80
  -1   2   1   32.10    2.20
  -1   2   1   32.50    2.40
  -1   2   1   33.30    2.90
  -1   2   1   30.20    2.40
   0  -2  -1  537.25   19.80
   0  -2  -1  523.35   19.90
   0  -2  -1  504.55   21.10
   0  -2  -1  505.25   20.10
   0  -2  -1  530.55   19.20
   0  -2  -1  530.25   21.00
   0   2   1  517.35   19.00
   0   2   1  543.05   19.90
   0   2   1  509.55   19.10
   0   2   1  514.45   19.90
   0   2   1  537.85   21.50
   0   2   1  506.65   20.60
   0   2   1  515.55   19.70
   0   2   1  513.95   20.30
  -1  -2  -1  101.59    6.50
  -1  -2  -1   85.99    5.00
  -1  -2  -1  102.89    5.60
  -1  -2  -1   88.19    5.10
  -1  -2  -1   94.79    4.90
  -1  -2  -1   91.29    6.40
  -1  -2  -1   97.29    4.90
   1   2   1   93.49    5.10
   1   2   1   92.49    4.40
   1   2   1   89.59    5.10
   1   2   1  102.59    6.20
   1   2   1   89.99    5.40
   1   2   1   97.59    5.30
  -2  -2  -1   49.70    3.90
  -2  -2  -1   48.00    4.00
  -2  -2  -1   53.09    4.30
  -2  -2  -1   53.79    5.70
   2   2   1   56.99    4.00
   2   2   1   39.10    4.30
   2   2   1   52.89    5.10
   2   2   1   44.80    3.70
   2   2   1   49.10    3.40
  -3  -2  -1   45.10    4.30
  -3  -2  -1   40.30    4.80
  -3  -2  -1   50.19    4.50
  -3  -2  -1   45.00    4.30
   3   2   1   42.80    5.00
   3   2   1   47.00    4.40
   3   2   1   45.80    4.80
   3   2   1   44.20    4.20
   3   2   1   42.00    3.40
   3   2   1   43.00    4.00
   3   2   1   34.40    4.20
  -4  -2  -1  208.68   10.60
  -4  -2  -1  188.38   10.90
  -4  -2  -1  190.18   10.60
   4   2   1  207.08    9.90
   4   2   1  205.68   11.00
   4   2   1  184.28    9.60
   4   2   1  185.78   11.40
   4   2   1  193.78   11.70
  -5  -2  -1  808.02   33.20
  -5  -2  -1  788.32   33.30
  -5  -2  -1  821.32   34.30
   5   2   1  794.82   33.00
   5   2   1  795.72   34.90
   5   2   1  808.62   32.30
   5   2   1  815.22   35.00
  -6  -2  -1    1.10    3.60
  -6  -2  -1    1.10    3.20
  -6  -2  -1    3.60    3.40
   6   2   1    3.00    3.00
   6   2   1    1.10    2.00
   6   2   1    5.90    3.90
  -7  -2  -1   19.40    5.10
  -7  -2  -1   25.50    6.60
  -7  -2  -1   25.30    5.20
   7   2   1   22.30    4.20
   7   2   1   20.50    5.90
   7   2   1   20.00    4.70
   7   2   1   27.40    7.10
   8  -3  -1   83.69    8.00
   8  -3  -1   62.29   10.50
  -8   3   1   82.89   10.50
  -8   3   1   86.19    9.50
  -8   3   1   69.49    8.90
   7  -3  -1  193.28   10.50
   7  -3  -1  189.98   10.50
  -7   3   1  197.48   13.30
  -7   3   1  194.08   11.80
  -7   3   1  192.38   12.20
   6  -3  -1   65.69    5.10
   6  -3  -1   61.49    5.10
   6  -3  -1   52.79    6.20
  -6   3   1   54.59   16.30
  -6   3   1   57.69    6.00
  -6   3   1   44.30    5.60
  -6   3   1   39.70    6.60
   5  -3  -1  434.56   17.30
   5  -3  -1  394.96   22.10
   5  -3  -1  395.56   16.60
   5  -3  -1  405.26   16.70
  -5   3   1  353.26   16.90
  -5   3   1  382.66   17.50
  -5   3   1  388.36   17.90
  -5   3   1  370.06   26.30
   4  -3  -1  287.87   12.30
   4  -3  -1  268.07   11.70
   4  -3  -1  276.77   12.30
   4  -3  -1  282.87   16.80
   4  -3  -1  304.67   12.60
   4  -3  -1  293.37   12.40
  -4   3   1  278.57   19.50
  -4   3   1  305.37   12.80
  -4   3   1  292.47   13.10
  -4   3   1  277.27   12.40
  -4   3   1  281.27   12.90
   3  -3  -1  858.11   32.40
   3  -3  -1  922.01   32.60
   3  -3  -1  820.22   32.60
   3  -3  -1  896.61   32.40
   3  -3  -1  885.61   38.00
   3  -3  -1  874.41   32.60
  -3   3   1  857.81   32.70
  -3   3   1  865.61   32.80
  -3   3   1  839.92   32.30
  -3   3   1  835.72   35.00
  -3   3   1  889.51   37.10
   2  -3  -1 1289.07   46.20
   2  -3  -1 1221.68   45.60
   2  -3  -1 1170.08   46.00
   2  -3  -1 1300.17   46.60
   2  -3  -1 1250.97   46.50
   2  -3  -1 1319.87   49.90
  -2   3   1 1284.37   46.90
  -2   3   1 1248.58   47.20
  -2   3   1 1297.17   47.50
  -2   3   1 1206.78   46.60
  -2   3   1 1245.68   45.90
  -2   3   1 1249.07   45.90
  -2   3   1 1280.57   46.00
   1  -3  -1   42.70    3.40
   1  -3  -1   40.10    2.40
   1  -3  -1   42.80    3.10
   1  -3  -1   44.70    2.80
   1  -3  -1   38.20    3.40
   1  -3  -1   39.00    3.00
  -1   3   1   40.60    3.30
  -1   3   1   40.30    3.20
  -1   3   1   41.90    3.80
  -1   3   1   42.80    2.90
  -1   3   1   40.80    2.60
   0  -3  -1 3243.58  118.59
   0  -3  -1 3152.48  117.59
   0  -3  -1 3303.47  116.99
   0  -3  -1 3164.28  116.89
   0  -3  -1 3150.18  118.69
   0  -3  -1 3387.36  117.29
   0   3   1 3156.88  116.79
   0   3   1 3296.67  119.19
   0   3   1 3318.67  117.09
   0   3   1 3259.37  117.19
   0   3   1 3172.28  117.89
  -1  -3  -1  344.37   14.90
  -1  -3  -1  348.57   16.60
  -1  -3  -1  348.47   14.50
  -1  -3  -1  340.97   16.70
  -1  -3  -1  339.57   15.00
  -1  -3  -1  342.67   14.00
   1   3   1  366.56   14.80
   1   3   1  346.17   15.90
   1   3   1  331.57   13.40
   1   3   1  354.46   14.70
   1   3   1  341.47   16.70
   1   3   1  341.57   14.70
   1   3   1  342.07   15.60
  -2  -3  -1    2.60    1.90
  -2  -3  -1    4.80    2.00
  -2  -3  -1    1.70    1.60
  -2  -3  -1    4.20    1.80
  -2  -3  -1    1.80    2.10
  -2  -3  -1    8.90    3.00
   2   3   1    1.30    1.80
   2   3   1    2.50    1.80
   2   3   1    2.50    1.60
   2   3   1    5.30    1.80
   2   3   1    4.20    1.50
   2   3   1    0.80    1.70
  -3  -3  -1   24.10    3.50
  -3  -3  -1   14.60    3.20
  -3  -3  -1   15.90    2.90
  -3  -3  -1   19.20    3.30
  -3  -3  -1   21.60    5.10
   3   3   1   18.80    3.60
   3   3   1   18.20    3.70
   3   3   1   20.50    3.70
   3   3   1   18.20    3.40
   3   3   1   18.10    2.80
  -4  -3  -1  466.85   20.50
  -4  -3  -1  452.95   20.90
  -4  -3  -1  442.76   20.00
  -4  -3  -1  485.85   24.70
   4   3   1  420.76   20.90
   4   3   1  451.25   19.30
   4   3   1  463.85   19.20
   4   3   1  445.36   21.60
  -5  -3  -1    8.80    3.40
  -5  -3  -1   12.10    3.50
  -5  -3  -1   11.70    3.90
   5   3   1   11.90    3.80
   5   3   1    6.10    2.90
   5   3   1    8.50    2.00
   5   3   1   14.40    3.30
  -6  -3  -1  175.48   12.00
  -6  -3  -1  180.48   13.20
  -6  -3  -1  200.88   13.70
   6   3   1  216.68   10.20
   6   3   1  200.58   13.30
  -7  -3  -1   47.40    7.10
  -7  -3  -1   55.79    8.80
  -7  -3  -1   26.60    6.30
  -7  -3  -1   33.90   11.20
   7   3   1   47.20    8.90
   7   3   1   42.00    7.00
   7   3   1   50.59    8.90
   8  -4  -1  426.16   19.80
   8  -4  -1  395.86   23.20
  -8   4   1  445.26   22.90
  -8   4   1  433.56   21.20
  -8   4   1  432.16   21.30
   7  -4  -1   13.70    3.40
   7  -4  -1   14.50    3.00
  -7   4   1    8.90    3.50
  -7   4   1    0.10    4.00
  -7   4   1    8.50    3.00
   6  -4  -1  738.93   34.40
   6  -4  -1  684.53   27.90
   6  -4  -1  662.93   27.10
   6  -4  -1  667.33   27.20
  -6   4   1  694.73   29.00
  -6   4   1  590.64   37.70
  -6   4   1  680.33   28.00
  -6   4   1  661.43   28.20
   5  -4  -1    9.60    5.30
   5  -4  -1    5.50    1.60
   5  -4  -1    3.30    1.40
   5  -4  -1    2.00    1.70
  -5   4   1    4.50    7.30
  -5   4   1    4.90    2.00
  -5   4   1    3.00    1.80
   4  -4  -1  439.66   17.00
   4  -4  -1  412.76   17.30
   4  -4  -1  390.16   16.90
   4  -4  -1  409.16   16.70
   4  -4  -1  424.26   23.00
  -4   4   1  426.76   16.90
  -4   4   1  417.46   17.70
  -4   4   1  397.66   21.50
  -4   4   1  421.46   17.70
  -4   4   1  397.66   17.10
  -4   4   1  415.16   20.10
   3  -4  -1   94.19    5.50
   3  -4  -1   97.39    5.20
   3  -4  -1   82.79   10.40
   3  -4  -1   97.59    5.50
   3  -4  -1  102.09    4.90
   3  -4  -1  102.99    5.60
  -3   4   1  107.89    5.70
  -3   4   1   94.39    6.40
  -3   4   1   95.09    5.90
  -3   4   1   93.49    7.60
  -3   4   1  100.19    5.10
  -3   4   1   81.89    7.20
  -3   4   1   92.69    4.80
   2  -4  -1   47.50    3.20
   2  -4  -1   52.69    4.20
   2  -4  -1   53.39    4.20
   2  -4  -1   46.50    5.20
   2  -4  -1   52.29    3.60
  -2   4   1   43.80    3.90
  -2   4   1   47.80    4.30
  -2   4   1   47.40    3.00
  -2   4   1   51.99    3.00
  -2   4   1   48.70    3.60
  -2   4   1   54.99    4.90
   1  -4  -1 2036.60   75.69
   1  -4  -1 2098.09   75.99
   1  -4  -1 2101.09   77.29
   1  -4  -1 2010.80   74.89
   1  -4  -1 2185.88   77.49
   1  -4  -1 1815.92   77.79
  -1   4   1 2097.59   76.19
  -1   4   1 2073.09   75.49
  -1   4   1 2088.09   76.19
  -1   4   1 2160.68   76.49
  -1   4   1 2130.29   78.19
   0  -4  -1   12.90    1.60
   0  -4  -1   15.10    2.90
   0  -4  -1   11.40    3.00
   0  -4  -1   11.30    2.30
   0   4   1   15.30    2.90
   0   4   1   13.50    2.60
   0   4   1   14.00    2.50
  -1  -4  -1  599.84   27.20
  -1  -4  -1  613.04   27.20
  -1  -4  -1  627.04   24.70
  -1  -4  -1  625.14   25.30
  -1  -4  -1  626.64   23.90
  -1  -4  -1  618.44   25.30
   1   4   1  608.44   24.90
   1   4   1  612.24   24.90
   1   4   1  643.04   25.10
   1   4   1  604.34   25.90
   1   4   1  606.54   23.20
   1   4   1  606.14   24.80
   1   4   1  620.04   27.50
  -2  -4  -1    3.00    2.00
  -2  -4  -1   12.00    3.70
  -2  -4  -1    3.60    2.70
  -2  -4  -1    5.80    3.50
   2   4   1    5.00    1.80
   2   4   1   11.00    3.40
   2   4   1   10.80    2.50
   2   4   1    5.50    2.60
   2   4   1    6.50    2.60
   2   4   1    7.60    1.80
  -3  -4  -1   16.50    3.10
  -3  -4  -1   29.00    5.80
  -3  -4  -1   18.90    3.60
  -3  -4  -1   16.00    3.40
   3   4   1   14.50    3.50
   3   4   1   18.40    3.90
   3   4   1   16.40    3.00
   3   4   1   18.20    3.70
   3   4   1   12.60    2.60
  -4  -4  -1   -2.20    2.60
  -4  -4  -1    0.40    2.50
  -4  -4  -1   -3.30    2.40
   4   4   1    2.80    1.30
   4   4   1    2.00    2.70
   4   4   1   -0.70    1.90
  -5  -4  -1   70.99    7.10
  -5  -4  -1   83.19    8.20
  -5  -4  -1   83.09   11.50
  -5  -4  -1   74.69    7.60
   5   4   1   71.49    8.20
   5   4   1   75.89    8.00
   5   4   1   68.59    6.90
  -6  -4  -1    9.50    4.10
  -6  -4  -1   14.10    4.50
  -6  -4  -1    8.40    5.10
   6   4   1    9.60    2.80
   6   4   1    9.50    5.50
   6   4   1    6.30    4.30
   8  -5  -1    4.70    3.10
  -8   5   1   19.60    6.20
  -8   5   1    0.00    3.90
   7  -5  -1   28.40    4.60
   7  -5  -1   34.00    5.50
  -7   5   1   34.50    6.90
  -7   5   1   33.40    6.60
   6  -5  -1  181.68    9.70
   6  -5  -1  178.88    9.20
   6  -5  -1  176.98    8.80
  -6   5   1  184.28   18.80
  -6   5   1  186.68   10.10
  -6   5   1  178.48   10.30
   5  -5  -1    4.70    1.70
   5  -5  -1    3.90    1.80
   5  -5  -1    4.50    1.80
   5  -5  -1    2.80    2.00
  -5   5   1    2.30    1.50
  -5   5   1    4.50    1.90
  -5   5   1   10.20    3.40
   4  -5  -1  692.03   27.20
   4  -5  -1  649.93   28.60
   4  -5  -1  707.23   27.60
   4  -5  -1  782.62   27.80
   4  -5  -1  712.43   34.60
  -4   5   1  709.93   27.30
  -4   5   1  670.63   26.70
  -4   5   1  708.83   31.30
  -4   5   1  667.03   28.50
  -4   5   1  660.23   29.70
   3  -5  -1  369.06   15.70
   3  -5  -1  384.96   14.90
   3  -5  -1  369.66   16.30
   3  -5  -1  383.26   16.30
   3  -5  -1  393.46   21.50
   3  -5  -1  417.66   17.00
  -3   5   1  375.26   15.70
  -3   5   1  367.86   17.20
  -3   5   1  404.66   18.60
  -3   5   1  373.26   15.30
  -3   5   1  399.96   17.80
  -3   5   1  390.16   15.60
  -3   5   1  390.66   17.30
   2  -5  -1    0.50    1.10
   2  -5  -1    2.10    1.70
   2  -5  -1    1.00    2.20
   2  -5  -1    1.60    1.20
   2  -5  -1    1.40    1.10
   2  -5  -1    1.30    1.90
  -2   5   1   -2.10    3.20
  -2   5   1    2.20    1.10
  -2   5   1   -0.20    2.50
  -2   5   1    3.90    1.30
  -2   5   1    1.00    1.80
   1  -5  -1  450.55   20.10
   1  -5  -1  431.56   16.70
   1  -5  -1  416.36   18.30
   1  -5  -1  427.46   17.90
   1  -5  -1  420.76   19.30
   1  -5  -1  444.16   18.40
  -1   5   1  458.05   18.80
  -1   5   1  439.36   17.60
  -1   5   1  431.96   18.30
  -1   5   1  439.16   19.20
  -1   5   1  403.46   19.00
  -1   5   1  439.66   20.60
   0  -5  -1  898.51   34.30
   0  -5  -1  853.01   35.80
   0  -5  -1  862.91   36.10
   0  -5  -1  898.21   31.70
   0  -5  -1  780.92   33.50
   0  -5  -1  778.02   33.90
   0   5   1  859.91   34.30
   0   5   1  905.21   34.40
   0   5   1  851.71   33.30
   0   5   1  896.61   34.00
   0   5   1  887.81   36.70
  -1  -5  -1   60.39    5.40
  -1  -5  -1   70.19    6.30
  -1  -5  -1   65.09    5.00
  -1  -5  -1   63.69    7.00
  -1  -5  -1   71.69    4.60
   1   5   1   74.89    8.20
   1   5   1   64.79    5.90
   1   5   1   63.69    5.10
   1   5   1   73.39    5.70
   1   5   1   64.39    5.80
  -2  -5  -1   15.10    3.60
  -2  -5  -1   18.90    3.40
  -2  -5  -1   16.10    3.10
  -2  -5  -1   14.40    4.30
   2   5   1   13.20    3.50
   2   5   1   10.00    3.10
   2   5   1   10.60    2.90
   2   5   1   19.30    3.90
   2   5   1   11.90    1.50
  -3  -5  -1   23.00    4.60
  -3  -5  -1   24.00    4.00
   3   5   1   26.30    4.70
   3   5   1   21.40    4.60
   3   5   1   20.20    3.40
   3   5   1   22.00    2.50
   3   5   1   18.80    4.40
   3   5   1   23.60    4.50
  -4  -5  -1   19.20    3.90
  -4  -5  -1   20.40    4.30
  -4  -5  -1   15.50    6.60
   4   5   1   17.80    4.10
   4   5   1   16.10    3.60
   4   5   1   13.70    2.10
  -5  -5  -1   -0.50    3.70
  -5  -5  -1   -0.40    4.40
  -5  -5  -1   -8.40   10.20
  -5  -5  -1    0.10    3.30
   5   5   1   -0.60    1.90
   5   5   1   -0.90    4.10
  -6  -5  -1   17.70    5.40
  -6  -5  -1   15.80    6.90
  -6  -5  -1   19.90    5.10
  -6  -5  -1   19.10   10.40
   6   5   1   17.10    5.30
   6   5   1   17.70    5.80
   8  -6  -1    1.10    3.60
  -8   6   1   11.70    4.10
  -8   6   1    4.40    3.40
  -8   6   1   -5.20    5.80
   7  -6  -1   63.29    9.80
  -7   6   1   74.99    6.90
  -7   6   1   78.99    7.50
   6  -6  -1  130.79    7.70
   6  -6  -1  109.39    7.00
   6  -6  -1  163.18   18.10
   6  -6  -1  117.09    6.80
  -6   6   1  122.19    8.00
  -6   6   1  116.39    7.40
  -6   6   1  109.79   14.40
   5  -6  -1 1006.10   39.30
   5  -6  -1 1064.29   39.60
   5  -6  -1 1043.10   48.10
   5  -6  -1 1015.30   39.60
   5  -6  -1  954.40   38.30
  -5   6   1 1058.89   38.50
  -5   6   1  951.50   39.90
  -5   6   1 1028.20   39.40
  -5   6   1 1087.29   44.00
  -5   6   1 1006.70   38.80
   4  -6  -1  606.24   32.10
   4  -6  -1  575.94   23.50
   4  -6  -1  633.94   24.70
   4  -6  -1  590.54   24.00
  -4   6   1  596.74   23.80
  -4   6   1  563.14   27.50
  -4   6   1  595.94   23.40
  -4   6   1  591.74   23.00
  -4   6   1  537.45   25.50
   3  -6  -1   35.70    6.70
   3  -6  -1   25.60    3.30
   3  -6  -1   28.60    3.40
   3  -6  -1   31.30    4.40
  -3   6   1   33.30    2.80
  -3   6   1   32.30    2.80
  -3   6   1   26.80    4.40
  -3   6   1   37.70    4.50
   2  -6  -1  596.24   24.10
   2  -6  -1  562.94   23.70
   2  -6  -1  559.74   23.40
   2  -6  -1  570.64   22.20
   2  -6  -1  572.94   25.10
  -2   6   1  572.94   22.30
  -2   6   1  560.04   24.00
  -2   6   1  544.15   23.20
   1  -6  -1   30.30    3.60
   1  -6  -1   26.90    2.40
   1  -6  -1   25.20    4.50
   1  -6  -1   27.70    4.00
  -1   6   1   23.90    4.00
  -1   6   1   20.20    3.00
  -1   6   1   16.80    4.60
  -1   6   1   22.80    3.00
  -1   6   1   21.40    3.90
   0  -6  -1   42.20    3.00
   0  -6  -1   40.50    5.30
   0  -6  -1   49.99    5.80
   0   6   1   42.50    4.60
   0   6   1   45.90    5.50
   0   6   1   43.30    4.20
   0   6   1   39.10    5.70
  -1  -6  -1  389.56   15.50
  -1  -6  -1  370.86   16.50
  -1  -6  -1  407.06   17.90
  -1  -6  -1  341.87   19.00
   1   6   1  347.57   17.40
   1   6   1  360.46   17.10
   1   6   1  360.26   16.80
   1   6   1  362.46   17.60
  -2  -6  -1   14.20    3.80
  -2  -6  -1   15.50    4.40
  -2  -6  -1   15.60    5.20
  -2  -6  -1   16.00    3.60
  -2  -6  -1   20.60    3.50
   2   6   1   14.00    3.40
   2   6   1   11.60    3.20
   2   6   1   18.20    4.20
  -3  -6  -1   -3.40    2.40
  -3  -6  -1   10.80    5.60
  -3  -6  -1    0.70    3.30
   3   6   1    1.40    1.30
   3   6   1   -3.70    2.70
   3   6   1   -0.40    2.80
  -4  -6  -1   -0.70    3.90
  -4  -6  -1    4.60    3.40
  -4  -6  -1   -6.30    6.00
   4   6   1    6.00    4.20
  -5  -6  -1   47.70    7.70
  -5  -6  -1   38.00   10.80
  -5  -6  -1   44.10    6.80
   5   6   1   50.49    7.60
   5   6   1   52.19    8.10
   5   6   1   55.09    4.80
   8  -7  -1    6.50    3.70
  -8   7   1    5.20    3.60
  -8   7   1   11.20    4.20
  -8   7   1   21.00    6.70
   7  -7  -1    2.80    3.10
  -7   7   1    2.50    2.80
  -7   7   1   -0.50    2.80
   6  -7  -1   57.99    5.50
   6  -7  -1   86.59   17.20
   6  -7  -1   57.09    5.70
  -6   7   1   54.79    5.00
  -6   7   1   53.79    5.70
   5  -7  -1   76.89    6.10
   5  -7  -1   75.49    6.00
   5  -7  -1  107.49   17.90
  -5   7   1   76.69    6.90
  -5   7   1   80.19    5.70
  -5   7   1   66.39    9.50
  -5   7   1   75.89   10.40
  -5   7   1   78.79    5.10
  -5   7   1   96.19   10.50
   4  -7  -1   16.20    2.90
   4  -7  -1   20.70    3.50
   4  -7  -1   19.70    8.70
  -4   7   1   24.50    3.70
  -4   7   1   27.50    3.30
  -4   7   1   25.00    5.80
  -4   7   1   27.40    2.90
  -4   7   1   19.70    5.10
   3  -7  -1  105.09    6.90
   3  -7  -1  122.19    7.50
   3  -7  -1  140.89   12.20
  -3   7   1  126.49    9.60
  -3   7   1  133.19    6.70
  -3   7   1  129.69    6.60
  -3   7   1  121.49    8.20
   2  -7  -1  171.68    9.70
   2  -7  -1  175.98    8.40
   2  -7  -1  186.58   10.70
   2  -7  -1  166.58    9.50
  -2   7   1  173.68    8.60
  -2   7   1  157.38    9.10
  -2   7   1  174.98   10.60
   1  -7  -1  173.98   10.60
   1  -7  -1  170.08   10.20
   1  -7  -1  168.18    9.70
  -1   7   1  155.08    8.70
  -1   7   1  167.08    9.40
  -1   7   1  160.38   10.20
   0  -7  -1 1038.00   43.70
   0  -7  -1 1075.19   42.20
   0  -7  -1 1056.59   42.00
   0   7   1 1034.70   40.90
   0   7   1 1032.40   41.60
   0   7   1 1045.70   41.80
  -1  -7  -1  384.36   20.60
  -1  -7  -1  399.16   18.70
  -1  -7  -1  385.26   17.50
  -1  -7  -1  374.36   18.60
  -1  -7  -1  385.86   16.10
   1   7   1  395.66   18.00
   1   7   1  368.26   18.30
   1   7   1  387.66   18.50
  -2  -7  -1  107.79    7.90
  -2  -7  -1  106.09    9.80
  -2  -7  -1  109.49    9.00
  -2  -7  -1  118.89   11.00
  -2  -7  -1  109.59    7.70
   2   7   1  114.29    8.60
   2   7   1   85.99    8.80
   2   7   1  112.59    8.80
  -3  -7  -1   24.00    7.20
  -3  -7  -1   11.80    4.70
  -3  -7  -1   13.50    3.40
  -3  -7  -1   15.10    4.50
   3   7   1   12.50    4.10
   3   7   1   13.70    4.20
  -4  -7  -1    2.30    5.10
  -4  -7  -1    2.10    3.60
   4   7   1    0.00    4.20
   4   7   1   -2.40    3.60
  -5  -7  -1  101.79   14.20
  -5  -7  -1   94.49   16.80
  -5  -7  -1   70.69    8.50
   5   7   1  108.09   11.30
   5   7   1   91.59    9.70
   7  -8  -1   -3.90    3.50
  -7   8   1    0.60    3.20
  -7   8   1    0.30    2.80
   6  -8  -1   44.40    5.50
   6  -8  -1   38.00    5.90
   6  -8  -1   74.99   13.80
  -6   8   1   48.40    4.60
  -6   8   1   30.70    5.30
  -6   8   1   44.40    8.40
   5  -8  -1    5.80    3.00
   5  -8  -1   15.80    3.40
  -5   8   1   11.00    2.10
  -5   8   1   11.80    6.30
  -5   8   1   16.70    3.10
   4  -8  -1   -1.40    2.00
   4  -8  -1    2.40    2.30
   4  -8  -1    6.40    9.40
  -4   8   1   -2.20    4.80
  -4   8   1    1.60    1.50
  -4   8   1   -0.70    4.10
  -4   8   1    0.40    1.70
   3  -8  -1  152.88    8.10
   3  -8  -1  163.98   13.70
   3  -8  -1  149.09    8.90
  -3   8   1  140.79    9.70
  -3   8   1  148.09   11.30
  -3   8   1  139.29    7.60
   2  -8  -1   68.89    6.40
   2  -8  -1   75.29    5.00
   2  -8  -1   68.29    6.40
   2  -8  -1   89.99    8.70
  -2   8   1   71.89    5.30
  -2   8   1   70.19    5.90
  -2   8   1   71.09    8.00
   1  -8  -1  653.83   27.30
   1  -8  -1  621.24   27.90
   1  -8  -1  638.44   27.10
  -1   8   1  628.24   27.10
  -1   8   1  596.34   26.40
  -1   8   1  608.44   25.60
   0  -8  -1  618.74   26.20
   0  -8  -1  596.44   26.10
   0  -8  -1  568.54   27.60
   0   8   1  579.84   24.80
   0   8   1  576.84   25.60
   0   8   1  582.74   27.00
  -1  -8  -1  360.66   16.50
  -1  -8  -1  336.27   19.60
  -1  -8  -1  399.06   18.00
  -1  -8  -1  327.37   17.40
   1   8   1  299.17   17.20
   1   8   1  339.57   16.70
   1   8   1  329.17   17.00
  -2  -8  -1  174.48   10.50
  -2  -8  -1  188.48   12.50
  -2  -8  -1  175.18   13.20
  -2  -8  -1  201.98   15.10
   2   8   1  183.48   11.90
   2   8   1  180.48   11.80
  -3  -8  -1   13.90    6.10
  -3  -8  -1   21.60    5.70
  -3  -8  -1   24.40    7.90
  -3  -8  -1   15.80    4.00
   3   8   1   25.70    5.70
   3   8   1   12.80    4.30
  -4  -8  -1    0.80    3.80
  -4  -8  -1   -0.10    6.40
  -4  -8  -1   26.00   10.30
   4   8   1    1.00    4.00
   4   8   1   -0.20    4.90
   7  -9  -1   24.70    5.00
   7  -9  -1   20.80    4.20
  -7   9   1   39.10    6.00
  -7   9   1   28.80    4.20
  -6   9   1    9.80    7.10
  -6   9   1    4.30    2.70
   5  -9  -1    1.20    2.60
  -5   9   1    5.00    6.90
  -5   9   1    4.90    3.10
  -5   9   1    4.80    2.20
   4  -9  -1   46.30    5.70
   4  -9  -1   47.40    5.30
   4  -9  -1   50.09   12.20
  -4   9   1   46.10    8.20
  -4   9   1   43.80    4.30
  -4   9   1   50.19    4.70
   3  -9  -1   68.39    6.50
  -3   9   1   67.69    7.30
  -3   9   1   70.59    5.30
  -3   9   1   60.89    9.00
   2  -9  -1  103.49    8.00
   2  -9  -1  109.09    5.70
   2  -9  -1  108.09    8.30
  -2   9   1  121.39   10.70
  -2   9   1   94.29    7.70
  -2   9   1  110.09    7.00
   1  -9  -1   28.30    6.20
   1  -9  -1   29.10    5.30
  -1   9   1   28.90    6.10
  -1   9   1   23.60    4.40
  -1   9   1   25.10    4.40
   0  -9  -1    2.20    4.00
  -1  -9  -1  294.47   18.80
  -1  -9  -1  286.97   16.90
  -1  -9  -1  336.87   20.40
   1   9   1  252.97   16.90
  -2  -9  -1   34.30    6.40
  -2  -9  -1   23.20    5.50
   2   9   1   27.70    5.80
   2   9   1   36.20    5.70
  -3  -9  -1   25.70    9.20
  -3  -9  -1   21.30    6.40
  -3  -9  -1   28.10    6.70
  -3  -9  -1   27.60    5.40
   3   9   1   25.90    5.60
   3   9   1   34.60    6.60
   6 -10  -1   21.80    4.50
  -6  10   1   13.50    2.70
  -6  10   1   30.10    9.70
   5 -10  -1    7.10   13.30
  -5  10   1    6.10    2.50
  -5  10   1   -4.20    8.60
   4 -10  -1  238.88   13.30
   4 -10  -1  318.67   23.70
   4 -10  -1  285.07   14.50
  -4  10   1  278.87   17.80
  -4  10   1  270.57   12.60
  -4  10   1  266.97   13.00
   2 -10  -1  216.18   12.50
   2 -10  -1  201.38   13.50
  -2  10   1  205.28   12.90
  -2  10   1  238.58   12.10
   1 -10  -1   13.00    4.00
   1 -10  -1   15.40    4.90
  -1  10   1   14.40    4.80
   0 -10  -1    0.00    4.90
   0  10   1    2.70    3.60
   0  10   1    2.70    3.20
  -1 -10  -1   46.10    9.20
  -1 -10  -1   70.49   10.40
   1  10   1   47.70    6.70
   1  10   1   58.19    7.90
  -2 -10  -1   40.90    9.00
  -2 -10  -1   20.40    7.10
  -2 -10  -1   26.00    6.30
   2  10   1   29.60    5.70
   2  10   1   39.30    7.00
   5 -11  -1   99.29    8.60
   5 -11  -1   86.99    9.30
  -5  11   1   93.79    6.80
  -5  11   1  114.89    7.70
  -5  11   1   89.29   16.60
   4 -11  -1   94.99    8.40
  -4  11   1   67.59   11.10
  -4  11   1   90.19    6.70
  -4  11   1   96.99    6.50
   3 -11  -1  221.38   13.10
  -3  11   1  189.58   14.00
  -3  11   1  234.58   11.30
   2 -11  -1   68.19    8.40
   2 -11  -1   73.59    7.80
  -2  11   1   75.69    6.50
  -2  11   1   52.59    7.10
   1 -11  -1   43.80    8.10
   1 -11  -1   55.09    8.90
  -1  11   1   46.80    6.40
  -1  11   1   37.50    6.80
   3 -12  -1   78.09    8.20
  -3  12   1   82.69    6.60
  -3  12   1   62.29    9.30
   2 -12  -1   -0.10    4.40
   2 -12  -1   -0.70    3.80
  -2  12   1   -1.10    2.80
  -2  12   1    9.80    4.70
   0  12  -2   51.49    8.00
   0  12  -2   62.69    8.80
   0 -12   2   63.19    8.60
   0 -12   2   65.09   11.80
   0 -12   2   87.29   11.60
  -1  12  -2   12.70    4.50
  -1  12  -2    2.10    5.20
   1 -12   2   15.30    5.50
   1 -12   2    4.90    4.10
   1 -12   2    6.60    6.20
  -2  12  -2   89.09    7.80
  -2  12  -2   72.79   11.50
   2 -12   2   71.29   10.80
  -3  12  -2   67.69    6.80
  -3  12  -2   86.59   13.10
   3 -12   2   96.19   15.90
   3 -12   2   78.19    8.60
  -4  12  -2    4.40    2.10
  -4  12  -2   -8.50    9.30
  -4  12  -2    0.20    3.00
   4 -12   2   -0.10    3.50
   1  11  -2    3.90    4.40
   1  11  -2    1.10    4.20
  -1 -11   2    3.80    7.80
  -1 -11   2   -7.00    6.40
   0  11  -2    2.60    3.40
   0  11  -2    4.80    4.60
   0 -11   2    7.10    6.20
   0 -11   2    7.60    3.90
   0 -11   2    6.90    5.20
  -1  11  -2   93.39    8.00
  -1  11  -2   80.29    9.20
   1 -11   2   70.29   11.50
   1 -11   2   79.09    7.50
  -2  11  -2   20.90    3.90
  -2  11  -2   24.50    6.90
   2 -11   2   29.80    5.70
   2 -11   2   22.90    6.90
  -3  11  -2   -2.30    8.10
  -3  11  -2    2.10    2.70
   3 -11   2   -1.00    3.30
   3 -11   2    2.00    7.70
  -4  11  -2   48.50   12.20
  -4  11  -2   61.89    5.10
  -4  11  -2   59.29    6.00
   4 -11   2   61.09    7.20
   4 -11   2   58.49    5.60
  -5  11  -2   22.50    3.70
  -5  11  -2   21.60    3.00
  -5  11  -2   39.20   12.30
   5 -11   2   19.80    3.40
   5 -11   2   26.00    4.50
  -6  11  -2   11.00    3.80
  -6  11  -2   -4.20    9.90
  -6  11  -2   13.30    2.90
   6 -11   2   17.90   31.40
   6 -11   2   12.80    3.60
   3  10  -2    2.90    4.80
   3  10  -2    4.80    4.30
  -3 -10   2   -0.50    4.40
  -3 -10   2   -4.90   11.50
   2  10  -2   12.10    4.70
  -2 -10   2   10.90    6.50
  -2 -10   2    5.60    6.40
  -2 -10   2    6.10    4.30
   1  10  -2   65.19    7.00
   1  10  -2   78.89    8.10
  -1 -10   2   71.69    9.60
  -1 -10   2   56.69    9.00
  -1 -10   2   78.79   14.20
   0  10  -2   34.50    9.20
   0  10  -2   42.40    7.70
   0 -10   2   37.60    9.60
   0 -10   2   54.89    9.00
   0 -10   2   36.10    6.50
  -1  10  -2    2.10    3.60
  -1  10  -2    6.20    2.90
   1 -10   2    8.40    3.30
   1 -10   2   11.30    5.00
  -2  10  -2   87.69    9.30
  -2  10  -2   97.69    7.30
   2 -10   2   82.79    8.70
   2 -10   2  101.79   10.70
  -3  10  -2   31.30    8.60
  -3  10  -2   37.40    5.10
   3 -10   2   28.80    7.20
   3 -10   2   38.80    5.70
   3 -10   2   28.90    3.90
  -4  10  -2   26.70    4.80
  -4  10  -2   27.90   10.00
  -4  10  -2   29.30    4.00
   4 -10   2   28.30    5.60
   4 -10   2   37.80   10.90
  -5  10  -2   27.60   10.60
  -5  10  -2   29.50    5.10
  -5  10  -2   33.10    4.00
   5 -10   2   37.30    5.10
   5 -10   2   -0.30   16.80
  -6  10  -2  129.09    7.80
  -6  10  -2  158.28    9.80
  -6  10  -2  142.69   17.50
   6 -10   2  124.19   10.30
   6 -10   2  149.69    8.60
   4   9  -2    0.80    4.90
   4   9  -2   -4.80    3.70
  -4  -9   2   -1.30    4.90
  -4  -9   2    3.30    7.50
  -4  -9   2    6.10    7.40
   3   9  -2   20.70    5.30
   3   9  -2   33.00    5.50
  -3  -9   2   30.30    7.80
  -3  -9   2   21.60    6.70
   2   9  -2  251.97   14.90
  -2  -9   2  260.57   14.80
  -2  -9   2  263.27   17.00
  -2  -9   2  247.68   16.70
  -2  -9   2  263.37   15.90
   1   9  -2  403.66   20.30
   1   9  -2  436.76   20.90
  -1  -9   2  441.16   22.30
  -1  -9   2  461.75   22.50
  -1  -9   2  450.75   21.20
  -1  -9   2  445.36   21.90
   0   9  -2   61.29    6.30
   0   9  -2   60.39    6.50
   0  -9   2   90.79    8.50
   0  -9   2   63.09    8.40
   0  -9   2   69.19    7.40
   0  -9   2   67.09    5.60
   0  -9   2   74.79    4.60
  -1   9  -2  649.64   30.70
  -1   9  -2  726.33   29.90
   1  -9   2  769.82   31.40
   1  -9   2  716.83   30.20
   1  -9   2  734.73   30.90
  -2   9  -2   14.20    4.60
  -2   9  -2   10.50    2.70
  -2   9  -2    4.40    5.00
   2  -9   2   10.00    1.80
   2  -9   2    7.20    3.90
   2  -9   2   11.20    3.10
  -3   9  -2   98.99   13.10
  -3   9  -2   87.09   10.40
  -3   9  -2   86.09    6.20
   3  -9   2   87.19    4.90
   3  -9   2   86.19    6.80
   3  -9   2   85.79   11.50
  -4   9  -2   32.00    3.40
  -4   9  -2   24.30    9.10
  -4   9  -2   34.60    4.30
   4  -9   2   28.00    2.70
   4  -9   2   34.50    3.50
   4  -9   2   36.80    9.90
   4  -9   2   27.50    4.40
  -5   9  -2   13.80    7.50
   5  -9   2   32.70   14.30
  -6   9  -2  160.08    9.80
  -6   9  -2  146.99    8.50
  -6   9  -2  183.78    8.70
  -6   9  -2  157.58   16.30
   6  -9   2  135.79    8.70
   6  -9   2  155.48    9.10
   6  -9   2  155.78    7.80
   6  -9   2  171.68   28.10
  -7   9  -2   20.60    4.50
  -7   9  -2   30.90    4.20
   7  -9   2   22.40    4.20
   7  -9   2   30.80    4.30
   5   8  -2   -2.00    4.90
   5   8  -2    8.30    4.40
  -5  -8   2   -2.50    4.80
  -5  -8   2   -4.40    6.80
   4   8  -2    2.10    5.20
   4   8  -2    7.30    3.80
  -4  -8   2   -6.00   11.10
  -4  -8   2   10.00    5.70
  -4  -8   2    7.20    4.20
   3   8  -2   41.60    5.40
  -3  -8   2   36.30    7.90
  -3  -8   2   27.80    5.70
  -3  -8   2   34.60    6.00
   2   8  -2  104.39    7.70
   2   8  -2   95.69    8.30
  -2  -8   2   97.29    8.20
  -2  -8   2  103.49    9.90
  -2  -8   2  113.69   10.70
   1   8  -2   14.90    3.80
   1   8  -2   13.90    3.10
  -1  -8   2   14.60    4.50
  -1  -8   2   19.80    4.10
  -1  -8   2   19.30    4.40
  -1  -8   2   17.10    2.70
  -1  -8   2   19.20    5.00
   0   8  -2  133.99    8.80
   0   8  -2  134.69   10.30
   0   8  -2  145.49    9.00
   0  -8   2  146.19   10.00
   0  -8   2  145.09    9.30
   0  -8   2  144.59    6.60
   0  -8   2  145.09    9.80
   0  -8   2  148.29   10.40
  -1   8  -2  345.27   18.00
  -1   8  -2  384.16   17.50
  -1   8  -2  350.86   19.10
   1  -8   2  386.66   18.30
   1  -8   2  376.86   14.60
   1  -8   2  407.46   17.80
   1  -8   2  401.56   18.70
   1  -8   2  397.46   15.40
   1  -8   2  400.96   14.30
  -2   8  -2  116.69   10.90
  -2   8  -2  120.89    9.60
  -2   8  -2  133.69    7.70
   2  -8   2  137.29    9.40
   2  -8   2  132.89    5.90
   2  -8   2  120.79    8.20
  -3   8  -2  280.97   11.90
  -3   8  -2  265.47   12.50
  -3   8  -2  239.68   16.00
  -3   8  -2  248.58   17.00
   3  -8   2  274.97   16.90
   3  -8   2  278.17   11.00
   3  -8   2  275.47   13.00
  -4   8  -2   29.00    3.00
  -4   8  -2   49.50    9.60
  -4   8  -2   29.30    3.70
  -4   8  -2   22.30    6.50
   4  -8   2   26.20    3.50
   4  -8   2   28.20    4.00
   4  -8   2   30.60    9.70
  -5   8  -2   34.00    4.20
  -5   8  -2   20.60    5.60
  -5   8  -2   20.10    7.40
  -5   8  -2   27.00    3.10
   5  -8   2   21.20    3.90
   5  -8   2   32.00   12.10
   5  -8   2   25.20    2.90
  -6   8  -2   -2.30    1.90
  -6   8  -2    4.10    2.80
   6  -8   2   -0.20    1.80
   6  -8   2    5.10    2.10
  -7   8  -2  127.89    9.50
  -7   8  -2  146.39    9.00
   7  -8   2  125.39    7.60
   7  -8   2  120.79    8.10
   5   7  -2   31.80    6.60
   5   7  -2   23.00    5.90
  -5  -7   2   41.20    7.60
  -5  -7   2   28.60    8.30
   4   7  -2  225.08   12.60
   4   7  -2  211.38   11.10
  -4  -7   2  214.38   14.90
  -4  -7   2  205.18   13.30
  -4  -7   2  245.18   17.20
   3   7  -2   71.79    6.50
   3   7  -2   75.09    4.70
   3   7  -2   72.29    7.60
  -3  -7   2   79.59    8.70
  -3  -7   2   67.59    7.20
   2   7  -2  139.99    8.90
   2   7  -2  149.49    9.50
  -2  -7   2  111.29   11.20
  -2  -7   2  152.38   10.50
  -2  -7   2  141.09    9.50
  -2  -7   2  133.29    7.90
   1   7  -2    2.80    2.10
   1   7  -2    2.10    2.50
   1   7  -2    1.50    3.40
  -1  -7   2    0.80    3.10
  -1  -7   2    6.30    3.20
  -1  -7   2   -2.70    2.60
   0   7  -2    8.70    2.50
   0   7  -2   10.10    2.70
   0   7  -2    3.50    2.90
   0   7  -2    6.20    3.80
   0  -7   2    8.30    3.40
   0  -7   2    6.30    2.40
   0  -7   2    6.40    3.10
  -1   7  -2   27.80    5.90
  -1   7  -2   28.80    3.80
  -1   7  -2   22.50    4.50
  -1   7  -2   25.60    4.00
   1  -7   2   28.00    4.20
   1  -7   2   26.80    3.50
   1  -7   2   30.50    5.30
   1  -7   2   29.40    3.10
  -2   7  -2  967.90   40.60
  -2   7  -2  949.31   39.70
  -2   7  -2  924.91   37.50
  -2   7  -2  974.90   40.30
   2  -7   2 1007.70   36.20
   2  -7   2 1033.60   39.80
   2  -7   2  952.40   38.20
  -3   7  -2   47.60    8.50
  -3   7  -2   45.10    5.50
  -3   7  -2   51.49    3.60
  -3   7  -2   51.29    4.10
  -3   7  -2   52.59    7.90
   3  -7   2   60.89    8.90
   3  -7   2   50.99    4.50
   3  -7   2   51.09    3.60
  -4   7  -2  408.86   17.30
  -4   7  -2  358.06   20.20
  -4   7  -2  414.26   23.50
  -4   7  -2  408.56   16.50
  -4   7  -2  389.96   18.60
   4  -7   2  428.76   16.50
   4  -7   2  432.86   28.90
   4  -7   2  407.96   17.30
  -5   7  -2  120.39    7.00
  -5   7  -2  106.89    6.90
  -5   7  -2   89.89   11.90
  -5   7  -2  101.59    6.00
   5  -7   2   96.19    6.30
   5  -7   2   99.19    5.80
   5  -7   2  142.39   18.90
  -6   7  -2    6.20    2.10
  -6   7  -2    2.90    2.60
  -6   7  -2    3.40    2.30
   6  -7   2    1.30    1.90
   6  -7   2   23.60   10.40
  -7   7  -2  345.57   16.00
  -7   7  -2  330.97   16.40
   7  -7   2  290.17   14.30
  -8   7  -2    0.60    3.70
   8  -7   2    2.40    2.80
   8  -7   2    4.50    3.10
   8  -7   2  -10.80   19.80
   6   6  -2   33.70    9.90
   6   6  -2   44.80    7.40
  -6  -6   2   49.00    7.80
  -6  -6   2   37.50    6.60
  -6  -6   2   43.50    7.60
  -6  -6   2   16.70   11.90
   5   6  -2  247.88   15.40
   5   6  -2  253.97   13.30
   5   6  -2  228.18   11.50
  -5  -6   2  220.18   14.20
  -5  -6   2  229.88   14.40
  -5  -6   2  187.08   17.00
  -5  -6   2  229.68   15.50
   4   6  -2  263.97   12.30
   4   6  -2  244.28   14.90
   4   6  -2  272.97   14.00
  -4  -6   2  276.17   15.20
  -4  -6   2  274.87   15.90
   3   6  -2  311.77   16.30
   3   6  -2  328.07   15.70
   3   6  -2  323.87   13.60
  -3  -6   2  312.87   16.30
  -3  -6   2  313.97   17.00
  -3  -6   2  326.37   18.60
   2   6  -2  125.59    6.00
   2   6  -2  132.19    8.80
   2   6  -2  127.39    8.00
  -2  -6   2  139.29   10.30
  -2  -6   2  125.09    8.90
  -2  -6   2  128.89    8.70
  -2  -6   2  126.69    7.20
   1   6  -2  248.18   13.50
   1   6  -2  250.87   12.70
   1   6  -2  250.57   12.30
  -1  -6   2  254.27   14.00
  -1  -6   2  257.77   10.80
  -1  -6   2  250.27   13.30
  -1  -6   2  251.07   13.10
   0   6  -2  410.36   18.60
   0   6  -2  387.86   17.60
   0   6  -2  397.36   19.40
   0   6  -2  380.76   18.70
   0   6  -2  407.86   17.80
   0  -6   2  407.96   18.40
   0  -6   2  399.86   18.10
   0  -6   2  414.66   18.60
   0  -6   2  416.96   18.70
  -1   6  -2  330.47   16.50
  -1   6  -2  348.87   16.40
  -1   6  -2  340.27   15.00
  -1   6  -2  340.67   15.80
  -1   6  -2  343.97   16.50
   1  -6   2  341.77   16.10
   1  -6   2  307.37   15.10
   1  -6   2  344.57   15.10
   1  -6   2  361.06   14.00
   1  -6   2  319.67   15.30
  -2   6  -2  318.77   18.90
  -2   6  -2  345.17   15.20
  -2   6  -2  364.76   18.10
  -2   6  -2  355.06   17.00
   2  -6   2  358.56   15.70
   2  -6   2  383.16   14.60
   2  -6   2  371.76   16.50
  -3   6  -2  918.61   36.20
  -3   6  -2  930.11   35.30
  -3   6  -2  870.11   33.10
  -3   6  -2  831.22   36.10
  -3   6  -2  857.01   33.80
  -3   6  -2  811.32   39.30
  -3   6  -2  881.01   34.60
   3  -6   2  903.21   39.50
   3  -6   2  911.61   35.10
   3  -6   2  914.91   33.50
   3  -6   2  871.11   33.90
  -4   6  -2  311.47   18.90
  -4   6  -2  284.97   12.10
  -4   6  -2  282.77   12.90
  -4   6  -2  260.87   14.30
  -4   6  -2  293.27   13.90
  -4   6  -2  271.67   16.30
   4  -6   2  288.17   12.60
   4  -6   2  281.87   21.10
   4  -6   2  298.37   12.50
  -5   6  -2   63.29    4.60
  -5   6  -2   52.69    4.50
  -5   6  -2   56.49    4.90
   5  -6   2   54.39    4.40
   5  -6   2   56.69    4.30
   5  -6   2   52.09   11.50
  -6   6  -2   69.19    5.80
  -6   6  -2   82.19    6.30
   6  -6   2   67.69   12.50
   6  -6   2   56.09    4.70
  -7   6  -2   20.10    4.30
   7  -6   2   10.10   12.60
  -8   6  -2  114.29   10.90
  -8   6  -2  121.59   12.10
  -8   6  -2  140.09   10.70
   8  -6   2  140.09    8.90
   8  -6   2  143.09    9.00
   6   5  -2   12.20    5.60
   6   5  -2    9.90    3.40
   6   5  -2    2.70    3.40
  -6  -5   2    3.40    5.60
  -6  -5   2    5.20    7.90
  -6  -5   2    8.40    4.40
  -6  -5   2   10.60    5.00
   5   5  -2  115.99   10.20
   5   5  -2  118.59    8.50
   5   5  -2  117.39    7.60
  -5  -5   2  108.09    9.60
  -5  -5   2  105.59    9.90
  -5  -5   2  116.09    9.60
  -5  -5   2  147.09   13.90
   4   5  -2  447.16   19.70
   4   5  -2  410.76   17.80
   4   5  -2  407.66   20.50
  -4  -5   2  469.45   24.00
  -4  -5   2  425.36   20.60
  -4  -5   2  405.46   20.10
  -4  -5   2  405.36   20.80
   3   5  -2    0.50    2.00
   3   5  -2    1.60    2.70
   3   5  -2    2.00    1.70
  -3  -5   2   -2.80    2.70
  -3  -5   2    0.30    2.40
  -3  -5   2   -1.60    2.30
   2   5  -2  892.41   35.40
   2   5  -2  940.31   33.50
   2   5  -2  868.21   36.40
   2   5  -2  883.71   36.10
   2   5  -2  896.31   36.20
  -2  -5   2  920.81   37.70
  -2  -5   2  886.41   34.00
  -2  -5   2  899.31   36.30
  -2  -5   2  833.82   37.30
  -2  -5   2  893.31   36.50
   1   5  -2  626.94   25.50
   1   5  -2  639.94   26.00
   1   5  -2  570.54   24.60
   1   5  -2  612.84   25.00
   1   5  -2  597.44   24.60
  -1  -5   2  644.14   23.30
  -1  -5   2  588.44   25.90
  -1  -5   2  602.34   25.30
  -1  -5   2  556.14   28.00
  -1  -5   2  584.04   25.20
  -1  -5   2  605.64   25.60
   0   5  -2  302.07   14.20
   0   5  -2  310.57   14.60
   0   5  -2  289.27   13.30
   0   5  -2  293.27   14.30
   0   5  -2  298.17   13.40
   0  -5   2  281.07   11.30
   0  -5   2  305.17   14.30
   0  -5   2  310.07   14.00
   0  -5   2  288.67   13.60
   0  -5   2  274.07   13.40
   0  -5   2  288.77   14.00
  -1   5  -2   60.69    4.90
  -1   5  -2   60.89    5.30
  -1   5  -2   59.59    4.30
  -1   5  -2   60.79    5.60
  -1   5  -2   56.19    5.20
   1  -5   2   62.89    4.90
   1  -5   2   67.19    4.70
   1  -5   2   69.69    5.10
   1  -5   2   66.09    4.20
   1  -5   2   61.99    4.20
   1  -5   2   60.79    5.40
  -2   5  -2   28.80    4.10
  -2   5  -2   32.20    4.70
  -2   5  -2   32.20    3.90
  -2   5  -2   29.70    3.60
  -2   5  -2   22.30    4.80
  -2   5  -2   30.10    2.70
  -2   5  -2   29.60    4.80
   2  -5   2   23.10    4.30
   2  -5   2   32.30    3.70
   2  -5   2   32.00    3.50
   2  -5   2   31.40    2.90
   2  -5   2   24.60    3.30
  -3   5  -2   53.69    4.60
  -3   5  -2   43.20    5.10
  -3   5  -2   47.20    4.40
  -3   5  -2   46.10    3.40
  -3   5  -2   47.90    2.90
  -3   5  -2   50.99    7.50
   3  -5   2   49.60    3.90
   3  -5   2   49.20    3.60
   3  -5   2   37.90    4.20
   3  -5   2   46.00    4.70
  -4   5  -2   13.20    2.60
  -4   5  -2   16.90    2.80
  -4   5  -2   16.00    4.00
  -4   5  -2   17.20    5.20
  -4   5  -2   15.00    2.10
  -4   5  -2    9.30    4.60
  -4   5  -2   14.00    2.60
   4  -5   2   17.60    2.50
   4  -5   2   15.70    2.60
   4  -5   2   22.00    6.40
   4  -5   2   15.70    3.40
  -5   5  -2  107.39    5.70
  -5   5  -2  108.29    6.90
  -5   5  -2   99.09    6.50
  -5   5  -2  101.19    6.30
   5  -5   2  100.89    6.10
   5  -5   2  103.99    9.00
   5  -5   2   72.39   11.20
  -6   5  -2    0.60    2.40
  -6   5  -2    1.10    2.30
   6  -5   2   -0.50    1.70
   6  -5   2   -4.40    7.90
  -7   5  -2   28.10    5.20
   7  -5   2   23.20    4.40
  -8   5  -2   10.20    4.40
  -8   5  -2   -2.20    4.30
  -8   5  -2    9.70    5.00
   8  -5   2    1.60    3.10
   7   4  -2   92.19    8.30
   7   4  -2   90.09   11.90
   7   4  -2  107.09    9.10
  -7  -4   2   88.69   12.00
  -7  -4   2   89.99   10.20
  -7  -4   2  104.19   11.50
   6   4  -2  214.08   11.90
   6   4  -2  214.68   14.70
   6   4  -2  233.18   12.70
  -6  -4   2  213.58   14.30
  -6  -4   2  225.68   15.60
  -6  -4   2  208.78   13.70
   5   4  -2   24.40    4.80
   5   4  -2   36.80    4.60
   5   4  -2   38.20    6.30
  -5  -4   2   36.10    5.80
  -5  -4   2   43.70    7.00
  -5  -4   2   34.50    5.00
   4   4  -2    9.20    2.30
   4   4  -2    2.20    2.20
   4   4  -2    3.10    3.00
  -4  -4   2    5.60    3.30
  -4  -4   2    5.30    3.10
  -4  -4   2    7.40    3.10
   3   4  -2  173.98    9.40
   3   4  -2  164.48   10.20
   3   4  -2  166.88   11.00
   3   4  -2  177.08    8.40
   3   4  -2  159.98   10.20
  -3  -4   2  176.38    9.10
  -3  -4   2  175.58   10.50
  -3  -4   2  173.18    9.90
  -3  -4   2  190.88   12.40
  -3  -4   2  176.08   10.40
  -3  -4   2  169.88   11.40
   2   4  -2 1740.93   63.29
   2   4  -2 1632.74   63.29
   2   4  -2 1736.63   63.99
   2   4  -2 1705.73   64.09
   2   4  -2 1644.14   61.79
   2   4  -2 1714.13   64.09
  -2  -4   2 1656.83   63.39
  -2  -4   2 1626.64   64.29
  -2  -4   2 1708.63   65.59
  -2  -4   2 1704.33   64.39
  -2  -4   2 1708.33   64.49
  -2  -4   2 1718.53   62.29
   1   4  -2  124.89    7.00
   1   4  -2  132.29    8.00
   1   4  -2  130.49    7.80
   1   4  -2  122.79    7.10
   1   4  -2  128.59    6.90
   1   4  -2  124.49    5.80
  -1  -4   2  131.39    8.10
  -1  -4   2  132.29    7.50
  -1  -4   2  131.09    5.10
  -1  -4   2  108.49    7.60
  -1  -4   2  116.89    7.70
  -1  -4   2  124.59    7.50
  -1  -4   2  130.29    6.10
   0   4  -2  785.42   31.80
   0   4  -2  818.12   31.80
   0   4  -2  821.12   31.20
   0   4  -2  834.82   32.00
   0   4  -2  780.52   31.10
   0  -4   2  801.42   31.40
   0  -4   2  793.62   31.50
   0  -4   2  823.32   29.80
   0  -4   2  808.72   31.40
   0  -4   2  814.02   31.40
   0  -4   2  776.32   31.70
  -1   4  -2    8.20    2.20
  -1   4  -2    6.90    2.50
  -1   4  -2    7.10    2.10
  -1   4  -2    4.40    1.50
  -1   4  -2    5.10    1.40
   1  -4   2    6.70    1.60
   1  -4   2    7.80    2.30
   1  -4   2    8.60    1.90
   1  -4   2    6.80    1.40
   1  -4   2    7.10    1.60
   1  -4   2    6.90    1.80
  -2   4  -2   43.30    6.70
  -2   4  -2   44.40    2.70
  -2   4  -2   38.20    4.00
  -2   4  -2   45.20    4.90
  -2   4  -2   46.30    3.60
  -2   4  -2   44.40    3.60
  -2   4  -2   47.20    3.10
   2  -4   2   46.00    6.10
   2  -4   2   43.80    3.50
   2  -4   2   48.90    4.40
   2  -4   2   41.50    3.00
   2  -4   2   42.00    3.60
  -3   4  -2   10.10    1.80
  -3   4  -2    9.70    1.40
  -3   4  -2    8.30    1.80
  -3   4  -2    7.60    2.50
  -3   4  -2    9.10    4.20
  -3   4  -2    7.40    3.30
   3  -4   2    7.80    2.00
   3  -4   2    7.60    1.90
   3  -4   2    8.60    1.50
   3  -4   2    8.10    3.10
   3  -4   2   10.70    6.20
  -4   4  -2  952.90   34.30
  -4   4  -2  889.21   35.20
  -4   4  -2 1005.70   36.00
  -4   4  -2  923.11   34.60
  -4   4  -2  903.51   40.60
  -4   4  -2  822.32   36.20
   4  -4   2  884.91   42.20
   4  -4   2  892.81   34.00
   4  -4   2  883.61   34.90
   4  -4   2  905.21   38.10
  -5   4  -2    7.80    2.00
  -5   4  -2    4.10    2.30
  -5   4  -2    3.10    1.70
   5  -4   2   19.20    5.80
   5  -4   2    1.70    4.60
   5  -4   2    6.10    1.90
  -6   4  -2   77.79    6.70
  -6   4  -2   55.79    6.10
   6  -4   2   75.19    5.50
   6  -4   2   94.29   12.60
  -7   4  -2   18.40    4.10
  -7   4  -2   27.90    5.30
   7  -4   2   24.80    4.50
  -8   4  -2   -0.30    4.20
  -8   4  -2   10.50    9.50
  -8   4  -2   -4.30    4.10
   8  -4   2   -1.30    2.90
   8  -4   2    6.10    2.80
   7   3  -2  130.09    9.90
   7   3  -2  147.19    9.50
   7   3  -2  131.99   12.60
  -7  -3   2  134.79   11.50
  -7  -3   2  123.39   12.00
  -7  -3   2  140.59   12.40
   6   3  -2  112.69    8.20
   6   3  -2  135.69    8.90
   6   3  -2  126.99   10.30
  -6  -3   2  127.99   10.60
  -6  -3   2  117.39   10.10
  -6  -3   2  121.69   10.20
   5   3  -2   19.00    4.40
   5   3  -2   13.50    2.80
   5   3  -2   12.90    3.00
  -5  -3   2   16.60    3.60
  -5  -3   2   14.80    4.30
  -5  -3   2   12.30    4.10
   4   3  -2   16.60    3.00
   4   3  -2   17.60    3.20
   4   3  -2   18.20    3.90
  -4  -3   2   17.30    3.80
  -4  -3   2   15.20    3.20
  -4  -3   2   18.60    3.60
   3   3  -2  461.15   20.40
   3   3  -2  495.05   20.10
   3   3  -2  476.45   20.40
   3   3  -2  434.96   19.60
   3   3  -2  483.25   21.00
   3   3  -2  482.85   18.90
  -3  -3   2  474.75   21.50
  -3  -3   2  486.05   21.00
  -3  -3   2  446.46   20.10
  -3  -3   2  487.65   19.40
  -3  -3   2  475.35   21.60
  -3  -3   2  451.05   20.60
   2   3  -2    1.30    1.50
   2   3  -2    3.40    1.50
   2   3  -2    3.80    1.20
  -2  -3   2    3.70    1.80
  -2  -3   2    1.00    1.60
  -2  -3   2    1.40    1.70
  -2  -3   2    2.20    1.20
   1   3  -2 8351.56  299.67
   0   3  -2  231.08   10.40
   0   3  -2  241.48   10.90
   0   3  -2  231.88   10.30
   0   3  -2  251.67   11.00
   0   3  -2  240.78   10.50
   0  -3   2  236.98   10.40
   0  -3   2  227.98    9.60
   0  -3   2  224.38   10.70
   0  -3   2  239.08   10.20
   0  -3   2  237.58   10.70
   0  -3   2  241.68   10.30
  -1   3  -2  654.73   24.90
  -1   3  -2  666.93   24.30
  -1   3  -2  619.84   25.20
  -1   3  -2  623.64   25.00
  -1   3  -2  612.64   24.20
  -1   3  -2  635.84   26.90
   1  -3   2  703.23   25.40
   1  -3   2  638.04   24.30
   1  -3   2  635.04   24.40
   1  -3   2  595.14   25.00
  -2   3  -2    8.70    2.20
  -2   3  -2    2.30    3.00
  -2   3  -2    4.60    1.10
  -2   3  -2    6.00    3.00
  -2   3  -2    5.80    1.30
  -2   3  -2    6.90    1.10
   2  -3   2    4.40    3.40
   2  -3   2    6.50    1.20
   2  -3   2    7.80    1.70
   2  -3   2    6.60    1.40
   2  -3   2    7.40    2.80
  -3   3  -2  308.37   18.30
  -3   3  -2  318.27   13.10
  -3   3  -2  322.17   13.60
  -3   3  -2  320.17   12.90
   3  -3   2  327.17   13.50
   3  -3   2  315.17   12.80
   3  -3   2  331.57   19.90
   3  -3   2  295.17   16.50
  -4   3  -2  224.98   10.50
  -4   3  -2  230.98   11.10
  -4   3  -2  229.08   18.90
  -4   3  -2  251.27   10.10
  -4   3  -2  218.58   12.30
  -4   3  -2  242.18   10.10
   4  -3   2  221.18   10.60
   4  -3   2  222.68    9.70
   4  -3   2  222.38   10.70
   4  -3   2  212.78   15.50
  -5   3  -2   36.20    4.30
  -5   3  -2   32.90    4.40
  -5   3  -2   45.00    3.70
   5  -3   2   35.20    6.60
   5  -3   2   38.60    3.90
  -6   3  -2    3.40    2.60
  -6   3  -2    2.50    2.70
   6  -3   2    2.00    1.90
   6  -3   2   20.10   11.70
  -7   3  -2   29.10    5.30
  -7   3  -2   21.10    4.60
  -7   3  -2   40.80    6.70
   7  -3   2   36.10    5.00
  -8   3  -2   40.10    6.90
  -8   3  -2   41.10    7.10
   8  -3   2   48.40    5.60
   8   2  -2   23.50    5.50
   8   2  -2   26.70    7.20
  -8  -2   2   14.40    5.60
  -8  -2   2   25.00    7.00
  -8  -2   2   18.90    6.20
   7   2  -2    6.60    3.40
   7   2  -2    5.10    4.90
   7   2  -2   10.30    3.40
  -7  -2   2    3.90    5.10
  -7  -2   2    4.50    4.10
  -7  -2   2    1.30    4.10
   6   2  -2  103.89    7.80
   6   2  -2  121.79    9.90
   6   2  -2  124.19    8.00
  -6  -2   2  120.79    9.70
  -6  -2   2  117.59    9.20
  -6  -2   2  112.49    9.50
   5   2  -2    6.80    2.20
   5   2  -2    4.80    2.30
   5   2  -2   10.20    3.20
  -5  -2   2    6.30    3.20
  -5  -2   2    5.80    2.40
  -5  -2   2    4.50    2.80
   4   2  -2   49.90    5.60
   4   2  -2   53.39    5.30
   4   2  -2   49.60    5.40
   4   2  -2   50.09    4.00
  -4  -2   2   48.80    5.00
  -4  -2   2   47.60    4.90
  -4  -2   2   50.49    5.40
   3   2  -2  114.69    7.40
   3   2  -2  109.19    6.90
   3   2  -2  106.09    6.80
   3   2  -2  111.69    6.40
   3   2  -2  119.49    6.60
   3   2  -2  113.29    6.00
  -3  -2   2  113.59    6.30
  -3  -2   2  112.79    8.10
  -3  -2   2  106.79    7.00
  -3  -2   2  105.79    6.50
  -3  -2   2  112.99    6.90
   2   2  -2  247.08   11.60
   2   2  -2  260.47   11.10
   2   2  -2  254.07   10.50
   2   2  -2  256.47   11.00
   2   2  -2  251.87   11.80
  -2  -2   2  241.28   11.50
  -2  -2   2  245.08   11.20
  -2  -2   2  244.88   11.70
  -2  -2   2  258.07   12.10
  -2  -2   2  254.17   10.60
  -2  -2   2  256.37   11.90
   1   2  -2  262.57   10.40
   1   2  -2  260.57   10.30
   1   2  -2  261.07   11.10
   1   2  -2  251.77   10.50
   1   2  -2  256.67   11.30
  -1  -2   2  232.28   11.20
  -1  -2   2  246.08   11.10
  -1  -2   2  261.17   10.00
  -1  -2   2  257.67   10.60
  -1  -2   2  232.38   10.40
   0   2  -2    1.30    0.80
   0   2  -2    2.70    1.60
   0   2  -2   -0.60    1.20
   0   2  -2   -0.20    0.70
   0   2  -2   -0.70    1.10
   0  -2   2    0.80    0.90
   0  -2   2    0.30    0.90
   0  -2   2    0.50    1.10
   0  -2   2    0.20    0.50
   0  -2   2   -0.50    0.90
   0  -2   2    0.70    0.90
  -1   2  -2  115.29    4.60
  -1   2  -2  112.39    5.10
  -1   2  -2   92.99    7.50
  -1   2  -2  115.09    6.20
  -1   2  -2  118.09    5.10
  -1   2  -2  117.89    5.50
   1  -2   2  114.29    5.30
   1  -2   2  114.19    6.80
   1  -2   2  117.29    5.70
   1  -2   2  111.59    4.80
   1  -2   2  118.59    7.70
  -2   2  -2 5422.26  200.98
  -2   2  -2 5139.09  199.48
  -2   2  -2 5505.15  204.38
   2  -2   2 5936.81  206.18
   2  -2   2 5450.96  199.98
   2  -2   2 6050.90  203.48
  -3   2  -2  254.67   11.10
  -3   2  -2  242.78   17.70
  -3   2  -2  274.47   10.40
  -3   2  -2  242.88   12.20
  -3   2  -2  242.28   10.90
  -3   2  -2  251.07   11.50
   3  -2   2  261.47   16.90
   3  -2   2  249.97   11.70
   3  -2   2  251.17   10.20
   3  -2   2  251.47   10.40
   3  -2   2  258.67   11.50
   3  -2   2  263.07   14.10
  -4   2  -2  544.55   22.10
  -4   2  -2  588.54   21.10
  -4   2  -2  508.85   23.40
  -4   2  -2  544.95   22.70
  -4   2  -2  537.95   31.00
  -4   2  -2  550.94   21.40
   4  -2   2  544.35   22.20
   4  -2   2  554.64   25.30
   4  -2   2  516.55   21.70
   4  -2   2  520.95   20.90
   4  -2   2  547.35   20.50
   4  -2   2  557.84   26.70
  -5   2  -2  116.69    7.70
  -5   2  -2  122.39    7.50
  -5   2  -2   99.09    7.40
  -5   2  -2  123.09    6.30
   5  -2   2  109.69    6.80
   5  -2   2  115.99    5.40
   5  -2   2  123.59   11.00
  -6   2  -2   65.19    6.50
  -6   2  -2   65.69    6.60
  -6   2  -2   59.39    6.60
   6  -2   2   64.39    5.50
  -7   2  -2    5.70    3.90
  -7   2  -2    4.50    3.90
  -7   2  -2    4.50    3.40
   7  -2   2   14.80    6.40
  -8   2  -2    5.40    5.40
  -8   2  -2    9.10    5.00
  -8   2  -2    9.20    4.60
   8  -2   2    8.00    3.60
   8  -2   2   12.60    3.20
   8  -2   2   -1.80    5.90
   8  -2   2    8.80    7.50
   8   1  -2    2.40    3.90
   8   1  -2    3.10    6.20
  -8  -1   2    0.70    4.90
  -8  -1   2  -10.40    5.60
  -8  -1   2    0.70    5.00
   7   1  -2   18.80    3.70
  -7  -1   2   20.80    5.90
  -7  -1   2   18.30    5.40
  -7  -1   2   19.80    5.10
   6   1  -2  159.08    9.40
   6   1  -2  162.98    8.70
   6   1  -2  152.78   11.20
   6   1  -2  160.38    9.30
  -6  -1   2  159.18   11.20
  -6  -1   2  159.18   10.90
  -6  -1   2  148.39   10.30
   5   1  -2   57.29    5.90
   5   1  -2   53.89    4.60
  -5  -1   2   48.70    5.50
  -5  -1   2   44.80    5.20
  -5  -1   2   44.10    5.80
   4   1  -2  287.57   12.60
   4   1  -2  307.87   13.30
   4   1  -2  280.37   13.30
   4   1  -2  282.67   14.30
  -4  -1   2  276.57   14.00
  -4  -1   2  278.77   13.30
  -4  -1   2  280.97   16.10
  -4  -1   2  299.07   14.10
   3   1  -2    3.20    1.30
   3   1  -2    2.30    1.30
   3   1  -2    6.00    1.90
   3   1  -2    3.70    1.70
   3   1  -2    3.90    2.20
   3   1  -2    2.40    1.50
  -3  -1   2    3.20    1.90
  -3  -1   2    1.00    1.20
  -3  -1   2    1.80    1.60
  -3  -1   2    3.30    1.40
   2   1  -2  131.09    6.90
   2   1  -2  134.69    6.60
   2   1  -2  137.69    6.30
   2   1  -2  134.69    6.00
   2   1  -2  134.19    6.80
   2   1  -2  129.89    6.20
  -2  -1   2  132.29    7.10
  -2  -1   2  124.89    6.10
  -2  -1   2  131.29    7.20
  -2  -1   2  131.69    6.80
  -2  -1   2  132.69    5.70
  -2  -1   2  131.59    6.50
  -2  -1   2  128.39    6.30
   1   1  -2  806.92   29.80
   1   1  -2  800.22   29.50
   1   1  -2  829.32   29.40
   1   1  -2  794.92   29.90
   1   1  -2  815.22   30.30
   1   1  -2  822.32   30.00
  -1  -1   2  788.32   30.00
  -1  -1   2  802.42   29.60
  -1  -1   2  792.92   30.00
  -1  -1   2  833.42   29.70
  -1  -1   2  769.82   30.30
  -1  -1   2  767.22   29.30
   0   1  -2 2359.16   81.79
   0   1  -2 2376.66   81.79
   0   1  -2 2156.98   83.09
   0  -1   2 2046.20   82.89
   0  -1   2 2402.36   81.99
  -1   1  -2  492.15   19.40
  -1   1  -2  520.35   18.10
  -1   1  -2  471.15   18.50
  -1   1  -2  451.35   21.20
  -1   1  -2  504.75   19.00
  -1   1  -2  459.35   17.80
   1  -1   2  505.45   18.50
   1  -1   2  504.75   22.30
   1  -1   2  493.05   19.20
   1  -1   2  515.85   18.00
   1  -1   2  507.45   18.70
  -2   1  -2 1018.60   36.80
  -2   1  -2  989.90   37.30
  -2   1  -2 1009.00   37.40
  -2   1  -2  970.30   38.00
   2  -1   2  999.00   36.50
   2  -1   2  994.60   37.70
   2  -1   2 1015.70   37.00
   2  -1   2  985.00   40.60
  -3   1  -2  258.37   18.70
  -3   1  -2  238.68   10.70
  -3   1  -2  239.58   10.90
  -3   1  -2  239.18   11.20
  -3   1  -2  231.58   12.00
   3  -1   2  261.67   15.00
   3  -1   2  253.87   11.40
   3  -1   2  263.87   11.60
   3  -1   2  255.27   10.70
   3  -1   2  254.27   10.40
  -4   1  -2  411.76   26.20
  -4   1  -2  464.15   19.20
  -4   1  -2  408.56   19.50
  -4   1  -2  466.85   19.10
   4  -1   2  516.65   23.10
   4  -1   2  466.05   18.30
   4  -1   2  446.36   18.90
   4  -1   2  443.56   19.00
   4  -1   2  481.45   18.40
  -5   1  -2   -0.70    2.00
  -5   1  -2    0.00    2.40
  -5   1  -2    1.50    2.30
   5  -1   2    1.10    1.80
   5  -1   2    1.70    1.50
  -6   1  -2   -3.10    2.30
  -6   1  -2   -2.30    3.30
  -6   1  -2   -2.60    2.60
   6  -1   2    0.20    1.80
   6  -1   2    1.90    4.30
   6  -1   2   -0.60    2.10
  -7   1  -2   92.79    8.90
  -7   1  -2   95.09    9.50
  -7   1  -2   85.29   10.10
   7  -1   2   86.59   10.70
   7  -1   2   85.19    7.30
  -8   1  -2    6.80    6.00
  -8   1  -2   22.10    6.00
  -8   1  -2   22.30    5.50
   8  -1   2   11.60    3.40
   8  -1   2    9.60    6.00
   8  -1   2   13.50    3.90
   8  -1   2   21.00    6.40
   8   0  -2    3.10    4.10
   8   0  -2   -1.00    6.80
  -8   0   2    4.90    6.00
  -8   0   2    9.30    5.90
  -8   0   2    4.20    4.60
   7   0  -2    8.90    4.70
   7   0  -2   11.90    3.10
   7   0  -2   14.30    3.60
  -7   0   2    7.70    4.60
  -7   0   2   11.90    6.00
   6   0  -2  247.58   12.20
   6   0  -2  243.08   14.60
   6   0  -2  228.98   13.40
  -6   0   2  246.28   13.30
  -6   0   2  231.58   13.40
  -6   0   2  252.97   14.40
   5   0  -2  294.47   14.60
   5   0  -2  341.17   13.30
   5   0  -2  346.27   14.80
   5   0  -2  339.27   16.70
   5   0  -2  315.57   14.20
  -5   0   2  311.37   15.70
  -5   0   2  272.27   19.50
  -5   0   2  315.67   15.20
  -5   0   2  333.77   16.10
   4   0  -2   21.50    3.00
   4   0  -2   22.20    2.90
   4   0  -2   19.40    3.20
   4   0  -2   24.30    2.90
   4   0  -2   22.20    3.00
  -4   0   2   19.30    3.10
  -4   0   2   19.00    3.30
  -4   0   2   19.10    3.40
  -4   0   2   21.10    3.10
   3   0  -2   27.20    2.60
   3   0  -2   25.90    2.40
   3   0  -2   25.80    3.50
   3   0  -2   24.90    3.60
   3   0  -2   27.10    2.80
  -3   0   2   22.90    2.50
  -3   0   2   26.50    3.10
  -3   0   2   26.10    2.90
   2   0  -2 2138.69   78.39
   2   0  -2 2143.29   78.19
   2   0  -2 2203.08   78.09
   2   0  -2 2186.28   77.79
   2   0  -2 2114.89   78.89
  -2   0   2 2171.48   78.09
  -2   0   2 2144.29   78.39
  -2   0   2 2261.57   77.89
  -2   0   2 2167.08   78.79
  -2   0   2 2032.60   77.99
   1   0  -2 2375.06   84.99
   1   0  -2 2344.67   84.89
  -1   0   2 2336.87   84.69
  -1   0   2 2294.67   84.29
  -1   0   2 2353.56   84.99
  -1   0   2 2410.16   84.89
  -1   0   2 2362.96   84.49
   0   0  -2  203.88    7.70
   0   0  -2  200.28    7.70
   0   0  -2  206.68    8.50
   0   0  -2  191.18    8.50
   0   0  -2  215.18    8.20
   0   0  -2  217.88    8.50
   0   0   2  206.28    8.60
   0   0   2  194.08    8.70
   0   0   2  209.38    8.50
   0   0   2  203.38    7.80
   0   0   2  209.58    7.60
   0   0   2  217.78    8.50
   0   0   2  188.38    8.40
   0   0   2  203.18    7.70
  -1   0  -2 1349.27   50.59
  -1   0  -2 1323.27   51.89
  -1   0  -2 1410.36   50.59
  -1   0  -2 1354.86   49.90
  -1   0  -2 1359.86   49.70
   1   0   2 1368.26   49.70
   1   0   2 1391.06   49.60
   1   0   2 1428.56   50.49
   1   0   2 1359.96   51.29
  -2   0  -2   93.99    5.80
  -2   0  -2   94.49    5.50
  -2   0  -2   89.49    7.60
  -2   0  -2   93.69    5.00
  -2   0  -2  101.19    5.30
  -2   0  -2   98.09    4.70
   2   0   2  102.99    5.40
   2   0   2   91.29    6.70
   2   0   2  100.99    4.90
   2   0   2   98.39    5.10
   2   0   2  101.99    5.50
  -3   0  -2   45.10    4.90
  -3   0  -2   43.50    3.50
  -3   0  -2   43.80    3.60
  -3   0  -2   44.40    7.10
  -3   0  -2   49.99    4.90
   3   0   2   48.80    3.70
   3   0   2   48.10    3.60
   3   0   2   48.80    4.10
   3   0   2   49.50    4.00
  -4   0  -2  336.27   15.10
  -4   0  -2  338.77   15.70
   4   0   2  325.17   17.10
   4   0   2  334.67   15.00
   4   0   2  354.16   15.00
   4   0   2  344.17   14.50
   4   0   2  318.67   14.70
  -5   0  -2  672.43   28.40
  -5   0  -2  637.34   27.30
  -5   0  -2  655.33   27.20
   5   0   2  647.44   29.90
   5   0   2  654.53   26.60
  -6   0  -2  747.33   31.80
  -6   0  -2  756.92   32.80
  -6   0  -2  761.22   31.70
   6   0   2  756.42   30.70
   6   0   2  749.42   34.00
   6   0   2  744.03   34.30
   6   0   2  758.52   30.40
  -7   0  -2   42.50   10.80
  -7   0  -2   58.09    9.00
  -7   0  -2   47.30    6.70
   7   0   2   32.60    7.30
   7   0   2   45.30    6.20
  -8   0  -2  109.39   12.20
  -8   0  -2  122.29   12.20
  -8   0  -2  143.49   12.60
   8   0   2  140.39   10.10
   8   0   2  113.09   12.30
   8   0   2  135.59    9.20
   8   0   2  129.79   13.60
   8  -1  -2   -0.20    3.40
   8  -1  -2   -6.70    6.00
  -8   1   2   -4.10    6.20
  -8   1   2   -0.10    3.90
  -8   1   2   -2.10    4.50
   7  -1  -2  124.69    8.00
   7  -1  -2  115.39    8.60
   7  -1  -2  119.59   10.60
  -7   1   2  103.19    9.50
  -7   1   2  104.19   10.10
  -7   1   2  116.69    9.90
   6  -1  -2  333.77   16.20
   6  -1  -2  326.77   15.40
   6  -1  -2  344.27   15.20
   6  -1  -2  331.37   15.20
   6  -1  -2  321.17   17.60
  -6   1   2  303.07   15.90
  -6   1   2  315.77   16.40
  -6   1   2  315.57   17.00
   5  -1  -2  143.09    9.70
   5  -1  -2  129.29    7.40
   5  -1  -2  143.19    8.60
   5  -1  -2  122.19    7.60
   5  -1  -2  143.69    7.80
  -5   1   2  140.29    8.60
  -5   1   2  122.09   14.20
  -5   1   2  129.69    8.90
  -5   1   2  143.89    8.40
   4  -1  -2  546.85   22.20
   4  -1  -2  555.84   22.20
   4  -1  -2  551.34   21.50
   4  -1  -2  576.34   24.60
   4  -1  -2  546.55   22.40
  -4   1   2  553.84   23.40
  -4   1   2  538.95   22.80
  -4   1   2  583.44   27.50
  -4   1   2  564.94   22.50
  -4   1   2  558.34   22.60
  -4   1   2  563.24   22.30
   3  -1  -2   18.00    3.00
   3  -1  -2   15.60    2.40
   3  -1  -2   18.80    2.50
   3  -1  -2   15.00    2.30
  -3   1   2   10.40    3.20
  -3   1   2   17.00    2.20
  -3   1   2   15.10    2.10
  -3   1   2   13.40    2.30
   2  -1  -2   18.20    2.80
   2  -1  -2   20.40    1.50
   2  -1  -2   20.50    1.10
   2  -1  -2   20.40    1.70
   2  -1  -2   19.80    1.60
   2  -1  -2   20.30    2.10
  -2   1   2   18.50    2.10
  -2   1   2   20.70    1.90
  -2   1   2   18.60    3.30
  -2   1   2   19.00    1.80
  -2   1   2   21.30    1.80
  -2   1   2   18.40    1.40
  -2   1   2   21.00    1.80
  -2   1   2   19.60    1.80
   1  -1  -2 2382.76   88.29
   1  -1  -2 2632.14   88.59
   1  -1  -2 2408.96   88.29
  -1   1   2 2515.05   88.79
  -1   1   2 2476.95   88.29
  -1   1   2 2293.37   89.49
   0  -1  -2 1904.21   70.39
   0  -1  -2 1945.41   69.89
   0  -1  -2 1906.11   69.19
   0  -1  -2 1930.31   68.79
   0  -1  -2 1882.51   69.09
   0   1   2 2014.00   69.39
   0   1   2 1864.81   69.09
   0   1   2 1957.80   69.19
   0   1   2 1821.42   70.19
  -1  -1  -2 5848.81  201.38
   1   1   2 5339.37  201.18
  -2  -1  -2   78.99    4.90
  -2  -1  -2   64.89    6.10
  -2  -1  -2   80.79    4.40
  -2  -1  -2   82.99    5.00
  -2  -1  -2   77.59    5.30
   2   1   2   79.49    4.70
   2   1   2   80.29    4.60
   2   1   2   80.99    4.80
   2   1   2   79.69    5.70
   2   1   2   81.89    5.30
  -3  -1  -2 1141.39   45.20
  -3  -1  -2 1156.18   47.60
  -3  -1  -2 1138.79   44.10
  -3  -1  -2 1195.68   43.90
   3   1   2 1107.09   43.70
   3   1   2 1170.28   43.00
   3   1   2 1132.79   43.60
   3   1   2 1241.68   44.80
   3   1   2 1164.38   45.80
  -4  -1  -2  514.15   21.80
  -4  -1  -2  457.65   20.70
  -4  -1  -2  506.15   21.10
   4   1   2  500.55   20.50
   4   1   2  468.55   20.50
   4   1   2  510.05   23.50
   4   1   2  491.95   21.00
   4   1   2  472.05   22.40
  -5  -1  -2 2073.99   78.79
  -5  -1  -2 2121.49   79.89
  -5  -1  -2 2093.79   78.59
   5   1   2 2033.10   80.79
   5   1   2 2062.09   77.79
   5   1   2 2128.19   81.59
   5   1   2 2113.39   78.29
  -6  -1  -2  115.79    9.30
  -6  -1  -2  115.19    8.80
  -6  -1  -2  116.49    9.20
   6   1   2  124.89   10.70
   6   1   2  113.09   10.40
   6   1   2  120.99    8.10
  -7  -1  -2  584.94   27.60
  -7  -1  -2  601.94   27.20
  -7  -1  -2  623.64   29.70
   7   1   2  605.74   29.70
   7   1   2  623.84   29.20
   7   1   2  575.34   26.00
   8  -2  -2  276.17   14.70
   8  -2  -2  275.57   17.60
  -8   2   2  263.87   17.70
  -8   2   2  246.58   15.70
  -8   2   2  256.97   16.00
   7  -2  -2    5.80    4.60
   7  -2  -2   11.40    3.10
   7  -2  -2   10.10    2.90
  -7   2   2    1.30    4.00
  -7   2   2    8.60    3.90
  -7   2   2    9.40    4.00
   6  -2  -2  365.56   17.00
   6  -2  -2  398.26   19.90
   6  -2  -2  379.36   16.90
   6  -2  -2  368.86   16.90
  -6   2   2  363.06   18.60
  -6   2   2  379.06   18.10
  -6   2   2  369.76   28.90
  -6   2   2  361.26   17.50
   5  -2  -2  412.56   17.40
   5  -2  -2  421.76   17.50
   5  -2  -2  391.96   17.40
  -5   2   2  374.06   17.80
  -5   2   2  447.26   26.30
  -5   2   2  396.46   18.10
  -5   2   2  412.66   18.90
   4  -2  -2   41.60    4.80
   4  -2  -2   51.89    7.20
   4  -2  -2   40.80    3.50
   4  -2  -2   34.60    3.30
   4  -2  -2   42.70    3.60
   4  -2  -2   33.90    2.90
  -4   2   2   35.60    4.20
  -4   2   2   40.50    3.60
  -4   2   2   32.50    3.40
  -4   2   2   41.60    3.60
  -4   2   2   34.30    7.30
  -4   2   2   42.10    4.00
   3  -2  -2   23.70    2.70
   3  -2  -2   23.10    1.80
   3  -2  -2   22.40    2.00
   3  -2  -2   27.50    4.80
   3  -2  -2   23.10    2.50
  -3   2   2   20.10    2.20
  -3   2   2   25.20    2.50
  -3   2   2   22.90    2.40
   2  -2  -2   40.30    3.10
   2  -2  -2   43.30    2.60
   2  -2  -2   43.60    3.10
   2  -2  -2   46.00    2.50
   2  -2  -2   41.10    4.80
   2  -2  -2   46.60    2.80
  -2   2   2   42.40    2.50
  -2   2   2   45.40    2.60
  -2   2   2   42.40    3.00
  -2   2   2   39.90    5.30
  -2   2   2   41.90    3.30
  -2   2   2   41.90    2.50
  -2   2   2   44.30    2.90
  -2   2   2   43.70    2.60
  -2   2   2   44.80    2.50
   1  -2  -2 3114.79  108.49
   1  -2  -2 2941.11  109.39
   1  -2  -2 3078.89  109.29
   1  -2  -2 2934.51  108.49
  -1   2   2 3047.30  109.09
  -1   2   2 2968.80  109.59
  -1   2   2 3023.50  108.69
  -1   2   2 2958.30  108.69
  -1   2   2 3017.90  107.89
   0  -2  -2  355.86   15.70
   0  -2  -2  369.96   13.90
   0  -2  -2  334.27   14.20
   0  -2  -2  356.06   15.80
   0  -2  -2  345.87   13.70
   0   2   2  346.17   13.70
   0   2   2  360.46   13.80
   0   2   2  347.27   15.20
   0   2   2  346.27   13.60
   0   2   2  359.16   14.50
   0   2   2  350.46   13.80
   0   2   2  354.06   13.80
   0   2   2  375.96   15.20
   0   2   2  357.36   15.90
  -1  -2  -2   37.60    2.60
  -1  -2  -2   38.40    3.10
  -1  -2  -2   35.40    4.50
  -1  -2  -2   31.90    3.00
  -1  -2  -2   42.60    3.60
   1   2   2   40.70    3.00
   1   2   2   45.20    4.00
   1   2   2   37.40    2.80
   1   2   2   35.70    3.20
   1   2   2   36.30    3.90
   1   2   2   33.70    2.70
   1   2   2   33.10    3.00
  -2  -2  -2  135.19    6.70
  -2  -2  -2  139.09    7.50
  -2  -2  -2  135.59    7.20
  -2  -2  -2  130.09    7.50
  -2  -2  -2  149.39    9.70
   2   2   2  135.29    6.60
   2   2   2  128.39    6.60
   2   2   2  138.79    7.10
   2   2   2  125.19    6.90
   2   2   2  127.39    8.50
   2   2   2  126.59    7.60
  -3  -2  -2   44.50    5.90
  -3  -2  -2   49.10    4.30
  -3  -2  -2   40.50    6.70
  -3  -2  -2   52.79    4.70
  -3  -2  -2   42.10    4.20
   3   2   2   41.40    4.40
   3   2   2   44.70    3.80
   3   2   2   45.80    4.30
   3   2   2   44.20    4.70
   3   2   2   46.20    3.70
   3   2   2   44.10    5.20
   3   2   2   45.70    5.30
  -4  -2  -2   61.89    5.30
  -4  -2  -2   59.49    5.50
  -4  -2  -2   64.99    5.90
   4   2   2   62.49    4.80
   4   2   2   62.19    4.80
   4   2   2   57.49    6.20
   4   2   2   57.79    6.90
   4   2   2   63.09    5.60
   4   2   2   69.79    6.50
  -5  -2  -2   86.39    6.70
  -5  -2  -2   84.09    7.90
  -5  -2  -2   87.49    7.30
   5   2   2   84.89    7.90
   5   2   2   75.49    8.90
   5   2   2   89.39    6.40
  -6  -2  -2   75.89    7.40
  -6  -2  -2   69.69    8.60
  -6  -2  -2   72.09    8.00
   6   2   2   66.39    8.70
   6   2   2   73.69    6.90
   6   2   2   84.29    8.90
  -7  -2  -2   19.60    6.80
  -7  -2  -2   23.70    6.10
  -7  -2  -2   23.30    5.40
   7   2   2   23.60    4.90
   7   2   2   27.70    6.20
   7   2   2   18.20    6.00
   8  -3  -2   12.10    4.10
   8  -3  -2   18.20    6.30
  -8   3   2   30.10    6.80
  -8   3   2   27.00    5.80
  -8   3   2   19.90    5.60
   7  -3  -2    3.70    4.60
   7  -3  -2    6.40    2.90
  -7   3   2    3.20    3.10
  -7   3   2   -4.10    3.60
  -7   3   2    4.90    3.80
   6  -3  -2   86.69    6.40
   6  -3  -2   89.49    5.20
   6  -3  -2   89.99    6.40
  -6   3   2   56.59   14.00
  -6   3   2   80.89    8.50
  -6   3   2   88.79    7.10
  -6   3   2   74.69    6.50
   5  -3  -2  119.69    5.70
   5  -3  -2  115.19   21.40
   5  -3  -2  106.79    6.50
   5  -3  -2  113.29    6.90
  -5   3   2   94.39    6.70
  -5   3   2  117.19    8.00
  -5   3   2  115.79    7.30
  -5   3   2  112.39   16.00
   4  -3  -2   72.79    4.40
   4  -3  -2   74.19    4.90
   4  -3  -2   80.19    4.10
   4  -3  -2   61.49    7.80
   4  -3  -2   66.39    4.50
   4  -3  -2   67.29    4.50
  -4   3   2   66.99    4.70
  -4   3   2   74.59    5.10
  -4   3   2   86.79   11.90
  -4   3   2   67.09    4.60
  -4   3   2   73.19    5.10
   3  -3  -2 2108.69   77.79
   3  -3  -2 2165.88   77.09
   3  -3  -2 2273.57   81.89
   3  -3  -2 2128.79   77.09
   3  -3  -2 2272.57   77.19
   3  -3  -2 1983.30   77.59
  -3   3   2 2076.39   78.89
  -3   3   2 2190.88   77.19
  -3   3   2 2075.09   76.99
  -3   3   2 2211.38   78.09
  -3   3   2 2043.50   77.19
  -3   3   2 2040.30   78.59
  -3   3   2 2089.59   80.69
  -3   3   2 2059.79   76.99
   2  -3  -2   14.00    2.00
   2  -3  -2    8.50    1.60
   2  -3  -2   16.10    3.70
   2  -3  -2   10.10    1.60
   2  -3  -2   11.90    2.20
  -2   3   2    9.70    1.50
  -2   3   2   10.40    1.40
  -2   3   2   12.30    2.30
  -2   3   2    9.80    2.40
  -2   3   2   11.80    1.50
  -2   3   2   10.50    1.30
  -2   3   2   13.60    2.20
  -2   3   2   12.40    2.30
   1  -3  -2   86.09    5.70
   1  -3  -2   76.69    4.60
   1  -3  -2   84.29    4.50
   1  -3  -2   78.49    4.10
   1  -3  -2   90.99    5.70
  -1   3   2   77.59    4.80
  -1   3   2   81.69    4.00
  -1   3   2   81.69    5.90
  -1   3   2   85.59    3.90
  -1   3   2   78.49    4.90
  -1   3   2   83.39    4.50
   0  -3  -2  154.78    8.90
   0  -3  -2  140.69    7.10
   0  -3  -2  145.69    7.00
   0  -3  -2  134.59    6.20
   0  -3  -2  132.79    7.30
   0  -3  -2  146.09    8.80
   0   3   2  147.99    8.10
   0   3   2  141.79    6.80
   0   3   2  148.39    6.80
   0   3   2  150.08    9.10
   0   3   2  143.59    7.00
   0   3   2  147.59    6.00
   0   3   2  142.69    6.20
  -1  -3  -2  724.63   28.20
  -1  -3  -2  696.33   30.10
  -1  -3  -2  708.83   27.70
  -1  -3  -2  692.93   26.90
  -1  -3  -2  691.43   28.00
  -1  -3  -2  729.13   27.20
  -1  -3  -2  679.83   30.00
   1   3   2  687.03   29.20
   1   3   2  704.53   27.70
   1   3   2  720.33   27.50
   1   3   2  698.33   26.40
   1   3   2  703.03   30.20
   1   3   2  702.53   27.20
  -2  -3  -2  181.48    9.50
  -2  -3  -2  184.08   12.40
  -2  -3  -2  185.88   10.60
  -2  -3  -2  180.88    9.00
  -2  -3  -2  170.18   10.40
  -2  -3  -2  180.18    9.70
   2   3   2  191.38    9.30
   2   3   2  184.78    9.00
   2   3   2  179.88    8.50
   2   3   2  183.78    9.80
   2   3   2  191.08   11.00
   2   3   2  191.78   10.70
   2   3   2  183.18    9.50
  -3  -3  -2  450.75   23.00
  -3  -3  -2  412.56   19.80
  -3  -3  -2  447.06   19.30
  -3  -3  -2  449.16   19.50
  -3  -3  -2  443.56   19.80
   3   3   2  444.16   18.40
   3   3   2  447.56   18.10
   3   3   2  427.66   21.00
   3   3   2  432.26   19.00
   3   3   2  427.36   19.90
   3   3   2  460.75   20.70
  -4  -3  -2   85.39   10.50
  -4  -3  -2   72.39    6.90
  -4  -3  -2   70.79    6.50
  -4  -3  -2   75.29    5.90
   4   3   2   81.59    5.70
   4   3   2   79.69    7.20
   4   3   2   76.49    5.80
   4   3   2   79.39    7.40
  -5  -3  -2   13.00    3.30
  -5  -3  -2   18.90    4.30
  -5  -3  -2   20.00    8.00
  -5  -3  -2   22.50    4.60
   5   3   2    9.20    4.30
   5   3   2   11.30    3.50
   5   3   2   10.30    2.90
  -6  -3  -2   60.59   12.80
  -6  -3  -2   49.30    7.80
  -6  -3  -2   48.00    8.50
  -6  -3  -2   51.39    7.20
   6   3   2   63.89    5.60
   6   3   2   48.60    8.80
   6   3   2   58.59    7.00
   6   3   2   54.39    8.60
  -7  -3  -2   15.20    4.60
  -7  -3  -2   10.30    6.00
  -7  -3  -2   26.20   11.10
  -7  -3  -2    9.00    4.90
   7   3   2   12.90    4.80
   7   3   2    9.80    5.60
   8  -4  -2   37.20    8.10
   8  -4  -2   46.90    7.10
  -8   4   2   46.20    7.60
  -8   4   2   41.80    8.20
  -8   4   2   36.90    6.00
   7  -4  -2    6.00    2.70
  -7   4   2   -1.70    3.20
  -7   4   2    2.40    2.90
  -7   4   2   -7.10    4.00
   6  -4  -2  163.58    7.70
   6  -4  -2  160.78    9.20
  -6   4   2  179.28   11.20
  -6   4   2  182.48   10.20
  -6   4   2  124.59   20.20
  -6   4   2  167.88    9.60
   5  -4  -2  290.77   13.50
   5  -4  -2  315.07   12.50
   5  -4  -2  310.37   19.50
  -5   4   2  278.67   14.00
  -5   4   2  303.27   20.20
  -5   4   2  292.17   13.40
  -5   4   2  281.07   13.50
   4  -4  -2 1400.56   55.59
   4  -4  -2 1564.64   55.19
   4  -4  -2 1479.35   60.59
   4  -4  -2 1509.15   55.89
  -4   4   2 1503.05   56.59
  -4   4   2 1533.55   58.09
  -4   4   2 1457.75   55.39
  -4   4   2 1493.95   55.09
  -4   4   2 1466.35   58.99
  -4   4   2 1485.15   55.39
   3  -4  -2  909.11   37.40
   3  -4  -2  955.10   37.50
   3  -4  -2 1077.89   37.90
   3  -4  -2  989.00   37.10
   3  -4  -2  963.10   42.30
  -3   4   2 1000.30   38.10
  -3   4   2  992.20   36.70
  -3   4   2 1002.90   37.60
  -3   4   2  974.30   39.40
  -3   4   2 1035.20   38.40
  -3   4   2  903.11   38.20
  -3   4   2 1034.80   36.80
  -3   4   2  991.10   36.90
   2  -4  -2  425.76   18.10
   2  -4  -2  442.56   17.90
   2  -4  -2  430.46   17.70
   2  -4  -2  465.65   18.80
   2  -4  -2  446.06   18.90
   2  -4  -2  421.16   17.40
  -2   4   2  440.86   19.70
  -2   4   2  442.86   17.50
  -2   4   2  431.86   17.80
  -2   4   2  380.56   17.10
  -2   4   2  446.46   16.20
  -2   4   2  431.46   18.40
   1  -4  -2 1375.86   50.59
   1  -4  -2 1358.96   51.49
   1  -4  -2 1467.05   53.49
   1  -4  -2 1405.26   52.89
   1  -4  -2 1354.56   50.89
   1  -4  -2 1393.66   51.09
  -1   4   2 1314.87   52.09
  -1   4   2 1394.56   51.19
  -1   4   2 1348.57   53.69
  -1   4   2 1373.46   49.70
  -1   4   2 1340.97   50.99
  -1   4   2 1420.46   51.69
  -1   4   2 1325.77   52.09
   0  -4  -2  482.55   21.90
   0  -4  -2  473.35   18.30
   0  -4  -2  491.05   19.90
   0  -4  -2  467.85   19.60
   0  -4  -2  481.25   20.10
   0  -4  -2  490.15   22.20
   0   4   2  469.55   19.20
   0   4   2  484.85   22.50
   0   4   2  484.05   18.00
   0   4   2  496.95   19.90
   0   4   2  499.85   19.70
   0   4   2  475.65   17.80
   0   4   2  466.05   20.70
  -1  -4  -2 1696.03   61.19
  -1  -4  -2 1684.23   61.49
  -1  -4  -2 1662.73   62.39
  -1  -4  -2 1619.24   65.09
  -1  -4  -2 1618.94   62.59
  -1  -4  -2 1648.64   65.29
  -1  -4  -2 1641.24   62.39
   1   4   2 1624.74   63.79
   1   4   2 1710.13   62.19
   1   4   2 1695.93   61.99
   1   4   2 1645.74   65.39
   1   4   2 1729.53   60.49
   1   4   2 1685.83   61.79
   1   4   2 1623.94   61.89
   1   4   2 1580.44   60.19
  -2  -4  -2  368.06   20.00
  -2  -4  -2  410.66   18.00
  -2  -4  -2  384.56   17.00
  -2  -4  -2  353.56   17.70
   2   4   2  379.16   16.80
   2   4   2  382.46   15.60
   2   4   2  394.86   19.00
   2   4   2  395.16   17.60
   2   4   2  393.76   17.00
  -3  -4  -2 1021.80   44.90
  -3  -4  -2  999.00   39.70
  -3  -4  -2 1027.20   41.10
   3   4   2  988.80   39.60
   3   4   2 1039.60   39.00
   3   4   2 1038.50   42.70
   3   4   2 1027.80   41.40
   3   4   2 1021.90   40.20
  -4  -4  -2   43.20    5.00
  -4  -4  -2   50.09    6.10
  -4  -4  -2   47.50    6.30
   4   4   2   45.30    6.20
   4   4   2   50.99    4.80
   4   4   2   44.10    5.70
   4   4   2   42.50    6.20
  -5  -4  -2   23.80    4.90
  -5  -4  -2   21.60    4.30
  -5  -4  -2   31.10    5.40
  -5  -4  -2   21.10    8.80
   5   4   2   23.90    5.50
   5   4   2   26.60    5.60
   5   4   2   19.30    3.80
  -6  -4  -2   -2.80    5.30
  -6  -4  -2    3.80    3.90
  -6  -4  -2   -0.40    4.70
   6   4   2    0.10    4.70
   8  -5  -2   10.70    3.70
  -8   5   2   19.70    6.40
  -8   5   2    6.90    3.60
  -8   5   2   13.70    4.40
  -7   5   2    2.00    4.60
  -7   5   2   -1.20    5.10
   6  -5  -2    7.60    3.10
   6  -5  -2    9.90    6.90
  -6   5   2    4.00    2.00
  -6   5   2    0.20    8.10
  -6   5   2    7.40    2.70
   5  -5  -2  677.23   27.60
   5  -5  -2  695.13   34.20
   5  -5  -2  675.93   27.60
  -5   5   2  674.33   27.30
  -5   5   2  682.63   26.90
  -5   5   2  674.13   27.80
  -5   5   2  691.73   31.10
   4  -5  -2   20.40    3.00
   4  -5  -2   31.30    7.10
  -4   5   2   15.80    3.40
  -4   5   2   19.00    3.60
  -4   5   2   17.10    2.20
  -4   5   2   29.60    4.90
  -4   5   2   20.90    2.70
   3  -5  -2 1106.29   46.50
   3  -5  -2 1037.10   41.10
   3  -5  -2 1056.89   41.40
   3  -5  -2 1166.58   42.60
   3  -5  -2 1067.79   41.30
  -3   5   2 1058.19   41.70
  -3   5   2 1069.29   42.30
  -3   5   2 1092.89   40.30
  -3   5   2 1187.28   45.00
  -3   5   2 1077.09   40.40
  -3   5   2 1061.79   40.40
   2  -5  -2    0.50    1.60
   2  -5  -2    0.50    2.20
   2  -5  -2    1.60    1.50
   2  -5  -2   -0.30    2.20
   2  -5  -2    0.50    1.00
   2  -5  -2    2.60    1.40
  -2   5   2    0.60    2.10
  -2   5   2    1.80    2.20
  -2   5   2    0.40    2.60
  -2   5   2   -0.50    0.80
  -2   5   2    1.20    1.20
   1  -5  -2  225.28    9.80
   1  -5  -2  236.48   10.90
   1  -5  -2  241.18   13.10
   1  -5  -2  228.38   10.60
   1  -5  -2  218.08   12.00
   1  -5  -2  240.68   11.20
  -1   5   2  233.48   11.20
  -1   5   2  215.28   11.80
  -1   5   2  236.58   11.50
  -1   5   2  219.78   13.30
  -1   5   2  224.88   10.90
  -1   5   2  223.88   10.10
   0  -5  -2  181.38   11.40
   0  -5  -2  167.18   11.70
   0  -5  -2  186.68    8.00
   0  -5  -2  200.68   10.10
   0  -5  -2  187.48    9.90
   0  -5  -2  181.28    9.70
   0   5   2  185.18    9.10
   0   5   2  190.88    9.70
   0   5   2  191.18    7.00
   0   5   2  193.68    9.90
   0   5   2  188.58   10.50
   0   5   2  183.58   12.30
  -1  -5  -2   70.99    5.00
  -1  -5  -2   63.39    5.70
  -1  -5  -2   73.99    7.60
  -1  -5  -2   73.99    5.10
  -1  -5  -2   74.49    6.30
   1   5   2   77.09    5.90
   1   5   2   69.99    4.10
   1   5   2   79.69    3.80
   1   5   2   72.79    5.50
   1   5   2   62.59    6.00
   1   5   2   68.29    5.90
  -2  -5  -2  338.87   15.20
  -2  -5  -2  322.47   18.70
  -2  -5  -2  315.17   14.70
  -2  -5  -2  307.57   16.10
  -2  -5  -2  342.87   16.30
   2   5   2  339.07   17.10
   2   5   2  328.17   15.80
   2   5   2  346.57   16.80
   2   5   2  328.57   13.80
   2   5   2  324.47   15.60
  -3  -5  -2    9.60    5.40
  -3  -5  -2    3.90    3.60
  -3  -5  -2    3.60    2.50
   3   5   2    7.90    3.60
   3   5   2    7.20    3.30
   3   5   2    4.90    3.20
   3   5   2    8.80    3.30
   3   5   2    3.50    1.90
  -4  -5  -2   16.70    4.40
  -4  -5  -2   14.60    6.80
  -4  -5  -2   21.00    3.70
   4   5   2   19.10    4.90
   4   5   2   18.30    2.40
   4   5   2   15.50    3.20
   4   5   2   17.90    4.30
  -5  -5  -2   95.99    8.30
  -5  -5  -2  108.79   10.60
  -5  -5  -2   83.09   14.00
   5   5   2  109.49   10.40
   5   5   2  103.09    6.20
   5   5   2  107.89   10.20
   5   5   2  111.99    8.50
  -6  -5  -2    0.20    3.80
  -6  -5  -2    1.70    6.30
   6   5   2   -2.20    5.50
   6   5   2   -2.00    4.90
   6   5   2    1.00    2.50
   8  -6  -2  161.98   11.30
  -8   6   2  189.78   15.70
  -8   6   2  166.48   11.60
  -8   6   2  187.08   11.50
   7  -6  -2   10.20   10.70
   7  -6  -2   -1.60    3.90
  -7   6   2    1.40    2.70
  -7   6   2    0.70    3.10
   6  -6  -2  114.09    8.00
  -6   6   2  109.09    7.20
  -6   6   2  108.79   12.80
  -6   6   2  125.29    8.00
   5  -6  -2   34.00    8.90
   5  -6  -2   37.50    4.80
   5  -6  -2   28.50    4.70
   5  -6  -2   36.10    4.10
  -5   6   2   36.10    3.50
  -5   6   2   38.70    6.50
  -5   6   2   36.50    4.30
  -5   6   2   43.00    4.30
  -5   6   2   32.70    7.00
  -5   6   2   32.70    5.50
   4  -6  -2    4.90    1.90
   4  -6  -2    2.60    2.50
   4  -6  -2    6.20    6.30
   4  -6  -2    5.40    2.00
  -4   6   2    1.20    1.10
  -4   6   2    2.60    3.30
  -4   6   2    1.40    3.60
  -4   6   2    3.50    2.10
  -4   6   2    5.60    3.50
  -4   6   2    3.10    1.60
   3  -6  -2  995.90   39.70
   3  -6  -2  933.11   37.60
   3  -6  -2  950.80   37.90
   3  -6  -2 1028.70   42.00
  -3   6   2 1067.29   40.10
  -3   6   2  956.70   36.70
  -3   6   2  960.90   38.20
  -3   6   2  958.10   36.80
   2  -6  -2  115.19    7.50
   2  -6  -2  108.69    6.80
   2  -6  -2  118.89    6.60
   2  -6  -2  111.49    7.20
   2  -6  -2  111.59    8.70
  -2   6   2  110.09    5.80
  -2   6   2   95.79    8.30
  -2   6   2  114.99    6.90
   1  -6  -2  706.53   27.80
   1  -6  -2  717.03   29.70
   1  -6  -2  704.23   28.20
   1  -6  -2  639.44   25.90
  -1   6   2  669.23   28.00
  -1   6   2  675.53   28.30
  -1   6   2  695.43   28.60
  -1   6   2  674.33   26.80
   0  -6  -2  927.11   38.40
   0  -6  -2  864.01   33.10
   0  -6  -2  878.91   35.90
   0  -6  -2  912.11   35.90
   0   6   2  875.31   36.30
   0   6   2  896.11   34.90
   0   6   2  924.91   35.50
   0   6   2  883.81   36.10
  -1  -6  -2   79.69    8.50
  -1  -6  -2   75.19    7.40
  -1  -6  -2   68.69    6.40
  -1  -6  -2   79.29    5.40
   1   6   2   74.89    7.00
   1   6   2   66.79    5.80
   1   6   2   74.69    6.70
   1   6   2   73.29    6.60
  -2  -6  -2   49.90    4.90
  -2  -6  -2   48.70    6.30
  -2  -6  -2   58.19    8.30
  -2  -6  -2   41.60    6.60
  -2  -6  -2   55.29    6.10
   2   6   2   49.60    6.60
   2   6   2   56.79    8.50
   2   6   2   54.69    6.50
   2   6   2   58.09    3.90
   2   6   2   52.29    2.60
   2   6   2   48.80    5.80
  -3  -6  -2    2.40    3.70
  -3  -6  -2    0.60    3.60
  -3  -6  -2    5.10    2.50
   3   6   2    2.50    2.90
   3   6   2    2.20    3.10
   3   6   2    4.40    1.30
  -4  -6  -2   33.50    5.10
  -4  -6  -2   23.50    5.20
   4   6   2   33.90    6.50
   4   6   2   28.50    5.50
   4   6   2   23.00    3.10
  -5  -6  -2    4.20    5.10
  -5  -6  -2   -8.80    7.80
  -5  -6  -2   11.90    3.90
   5   6   2    6.00    4.70
   5   6   2   12.10    4.70
   8  -7  -2   52.19    8.60
  -8   7   2   57.29    7.60
  -8   7   2   65.09    9.00
  -8   7   2   44.50    6.60
   7  -7  -2   61.59    7.70
  -7   7   2   68.69    6.90
  -7   7   2   58.49    6.20
   6  -7  -2   70.59    7.20
   6  -7  -2   79.19    6.60
  -6   7   2   95.49    6.80
  -6   7   2   79.19    6.00
  -6   7   2   85.49   10.00
   5  -7  -2   -0.90    1.90
   5  -7  -2   -8.90    8.90
   5  -7  -2   -1.50    2.30
  -5   7   2    0.60    4.40
  -5   7   2    2.40    4.90
  -5   7   2   -0.40    1.20
  -5   7   2   -0.70    3.00
  -5   7   2   -0.50    1.80
   4  -7  -2  142.09    8.20
   4  -7  -2  132.89   16.40
   4  -7  -2  120.09    8.20
  -4   7   2  133.59    9.20
  -4   7   2  139.39    7.30
  -4   7   2  124.09   10.20
  -4   7   2  137.29    7.50
  -4   7   2  145.49   10.10
  -4   7   2  131.19    6.90
   3  -7  -2    0.10    1.50
   3  -7  -2   -2.40    1.90
   3  -7  -2    6.70    4.90
  -3   7   2    1.80    1.90
  -3   7   2   -0.20    1.20
  -3   7   2   -1.80    3.40
   2  -7  -2  565.94   25.20
   2  -7  -2  618.14   25.00
   2  -7  -2  588.54   24.60
   2  -7  -2  575.34   23.20
  -2   7   2  570.54   24.30
  -2   7   2  575.04   23.10
  -2   7   2  579.94   24.80
   1  -7  -2  203.68   11.10
   1  -7  -2  202.08   12.30
   1  -7  -2  206.08   11.20
  -1   7   2  196.88   11.00
  -1   7   2  190.78    9.80
  -1   7   2  190.68   10.60
   0  -7  -2  206.88   11.10
   0  -7  -2  188.18   12.50
   0  -7  -2  185.48   11.50
   0   7   2  196.68   11.10
   0   7   2  172.48    9.90
   0   7   2  177.88   10.80
  -1  -7  -2   48.40    5.90
  -1  -7  -2   47.00    4.80
  -1  -7  -2   39.10    6.40
   1   7   2   45.60    5.70
   1   7   2   41.70    5.50
  -2  -7  -2   37.50    6.20
  -2  -7  -2   19.20    4.40
  -2  -7  -2   16.40    4.00
  -2  -7  -2   29.20    6.80
  -2  -7  -2   25.70    4.10
   2   7   2   30.70    5.10
   2   7   2   31.00    5.60
   2   7   2   17.90    4.50
  -3  -7  -2   24.80    6.20
  -3  -7  -2   20.00    6.90
  -3  -7  -2   13.70    4.80
   3   7   2   19.30    5.00
  -4  -7  -2  124.59   11.90
  -4  -7  -2  132.99    9.20
  -4  -7  -2  133.99   12.70
  -4  -7  -2  134.69   15.90
   4   7   2  152.48   11.70
   4   7   2  142.59   11.80
  -5  -7  -2   38.40    8.10
   5   7   2   41.60    7.10
   5   7   2   29.20    7.50
   7  -8  -2   74.59    8.90
  -7   8   2   87.09    7.40
  -7   8   2   77.69    6.70
   6  -8  -2   -5.10    3.20
   6  -8  -2    0.30    2.60
  -6   8   2    4.40    3.60
  -6   8   2   -6.30    5.60
  -6   8   2   -0.40    2.20
   5  -8  -2   52.29    6.10
   5  -8  -2   49.50    5.70
   5  -8  -2   47.20   12.70
  -5   8   2   59.29    4.50
  -5   8   2   54.99    9.90
  -5   8   2   57.79    5.10
   4  -8  -2   43.60    5.50
   4  -8  -2   52.89   11.00
   4  -8  -2   49.90    5.10
  -4   8   2   45.70    7.00
  -4   8   2   47.80    7.00
  -4   8   2   45.50    3.90
  -4   8   2   49.00    4.20
   3  -8  -2   24.40    6.60
   3  -8  -2   29.10    4.30
  -3   8   2   31.10    3.30
  -3   8   2   27.20    4.50
  -3   8   2   24.80    5.20
   2  -8  -2   -0.10    3.70
   2  -8  -2    1.10    1.90
   2  -8  -2   -1.60    2.20
   2  -8  -2    3.20    2.00
  -2   8   2   -0.40    3.50
  -2   8   2    1.10    1.90
  -2   8   2    0.10    1.70
   1  -8  -2    3.60    3.00
   1  -8  -2    2.90    3.50
  -1   8   2    1.30    3.90
  -1   8   2    1.70    2.20
  -1   8   2   -0.60    1.80
   0  -8  -2   96.09    7.60
   0  -8  -2   65.39    8.10
   0   8   2   86.39    6.70
   0   8   2   90.59    8.60
   0   8   2   80.99    7.50
  -1  -8  -2  294.87   15.30
  -1  -8  -2  276.97   18.10
  -1  -8  -2  293.87   15.50
   1   8   2  278.87   14.50
   1   8   2  262.17   14.90
   1   8   2  272.37   15.30
  -2  -8  -2   38.60    6.30
  -2  -8  -2   46.80    7.80
  -2  -8  -2   53.59    9.50
  -3  -8  -2  503.85   24.70
  -3  -8  -2  496.15   28.70
  -3  -8  -2  441.76   24.60
  -3  -8  -2  486.75   21.70
   3   8   2  478.65   23.80
   3   8   2  526.55   24.20
  -4  -8  -2   86.89   13.70
  -4  -8  -2   68.69    6.70
  -4  -8  -2   44.60    8.70
   4   8   2   56.89    9.60
   4   8   2   74.49    8.70
   7  -9  -2   -4.10    4.30
   7  -9  -2    3.50    3.50
  -7   9   2    5.50    3.30
  -7   9   2    6.10    3.10
   6  -9  -2   11.90    4.20
   6  -9  -2    9.20    3.40
  -6   9   2   10.00    2.70
  -6   9   2   10.60    3.20
  -6   9   2   21.40    7.80
   5  -9  -2  106.19    8.00
   5  -9  -2   66.99   15.70
  -5   9   2   76.59    5.70
  -5   9   2   94.59    7.40
  -5   9   2   63.69   11.20
   4  -9  -2    7.80    9.60
   4  -9  -2   -0.20    2.40
  -4   9   2    0.50    1.90
  -4   9   2    2.40    1.90
  -4   9   2    1.20    3.80
   3  -9  -2   73.99    6.30
   3  -9  -2   69.89   12.20
   3  -9  -2   60.09    6.40
  -3   9   2   62.99    6.60
  -3   9   2   76.99    5.00
   2  -9  -2   69.09    7.20
   2  -9  -2   72.09    7.00
   2  -9  -2   61.49    4.40
   2  -9  -2   73.59    9.30
  -2   9   2   71.29    5.60
  -2   9   2   60.29    6.40
   1  -9  -2   -0.70    3.30
   1  -9  -2   11.30    6.90
  -1   9   2    0.50    2.30
  -1   9   2   -2.20    2.60
   0  -9  -2   37.00    7.00
   0  -9  -2   38.90    6.10
   0   9   2   47.70    6.40
   0   9   2   48.00    5.90
  -1  -9  -2   13.30    4.80
  -1  -9  -2    2.70    6.60
  -1  -9  -2    1.70    4.70
   1   9   2   -1.20    3.50
   1   9   2   -1.00    3.50
  -2  -9  -2  157.38   15.70
  -2  -9  -2  145.59   12.90
   2   9   2  171.08   11.60
   2   9   2  156.48   11.50
  -3  -9  -2   84.89   10.70
  -3  -9  -2   55.49    8.80
  -3  -9  -2   79.29   12.40
   3   9   2   96.19    9.80
   3   9   2   79.99    9.10
   6 -10  -2   10.70    3.50
  -6  10   2   15.60    3.30
  -6  10   2    7.70    9.20
  -6  10   2   11.20    2.90
   5 -10  -2   -2.60    3.20
  -5  10   2   -1.60    7.90
  -5  10   2    1.30    2.40
  -5  10   2    1.60    2.40
   4 -10  -2   16.30    3.90
   4 -10  -2    5.70    3.70
  -4  10   2   17.20    2.70
  -4  10   2   13.10    2.70
  -4  10   2   15.60    5.30
   3 -10  -2   28.50    5.00
  -3  10   2   36.50    5.80
  -3  10   2   39.70    6.70
   2 -10  -2   20.60    5.00
   2 -10  -2   13.40    5.10
   2 -10  -2    7.00    5.80
  -2  10   2   10.60    4.20
  -2  10   2    7.80    4.10
   1 -10  -2   16.70    4.30
  -1  10   2    1.10    3.30
  -1  10   2    2.40    2.60
   0 -10  -2  103.59   10.90
   0 -10  -2  112.49   12.00
   0  10   2  107.19    8.50
   0  10   2  119.99    9.30
  -1 -10  -2    6.20    4.90
  -1 -10  -2    4.20    6.10
   1  10   2   11.90    4.10
   1  10   2    3.80    3.60
  -2 -10  -2   -1.40    4.70
  -2 -10  -2   -5.40    6.50
   2  10   2    2.10    4.30
   2  10   2   -1.40    3.60
   5 -11  -2   29.20    5.40
  -5  11   2   40.60    4.70
  -5  11   2   44.80    5.30
  -5  11   2   28.20   10.60
   4 -11  -2   -1.70    3.50
  -4  11   2   -3.30    2.30
  -4  11   2    5.60    6.40
  -4  11   2    0.70    2.30
   3 -11  -2   29.00    5.00
  -3  11   2   18.50    5.40
  -3  11   2   33.90    4.50
   2 -11  -2   12.40    4.70
   2 -11  -2   13.50    4.00
  -2  11   2   12.40    3.20
  -2  11   2   10.30    4.30
   1 -11  -2   89.69    9.40
  -1  11   2  114.99    8.40
  -1  11   2  105.49    8.60
   0  12  -3   -0.60    4.70
   0  12  -3   -2.10    3.20
   0 -12   3    3.20    4.30
   0 -12   3    9.90    6.90
  -1  12  -3   99.89    8.60
  -1  12  -3   81.19   11.50
   1 -12   3  108.69   13.10
   1 -12   3   96.99    8.30
  -2  12  -3   17.40    7.80
  -2  12  -3    6.50    3.80
   2 -12   3   16.40    7.20
  -3  12  -3   89.39    7.70
  -3  12  -3   60.19   12.80
   3 -12   3   95.39    9.00
  -4  12  -3   18.40   11.50
  -4  12  -3   43.20    5.10
  -4  12  -3   44.10    5.70
   4 -12   3   56.69    7.30
   2  11  -3  108.69   10.90
   2  11  -3   93.59    8.80
  -2 -11   3  106.09   10.20
  -2 -11   3  108.59   12.20
  -2 -11   3  125.09   17.10
   1  11  -3   21.20    5.30
   1  11  -3   13.90    4.00
  -1 -11   3   21.50    5.60
  -1 -11   3   30.60    7.50
   0  11  -3    0.70    5.00
   0  11  -3    7.80    4.00
   0 -11   3    4.70    5.60
   0 -11   3   13.10    5.70
   0 -11   3    3.80    4.10
  -1  11  -3    3.90    2.80
  -1  11  -3    7.40    5.20
   1 -11   3    1.20    5.30
   1 -11   3   14.70    5.80
   1 -11   3    6.30    3.30
  -2  11  -3    0.30    6.40
  -2  11  -3    1.10    3.20
   2 -11   3    4.60    5.80
   2 -11   3    5.20    4.30
  -3  11  -3  152.98    9.60
  -3  11  -3  123.99   16.60
   3 -11   3  183.78   17.30
  -4  11  -3    4.50    3.10
  -4  11  -3    6.70    2.50
  -4  11  -3    7.40   10.70
   4 -11   3    3.50    2.20
   4 -11   3   -4.10   12.60
   4 -11   3   10.10    6.50
  -5  11  -3  101.29    8.00
  -5  11  -3   97.69    6.60
  -5  11  -3  109.29   18.10
   5 -11   3   93.49    6.70
   5 -11   3  116.89    8.30
  -6  11  -3  127.69   18.70
  -6  11  -3  130.69    9.40
  -6  11  -3  119.19    7.80
   6 -11   3  126.79    9.00
   6 -11   3  131.19    8.80
   3  10  -3   52.29    9.30
   3  10  -3   34.90    7.20
  -3 -10   3   52.79   11.50
  -3 -10   3   40.20    8.40
  -3 -10   3   37.70    6.90
   2  10  -3  232.58   14.40
   2  10  -3  199.88   12.90
  -2 -10   3  235.18   16.60
  -2 -10   3  228.28   14.30
  -2 -10   3  214.98   15.90
   1  10  -3   79.79    8.60
   1  10  -3   96.59    8.70
  -1 -10   3  114.39   11.50
  -1 -10   3  109.19    9.70
  -1 -10   3   97.09   11.50
   0 -10   3  175.68   13.30
   0 -10   3  151.28    8.90
   0 -10   3  136.29   10.10
   0 -10   3  150.78   12.00
  -1  10  -3    7.80    4.80
  -1  10  -3   15.60    3.90
   1 -10   3    9.90    2.90
   1 -10   3   16.10    5.20
   1 -10   3   11.20    4.60
  -2  10  -3   12.20    3.10
  -2  10  -3   13.60    6.40
   2 -10   3    6.80    3.50
   2 -10   3   10.10    1.70
   2 -10   3   19.50    5.70
  -3  10  -3    4.40    7.30
  -3  10  -3   10.90    3.20
   3 -10   3   15.60    6.30
   3 -10   3    9.10    1.70
   3 -10   3   17.90    3.90
  -4  10  -3   92.79   15.90
  -4  10  -3  114.19    7.80
  -4  10  -3  119.39    6.70
   4 -10   3  116.19    7.90
  -5  10  -3   10.00    3.10
  -5  10  -3    6.90    1.90
  -5  10  -3   27.10   10.20
   5 -10   3   10.30    2.10
   5 -10   3   10.40    3.00
   5 -10   3   43.30   17.10
   5 -10   3    7.60    1.80
  -6  10  -3   15.70    4.10
  -6  10  -3    6.20    2.30
  -6  10  -3   -1.40   10.10
   6 -10   3   13.50    2.60
   6 -10   3   11.50    3.10
   4   9  -3    8.50    4.50
   4   9  -3   -2.30    4.80
  -4  -9   3    1.50    6.60
  -4  -9   3    0.90    5.10
   3   9  -3    8.00    3.50
   3   9  -3    5.80    4.00
  -3  -9   3   13.30    6.30
  -3  -9   3    8.40    4.60
  -3  -9   3    0.30    6.10
   2   9  -3   38.40    5.40
   2   9  -3   28.30    7.90
  -2  -9   3   51.59    8.60
  -2  -9   3   40.70    6.80
  -2  -9   3   43.70    8.70
   1   9  -3   31.40    4.90
   1   9  -3   36.80    6.20
  -1  -9   3   37.60    6.90
  -1  -9   3   30.90    6.20
  -1  -9   3   40.00    5.90
   0   9  -3    4.90    3.00
   0   9  -3    1.30    2.00
   0  -9   3   -2.00    2.80
   0  -9   3    1.80    2.90
   0  -9   3    6.00    3.30
   0  -9   3   10.90    3.90
   0  -9   3    4.10    3.20
  -1   9  -3   28.30    5.90
  -1   9  -3   30.30    4.60
   1  -9   3   29.90    5.20
   1  -9   3   36.40    4.10
   1  -9   3   30.20    4.30
   1  -9   3   31.50    5.00
  -2   9  -3  391.76   22.60
  -2   9  -3  402.66   18.60
   2  -9   3  446.56   21.30
   2  -9   3  442.76   20.00
   2  -9   3  433.26   16.80
  -3   9  -3  471.55   29.00
  -3   9  -3  561.34   23.00
   3  -9   3  589.04   28.30
   3  -9   3  565.14   23.50
   3  -9   3  547.25   21.10
  -4   9  -3   71.89    4.80
  -4   9  -3   80.59    6.00
  -4   9  -3   91.49   13.10
   4  -9   3   75.19    4.70
   4  -9   3   76.99    6.10
   4  -9   3   74.29   12.80
  -5   9  -3   72.39   13.20
  -5   9  -3   82.69    5.30
  -5   9  -3   55.89    9.50
   5  -9   3   76.39    4.80
   5  -9   3   82.29    6.10
   5  -9   3  112.59   20.70
  -6   9  -3    0.40    2.80
  -6   9  -3    1.70    2.00
   6  -9   3   -1.10    1.90
   6  -9   3    3.40    2.40
   6  -9   3   11.50   13.70
  -7   9  -3    8.00    3.50
   7  -9   3  -27.00   17.00
   5   8  -3   16.60    6.10
   5   8  -3    5.40    4.10
  -5  -8   3    9.40    5.50
  -5  -8   3   10.60    6.90
  -5  -8   3   11.90   10.10
   4   8  -3   89.49   11.10
   4   8  -3  118.49   10.40
  -4  -8   3  101.19   12.00
  -4  -8   3   74.09   12.60
   3   8  -3   66.39    8.10
   3   8  -3   64.79    6.50
  -3  -8   3   61.59    8.90
  -3  -8   3   71.19    8.00
  -3  -8   3   54.39    9.60
   2   8  -3    1.00    2.90
   2   8  -3    1.20    2.50
  -2  -8   3   -0.30    4.30
  -2  -8   3    1.80    3.20
  -2  -8   3   -2.50    4.00
   1   8  -3    6.40    2.50
   1   8  -3    6.60    2.80
  -1  -8   3    9.50    3.70
  -1  -8   3    9.00    3.50
  -1  -8   3    3.80    3.90
  -1  -8   3    5.00    2.10
  -1  -8   3    1.00    3.70
   0   8  -3  161.08   10.20
   0   8  -3  159.28   10.00
   0  -8   3  161.88   10.80
   0  -8   3  175.38    8.00
   0  -8   3  178.88   10.80
   0  -8   3  184.18   10.60
   0  -8   3  180.88   11.60
  -1   8  -3  357.36   19.70
  -1   8  -3  370.06   19.40
  -1   8  -3  399.86   20.50
  -1   8  -3  415.66   18.30
   1  -8   3  420.26   19.40
   1  -8   3  426.26   19.10
   1  -8   3  414.56   17.80
   1  -8   3  379.86   16.20
   1  -8   3  428.56   16.90
  -2   8  -3  488.75   20.70
  -2   8  -3  450.35   24.20
  -2   8  -3  464.65   23.40
   2  -8   3  486.55   21.30
   2  -8   3  498.95   19.40
   2  -8   3  504.05   22.90
  -3   8  -3   29.00    3.10
  -3   8  -3   30.50    7.70
  -3   8  -3   18.90    6.80
  -3   8  -3   29.00    3.60
   3  -8   3   29.30    3.50
   3  -8   3   27.30    3.80
   3  -8   3   17.90    5.80
  -4   8  -3  511.65   21.60
  -4   8  -3  510.95   28.90
  -4   8  -3  517.25   20.60
  -4   8  -3  488.95   23.10
   4  -8   3  523.25   20.70
   4  -8   3  532.95   21.60
   4  -8   3  558.94   33.20
  -5   8  -3    3.50    1.80
  -5   8  -3    9.60    2.70
  -5   8  -3    5.90    6.50
   5  -8   3    5.80    2.00
   5  -8   3    0.00   11.70
   5  -8   3    8.10    1.80
  -6   8  -3   30.10    4.90
  -6   8  -3   31.10    4.60
   6  -8   3   31.10    4.00
   6  -8   3   37.20    4.30
   6  -8   3   48.20   14.50
  -7   8  -3    9.70    3.40
  -7   8  -3    7.50    3.40
   7  -8   3    8.60    2.60
   5   7  -3   71.19    6.90
   5   7  -3   65.59    9.70
  -5  -7   3   47.30   16.60
  -5  -7   3   60.19    8.90
  -5  -7   3   48.70    8.60
   4   7  -3   81.79    8.80
   4   7  -3   77.09    6.90
  -4  -7   3   57.89   10.40
  -4  -7   3   86.79    8.90
  -4  -7   3   67.59    9.70
   3   7  -3    2.00    3.10
   3   7  -3    2.40    2.50
   3   7  -3    5.70    2.20
  -3  -7   3    0.70    5.10
  -3  -7   3    2.10    3.00
  -3  -7   3   -1.60    3.80
   2   7  -3   21.40    3.80
   2   7  -3   23.90    4.40
  -2  -7   3   20.30    4.10
  -2  -7   3   13.00    5.10
  -2  -7   3   11.00    3.40
  -2  -7   3   16.60    3.10
   1   7  -3   72.59    5.80
   1   7  -3   73.89    6.40
  -1  -7   3   79.49    7.40
  -1  -7   3   78.39    5.00
  -1  -7   3   76.39    6.90
  -1  -7   3   74.59    7.00
   0   7  -3  167.08   11.40
   0   7  -3  164.78    9.80
   0   7  -3  168.68    9.60
   0   7  -3  146.19   10.90
   0  -7   3  179.28    6.60
   0  -7   3  167.68   10.30
   0  -7   3  176.58    9.90
   0  -7   3  171.78   10.10
   0  -7   3  172.88   10.70
  -1   7  -3   85.79    5.90
  -1   7  -3   83.99    7.70
  -1   7  -3   77.59    6.80
  -1   7  -3   76.09    7.70
   1  -7   3   80.09    6.30
   1  -7   3   85.79    5.60
   1  -7   3   77.79    5.40
  -2   7  -3   68.59    8.10
  -2   7  -3   75.29    5.40
  -2   7  -3   75.19    8.20
  -2   7  -3   76.29    7.40
   2  -7   3   88.19    7.40
   2  -7   3   78.09    5.90
   2  -7   3   80.69    5.30
  -3   7  -3  198.08   13.20
  -3   7  -3  183.08    9.20
  -3   7  -3  159.08   12.10
  -3   7  -3  187.08    8.30
  -3   7  -3  146.69   14.40
  -3   7  -3  178.78   10.60
   3  -7   3  192.48    9.90
   3  -7   3  201.38   14.70
   3  -7   3  183.08    9.20
  -4   7  -3  145.59   10.80
  -4   7  -3  163.68    7.70
  -4   7  -3  184.38   15.10
  -4   7  -3  160.38    8.60
   4  -7   3  167.98    8.20
   4  -7   3  161.08    8.30
   4  -7   3  144.59   21.20
  -5   7  -3   30.60    4.10
  -5   7  -3   28.90    3.40
   5  -7   3   28.00    3.50
   5  -7   3   30.30    3.50
   5  -7   3   17.10   11.10
  -6   7  -3  527.45   23.60
  -6   7  -3  573.94   22.10
  -6   7  -3  584.74   23.10
   6  -7   3  524.15   22.20
   6  -7   3  506.75   36.30
  -7   7  -3    7.40    3.20
  -7   7  -3    0.70    3.00
   7  -7   3   32.90   16.60
  -8   7  -3   48.10    7.70
  -8   7  -3   27.50    5.10
   8  -7   3   34.30    5.50
   6   6  -3   61.79    7.00
   6   6  -3   56.09   10.00
  -6  -6   3   21.60   12.70
  -6  -6   3   51.99    9.70
  -6  -6   3   45.50    7.70
  -6  -6   3   43.10    7.30
   5   6  -3    1.00    6.90
   5   6  -3    7.80    3.00
   5   6  -3    2.00    2.90
  -5  -6   3    1.90    4.60
  -5  -6   3    0.60    3.60
  -5  -6   3   -0.10    4.30
   4   6  -3    1.80    2.50
   4   6  -3    2.50    3.50
   4   6  -3    1.30    2.70
  -4  -6   3    7.50    5.90
  -4  -6   3    3.20    3.20
  -4  -6   3    3.70    4.00
   3   6  -3  198.58   10.50
   3   6  -3  192.78   11.70
   3   6  -3  188.68    9.50
  -3  -6   3  183.18   11.70
  -3  -6   3  187.28   11.90
  -3  -6   3  176.38   13.30
   2   6  -3  783.22   29.10
   2   6  -3  790.32   31.20
   2   6  -3  752.62   31.90
  -2  -6   3  728.13   32.50
  -2  -6   3  761.42   29.70
  -2  -6   3  748.73   33.10
  -2  -6   3  787.42   32.60
   1   6  -3 1432.76   54.69
   1   6  -3 1372.56   54.19
   1   6  -3 1343.57   55.09
  -1  -6   3 1413.46   55.29
  -1  -6   3 1402.96   55.49
  -1  -6   3 1578.54   53.69
  -1  -6   3 1399.26   55.19
   0   6  -3  497.55   21.60
   0   6  -3  501.05   22.60
   0   6  -3  526.35   23.00
   0   6  -3  491.75   21.90
   0  -6   3  518.15   22.30
   0  -6   3  526.95   22.60
   0  -6   3  514.25   22.20
   0  -6   3  523.75   19.50
   0  -6   3  499.05   22.90
   0  -6   3  521.85   22.40
  -1   6  -3  725.03   30.90
  -1   6  -3  779.22   30.90
  -1   6  -3  706.03   30.90
  -1   6  -3  758.52   31.60
  -1   6  -3  730.03   29.60
   1  -6   3  729.73   29.90
   1  -6   3  744.93   30.30
   1  -6   3  741.83   29.00
   1  -6   3  726.13   30.30
   1  -6   3  782.22   30.80
   1  -6   3  769.62   29.00
  -2   6  -3   98.29    9.40
  -2   6  -3   97.69    8.20
  -2   6  -3  107.79    7.20
  -2   6  -3   98.79    5.80
   2  -6   3  106.39    6.10
   2  -6   3   96.99    6.00
   2  -6   3   95.59    6.80
   2  -6   3  108.89    8.40
  -3   6  -3    2.80    0.90
  -3   6  -3    3.60    2.20
  -3   6  -3    5.70    3.70
  -3   6  -3    5.40    4.80
  -3   6  -3    4.00    2.40
  -3   6  -3    4.20    1.30
   3  -6   3    7.60    4.20
   3  -6   3    4.10    1.50
  -4   6  -3    6.20    4.80
  -4   6  -3    1.50    1.00
  -4   6  -3    0.70    3.60
  -4   6  -3   -0.60    2.20
  -4   6  -3    3.20    4.00
  -4   6  -3    3.00    1.70
   4  -6   3    3.70    1.30
   4  -6   3    8.50    7.40
   4  -6   3    2.90    1.70
  -5   6  -3  587.64   24.90
  -5   6  -3  657.53   24.30
  -5   6  -3  565.44   24.80
  -5   6  -3  617.74   24.20
   5  -6   3  588.94   24.30
   5  -6   3  579.54   23.80
   5  -6   3  609.74   35.90
  -6   6  -3   29.20    4.70
  -6   6  -3   34.00    4.60
   6  -6   3    5.30   10.70
   6  -6   3   27.50    3.80
  -7   6  -3  260.37   17.80
  -7   6  -3  293.17   15.20
   7  -6   3  275.97   13.30
   7  -6   3  260.07   32.20
  -8   6  -3   26.90    6.70
  -8   6  -3   24.70    6.00
  -8   6  -3   21.50    4.80
   8  -6   3  -20.70   21.00
   8  -6   3   20.90    3.90
   6   5  -3   33.80    6.60
   6   5  -3   44.40    6.70
   6   5  -3   40.50    5.60
  -6  -5   3   35.40    5.70
  -6  -5   3   41.30    7.60
   5   5  -3  125.69    8.30
   5   5  -3  116.39   10.00
   5   5  -3  116.49    8.10
  -5  -5   3  110.19    9.60
  -5  -5   3  150.08   14.10
  -5  -5   3  113.89    9.90
  -5  -5   3  124.99   10.30
   4   5  -3   51.19    6.60
   4   5  -3   65.39    5.60
   4   5  -3   60.69    5.30
  -4  -5   3   59.29    7.10
  -4  -5   3   82.29    9.40
  -4  -5   3   65.99    7.40
  -4  -5   3   57.79    6.60
   3   5  -3   22.40    3.90
   3   5  -3   19.50    3.00
   3   5  -3   17.30    3.70
  -3  -5   3   20.60    3.50
  -3  -5   3   27.30    4.90
  -3  -5   3   24.20    4.90
   2   5  -3  957.70   38.30
   2   5  -3  935.91   38.10
   2   5  -3  952.00   37.20
   2   5  -3 1016.10   36.10
  -2  -5   3  926.21   39.10
  -2  -5   3  944.41   38.70
  -2  -5   3  995.60   36.30
  -2  -5   3  871.41   38.60
   1   5  -3 1045.00   39.30
   1   5  -3  991.10   40.20
   1   5  -3 1021.80   39.80
   1   5  -3 1008.20   39.30
   1   5  -3 1084.39   41.00
  -1  -5   3 1059.69   37.10
  -1  -5   3  985.60   40.20
  -1  -5   3 1039.80   40.40
  -1  -5   3 1007.30   40.50
  -1  -5   3  948.41   39.80
  -1  -5   3  972.80   40.20
   0   5  -3 1031.10   40.20
   0   5  -3 1100.69   40.90
   0   5  -3 1019.30   40.50
   0   5  -3 1032.30   41.20
   0  -5   3 1005.70   40.40
   0  -5   3 1063.89   40.60
   0  -5   3 1057.09   40.00
   0  -5   3 1026.60   40.60
  -1   5  -3   -0.80    1.80
  -1   5  -3   -0.10    1.60
  -1   5  -3    2.20    2.30
  -1   5  -3    0.10    0.90
  -1   5  -3    3.40    2.40
   1  -5   3    0.80    1.60
   1  -5   3   -0.40    1.40
   1  -5   3    1.80    2.30
   1  -5   3    0.70    1.20
   1  -5   3   -0.10    1.50
  -2   5  -3  320.57   14.00
  -2   5  -3  355.96   14.90
  -2   5  -3  350.06   15.20
  -2   5  -3  300.27   18.60
  -2   5  -3  349.37   15.60
   2  -5   3  293.47   20.00
   2  -5   3  353.16   14.30
   2  -5   3  318.07   14.90
   2  -5   3  357.76   15.60
   2  -5   3  343.27   14.50
  -3   5  -3  147.09   11.80
  -3   5  -3  146.19    8.90
  -3   5  -3  155.48    8.00
  -3   5  -3  142.29    9.10
  -3   5  -3  148.49    7.40
  -3   5  -3  147.59    6.60
  -3   5  -3  132.79    9.90
   3  -5   3  151.28    8.10
   3  -5   3  132.09    8.00
   3  -5   3  146.49   13.40
   3  -5   3  160.28    9.60
   3  -5   3  149.49    7.10
  -4   5  -3  297.47   13.90
  -4   5  -3  337.57   13.80
  -4   5  -3  316.67   13.90
  -4   5  -3  327.87   13.30
  -4   5  -3  280.07   17.80
  -4   5  -3  292.37   15.90
   4  -5   3  325.67   13.20
   4  -5   3  327.57   21.60
   4  -5   3  311.17   14.00
   4  -5   3  320.57   16.80
  -5   5  -3   91.79    6.30
  -5   5  -3   97.09    6.80
  -5   5  -3  113.19    6.60
  -5   5  -3  108.79    6.60
   5  -5   3  108.49    6.60
   5  -5   3  129.29   16.80
  -6   5  -3  130.99    8.40
  -6   5  -3  139.49    8.90
   6  -5   3  137.09    7.90
   6  -5   3  122.19   21.50
  -7   5  -3  173.88   10.80
  -7   5  -3  144.19   10.20
  -7   5  -3  149.29   10.50
   7  -5   3  155.48   25.50
   7  -5   3  131.19    8.60
  -8   5  -3    0.30    4.60
  -8   5  -3   -8.00    4.60
   8  -5   3    1.40    2.90
   7   4  -3    0.40    4.10
   7   4  -3    3.10    6.10
  -7  -4   3   -8.90    5.40
  -7  -4   3    8.60    5.20
  -7  -4   3    2.40    4.80
   6   4  -3  126.49    8.30
   6   4  -3  107.69    8.50
   6   4  -3  104.39   10.60
  -6  -4   3  109.19   10.50
  -6  -4   3   81.89   14.30
  -6  -4   3  113.89   10.30
   5   4  -3   72.39    7.30
   5   4  -3   77.59    6.00
   5   4  -3   66.09    6.10
  -5  -4   3   57.39    7.60
  -5  -4   3   68.29    7.50
  -5  -4   3   57.69    7.40
   4   4  -3   -0.80    2.80
   4   4  -3   -1.40    1.80
   4   4  -3    1.30    1.80
  -4  -4   3    1.10    2.60
  -4  -4   3    1.30    2.30
  -4  -4   3   -2.20    2.80
   3   4  -3  353.26   16.30
   3   4  -3  354.36   15.00
   3   4  -3  336.57   14.60
  -3  -4   3  333.37   16.90
  -3  -4   3  317.47   18.30
  -3  -4   3  325.77   16.30
  -3  -4   3  326.67   15.50
  -3  -4   3  315.57   17.60
  -3  -4   3  329.87   16.30
   2   4  -3  751.22   31.30
   2   4  -3  763.72   30.90
   2   4  -3  776.52   29.40
   2   4  -3  781.32   30.20
   2   4  -3  729.73   30.90
   2   4  -3  771.82   30.00
  -2  -4   3  779.22   29.40
  -2  -4   3  717.53   31.10
  -2  -4   3  746.33   31.10
  -2  -4   3  800.52   32.00
  -2  -4   3  773.92   30.50
  -2  -4   3  763.22   31.40
  -2  -4   3  758.92   31.40
   1   4  -3  765.12   28.70
   1   4  -3  680.33   31.90
   1   4  -3  775.22   30.80
   1   4  -3  760.02   32.10
  -1  -4   3  736.83   28.50
  -1  -4   3  775.82   30.20
  -1  -4   3  790.02   30.60
   0   4  -3  446.86   20.20
   0   4  -3  442.66   19.10
   0   4  -3  472.95   19.90
   0   4  -3  483.45   19.90
   0   4  -3  461.05   19.20
   0  -4   3  436.96   21.00
   0  -4   3  472.65   18.60
   0  -4   3  456.15   19.80
   0  -4   3  496.25   19.50
   0  -4   3  502.05   19.40
  -1   4  -3  536.55   22.70
  -1   4  -3  565.44   22.70
  -1   4  -3  555.34   21.60
  -1   4  -3  556.54   21.70
  -1   4  -3  496.05   25.60
   1  -4   3  530.75   21.70
   1  -4   3  545.65   21.90
   1  -4   3  587.04   22.70
   1  -4   3  574.94   22.90
   1  -4   3  566.04   22.30
   1  -4   3  528.05   22.00
  -2   4  -3  569.14   23.20
  -2   4  -3  564.64   21.20
  -2   4  -3  584.64   22.40
  -2   4  -3  561.54   22.10
  -2   4  -3  563.04   23.90
  -2   4  -3  514.85   26.80
   2  -4   3  559.64   25.70
   2  -4   3  571.94   22.70
   2  -4   3  605.14   25.10
   2  -4   3  575.44   22.70
   2  -4   3  549.45   21.60
  -3   4  -3   30.10    2.90
  -3   4  -3   30.30    2.80
  -3   4  -3   28.70    2.40
  -3   4  -3   30.40    4.80
  -3   4  -3   20.10    4.60
  -3   4  -3   25.90    3.10
  -3   4  -3   29.70    6.00
   3  -4   3   30.30    7.60
   3  -4   3   27.00    3.30
   3  -4   3   27.80    3.50
   3  -4   3   32.90    6.40
   3  -4   3   30.90    2.50
  -4   4  -3  135.09   10.00
  -4   4  -3  164.38    7.90
  -4   4  -3  133.19   14.10
  -4   4  -3  162.68    7.60
  -4   4  -3  154.38    8.30
  -4   4  -3  160.78    8.00
   4  -4   3  137.09   12.00
   4  -4   3  156.08    7.20
   4  -4   3  153.58    8.30
   4  -4   3  158.88   15.10
  -5   4  -3   76.59    5.20
  -5   4  -3   75.79    5.90
  -5   4  -3   69.89    4.80
  -5   4  -3   60.79    5.20
   5  -4   3   69.29    5.40
  -6   4  -3   23.50    4.40
  -6   4  -3   23.60    3.70
  -6   4  -3   23.50    4.00
   6  -4   3   31.00   10.90
   6  -4   3   20.30    3.60
  -7   4  -3    3.70    3.80
   7  -4   3    0.50    2.50
  -8   4  -3   30.40    6.50
  -8   4  -3   49.70    9.10
  -8   4  -3   50.29    7.60
   8  -4   3   44.40    5.90
   7   3  -3    1.90    4.10
   7   3  -3    0.60    2.80
   7   3  -3    6.00    9.60
  -7  -3   3   -2.30    6.00
  -7  -3   3   -1.70    5.80
  -7  -3   3   -2.20    4.20
   6   3  -3  230.88   11.40
   6   3  -3  224.28   14.10
   6   3  -3  210.48   11.80
  -6  -3   3  205.48   13.10
  -6  -3   3  212.38   14.00
  -6  -3   3  213.28   13.80
   5   3  -3  172.28    9.00
   5   3  -3  163.98   10.90
   5   3  -3  148.29    9.00
  -5  -3   3  145.79   10.40
  -5  -3   3  144.49   10.00
  -5  -3   3  156.68   10.90
   4   3  -3 1335.57   48.40
   4   3  -3 1236.98   50.09
   4   3  -3 1246.58   48.00
  -4  -3   3 1233.08   50.19
  -4  -3   3 1263.37   49.99
  -4  -3   3 1276.27   49.20
   3   3  -3  205.28   11.10
   3   3  -3  223.98   11.40
   3   3  -3  207.78   11.20
   3   3  -3  202.78   10.90
   3   3  -3  223.68   10.50
  -3  -3   3  205.98   11.80
  -3  -3   3  209.88   11.80
  -3  -3   3  209.88   11.50
  -3  -3   3  204.78   10.60
  -3  -3   3  183.58   10.90
  -3  -3   3  207.98    9.80
   2   3  -3  509.95   21.30
   2   3  -3  509.05   20.20
   2   3  -3  507.15   20.40
   2   3  -3  501.25   20.10
   2   3  -3  499.65   21.10
  -2  -3   3  488.55   21.60
  -2  -3   3  503.85   21.00
  -2  -3   3  499.25   21.40
  -2  -3   3  513.65   20.80
  -2  -3   3  516.15   19.20
  -2  -3   3  505.45   21.50
   1   3  -3  150.58    8.00
   1   3  -3  151.88    7.40
   1   3  -3  159.58    7.40
   1   3  -3  151.88    7.30
   1   3  -3  151.88    7.80
   1   3  -3  152.68    8.30
  -1  -3   3  155.58    6.90
  -1  -3   3  148.39    7.70
  -1  -3   3  152.98    7.40
  -1  -3   3  154.28    7.50
  -1  -3   3  144.49    8.20
  -1  -3   3  153.88    7.90
   0   3  -3  131.89    7.20
   0   3  -3  130.79    6.10
   0   3  -3  132.79    7.20
   0   3  -3  139.09    7.80
   0   3  -3  123.89    6.40
   0  -3   3  133.09    7.00
   0  -3   3  129.19    5.70
   0  -3   3  130.49    6.70
   0  -3   3  142.69    6.70
   0  -3   3  128.09    7.00
   0  -3   3  116.99    6.80
  -1   3  -3 2751.22  101.89
  -1   3  -3 2823.12  102.69
  -1   3  -3 2927.71  102.99
  -1   3  -3 2824.02  102.59
  -1   3  -3 2373.96  105.59
   1  -3   3 2851.01  101.79
   1  -3   3 2784.52  102.49
   1  -3   3 3253.27  104.89
   1  -3   3 2768.32  102.39
   1  -3   3 2847.81  102.29
   1  -3   3 2813.02  103.09
  -2   3  -3   16.90    1.50
  -2   3  -3   12.40    2.50
  -2   3  -3   18.20    3.40
  -2   3  -3   16.00    2.10
  -2   3  -3   14.00    2.20
  -2   3  -3   17.70    4.60
  -2   3  -3   16.00    3.90
   2  -3   3   17.90    4.50
   2  -3   3   13.30    4.50
   2  -3   3   15.40    2.20
   2  -3   3   20.30    2.90
   2  -3   3   16.20    1.50
  -3   3  -3 2061.89   79.39
  -3   3  -3 2194.78   78.09
  -3   3  -3 2071.99   78.09
  -3   3  -3 2029.10   82.99
  -3   3  -3 2146.99   76.99
   3  -3   3 2154.08   76.99
   3  -3   3 2120.89   78.59
   3  -3   3 2126.89   77.89
   3  -3   3 2184.08   85.59
   3  -3   3 2156.68   82.19
  -4   3  -3   29.30    3.10
  -4   3  -3   31.80    3.60
  -4   3  -3   31.90    2.70
  -4   3  -3   31.50    3.50
  -4   3  -3   20.50    4.50
  -4   3  -3   27.80    9.00
   4  -3   3   25.90    5.80
   4  -3   3   27.50    3.50
   4  -3   3   27.80    2.60
   4  -3   3   27.20    3.60
  -5   3  -3   35.70    3.90
  -5   3  -3   32.50    4.50
  -5   3  -3   36.10    3.30
  -5   3  -3   32.20    4.20
   5  -3   3   34.10    4.00
   5  -3   3   24.10    7.10
  -6   3  -3   43.20    6.10
  -6   3  -3   56.49    6.40
  -6   3  -3   65.09    4.80
   6  -3   3   58.29    5.20
  -7   3  -3  128.29   11.70
  -7   3  -3  132.39    9.80
  -7   3  -3  115.79    9.90
  -8   3  -3   18.00    5.60
  -8   3  -3   37.20    6.50
  -8   3  -3   37.90    7.00
   8  -3   3   28.00    8.10
   8  -3   3   26.00    4.40
   8   2  -3    8.40    4.90
   8   2  -3    7.50    5.70
  -8  -2   3    4.50    5.30
  -8  -2   3    3.40    6.90
  -8  -2   3    4.00    5.70
   7   2  -3   21.80    4.30
   7   2  -3   13.80    5.40
   7   2  -3   12.80    4.50
  -7  -2   3    7.40    4.50
  -7  -2   3    8.60    4.40
  -7  -2   3   13.80    5.80
   6   2  -3   95.09    7.80
   6   2  -3  107.69    9.50
   6   2  -3  116.69    7.10
  -6  -2   3  104.99    9.20
  -6  -2   3  113.39    9.50
  -6  -2   3  100.89    8.80
   5   2  -3  342.97   14.50
   5   2  -3  311.17   14.70
   5   2  -3  316.17   16.40
  -5  -2   3  298.97   15.50
  -5  -2   3  313.77   16.20
  -5  -2   3  307.27   16.50
   4   2  -3  761.12   30.20
   4   2  -3  796.72   30.00
   4   2  -3  764.72   31.90
  -4  -2   3  751.12   30.90
  -4  -2   3  786.22   32.30
  -4  -2   3  727.03   31.40
   3   2  -3  357.66   15.70
   3   2  -3  370.76   16.10
   3   2  -3  367.36   15.00
   3   2  -3  365.46   14.70
  -3  -2   3  350.16   15.80
  -3  -2   3  347.47   15.90
  -3  -2   3  366.36   17.10
  -3  -2   3  343.77   16.30
  -3  -2   3  344.37   14.80
  -3  -2   3  319.67   15.20
   2   2  -3  856.61   33.40
   2   2  -3  904.01   33.90
   2   2  -3  893.91   33.30
   2   2  -3  868.71   34.20
   2   2  -3  885.51   32.90
   2   2  -3  902.31   34.50
  -2  -2   3  862.31   34.20
  -2  -2   3  895.11   33.60
  -2  -2   3  842.22   33.40
  -2  -2   3  892.71   34.30
  -2  -2   3  867.31   32.60
  -2  -2   3  894.11   34.80
   1   2  -3  803.82   30.80
   1   2  -3  818.12   31.00
   1   2  -3  809.22   31.30
   1   2  -3  710.53   30.60
   1   2  -3  824.22   30.30
   1   2  -3  884.31   30.80
  -1  -2   3  828.92   30.50
  -1  -2   3  800.22   31.10
  -1  -2   3  818.72   31.50
  -1  -2   3  816.32   30.40
  -1  -2   3  812.72   30.20
  -1  -2   3  806.72   30.90
   0   2  -3   99.59    4.90
   0   2  -3   84.39    7.00
   0   2  -3   94.69    5.30
   0   2  -3  101.59    3.90
   0   2  -3   92.49    5.20
   0  -2   3   95.69    5.20
   0  -2   3  116.59    6.40
   0  -2   3   86.99    5.70
   0  -2   3  101.89    5.00
   0  -2   3  101.69    5.30
  -1   2  -3  523.95   19.80
  -1   2  -3  527.75   19.60
  -1   2  -3  528.25   20.60
  -1   2  -3  484.25   22.80
  -1   2  -3  507.15   20.60
  -1   2  -3  480.05   19.80
  -1   2  -3  521.05   18.80
   1  -2   3  511.85   18.90
   1  -2   3  515.65   19.70
   1  -2   3  507.25   20.40
   1  -2   3  516.05   21.70
   1  -2   3  537.45   23.00
  -2   2  -3 5392.26  195.78
  -2   2  -3 5294.57  197.58
  -2   2  -3 5348.96  196.78
  -2   2  -3 5300.57  200.68
   2  -2   3 5819.62  202.98
   2  -2   3 5368.56  196.28
   2  -2   3 5393.56  197.28
   2  -2   3 5881.31  200.18
  -3   2  -3   49.90    2.80
  -3   2  -3   48.30    4.00
  -3   2  -3   42.90    5.00
  -3   2  -3   48.80    3.70
  -3   2  -3   42.60    4.00
   3  -2   3   48.80    8.10
   3  -2   3   47.00    2.90
   3  -2   3   52.59    7.80
   3  -2   3   60.89    4.40
   3  -2   3   51.39    3.90
   3  -2   3   49.90    3.30
  -4   2  -3    5.40    1.30
  -4   2  -3    0.70    1.80
  -4   2  -3    6.10    2.30
  -4   2  -3    2.90    1.60
  -4   2  -3    5.30    7.30
   4  -2   3    4.60    1.70
   4  -2   3    5.40    2.30
   4  -2   3    5.10    1.60
   4  -2   3    3.30    4.00
   4  -2   3    5.00    1.30
  -5   2  -3    2.30    1.40
  -5   2  -3    1.50    1.90
  -5   2  -3   -1.70    2.20
   5  -2   3    0.30    1.50
   5  -2   3    0.50    1.40
  -6   2  -3   92.29    7.60
  -6   2  -3   85.99    7.30
  -6   2  -3   88.29    7.90
  -6   2  -3   99.59    5.90
   6  -2   3   90.59    5.10
   6  -2   3   99.79    7.00
  -7   2  -3   22.70    4.40
  -7   2  -3   21.60    5.10
  -7   2  -3    9.90    4.20
   7  -2   3   13.70    4.40
   7  -2   3   26.80    4.20
  -8   2  -3   16.10    5.80
  -8   2  -3   17.60    5.70
  -8   2  -3   16.20    4.70
   8  -2   3    9.30    5.10
   8  -2   3   20.90    4.20
   8   1  -3   24.00    5.50
   8   1  -3   16.90    6.40
  -8  -1   3   29.60    6.50
  -8  -1   3   16.10    6.50
  -8  -1   3   25.60    7.40
   7   1  -3   56.19    8.30
   7   1  -3   58.49    5.00
   7   1  -3   44.30    7.00
  -7  -1   3   52.69    8.10
  -7  -1   3   54.59    8.80
  -7  -1   3   56.79    8.60
   6   1  -3    8.70    2.50
   6   1  -3    6.90    2.90
   6   1  -3    5.60    2.90
   6   1  -3    5.70    3.30
  -6  -1   3    9.30    3.90
  -6  -1   3    3.30    3.50
  -6  -1   3    2.40    2.60
   5   1  -3    3.70    2.60
   5   1  -3   -0.20    1.80
  -5  -1   3    3.60    4.60
  -5  -1   3    4.20    2.80
  -5  -1   3   -0.20    2.80
  -5  -1   3   -0.40    2.30
   4   1  -3   93.99    6.90
   4   1  -3  108.99    5.60
   4   1  -3   94.89    6.60
   4   1  -3   93.99    6.00
  -4  -1   3   97.99    6.80
  -4  -1   3   96.29    6.20
  -4  -1   3   97.19    7.20
  -4  -1   3   90.49    8.50
   3   1  -3  116.79    6.60
   3   1  -3  123.49    5.60
   3   1  -3  120.39    6.10
   3   1  -3  113.79    6.80
   3   1  -3  113.09    6.50
   3   1  -3  111.79    7.20
  -3  -1   3  121.49    6.90
  -3  -1   3  117.09    6.20
  -3  -1   3  126.29    7.40
  -3  -1   3  117.29    7.70
  -3  -1   3  106.99    6.30
   2   1  -3  809.12   31.50
   2   1  -3  841.82   30.10
   2   1  -3  829.22   31.10
   2   1  -3  831.12   30.50
   2   1  -3  797.82   31.50
   2   1  -3  819.62   31.20
  -2  -1   3  796.32   31.90
  -2  -1   3  806.02   30.40
  -2  -1   3  855.51   30.70
  -2  -1   3  804.22   31.80
  -2  -1   3  836.32   30.90
  -2  -1   3  801.82   31.30
   1   1  -3  571.04   21.90
   1   1  -3  560.94   21.40
   1   1  -3  549.74   21.80
   1   1  -3  557.74   21.40
   1   1  -3  481.05   22.10
   1   1  -3  571.84   20.80
  -1  -1   3  548.75   20.90
  -1  -1   3  583.54   21.60
  -1  -1   3  544.65   21.50
  -1  -1   3  576.74   21.50
  -1  -1   3  613.94   21.20
   0   1  -3  802.12   28.80
   0   1  -3  812.42   29.10
   0   1  -3  765.42   28.40
   0   1  -3  781.92   27.70
   0   1  -3  657.83   28.10
   0   1  -3  759.12   29.10
   0  -1   3  751.72   29.60
   0  -1   3  792.02   31.20
   0  -1   3  794.32   29.50
   0  -1   3  776.92   28.40
   0  -1   3  776.42   28.70
   0  -1   3  773.42   28.70
   0  -1   3  797.12   28.80
  -1   1  -3  550.34   21.40
  -1   1  -3  543.25   20.00
  -1   1  -3  526.35   23.00
  -1   1  -3  521.75   19.70
  -1   1  -3  543.65   21.20
  -1   1  -3  538.25   20.30
   1  -1   3  542.45   20.20
   1  -1   3  544.95   19.50
   1  -1   3  517.65   24.10
   1  -1   3  554.94   20.80
   1  -1   3  526.85   21.20
  -2   1  -3    2.90    1.70
  -2   1  -3    5.20    4.10
  -2   1  -3    2.80    1.00
  -2   1  -3    4.30    1.70
  -2   1  -3    3.40    1.30
   2  -1   3    3.50    1.40
   2  -1   3    7.90    3.50
   2  -1   3    3.70    1.60
   2  -1   3    4.10    1.00
   2  -1   3    4.40    1.20
  -3   1  -3    4.90    1.40
  -3   1  -3    6.50    2.20
  -3   1  -3    3.90    1.60
  -3   1  -3    6.50    2.30
  -3   1  -3    1.40    5.80
   3  -1   3    5.30    1.30
   3  -1   3    3.70    1.40
   3  -1   3    7.00    2.00
   3  -1   3    3.10    1.50
  -4   1  -3 1142.69   43.30
  -4   1  -3 1089.49   43.10
  -4   1  -3 1121.69   44.00
   4  -1   3 1142.79   43.50
   4  -1   3 1146.79   47.10
   4  -1   3 1075.09   42.80
   4  -1   3 1193.18   42.80
   4  -1   3 1112.49   42.10
  -5   1  -3  346.67   15.50
  -5   1  -3  346.37   16.60
  -5   1  -3  330.97   15.70
   5  -1   3  335.97   15.40
   5  -1   3  340.77   15.50
  -6   1  -3    4.20    3.30
  -6   1  -3    1.70    2.80
  -6   1  -3   -1.50    2.50
   6  -1   3    2.10    2.80
   6  -1   3    1.70    1.80
   6  -1   3   -1.90    4.00
  -7   1  -3  248.18   14.10
  -7   1  -3  210.88   15.90
   7  -1   3  205.38   22.70
   7  -1   3  237.48   12.60
  -8   1  -3   -0.90    4.80
  -8   1  -3    4.50    5.20
  -8   1  -3  -10.40    5.40
   8  -1   3   -8.70    6.60
   8  -1   3   -0.30    3.30
   8   0  -3  200.78   15.10
   8   0  -3  205.78   13.10
  -8   0   3  201.18   14.30
  -8   0   3  195.38   15.60
  -8   0   3  191.18   14.20
   7   0  -3    5.80    3.50
   7   0  -3    2.50    3.30
   7   0  -3    3.70    4.30
  -7   0   3   -4.60    4.30
   6   0  -3  487.65   21.80
   6   0  -3  527.15   24.10
   6   0  -3  534.65   20.50
  -6   0   3  497.65   22.70
  -6   0   3  491.75   23.10
  -6   0   3  458.55   23.40
   5   0  -3    9.00    1.90
   5   0  -3    7.90    2.60
   5   0  -3    8.20    2.70
  -5   0   3    4.20    2.60
  -5   0   3    5.80    2.40
  -5   0   3   13.60    6.30
  -5   0   3    9.30    3.00
   4   0  -3   73.89    5.10
   4   0  -3   73.39    5.30
   4   0  -3   74.29    4.70
   4   0  -3   69.39    6.20
   4   0  -3   81.39    4.10
  -4   0   3   71.09    8.10
  -4   0   3   74.49    5.40
  -4   0   3   74.49    5.40
  -4   0   3   66.69    5.80
  -4   0   3   71.19    5.10
   3   0  -3  164.88    8.20
   3   0  -3  164.18    8.70
   3   0  -3  162.08    7.80
   3   0  -3  170.08    7.50
   3   0  -3  146.29    8.00
   3   0  -3  175.68    6.50
  -3   0   3  164.48    8.60
  -3   0   3  170.98    7.80
  -3   0   3  167.28    8.00
  -3   0   3  172.18    9.80
  -3   0   3  154.68    8.10
   2   0  -3   75.29    4.70
   2   0  -3   84.29    4.10
   2   0  -3   69.79    4.30
   2   0  -3   73.29    3.60
   2   0  -3   72.19    4.30
   2   0  -3   73.69    3.60
  -2   0   3   67.89    4.50
  -2   0   3   72.09    3.90
  -2   0   3   73.69    4.00
  -2   0   3   71.69    4.10
   1   0  -3  788.22   29.90
   1   0  -3  791.62   29.90
   1   0  -3  816.32   30.50
   1   0  -3  806.32   29.00
  -1   0   3  817.72   29.70
  -1   0   3  794.42   29.80
  -1   0   3  793.02   30.00
  -1   0   3  820.72   29.20
  -1   0   3  797.62   29.40
  -1   0   3  776.32   29.60
  -1   0   3  789.52   29.40
  -1   0   3  832.32   30.30
   0   0  -3  136.89    5.50
   0   0  -3  126.59    6.50
   0   0  -3  134.99    5.40
   0   0  -3  138.89    6.10
   0   0  -3  135.99    6.70
   0   0   3  130.29    7.40
   0   0   3  150.48    6.80
   0   0   3  134.19    5.60
   0   0   3  126.89    6.50
   0   0   3  135.39    5.40
   0   0   3  141.29    5.30
   0   0   3  129.69    6.50
   0   0   3  132.29    6.80
  -1   0  -3  441.96   19.60
  -1   0  -3  489.75   18.10
  -1   0  -3  518.85   19.70
  -1   0  -3  482.95   18.30
  -1   0  -3  485.85   18.60
  -1   0  -3  494.85   21.60
   1   0   3  491.05   18.40
   1   0   3  487.85   18.20
   1   0   3  479.25   20.30
   1   0   3  470.25   19.40
   1   0   3  517.15   19.50
  -2   0  -3   97.59    4.50
  -2   0  -3   95.29    5.10
  -2   0  -3   87.59    8.30
  -2   0  -3   90.89    6.20
  -2   0  -3   97.79    5.40
  -2   0  -3   96.69    6.20
   2   0   3  104.99    4.90
   2   0   3  101.89    5.90
   2   0   3   98.29    5.90
   2   0   3   92.99    5.00
   2   0   3   95.29    7.30
  -3   0  -3 1034.70   40.10
  -3   0  -3 1080.79   38.70
  -3   0  -3 1054.89   39.30
  -3   0  -3  914.01   43.90
  -3   0  -3  990.20   40.80
  -3   0  -3  995.60   40.70
   3   0   3 1040.10   39.00
   3   0   3 1068.79   39.80
   3   0   3 1032.20   39.80
   3   0   3 1093.89   38.70
  -4   0  -3    6.70    2.10
  -4   0  -3    6.30    2.20
  -4   0  -3    3.80    1.70
   4   0   3    5.70    2.30
   4   0   3    6.60    2.20
   4   0   3    7.30    2.00
   4   0   3    6.10    2.90
  -5   0  -3  276.37   13.60
  -5   0  -3  284.27   13.30
  -5   0  -3  280.47   14.40
   5   0   3  260.57   13.00
   5   0   3  240.48   15.40
   5   0   3  281.47   13.30
  -6   0  -3    1.50    3.00
  -6   0  -3    2.60    2.90
  -6   0  -3    2.60    3.20
   6   0   3   -3.80    4.30
   6   0   3    4.80    4.10
   6   0   3    1.30    2.30
  -7   0  -3   60.99    7.90
  -7   0  -3   69.79    8.80
   7   0   3   72.69   10.60
   7   0   3   61.69   12.60
   7   0   3   67.29    6.90
   8  -1  -3    6.40    4.80
   8  -1  -3   16.60    4.50
  -8   1   3   10.70    6.80
  -8   1   3   11.00    4.10
  -8   1   3    4.30    4.60
   7  -1  -3  165.08   10.80
   7  -1  -3  177.08   12.70
   7  -1  -3  173.08    8.20
  -7   1   3  152.98   12.20
  -7   1   3  170.08   11.60
  -7   1   3  150.98   11.20
   6  -1  -3  228.88    9.80
   6  -1  -3  205.38   11.00
   6  -1  -3  213.28   13.20
   6  -1  -3  218.48   11.60
  -6   1   3  210.38   12.30
  -6   1   3  199.28   13.00
  -6   1   3  218.78   12.20
  -6   1   3  189.38   20.00
   5  -1  -3   54.89    3.60
   5  -1  -3   53.19    6.30
   5  -1  -3   48.50    4.60
   5  -1  -3   45.50    4.80
  -5   1   3   44.20    5.70
  -5   1   3   53.29    5.20
  -5   1   3   61.89    5.50
   4  -1  -3    1.20    0.70
   4  -1  -3   -0.10    1.50
   4  -1  -3    0.70    2.60
   4  -1  -3   -1.10    1.10
   4  -1  -3    1.50    1.50
   4  -1  -3   -0.10    1.10
  -4   1   3   -0.50    1.50
  -4   1   3    1.80    1.40
  -4   1   3   -0.60    1.40
  -4   1   3    1.60    1.80
  -4   1   3    0.70    3.90
  -4   1   3    1.50    1.60
   3  -1  -3  643.04   25.90
   3  -1  -3  624.04   25.00
   3  -1  -3  696.13   24.90
   3  -1  -3  624.44   25.20
   3  -1  -3  650.43   24.10
  -3   1   3  607.24   25.30
  -3   1   3  626.84   27.50
  -3   1   3  646.24   24.80
  -3   1   3  628.14   24.70
  -3   1   3  614.14   25.50
  -3   1   3  661.13   24.50
   2  -1  -3  236.98   10.70
   2  -1  -3  243.18   10.00
   2  -1  -3  255.97    9.60
   2  -1  -3  240.88    9.50
  -2   1   3  249.68   10.30
  -2   1   3  240.18    9.80
  -2   1   3  226.28    9.70
  -2   1   3  232.28    8.90
  -2   1   3  255.07   10.20
  -2   1   3  239.48   11.40
  -2   1   3  242.98    9.80
  -2   1   3  234.98   10.50
   1  -1  -3   56.39    3.50
   1  -1  -3   60.69    4.00
   1  -1  -3   55.69    3.20
   1  -1  -3   58.29    3.80
  -1   1   3   57.19    3.90
  -1   1   3   64.89    3.80
  -1   1   3   61.59    2.70
  -1   1   3   58.49    3.30
  -1   1   3   57.29    3.60
  -1   1   3   60.89    3.90
   0  -1  -3  198.78    9.20
   0  -1  -3  190.68    7.90
   0  -1  -3  184.18    9.40
   0   1   3  183.38    8.40
   0   1   3  203.48    7.40
   0   1   3  187.28    7.60
   0   1   3  193.38    9.60
   0   1   3  187.18    8.70
   0   1   3  198.68    9.10
  -1  -1  -3  866.31   35.00
  -1  -1  -3  930.41   37.40
  -1  -1  -3  972.90   38.60
  -1  -1  -3  982.60   36.10
  -1  -1  -3  954.30   36.10
  -1  -1  -3  987.80   37.60
  -1  -1  -3  981.40   36.10
  -1  -1  -3 1015.60   37.00
   1   1   3  959.60   35.90
   1   1   3 1004.50   37.50
   1   1   3  984.20   36.00
   1   1   3  949.51   35.10
   1   1   3  975.60   36.80
   1   1   3 1043.20   36.80
  -2  -1  -3  246.08   10.70
  -2  -1  -3  239.58   10.70
  -2  -1  -3  222.68   11.40
  -2  -1  -3  246.28    9.80
  -2  -1  -3  234.48   13.00
   2   1   3  220.98   11.40
   2   1   3  225.88   10.20
   2   1   3  241.58    9.30
   2   1   3  247.88   10.30
   2   1   3  228.48   11.50
   2   1   3  224.98   11.40
  -3  -1  -3  336.07   13.60
  -3  -1  -3  312.27   14.10
  -3  -1  -3  278.77   17.50
  -3  -1  -3  297.57   15.40
   3   1   3  345.07   14.90
   3   1   3  303.17   15.50
   3   1   3  338.77   15.20
   3   1   3  322.97   14.20
   3   1   3  332.27   13.90
  -4  -1  -3  273.27   12.40
  -4  -1  -3  277.57   13.40
  -4  -1  -3  256.57   12.70
   4   1   3  260.77   14.40
   4   1   3  262.67   12.40
   4   1   3  235.48   12.30
   4   1   3  266.97   13.30
  -5  -1  -3   86.29    7.10
  -5  -1  -3   99.49    7.90
  -5  -1  -3   91.79    6.50
   5   1   3  112.49   10.20
   5   1   3   94.79    8.00
   5   1   3   94.39    8.70
   5   1   3   86.09    6.40
  -6  -1  -3   60.79    6.80
  -6  -1  -3   64.59    7.40
  -6  -1  -3   55.29    6.40
   6   1   3   53.89    6.20
   6   1   3   66.39    9.40
  -7  -1  -3  205.58   14.60
  -7  -1  -3  202.48   13.60
  -7  -1  -3  202.78   12.70
   7   1   3  199.68   15.30
   7   1   3  195.78   11.80
   7   1   3  206.48   15.50
   8  -2  -3    1.10    3.40
   8  -2  -3   -0.10    5.20
  -8   2   3   -1.50    3.90
  -8   2   3    4.90    4.40
   7  -2  -3   37.40    5.90
   7  -2  -3   40.40    3.80
   7  -2  -3   45.20    8.00
  -7   2   3   43.80    7.10
  -7   2   3   24.70    4.80
  -7   2   3   31.30    5.30
   6  -2  -3  292.47   16.10
   6  -2  -3  285.97   14.30
   6  -2  -3  308.17   12.30
  -6   2   3  278.87   14.70
  -6   2   3  279.67   14.50
  -6   2   3  282.67   15.80
  -6   2   3  272.17   24.30
   5  -2  -3  100.59    8.70
   5  -2  -3  100.99    4.40
   5  -2  -3   96.39    6.80
  -5   2   3   84.09   13.90
  -5   2   3   99.89    6.70
  -5   2   3   90.49    7.60
  -5   2   3   92.69    6.60
   4  -2  -3 1104.89   42.40
   4  -2  -3 1107.89   42.70
   4  -2  -3 1175.58   41.50
   4  -2  -3 1157.08   43.90
  -4   2   3 1124.79   44.50
  -4   2   3 1140.19   49.20
  -4   2   3 1126.69   43.50
  -4   2   3 1205.58   43.20
  -4   2   3 1204.98   43.60
  -4   2   3 1122.99   43.60
   3  -2  -3  133.49    6.20
   3  -2  -3  128.99    8.20
   3  -2  -3  137.29    5.80
   3  -2  -3  128.39    6.00
   3  -2  -3  128.09    6.90
   3  -2  -3  131.49    7.10
  -3   2   3  133.19    5.80
  -3   2   3  122.39    6.30
  -3   2   3  134.89   11.00
  -3   2   3  139.59    7.00
  -3   2   3  134.59    6.30
  -3   2   3  125.49    6.50
  -3   2   3  128.99    6.40
   2  -2  -3 1647.74   59.39
   2  -2  -3 1582.04   58.69
   2  -2  -3 1584.74   58.69
   2  -2  -3 1594.34   57.69
   2  -2  -3 1581.44   58.89
  -2   2   3 1603.94   57.99
  -2   2   3 1544.75   57.89
  -2   2   3 1687.83   58.99
  -2   2   3 1669.53   58.49
  -2   2   3 1645.34   59.89
  -2   2   3 1554.24   57.89
  -2   2   3 1575.84   58.89
  -2   2   3 1539.75   59.69
   1  -2  -3 3743.43  134.09
   1  -2  -3 3881.71  132.49
   1  -2  -3 3616.14  134.39
   1  -2  -3 3669.83  134.49
   1  -2  -3 3722.43  133.79
  -1   2   3 3692.03  134.19
  -1   2   3 3752.92  133.59
  -1   2   3 3558.44  133.89
  -1   2   3 3711.83  134.99
  -1   2   3 3681.83  133.29
   0  -2  -3    4.40    1.20
   0  -2  -3    4.50    1.50
   0  -2  -3    3.20    0.90
   0  -2  -3    3.70    1.80
   0   2   3    4.80    1.30
   0   2   3    3.40    1.70
   0   2   3    2.60    1.90
   0   2   3    6.60    1.20
   0   2   3    5.80    1.10
   0   2   3    3.60    1.10
   0   2   3    3.90    1.40
   0   2   3    6.20    1.90
  -1  -2  -3  214.58    9.70
  -1  -2  -3  200.48    8.40
  -1  -2  -3  209.18   11.90
  -1  -2  -3  208.18    9.60
  -1  -2  -3  207.58    9.40
   1   2   3  208.58    9.00
   1   2   3  200.18   10.60
   1   2   3  203.78    8.60
   1   2   3  205.38   11.70
   1   2   3  189.48   11.30
   1   2   3  213.38    9.30
   1   2   3  210.58    9.40
   1   2   3  205.38    9.60
  -2  -2  -3  295.77   14.10
  -2  -2  -3  324.07   16.60
  -2  -2  -3  302.07   13.60
  -2  -2  -3  312.47   13.60
  -2  -2  -3  289.57   15.00
  -2  -2  -3  303.37   12.50
   2   2   3  291.27   13.20
   2   2   3  290.27   13.90
   2   2   3  315.57   13.20
   2   2   3  310.67   12.40
   2   2   3  311.67   13.30
   2   2   3  283.27   15.80
   2   2   3  322.97   14.80
  -3  -2  -3  143.59    7.40
  -3  -2  -3  163.28   11.60
  -3  -2  -3  134.59    9.20
  -3  -2  -3  131.49    7.90
  -3  -2  -3  144.29    8.30
   3   2   3  132.79    8.70
   3   2   3  141.19    8.00
   3   2   3  131.59    7.30
   3   2   3  144.99   10.50
   3   2   3  144.69    6.90
   3   2   3  143.09    9.80
   3   2   3  132.59    8.40
  -4  -2  -3    5.50    2.70
  -4  -2  -3    6.00    2.50
   4   2   3    3.30    1.80
   4   2   3    2.30    3.50
   4   2   3    5.20    2.10
   4   2   3    6.00    3.00
  -5  -2  -3   45.50    5.90
  -5  -2  -3   57.19    5.40
  -5  -2  -3   64.59    6.70
   5   2   3   56.29    5.50
   5   2   3   45.50    6.50
   5   2   3   43.00    8.30
  -6  -2  -3  185.18   10.80
  -6  -2  -3  184.98   12.70
  -6  -2  -3  172.58   11.80
   6   2   3  162.38   14.50
   6   2   3  175.18   13.90
  -7  -2  -3   15.10    5.20
  -7  -2  -3   25.90    6.10
   7   2   3   14.50    7.10
   7   2   3   17.00    4.20
   7   2   3   23.50    6.80
   8  -3  -3    1.10    3.90
   8  -3  -3    0.30    6.10
  -8   3   3    1.30    4.10
  -8   3   3   -1.60    3.60
  -8   3   3   -2.40    4.90
   7  -3  -3   76.19    7.00
   7  -3  -3   67.29    8.40
  -7   3   3   61.19    9.00
  -7   3   3   63.99    7.40
   6  -3  -3  254.67   13.40
  -6   3   3  283.27   15.20
  -6   3   3  266.87   13.60
  -6   3   3  267.27   13.80
  -6   3   3  281.67   24.80
   5  -3  -3  286.77   14.20
   5  -3  -3  331.47   18.20
  -5   3   3  324.67   22.90
  -5   3   3  302.67   14.10
  -5   3   3  315.57   14.10
  -5   3   3  284.37   15.00
   4  -3  -3    9.40    2.30
   4  -3  -3   10.50    3.70
   4  -3  -3   17.90    2.60
  -4   3   3   15.30    2.80
  -4   3   3   17.10    6.50
  -4   3   3   15.20    2.30
  -4   3   3   15.00    2.60
  -4   3   3   11.00    2.20
   3  -3  -3  561.94   21.10
   3  -3  -3  509.75   21.70
   3  -3  -3  543.75   21.50
   3  -3  -3  563.24   24.10
   3  -3  -3  549.15   20.50
  -3   3   3  529.95   20.90
  -3   3   3  507.85   23.20
  -3   3   3  527.25   21.00
  -3   3   3  552.04   21.70
  -3   3   3  555.34   20.50
  -3   3   3  510.65   22.40
  -3   3   3  518.95   20.50
  -3   3   3  519.45   20.60
   2  -3  -3  522.85   19.40
   2  -3  -3  518.55   20.80
   2  -3  -3  528.75   20.80
   2  -3  -3  482.55   20.30
   2  -3  -3  531.85   21.10
  -2   3   3  527.05   22.10
  -2   3   3  525.45   19.90
  -2   3   3  514.75   19.90
  -2   3   3  495.65   19.60
  -2   3   3  474.45   20.80
  -2   3   3  518.55   19.20
  -2   3   3  522.85   20.90
   1  -3  -3  547.35   23.40
   1  -3  -3  555.04   23.50
   1  -3  -3  587.54   22.10
   1  -3  -3  540.55   21.00
   1  -3  -3  543.85   21.90
  -1   3   3  527.25   20.80
  -1   3   3  559.44   20.70
  -1   3   3  571.14   21.20
  -1   3   3  579.14   21.30
  -1   3   3  556.04   23.10
  -1   3   3  557.34   22.60
  -1   3   3  573.14   24.20
  -1   3   3  551.44   22.40
   0  -3  -3  212.68   12.40
   0  -3  -3  216.28   10.30
   0  -3  -3  193.18    9.70
   0  -3  -3  231.18    9.90
   0  -3  -3  228.68   12.50
   0   3   3  236.08    9.70
   0   3   3  239.68    9.80
   0   3   3  235.68    9.90
   0   3   3  245.08   14.90
   0   3   3  234.78    9.60
   0   3   3  210.98   12.40
   0   3   3  206.18   10.50
   0   3   3  227.98    9.40
  -1  -3  -3  123.39    7.40
  -1  -3  -3  111.09    8.50
  -1  -3  -3  124.89    6.80
  -1  -3  -3  124.79    6.90
  -1  -3  -3  130.89    6.10
   1   3   3  124.89    8.40
   1   3   3  120.89    6.10
   1   3   3  126.79    6.40
   1   3   3  126.79    8.40
   1   3   3  121.09    6.90
   1   3   3  116.29    6.80
   1   3   3  125.99    9.20
   1   3   3  125.69    6.90
  -2  -3  -3   97.69    5.50
  -2  -3  -3   90.49    6.60
  -2  -3  -3   98.89    8.80
  -2  -3  -3   93.39    6.50
   2   3   3   89.79    6.40
   2   3   3   93.89    5.50
   2   3   3   94.09    6.40
   2   3   3  106.89    8.10
   2   3   3   92.79    5.50
   2   3   3   94.79    5.90
   2   3   3   94.99    7.70
  -3  -3  -3  137.99    8.50
  -3  -3  -3  141.59    7.60
  -3  -3  -3  133.89    8.20
  -3  -3  -3  137.59   11.90
   3   3   3  137.19    7.40
   3   3   3  135.69    7.20
   3   3   3  129.59    8.90
   3   3   3  131.79    8.00
   3   3   3  124.69    9.70
  -4  -3  -3   40.40    5.60
  -4  -3  -3   57.19   10.00
  -4  -3  -3   51.49    4.90
  -4  -3  -3   49.99    5.90
   4   3   3   52.99    4.80
   4   3   3   46.90    7.60
   4   3   3   46.90    6.00
   4   3   3   47.00    4.80
  -5  -3  -3   88.49    7.00
  -5  -3  -3   90.99    7.90
  -5  -3  -3   99.19   12.70
  -5  -3  -3   88.79    8.40
   5   3   3   89.69    7.10
   5   3   3  101.89    9.80
   5   3   3   85.29    8.70
  -6  -3  -3    9.90    4.40
  -6  -3  -3    7.70    4.70
  -6  -3  -3   14.20    3.80
   6   3   3    7.50    4.60
   6   3   3    5.60    5.70
   6   3   3    7.00    3.50
   8  -4  -3    2.70    6.00
   8  -4  -3    1.60    3.80
  -8   4   3    2.70    3.70
  -8   4   3   -5.20    5.20
  -8   4   3   -3.10    3.90
   7  -4  -3  133.09    9.70
  -7   4   3  123.69   10.10
  -7   4   3  125.49    9.20
  -7   4   3  120.99   11.60
   6  -4  -3   50.89    3.50
   6  -4  -3   49.80    5.90
  -6   4   3   53.39    7.00
  -6   4   3   42.20    5.10
  -6   4   3   51.19    5.60
   5  -4  -3   52.09    5.50
   5  -4  -3   48.80    7.90
   5  -4  -3   59.09    4.00
  -5   4   3   54.19    4.60
  -5   4   3   49.80    4.70
  -5   4   3   65.29   11.70
  -5   4   3   53.79    5.50
   4  -4  -3   29.30    4.00
   4  -4  -3   41.60    3.70
   4  -4  -3   39.50    3.70
   4  -4  -3   36.50    6.20
  -4   4   3   37.30    3.20
  -4   4   3   39.30    3.40
  -4   4   3   26.90    5.30
  -4   4   3   35.10    3.30
  -4   4   3   40.20    4.10
   3  -4  -3  515.75   24.50
   3  -4  -3  522.35   20.80
   3  -4  -3  566.14   21.50
   3  -4  -3  507.05   20.00
   3  -4  -3  480.55   20.90
  -3   4   3  481.05   22.60
  -3   4   3  531.95   19.50
  -3   4   3  481.15   21.30
  -3   4   3  507.65   20.20
  -3   4   3  515.05   19.70
  -3   4   3  496.35   19.70
  -3   4   3  522.55   21.00
  -3   4   3  500.35   21.00
   2  -4  -3  514.35   21.50
   2  -4  -3  509.05   22.10
   2  -4  -3  550.64   23.00
   2  -4  -3  545.45   21.50
   2  -4  -3  559.44   21.90
  -2   4   3  548.25   19.80
  -2   4   3  535.45   21.30
  -2   4   3  536.55   21.50
  -2   4   3  522.45   22.60
  -2   4   3  602.24   20.70
  -2   4   3  521.95   23.90
  -2   4   3  527.55   22.50
   1  -4  -3 1107.99   43.30
   1  -4  -3 1036.40   41.20
   1  -4  -3 1112.29   43.60
   1  -4  -3 1053.59   40.90
  -1   4   3 1136.39   40.80
  -1   4   3 1079.69   42.10
  -1   4   3  983.90   42.50
  -1   4   3 1108.29   42.20
  -1   4   3 1149.89   44.50
  -1   4   3 1126.89   40.00
   0  -4  -3 1941.91   76.59
   0  -4  -3 2056.79   73.69
   0  -4  -3 2040.40   73.79
   0  -4  -3 1956.70   74.29
   0  -4  -3 2092.69   77.29
   0   4   3 2025.40   73.79
   0   4   3 1979.00   75.79
   0   4   3 1947.41   75.49
   0   4   3 1941.81   72.09
   0   4   3 2052.89   73.59
   0   4   3 1897.21   73.19
   0   4   3 2083.79   72.99
   0   4   3 1994.30   77.39
  -1  -4  -3  544.45   22.90
  -1  -4  -3  549.25   22.60
  -1  -4  -3  525.45   22.80
  -1  -4  -3  525.85   25.60
  -1  -4  -3  546.45   21.80
   1   4   3  517.95   24.10
   1   4   3  569.54   22.20
   1   4   3  548.85   22.30
   1   4   3  586.14   22.20
   1   4   3  537.55   22.50
   1   4   3  544.75   24.40
   1   4   3  513.75   25.60
   1   4   3  518.05   21.30
   1   4   3  555.64   20.90
  -2  -4  -3    8.80    3.00
  -2  -4  -3   10.10    4.20
  -2  -4  -3   10.80    3.00
  -2  -4  -3    7.30    2.40
   2   4   3   10.30    2.50
   2   4   3   15.50    3.70
   2   4   3   10.90    2.50
   2   4   3   13.80    2.40
   2   4   3   14.30    2.90
  -3  -4  -3   26.30    4.70
  -3  -4  -3   34.00    6.90
  -3  -4  -3   24.60    3.60
   3   4   3   21.60    4.00
   3   4   3   16.90    4.20
   3   4   3   23.80    4.20
   3   4   3   22.70    3.50
   3   4   3   18.30    4.00
  -4  -4  -3  220.68   12.70
  -4  -4  -3  230.58   11.30
  -4  -4  -3  255.47   17.90
  -4  -4  -3  216.48   12.80
   4   4   3  217.78   13.20
   4   4   3  211.88   11.00
   4   4   3  226.38   11.20
   4   4   3  210.78   14.30
  -5  -4  -3   63.29    7.60
  -5  -4  -3   69.89    6.70
  -5  -4  -3   62.09    8.10
   5   4   3   57.19    8.30
   5   4   3   72.89    6.60
   5   4   3   60.89    9.30
  -6  -4  -3   67.79    6.80
  -6  -4  -3   60.69    8.80
  -6  -4  -3   75.89   10.70
   6   4   3   77.79    8.30
   6   4   3   64.49   10.30
   6   4   3   68.19   10.30
   8  -5  -3   55.79    9.40
   8  -5  -3   52.19    8.10
  -8   5   3   61.69   11.10
  -8   5   3   50.79    7.60
  -8   5   3   39.00    5.80
  -7   5   3    0.40    2.80
   6  -5  -3  124.99    8.70
   6  -5  -3  132.39    7.30
   6  -5  -3  152.68   16.50
  -6   5   3  132.89    8.30
  -6   5   3  150.08   22.40
  -6   5   3  124.19    8.20
   5  -5  -3  123.79    7.20
   5  -5  -3   97.29    7.60
   5  -5  -3  124.99   13.70
   5  -5  -3  116.49    7.40
  -5   5   3  112.39    7.60
  -5   5   3  121.79    6.90
  -5   5   3  122.59    7.10
  -5   5   3  120.49   10.90
  -5   5   3  127.79    9.90
   4  -5  -3  106.39    7.00
   4  -5  -3   91.99   11.10
   4  -5  -3   88.09    6.50
   4  -5  -3   98.79    6.40
  -4   5   3  106.79    6.00
  -4   5   3   99.19    9.20
  -4   5   3  102.89    5.50
  -4   5   3  107.79    6.70
  -4   5   3  100.19    5.60
  -4   5   3   82.69   10.80
   3  -5  -3  263.57   16.70
   3  -5  -3  270.77   13.40
   3  -5  -3  259.97   12.40
   3  -5  -3  257.87   11.70
   3  -5  -3  257.17   12.10
  -3   5   3  265.37   11.00
  -3   5   3  275.57   10.80
  -3   5   3  262.57   12.40
  -3   5   3  247.38   11.00
  -3   5   3  261.37   11.80
   2  -5  -3  139.59    7.60
   2  -5  -3  133.49    8.20
   2  -5  -3  130.29    7.00
   2  -5  -3  141.29    9.40
   2  -5  -3  145.39    7.50
   2  -5  -3  152.38    8.30
  -2   5   3  135.39    7.70
  -2   5   3  137.89    7.50
  -2   5   3  147.39   12.60
  -2   5   3  135.19    6.20
  -2   5   3  125.69    8.70
   1  -5  -3 1850.01   64.29
   1  -5  -3 1655.73   64.79
   1  -5  -3 1782.62   63.89
   1  -5  -3 1790.42   67.09
   1  -5  -3 1830.82   67.89
   1  -5  -3 1724.53   63.99
  -1   5   3 1670.43   66.49
  -1   5   3 1702.73   65.39
  -1   5   3 1732.93   62.59
  -1   5   3 1715.03   64.69
  -1   5   3 1698.53   63.49
  -1   5   3 1661.23   68.09
  -1   5   3 1623.94   65.79
  -1   5   3 1814.02   64.99
   0  -5  -3  528.65   21.60
   0  -5  -3  492.55   21.30
   0  -5  -3  513.15   21.80
   0  -5  -3  488.35   23.80
   0   5   3  508.15   21.50
   0   5   3  501.25   19.00
   0   5   3  517.95   22.70
   0   5   3  524.85   20.80
   0   5   3  530.95   21.10
  -1  -5  -3  293.87   13.10
  -1  -5  -3  283.17   14.30
  -1  -5  -3  301.57   17.10
  -1  -5  -3  318.47   14.60
   1   5   3  285.47   14.00
   1   5   3  302.87   13.90
   1   5   3  287.27   15.40
   1   5   3  286.37   13.20
   1   5   3  298.47   12.00
   1   5   3  301.97   13.90
  -2  -5  -3    4.50    2.90
  -2  -5  -3    5.40    1.90
  -2  -5  -3   -2.20    4.50
  -2  -5  -3    1.40    2.50
   2   5   3    6.20    2.80
   2   5   3    6.60    1.70
   2   5   3   10.30    3.70
   2   5   3    3.70    2.90
   2   5   3    8.00    3.20
  -3  -5  -3    1.20    3.70
  -3  -5  -3    7.30    4.40
  -3  -5  -3    4.30    2.20
  -3  -5  -3   -2.90    2.70
   3   5   3    1.90    2.80
   3   5   3    6.70    3.40
   3   5   3    6.50    1.90
   3   5   3    7.30    3.80
   3   5   3    3.60    3.30
  -4  -5  -3  179.68   12.00
  -4  -5  -3  165.88    9.50
   4   5   3  179.88    9.50
   4   5   3  162.68   11.60
   4   5   3  154.08   11.80
  -5  -5  -3  129.09   15.40
  -5  -5  -3  140.69    8.80
  -5  -5  -3  118.09   11.50
   5   5   3  118.59   11.90
   5   5   3  163.78    9.50
   5   5   3  119.29   11.30
   5   5   3  143.79    7.50
  -6  -5  -3  100.69   12.90
  -6  -5  -3   88.79   16.10
   6   5   3   68.49   11.00
   6   5   3   74.49   10.60
   6   5   3  103.79    9.50
   8  -6  -3   -2.20    4.30
  -8   6   3   -1.70    4.10
  -8   6   3    1.20    3.30
   7  -6  -3    3.10    3.70
  -7   6   3    8.30    3.80
  -7   6   3    7.90    3.20
  -7   6   3    2.50    5.60
   6  -6  -3  123.19    8.80
  -6   6   3  127.39    8.10
  -6   6   3  122.59    7.60
   5  -6  -3  161.08    9.60
   5  -6  -3  162.48    9.00
   5  -6  -3  137.59    9.50
   5  -6  -3  169.38   16.30
  -5   6   3  143.59   11.30
  -5   6   3  156.28    9.10
  -5   6   3  157.08   11.70
  -5   6   3  161.68    8.50
  -5   6   3  163.48    8.50
  -5   6   3  155.58    7.90
   4  -6  -3  250.27   13.10
   4  -6  -3  280.27   18.80
   4  -6  -3  274.67   14.10
   4  -6  -3  251.17   12.70
  -4   6   3  266.97   11.70
  -4   6   3  284.17   13.60
  -4   6   3  276.47   11.90
  -4   6   3  269.67   11.70
  -4   6   3  275.77   13.90
   3  -6  -3   -0.20    3.10
   3  -6  -3   -3.10    1.70
   3  -6  -3   -7.50    4.30
   3  -6  -3   -0.30    1.50
  -3   6   3    1.00    1.10
  -3   6   3    0.40    1.00
  -3   6   3    0.10    3.10
  -3   6   3    1.60    1.60
  -3   6   3   -0.10    2.60
   2  -6  -3    3.70    1.90
   2  -6  -3    4.40    2.20
   2  -6  -3    3.60    2.50
   2  -6  -3    7.50    4.30
  -2   6   3    2.20    1.60
  -2   6   3    5.20    1.30
  -2   6   3    4.40    2.50
  -2   6   3    0.10    3.70
   1  -6  -3  197.48   12.20
   1  -6  -3  221.58   10.70
   1  -6  -3  217.68    9.50
   1  -6  -3  211.68   10.90
  -1   6   3  202.38    9.60
  -1   6   3  188.78   10.80
  -1   6   3  185.88   11.00
  -1   6   3  220.88   10.70
   0  -6  -3  376.66   17.40
   0  -6  -3  379.46   17.30
   0  -6  -3  387.36   20.00
   0   6   3  368.06   17.60
   0   6   3  370.96   16.30
   0   6   3  385.16   16.90
   0   6   3  366.96   18.00
  -1  -6  -3  594.14   25.90
  -1  -6  -3  600.04   23.90
  -1  -6  -3  578.04   28.70
  -1  -6  -3  612.44   25.90
   1   6   3  583.54   24.90
   1   6   3  588.34   22.70
   1   6   3  636.14   22.00
   1   6   3  588.34   26.80
   1   6   3  567.14   25.30
   1   6   3  612.94   25.10
  -2  -6  -3   -1.10    1.80
  -2  -6  -3   -2.90    2.60
  -2  -6  -3   -5.20    4.30
  -2  -6  -3    0.10    3.40
  -2  -6  -3    0.90    3.20
   2   6   3   -1.80    2.40
   2   6   3    2.60    1.40
   2   6   3    2.80    2.00
   2   6   3   -2.50    2.60
   2   6   3    1.10    3.50
   2   6   3    0.80    2.90
  -3  -6  -3  100.79    8.70
  -3  -6  -3   82.19    8.60
  -3  -6  -3   73.09   11.80
  -3  -6  -3   83.99    6.40
   3   6   3   85.39    8.40
   3   6   3   82.99    8.40
   3   6   3  101.39    6.00
  -4  -6  -3   80.39    9.80
  -4  -6  -3   67.49    6.40
  -4  -6  -3   67.39   12.30
  -4  -6  -3   67.49    9.80
   4   6   3   88.49    5.10
   4   6   3   98.59    6.80
   4   6   3   74.49    8.60
   4   6   3   88.49    9.30
  -5  -6  -3   -1.80    5.00
  -5  -6  -3    8.20    3.90
  -5  -6  -3   19.80    8.70
  -5  -6  -3    4.50    6.10
   5   6   3    4.40    5.90
   5   6   3   16.70    6.10
   8  -7  -3    4.50    4.60
  -8   7   3   -1.70    3.90
  -8   7   3   -3.50    6.20
  -8   7   3   -2.30    3.00
   7  -7  -3    9.60   10.30
   7  -7  -3    0.40    3.70
  -7   7   3    3.30    3.00
  -7   7   3    4.00    3.20
   6  -7  -3   -1.20    3.30
   6  -7  -3    1.20    2.30
  -6   7   3    2.60    2.50
  -6   7   3   -1.20    4.80
  -6   7   3    4.10    2.40
   5  -7  -3  401.26   18.90
   5  -7  -3  410.26   18.20
   5  -7  -3  442.56   26.80
  -5   7   3  425.86   17.20
  -5   7   3  366.76   20.90
  -5   7   3  333.97   19.60
  -5   7   3  416.86   16.90
  -5   7   3  424.46   18.20
   4  -7  -3   23.00    3.80
   4  -7  -3   17.80    7.70
   4  -7  -3   19.00    3.90
  -4   7   3   28.70    3.00
  -4   7   3   21.10    2.80
  -4   7   3   24.10    5.10
  -4   7   3   24.40    4.90
  -4   7   3   22.50    5.30
   3  -7  -3  328.87   15.90
   3  -7  -3  369.36   16.20
   3  -7  -3  384.66   19.80
  -3   7   3  353.36   15.00
  -3   7   3  352.76   16.10
  -3   7   3  352.06   14.50
  -3   7   3  356.66   17.00
   2  -7  -3    9.90    2.60
   2  -7  -3   20.00    3.60
   2  -7  -3   12.20    3.50
   2  -7  -3   10.40    3.30
  -2   7   3   11.90    3.50
  -2   7   3   10.10    2.70
  -2   7   3   16.00    2.40
   1  -7  -3    3.50    2.90
   1  -7  -3    0.90    2.80
  -1   7   3    3.20    2.10
  -1   7   3    1.00    1.70
  -1   7   3    2.80    3.20
   0  -7  -3  599.34   26.30
   0  -7  -3  595.84   28.80
   0  -7  -3  646.24   26.50
   0   7   3  641.84   25.90
   0   7   3  598.44   25.10
   0   7   3  593.24   26.80
  -1  -7  -3    8.00    4.20
  -1  -7  -3    6.20    5.10
  -1  -7  -3    5.40    2.60
  -1  -7  -3    3.70    2.80
   1   7   3    6.40    3.20
   1   7   3    3.10    3.20
   1   7   3    6.50    2.90
  -2  -7  -3  185.08   11.70
  -2  -7  -3  159.08   13.50
  -2  -7  -3  165.78   11.20
   2   7   3  153.88   13.20
   2   7   3  150.88   11.30
   2   7   3  158.68   10.70
  -3  -7  -3   33.50    5.80
  -3  -7  -3   41.10    9.70
  -3  -7  -3   37.50    5.20
   3   7   3   43.60    7.30
   3   7   3   43.80    7.70
  -4  -7  -3   19.30    7.70
  -4  -7  -3    8.30    5.30
  -4  -7  -3    6.50    3.10
   4   7   3   -0.10    4.80
   4   7   3    2.00    4.30
   7  -8  -3    9.70    5.20
  -7   8   3    4.90    3.10
  -7   8   3    0.10    2.50
   6  -8  -3   14.40    4.40
   6  -8  -3    5.40    3.70
  -6   8   3    3.30    1.80
  -6   8   3    9.30    6.10
   5  -8  -3  114.79   15.50
   5  -8  -3  113.39    8.80
   5  -8  -3  115.59    8.00
  -5   8   3  109.59    6.40
  -5   8   3  100.79    6.60
  -5   8   3   94.39   11.20
   4  -8  -3   56.89    6.60
   4  -8  -3   59.79   11.40
   4  -8  -3   59.49    5.80
  -4   8   3   54.49    8.50
  -4   8   3   60.99    4.70
  -4   8   3   62.69    4.70
  -4   8   3   70.59    6.90
   3  -8  -3  213.88   10.90
   3  -8  -3  219.28   11.80
   3  -8  -3  195.78   14.70
   3  -8  -3  197.88   11.10
  -3   8   3  231.58   14.40
  -3   8   3  203.08    9.50
  -3   8   3  187.08   11.10
   2  -8  -3    2.20    2.70
   2  -8  -3    5.60    2.30
   2  -8  -3    3.90    3.60
  -2   8   3    5.70    2.40
  -2   8   3    5.80    3.70
  -2   8   3    3.70    1.80
   1  -8  -3    4.00    3.30
   1  -8  -3    8.50    2.30
   1  -8  -3    3.60    3.60
  -1   8   3    4.00    1.80
  -1   8   3    2.60    2.50
  -1   8   3    0.40    3.60
   0  -8  -3  138.69    9.10
   0  -8  -3   95.79    9.70
   0  -8  -3  129.59   10.40
   0   8   3  106.49    8.80
   0   8   3  106.29    7.60
   0   8   3  115.19    8.80
  -1  -8  -3   21.90    4.80
  -1  -8  -3   34.30    7.40
  -1  -8  -3   12.90    4.80
   1   8   3   19.30    4.70
   1   8   3   24.70    4.90
  -2  -8  -3   31.20    7.30
  -2  -8  -3   12.60    4.70
   2   8   3   22.80    5.10
  -3  -8  -3    3.80    5.60
  -3  -8  -3   -1.70    7.00
   3   8   3    3.70    4.10
   3   8   3    2.70    4.20
   7  -9  -3   -3.90    5.30
   7  -9  -3    4.80    3.50
  -7   9   3   -0.60    3.10
  -7   9   3   -0.70    2.50
  -6   9   3   -0.90    7.30
   5  -9  -3   -9.00    4.90
   5  -9  -3   -1.30    2.60
  -5   9   3    3.60    2.30
  -5   9   3    0.20    5.90
  -5   9   3    0.30    1.60
   4  -9  -3   45.70    8.30
  -4   9   3   48.60    4.30
  -4   9   3   41.60    6.60
   3  -9  -3   40.80    5.80
   3  -9  -3   45.20    5.80
   3  -9  -3   47.20    6.00
   3  -9  -3   42.40    7.80
  -3   9   3   42.50    4.10
  -3   9   3   36.50    5.30
   2  -9  -3   94.19    7.00
   2  -9  -3   77.69    8.10
   2  -9  -3   66.59    8.60
  -2   9   3   71.19    6.60
  -2   9   3   74.79    5.70
   1  -9  -3   76.69    9.20
   1  -9  -3   81.39    8.60
   1  -9  -3   99.59    8.10
  -1   9   3   77.69    7.10
  -1   9   3   80.59    6.40
   0  -9  -3   12.30    5.00
   0  -9  -3    1.60    4.90
   0  -9  -3   10.40    4.50
   0   9   3   -5.00    4.70
  -1  -9  -3   11.00    5.10
  -1  -9  -3   16.80    6.60
  -1  -9  -3    8.30    4.90
   1   9   3    4.80    3.90
   1   9   3    4.20    3.80
  -2  -9  -3   -2.60    4.30
   2   9   3   -4.10    4.00
   2   9   3    1.70    3.90
   6 -10  -3    4.80    3.60
  -6  10   3    5.20    2.40
  -6  10   3    5.70    2.90
  -6  10   3   -1.30    8.70
   5 -10  -3    0.30    3.20
   5 -10  -3   -5.80    4.20
  -5  10   3   -4.00    7.10
  -5  10   3    0.50    2.30
  -5  10   3    2.00    2.30
   4 -10  -3   14.70    3.90
   4 -10  -3    8.30    3.90
  -4  10   3   12.00    2.80
  -4  10   3   13.10    3.00
  -4  10   3   11.40    4.70
   3 -10  -3   13.30    3.60
   3 -10  -3   20.70    4.30
  -3  10   3    4.70    3.90
   2 -10  -3   22.80    5.30
  -2  10   3   16.90    4.40
   1 -10  -3    0.10    3.50
   1 -10  -3    2.10    4.30
  -1  10   3    1.00    3.30
  -1  10   3    1.20    3.00
   0 -10  -3   12.60    5.80
   0 -10  -3   11.20    4.70
   0  10   3   10.20    3.50
   0  10   3    2.60    3.70
  -1 -10  -3   56.29   10.80
   1  10   3   47.60    7.10
   1  10   3   69.49    8.50
   5 -11  -3    2.40    3.60
  -5  11   3    0.70    8.50
  -5  11   3    6.60    2.60
   4 -11  -3  116.09    9.50
  -4  11   3  116.39    7.50
  -4  11   3  122.39    7.60
  -4  11   3  111.59   11.50
   3 -11  -3   39.50    7.00
  -3  11   3   26.30    5.40
  -3  11   3   37.80    4.90
   2 -11  -3   18.30    4.60
  -2  11   3   17.90    3.70
  -2  11   3   14.00    4.30
   1 -11  -3   -1.40    4.10
   1 -11  -3    7.30    5.40
  -1  11   3    8.30    3.50
  -1  11   3    3.80    4.00
   0  12  -4  161.88   11.00
   0  12  -4  114.59   11.60
   0 -12   4  167.38   10.70
   0 -12   4  152.28   15.50
   0 -12   4  129.99   14.20
  -1  12  -4   39.80    6.70
  -1  12  -4   34.90    8.90
   1 -12   4   54.79    6.10
   1 -12   4   49.90    9.50
   1 -12   4   33.00    8.10
  -2  12  -4   13.40    4.00
  -2  12  -4   15.80    8.20
   2 -12   4   29.30    6.20
   2 -12   4   36.90    8.30
  -3  12  -4    8.00    3.40
  -3  12  -4   -2.50   10.10
   3 -12   4   18.10    4.40
   3 -12   4   11.00    9.40
  -4  12  -4    1.10    2.10
  -4  12  -4    1.60    2.70
  -4  12  -4   11.50   11.30
   4 -12   4    8.30   14.30
   4 -12   4    6.50    3.70
   2  11  -4    2.60    4.20
   2  11  -4   -1.10    5.10
  -2 -11   4    7.60    7.50
  -2 -11   4   -0.90    5.40
  -2 -11   4    3.90    4.80
  -2 -11   4    1.10    6.00
   1  11  -4   19.40    5.60
   1  11  -4   25.20    5.40
  -1 -11   4   28.70    7.20
  -1 -11   4   22.60    6.20
  -1 -11   4   31.90    5.80
   0  11  -4  186.88   15.00
   0  11  -4  231.48   13.60
   0 -11   4  240.28   15.50
   0 -11   4  226.68   12.90
   0 -11   4  240.58   15.60
  -1  11  -4   13.00    6.70
  -1  11  -4   31.60    5.40
   1 -11   4   22.30    4.00
   1 -11   4   25.40    6.50
   1 -11   4   27.80    6.80
  -2  11  -4  106.39    8.30
  -2  11  -4  101.69   13.00
   2 -11   4  123.39   13.10
  -3  11  -4    4.70    3.20
  -3  11  -4    1.10    9.40
   3 -11   4   14.90    7.40
   3 -11   4    7.10    3.60
   3 -11   4    2.40    1.60
  -4  11  -4    0.10    2.10
  -4  11  -4   -2.70   11.00
  -4  11  -4   -1.70    2.90
   4 -11   4    1.30    1.70
   4 -11   4    5.00   12.00
   4 -11   4    6.50    3.10
  -5  11  -4   15.60   10.50
  -5  11  -4   12.00    3.40
  -5  11  -4   14.90    2.60
   5 -11   4    8.40    2.30
   5 -11   4   12.00    3.70
   5 -11   4    9.00   22.40
   3  10  -4   19.80    5.70
   3  10  -4   14.90    4.70
  -3 -10   4   19.50    7.20
  -3 -10   4   13.30    7.20
  -3 -10   4   26.20    5.90
   2  10  -4    2.20    3.70
   2  10  -4    2.40    4.30
  -2 -10   4   -4.20    4.00
  -2 -10   4   -1.00    5.60
  -2 -10   4    8.50    6.30
  -2 -10   4    5.10    5.90
   1  10  -4   63.49    7.70
   1  10  -4   84.59    8.10
  -1 -10   4   77.89    9.00
  -1 -10   4   75.99    8.40
  -1 -10   4   73.49   11.10
  -1 -10   4   53.79    8.60
   0  10  -4   24.20    6.90
   0  10  -4   34.00    6.40
   0 -10   4   35.30    6.00
   0 -10   4   30.50    4.50
   0 -10   4   32.70    5.90
   0 -10   4   43.50    6.80
  -1  10  -4  288.87   19.00
  -1  10  -4  334.47   16.70
   1 -10   4  353.86   15.10
   1 -10   4  356.56   15.80
   1 -10   4  353.56   18.00
   1 -10   4  338.47   18.70
  -2  10  -4  186.88   10.70
  -2  10  -4  153.78   14.60
   2 -10   4  178.78    8.70
   2 -10   4  183.78   11.80
   2 -10   4  181.48   14.10
  -3  10  -4  101.09   15.30
  -3  10  -4   94.69    7.40
   3 -10   4  102.69    7.80
   3 -10   4   86.09   15.40
  -4  10  -4    3.90    1.80
  -4  10  -4   -0.20    7.50
  -4  10  -4    7.30    2.90
   4 -10   4   10.20   10.40
   4 -10   4    7.50    2.60
   4 -10   4    1.90    1.90
  -5  10  -4    7.70    3.00
   5 -10   4   33.40   18.20
   5 -10   4    2.30    2.50
  -6  10  -4   86.49    6.30
  -6  10  -4   79.59    7.50
   6 -10   4   84.39    6.60
   6 -10   4   84.29   20.00
   6 -10   4   74.09    5.30
   4   9  -4   14.40    4.80
   4   9  -4   17.00    5.60
  -4  -9   4   19.10    5.40
  -4  -9   4   17.70    8.10
   3   9  -4    0.30    3.90
   3   9  -4    0.80    3.60
  -3  -9   4    3.80    4.80
  -3  -9   4   -2.60    5.60
  -3  -9   4   -5.40    5.40
   2   9  -4   10.60    5.70
   2   9  -4    7.20    3.60
  -2  -9   4    3.50    3.70
  -2  -9   4   -4.80    4.40
  -2  -9   4   -1.10    5.30
   1   9  -4   41.70    6.10
   1   9  -4   52.59    6.40
  -1  -9   4   48.30    6.70
  -1  -9   4   39.00    6.60
  -1  -9   4   52.49    7.50
   0   9  -4   29.70    5.10
   0   9  -4   31.10    5.60
   0  -9   4   30.10    3.80
   0  -9   4   32.90    4.90
   0  -9   4   32.70    5.30
   0  -9   4   42.50    7.50
   0  -9   4   35.60    6.20
   0  -9   4   29.60    5.00
  -1   9  -4  259.37   13.50
  -1   9  -4  229.58   15.50
   1  -9   4  279.27   14.60
   1  -9   4  276.87   13.10
   1  -9   4  260.87   12.50
   1  -9   4  278.17   15.20
   1  -9   4  246.88   11.10
  -2   9  -4  116.49    7.90
  -2   9  -4   99.79   12.10
   2  -9   4  135.29    8.90
   2  -9   4  122.49    7.40
   2  -9   4  139.19   11.10
  -3   9  -4  307.77   13.20
  -3   9  -4  258.77   20.80
  -3   9  -4  305.97   14.30
   3  -9   4  302.07   14.50
   3  -9   4  315.27   13.30
   3  -9   4  308.17   20.20
  -4   9  -4   14.00    8.20
  -4   9  -4   10.90    1.90
  -4   9  -4    8.00    2.10
   4  -9   4    9.20    9.50
   4  -9   4   12.80    2.60
   4  -9   4   10.10    2.40
  -5   9  -4   21.10    8.20
  -5   9  -4   13.20    4.20
  -5   9  -4   16.20    2.60
   5  -9   4   15.40    2.60
   5  -9   4   20.00    3.80
   5  -9   4   14.10   16.10
  -6   9  -4  115.89    7.20
  -6   9  -4  111.09    8.30
   6  -9   4  100.29    6.50
   6  -9   4  102.79    6.90
  -7   9  -4   74.49    8.10
  -7   9  -4   69.49    6.80
   7  -9   4   50.89    5.40
   7  -9   4  119.69   34.20
   5   8  -4   13.10    4.60
   5   8  -4   11.00    5.90
  -5  -8   4   13.00    5.60
  -5  -8   4    3.10    8.30
  -5  -8   4   14.00    6.90
   4   8  -4   52.39    8.50
   4   8  -4   63.99    7.10
  -4  -8   4   37.90    9.00
  -4  -8   4   59.89    8.90
   3   8  -4   40.20    5.50
   3   8  -4   40.80    7.00
  -3  -8   4   50.39    7.50
  -3  -8   4   35.20    6.10
  -3  -8   4   46.80    8.20
   2   8  -4  539.15   24.90
   2   8  -4  562.54   25.80
  -2  -8   4  588.44   26.90
  -2  -8   4  590.74   26.50
  -2  -8   4  582.54   27.10
   1   8  -4  123.49    8.50
   1   8  -4  127.99    8.70
  -1  -8   4  127.49    9.20
  -1  -8   4  118.59   10.10
  -1  -8   4  125.99    7.10
  -1  -8   4  122.09    9.30
   0   8  -4  118.49    9.20
   0   8  -4  136.99    8.60
   0   8  -4  128.09   10.40
   0  -8   4  135.69    9.10
   0  -8   4  150.68   10.40
   0  -8   4  129.49    8.60
   0  -8   4  146.09    5.80
   0  -8   4  132.19    8.20
   0  -8   4  135.19   10.00
  -1   8  -4    4.80    2.20
  -1   8  -4    8.40    3.70
  -1   8  -4    0.90    3.50
   1  -8   4    4.00    1.70
   1  -8   4    6.50    2.20
   1  -8   4    3.20    3.20
   1  -8   4    4.00    2.50
  -2   8  -4   25.60    3.80
  -2   8  -4   24.60    5.00
  -2   8  -4   20.20    6.60
   2  -8   4   29.20    4.50
   2  -8   4   28.30    4.50
   2  -8   4   30.00    5.20
  -3   8  -4  307.67   22.70
  -3   8  -4  344.27   15.60
  -3   8  -4  355.46   14.50
   3  -8   4  405.26   21.90
   3  -8   4  351.96   15.60
   3  -8   4  343.07   15.10
  -4   8  -4  116.89    6.10
  -4   8  -4  113.39   13.30
  -4   8  -4  119.59    7.30
  -4   8  -4  102.09   10.40
   4  -8   4  119.69    6.80
   4  -8   4  116.89    6.90
   4  -8   4  127.79   17.70
  -5   8  -4  235.68   10.70
  -5   8  -4  202.98   11.00
  -5   8  -4  218.18   18.60
  -5   8  -4  193.68    9.60
   5  -8   4  192.18   31.90
   5  -8   4  193.08    9.90
   5  -8   4  204.28   10.20
  -6   8  -4  417.86   17.30
  -6   8  -4  408.56   17.60
  -6   8  -4  414.66   18.80
   6  -8   4  378.86   36.60
   6  -8   4  393.06   17.20
   6  -8   4  375.46   17.10
  -7   8  -4   40.30    5.90
  -7   8  -4   36.60    6.40
   7  -8   4   26.00    4.50
   5   7  -4    5.40    4.80
   5   7  -4    3.00    3.20
  -5  -7   4    4.20    4.80
  -5  -7   4   19.40    8.60
  -5  -7   4    2.80    5.60
   4   7  -4    1.50    2.80
   4   7  -4    5.50    4.10
   4   7  -4    7.80    3.00
  -4  -7   4   -6.00    4.70
  -4  -7   4    5.90    4.00
  -4  -7   4    2.90    5.00
   3   7  -4  653.73   26.20
   3   7  -4  633.54   27.60
   3   7  -4  653.43   29.10
  -3  -7   4  663.83   30.80
  -3  -7   4  675.53   30.20
  -3  -7   4  660.43   29.70
   2   7  -4   85.29    7.40
   2   7  -4   79.79    6.30
  -2  -7   4   85.39    8.10
  -2  -7   4   83.59    7.50
  -2  -7   4   85.39    8.00
   1   7  -4  254.27   13.60
   1   7  -4  268.17   13.90
  -1  -7   4  274.17   14.20
  -1  -7   4  270.97   14.80
  -1  -7   4  280.37   14.50
  -1  -7   4  265.07   10.30
   0   7  -4  108.49    8.00
   0   7  -4  115.39    8.70
   0   7  -4  112.59    7.50
   0   7  -4  112.19   10.50
   0  -7   4  116.69    8.50
   0  -7   4  104.19    8.00
   0  -7   4  123.79    7.50
   0  -7   4  110.99    7.90
   0  -7   4  111.79    5.80
  -1   7  -4    2.30    3.60
  -1   7  -4    0.40    2.50
  -1   7  -4    2.50    1.40
  -1   7  -4   -2.60    3.10
   1  -7   4   11.30    3.20
   1  -7   4    5.40    2.10
   1  -7   4    3.50    1.60
   1  -7   4    1.70    2.30
  -2   7  -4    0.40    2.60
  -2   7  -4    1.20    1.40
  -2   7  -4   -1.80    4.60
  -2   7  -4   -1.50    3.80
   2  -7   4    4.90    2.10
   2  -7   4    4.40    2.90
   2  -7   4    0.60    2.40
  -3   7  -4   41.30    6.60
  -3   7  -4   59.29    3.60
  -3   7  -4   50.29   10.50
  -3   7  -4   53.89    4.50
  -3   7  -4   57.69    6.10
   3  -7   4   50.69    4.30
   3  -7   4   54.49    4.60
   3  -7   4   63.19   10.20
  -4   7  -4    2.80    4.20
  -4   7  -4    2.80    1.80
  -4   7  -4    0.50    1.10
  -4   7  -4    0.90    2.70
  -4   7  -4    6.30    5.80
   4  -7   4    2.40    1.50
   4  -7   4   -1.30    1.80
   4  -7   4   -6.00    8.40
  -5   7  -4   14.00    2.40
   5  -7   4   14.50    2.80
   5  -7   4   20.90   11.20
   5  -7   4   12.80    2.70
  -6   7  -4   -2.50    2.60
  -6   7  -4    6.80    3.10
  -6   7  -4    1.60    2.30
   6  -7   4    3.00    2.10
   6  -7   4    1.80   13.20
  -7   7  -4  149.39   10.00
  -7   7  -4  165.38   10.70
   7  -7   4  141.79    8.80
   7  -7   4  187.38   24.90
   6   6  -4   17.60    6.40
   6   6  -4   19.10    4.00
   6   6  -4   24.30    4.40
  -6  -6   4   16.70    6.30
  -6  -6   4   18.00    5.40
  -6  -6   4   22.30    6.20
   5   6  -4   24.70    4.10
   5   6  -4   24.40    5.30
   5   6  -4   32.00    4.50
  -5  -6   4   35.30    6.70
  -5  -6   4   37.30   11.50
  -5  -6   4   23.20    5.10
  -5  -6   4   20.60    5.00
   4   6  -4  112.69    7.70
   4   6  -4  108.99    7.70
   4   6  -4  110.09    9.20
  -4  -6   4  112.49    9.20
  -4  -6   4  121.59   10.00
  -4  -6   4  114.89   10.20
   3   6  -4    9.60    2.80
   3   6  -4    7.80    2.50
   3   6  -4    7.10    3.20
  -3  -6   4   13.80    4.90
  -3  -6   4    8.70    3.40
  -3  -6   4    6.20    4.00
   2   6  -4  358.86   17.10
   2   6  -4  363.76   15.00
   2   6  -4  336.07   16.00
  -2  -6   4  346.57   15.10
  -2  -6   4  341.57   17.60
  -2  -6   4  349.96   17.50
  -2  -6   4  358.26   17.60
   1   6  -4   86.49    6.40
   1   6  -4   80.09    6.30
  -1  -6   4   74.39    7.50
  -1  -6   4   75.89    6.90
  -1  -6   4   86.69    4.30
  -1  -6   4   82.09    6.60
   0   6  -4  179.98   10.90
   0   6  -4  186.58   10.40
   0   6  -4  193.98   10.00
   0   6  -4  193.98   10.90
   0  -6   4  185.98    8.60
   0  -6   4  180.78   10.50
   0  -6   4  183.28    9.30
   0  -6   4  169.88   10.20
   0  -6   4  175.88   10.20
  -1   6  -4  185.98   11.40
  -1   6  -4  180.78    9.70
  -1   6  -4  201.48   10.50
  -1   6  -4  190.68   12.60
  -1   6  -4  242.08   15.80
   1  -6   4  200.88   10.80
   1  -6   4  212.98   12.20
   1  -6   4  172.08   10.30
   1  -6   4  189.48   10.40
   1  -6   4  196.38   10.10
   1  -6   4  201.88   10.20
  -2   6  -4  742.73   35.70
  -2   6  -4  800.32   31.20
  -2   6  -4  798.52   33.40
  -2   6  -4  716.33   36.70
   2  -6   4  841.72   31.30
   2  -6   4  841.82   31.70
   2  -6   4  842.32   34.10
  -3   6  -4  295.47   13.30
  -3   6  -4  244.28   14.90
  -3   6  -4  278.67   11.40
  -3   6  -4  282.47   18.70
  -3   6  -4  273.17   12.40
  -3   6  -4  272.37   14.40
   3  -6   4  290.87   12.90
   3  -6   4  264.77   17.90
   3  -6   4  282.27   12.00
  -4   6  -4  357.46   20.50
  -4   6  -4  352.06   21.90
  -4   6  -4  362.46   16.30
  -4   6  -4  374.26   15.20
  -4   6  -4  409.26   16.40
  -4   6  -4  381.86   16.60
   4  -6   4  360.46   15.20
   4  -6   4  379.46   25.00
   4  -6   4  360.06   16.40
  -5   6  -4    3.40    1.80
  -5   6  -4    3.50    1.90
  -5   6  -4    2.00    2.20
  -5   6  -4    3.70    2.50
   5  -6   4    2.00    2.00
   5  -6   4    7.70    8.90
  -6   6  -4   83.29    6.40
  -6   6  -4   67.59    6.60
  -6   6  -4   82.99    6.40
   6  -6   4   77.09    5.90
   6  -6   4   87.69   16.20
  -7   6  -4   86.19    9.20
  -7   6  -4   95.89    8.70
   7  -6   4  101.49    7.70
  -8   6  -4   19.40    4.90
  -8   6  -4   11.00    4.40
   8  -6   4   21.00    3.70
   6   5  -4  115.79    9.20
   6   5  -4  114.09    7.50
  -6  -5   4   81.69   13.80
  -6  -5   4   93.59   11.00
  -6  -5   4  107.19   10.00
  -6  -5   4   91.69   13.20
   5   5  -4   18.60    5.00
   5   5  -4   13.70    2.90
   5   5  -4   11.60    3.40
  -5  -5   4   16.80    4.90
  -5  -5   4   19.40    4.40
  -5  -5   4   19.80    7.50
  -5  -5   4   10.70    4.10
   4   5  -4  242.28   13.90
   4   5  -4  239.58   12.10
   4   5  -4  251.07   12.10
  -4  -5   4  258.77   15.70
  -4  -5   4  235.58   14.20
  -4  -5   4  220.38   14.00
  -4  -5   4  250.17   13.40
   3   5  -4   38.10    3.80
   3   5  -4   36.70    5.10
  -3  -5   4   33.70    5.20
  -3  -5   4   39.20    5.50
  -3  -5   4   30.80    5.30
   2   5  -4   31.60    3.90
   2   5  -4   24.60    4.20
   2   5  -4   28.50    3.40
  -2  -5   4   34.20    4.80
  -2  -5   4   31.20    4.80
  -2  -5   4   33.60    2.50
  -2  -5   4   30.70    5.10
  -2  -5   4   33.70    3.70
  -2  -5   4   27.60    4.90
  -2  -5   4   24.30    5.20
   1   5  -4   27.70    3.50
   1   5  -4   27.20    5.10
   1   5  -4   20.60    3.30
   1   5  -4   23.00    3.30
  -1  -5   4   21.90    4.00
  -1  -5   4   27.00    3.90
  -1  -5   4   22.70    3.70
  -1  -5   4   20.10    2.50
  -1  -5   4   19.50    3.70
   0   5  -4  547.45   24.10
   0   5  -4  519.65   22.90
   0   5  -4  557.14   24.00
   0   5  -4  584.04   23.10
   0   5  -4  575.84   24.60
   0  -5   4  562.54   22.20
   0  -5   4  546.65   23.80
   0  -5   4  547.05   23.60
   0  -5   4  580.74   22.10
   0  -5   4  586.54   23.30
   0  -5   4  549.15   23.30
  -1   5  -4 3444.56  126.69
  -1   5  -4 3416.46  125.39
  -1   5  -4 3355.56  126.49
  -1   5  -4 3431.56  125.19
  -1   5  -4 3371.76  130.39
   1  -5   4 3434.46  125.49
   1  -5   4 3604.34  126.59
   1  -5   4 3387.06  125.99
   1  -5   4 3553.64  126.19
   1  -5   4 3398.66  125.79
   1  -5   4 3517.55  125.69
  -2   5  -4 1253.67   47.00
  -2   5  -4 1194.58   47.40
  -2   5  -4 1217.98   46.80
  -2   5  -4 1265.07   45.70
  -2   5  -4 1102.09   51.39
  -2   5  -4 1191.18   44.40
  -2   5  -4 1211.28   45.60
   2  -5   4 1219.88   47.60
   2  -5   4 1245.88   46.40
   2  -5   4 1206.48   48.60
   2  -5   4 1203.48   46.40
   2  -5   4 1228.68   45.30
  -3   5  -4  874.91   34.20
  -3   5  -4  833.02   40.30
  -3   5  -4  932.61   35.70
  -3   5  -4  926.41   34.50
  -3   5  -4  893.81   33.20
  -3   5  -4  931.91   34.50
  -3   5  -4  855.91   36.00
  -3   5  -4  863.41   36.90
   3  -5   4  874.81   34.80
   3  -5   4  877.71   33.30
   3  -5   4  972.40   38.00
   3  -5   4  840.12   41.30
  -4   5  -4  663.43   27.70
  -4   5  -4  728.93   27.40
  -4   5  -4  688.13   26.90
   4  -5   4  689.43   28.10
   4  -5   4  705.93   26.50
   4  -5   4  675.43   36.50
  -5   5  -4  152.48    8.60
  -5   5  -4  173.48    9.40
  -5   5  -4  166.08    9.20
  -5   5  -4  154.18    8.40
   5  -5   4  160.28    9.10
  -6   5  -4    0.80    2.60
  -6   5  -4   -3.10    2.30
  -6   5  -4    0.40    2.10
  -6   5  -4    0.10    2.60
   6  -5   4   10.80    8.90
   6  -5   4   -1.40    1.90
  -7   5  -4    6.40    3.80
  -7   5  -4    3.10    3.50
   7  -5   4    2.40   14.10
  -8   5  -4   43.60    6.90
  -8   5  -4   74.39   10.00
  -8   5  -4   66.39    8.90
   8  -5   4   60.99    6.50
   7   4  -4  160.38    9.30
   7   4  -4  156.78   13.90
   7   4  -4  154.28   12.20
  -7  -4   4  156.48   13.80
  -7  -4   4  174.58   13.30
  -7  -4   4  183.78   14.50
   6   4  -4    2.30    2.90
   6   4  -4    4.60    4.50
   6   4  -4    6.20    3.40
  -6  -4   4   -0.70    4.20
  -6  -4   4    2.80    4.10
   5   4  -4  231.58   13.70
   5   4  -4  221.28   12.10
   5   4  -4  237.18   11.40
  -5  -4   4  235.48   14.20
  -5  -4   4  224.18   13.10
  -5  -4   4  205.28   13.50
   4   4  -4   39.60    5.30
   4   4  -4   26.00    4.50
  -4  -4   4   28.80    5.60
  -4  -4   4   28.60    5.50
  -4  -4   4   40.20    5.60
  -4  -4   4   31.50    5.40
   3   4  -4  150.68    8.40
   3   4  -4  151.58    9.20
   3   4  -4  157.68    8.00
  -3  -4   4  143.19    8.70
  -3  -4   4  147.39    9.60
  -3  -4   4  147.09    9.70
  -3  -4   4  147.09   10.20
  -3  -4   4  146.79    9.40
   2   4  -4  990.50   38.90
   2   4  -4  955.70   38.10
   2   4  -4  971.80   37.10
   2   4  -4  978.30   37.10
   2   4  -4  972.00   37.10
   2   4  -4  936.11   38.00
  -2  -4   4  935.61   38.60
  -2  -4   4  925.01   38.40
  -2  -4   4  949.51   38.40
  -2  -4   4  958.20   38.30
  -2  -4   4  961.80   37.90
  -2  -4   4 1010.00   37.60
  -2  -4   4  971.70   35.70
   1   4  -4  120.09    8.30
   1   4  -4  122.29    6.80
   1   4  -4  122.89    8.40
   1   4  -4  122.29    7.80
   1   4  -4  144.49    7.10
   1   4  -4  124.39    8.10
  -1  -4   4  135.39    6.50
  -1  -4   4  124.49    6.90
  -1  -4   4  136.79    7.70
  -1  -4   4  126.99    7.90
  -1  -4   4  125.29    7.80
   0   4  -4   37.80    4.90
   0   4  -4   41.00    3.70
   0   4  -4   34.80    3.00
   0   4  -4   31.90    4.40
   0  -4   4   36.20    3.70
   0  -4   4   36.50    2.40
   0  -4   4   33.80    3.70
   0  -4   4   34.80    3.70
   0  -4   4   33.50    5.40
  -1   4  -4  158.48    7.30
  -1   4  -4  158.58    7.80
  -1   4  -4  152.28    8.80
  -1   4  -4  160.48    8.70
  -1   4  -4  139.09   11.70
   1  -4   4  168.58    8.30
   1  -4   4  161.38    8.60
   1  -4   4  171.68    9.40
   1  -4   4  161.78    9.30
   1  -4   4  165.38    7.80
   1  -4   4  160.28    8.50
  -2   4  -4    2.50    3.60
  -2   4  -4    3.40    2.80
  -2   4  -4    6.70    2.50
  -2   4  -4    2.90    0.80
  -2   4  -4    1.50    1.10
   2  -4   4   -0.10    1.70
   2  -4   4    3.40    3.30
   2  -4   4    1.90    1.80
   2  -4   4    1.90    0.80
   2  -4   4    4.10    3.20
  -3   4  -4 2299.57   87.69
  -3   4  -4 2247.38   89.19
  -3   4  -4 2365.76   85.19
  -3   4  -4 2431.26   86.39
  -3   4  -4 2351.36   84.99
  -3   4  -4 2352.86   85.99
   3  -4   4 2360.56   86.69
   3  -4   4 2386.66   86.29
   3  -4   4 2316.17   90.89
   3  -4   4 2265.67   94.29
   3  -4   4 2400.66   84.69
  -4   4  -4  353.56   15.10
  -4   4  -4  360.06   13.90
  -4   4  -4  335.07   14.90
  -4   4  -4  319.57   14.20
   4  -4   4  327.97   15.10
   4  -4   4  316.27   13.40
   4  -4   4  334.77   22.80
   4  -4   4  293.17   19.80
  -5   4  -4   81.49    6.00
  -5   4  -4   96.99    6.60
  -5   4  -4   97.79    6.90
  -5   4  -4   82.39    6.10
   5  -4   4   90.59    6.50
   5  -4   4  104.29   14.50
  -6   4  -4   70.99    5.10
  -6   4  -4   58.99    6.10
  -6   4  -4   71.39    6.70
  -6   4  -4   88.49    6.80
   6  -4   4   67.29    5.60
  -7   4  -4   12.30    4.80
  -7   4  -4    9.80    4.00
  -8   4  -4    4.60    4.40
  -8   4  -4    8.40    4.50
  -8   4  -4    0.60    5.10
   8  -4   4    2.50    3.10
   7   3  -4  121.29    7.00
   7   3  -4   97.49   10.20
   7   3  -4  111.89   11.20
  -7  -3   4  121.89   12.30
  -7  -3   4  115.99   12.20
  -7  -3   4   90.99   10.70
   6   3  -4   81.09    8.50
   6   3  -4   81.89    5.80
   6   3  -4   72.69    7.50
  -6  -3   4   67.19    8.80
  -6  -3   4   65.89    8.50
  -6  -3   4   62.59    7.90
   5   3  -4   58.19    6.10
   5   3  -4   61.19    6.90
   5   3  -4   60.89    4.60
  -5  -3   4   55.39    6.80
  -5  -3   4   55.39    7.30
  -5  -3   4   68.59    6.40
   4   3  -4   39.30    4.80
   4   3  -4   48.20    4.00
   4   3  -4   48.00    5.30
  -4  -3   4   43.10    5.10
  -4  -3   4   40.70    7.40
  -4  -3   4   48.90    5.50
  -4  -3   4   42.50    5.70
   3   3  -4   13.50    2.50
   3   3  -4   11.10    2.60
   3   3  -4   13.10    3.10
   3   3  -4    7.60    2.60
   3   3  -4   14.90    2.50
   3   3  -4   15.30    3.00
  -3  -3   4   11.60    3.10
  -3  -3   4   12.00    2.10
  -3  -3   4   14.30    3.00
  -3  -3   4   10.10    3.00
  -3  -3   4    8.40    2.30
  -3  -3   4   13.40    2.70
  -3  -3   4   13.80    2.40
   2   3  -4 2440.16   85.49
   2   3  -4 2447.66   84.59
   2   3  -4 2318.37   85.19
   2   3  -4 2265.17   85.69
   2   3  -4 2311.47   84.69
   2   3  -4 2377.76   84.19
  -2  -3   4 2294.77   83.59
  -2  -3   4 2235.88   85.39
  -2  -3   4 2305.97   85.69
  -2  -3   4 2217.78   84.49
  -2  -3   4 2273.57   84.59
  -2  -3   4 2141.79   86.19
   1   3  -4   57.49    3.80
   1   3  -4   54.49    4.80
   1   3  -4   61.49    4.90
   1   3  -4   57.39    4.30
   1   3  -4   54.19    4.30
   1   3  -4   55.39    4.60
  -1  -3   4   57.49    4.80
  -1  -3   4   61.49    3.90
  -1  -3   4   54.39    3.70
  -1  -3   4   56.09    4.80
  -1  -3   4   59.69    4.10
  -1  -3   4   54.19    4.30
  -1  -3   4   53.19    3.80
   0   3  -4 1983.40   73.49
   0   3  -4 1917.01   72.19
   0   3  -4 2014.90   72.79
   0   3  -4 2082.89   74.29
   0   3  -4 1687.13   76.39
   0   3  -4 2073.49   74.29
   0  -3   4 1949.20   73.99
   0  -3   4 2018.90   74.19
   0  -3   4 2224.18   74.69
   0  -3   4 2082.29   73.69
   0  -3   4 2051.79   73.89
  -1   3  -4   48.00    3.30
  -1   3  -4   53.79    4.10
  -1   3  -4   47.30    4.30
  -1   3  -4   41.40    6.30
  -1   3  -4   48.70    4.40
   1  -3   4   47.90    5.90
   1  -3   4   50.49    4.90
   1  -3   4   54.19    3.70
   1  -3   4   54.09    3.10
   1  -3   4   50.69    3.70
   1  -3   4   45.50    4.20
  -2   3  -4  124.99    6.50
  -2   3  -4  121.89    7.70
  -2   3  -4  111.59    5.10
  -2   3  -4  104.09    6.40
  -2   3  -4  117.69    6.00
   2  -3   4  116.59    7.20
   2  -3   4  118.99    4.90
   2  -3   4  121.69    6.30
  -3   3  -4  540.15   21.50
  -3   3  -4  510.15   21.70
  -3   3  -4  544.25   24.00
  -3   3  -4  548.35   22.60
  -3   3  -4  524.75   27.20
  -3   3  -4  565.04   22.30
   3  -3   4  563.44   26.50
   3  -3   4  565.74   22.20
   3  -3   4  568.14   20.80
   3  -3   4  588.74   29.30
   3  -3   4  545.85   22.90
  -4   3  -4  511.55   21.40
  -4   3  -4  555.34   20.30
  -4   3  -4  550.64   22.30
   4  -3   4  515.25   26.20
   4  -3   4  527.45   22.40
   4  -3   4  554.34   28.20
   4  -3   4  504.55   20.20
   4  -3   4  513.65   22.20
  -5   3  -4  362.96   16.60
  -5   3  -4  389.06   15.10
  -5   3  -4  381.66   16.70
  -5   3  -4  356.06   17.30
   5  -3   4  351.16   23.80
   5  -3   4  373.86   16.90
  -6   3  -4    3.20    2.90
  -6   3  -4    5.90    3.50
  -6   3  -4   10.60    2.20
  -6   3  -4    9.40    2.90
   6  -3   4   14.30    3.00
  -7   3  -4   91.69    9.20
  -7   3  -4   96.09    8.80
   7  -3   4  110.49    7.90
  -8   3  -4    6.50    4.70
  -8   3  -4   13.80    5.60
  -8   3  -4    0.90    5.00
   8  -3   4    3.50    5.40
   8  -3   4   -1.90    3.20
   8   2  -4   69.39   11.40
   8   2  -4   45.20    7.10
  -8  -2   4   63.39   10.30
  -8  -2   4   58.39    8.70
  -8  -2   4   63.19   12.10
   7   2  -4  122.99   11.10
   7   2  -4  130.89   10.30
   7   2  -4  130.09    7.10
  -7  -2   4  138.69   11.30
  -7  -2   4  121.49   11.20
   6   2  -4   65.09    7.40
   6   2  -4   65.89    4.80
   6   2  -4   64.59    6.90
  -6  -2   4   52.29    8.10
  -6  -2   4   69.99    7.40
  -6  -2   4   51.99    7.10
   5   2  -4    4.60    2.60
   5   2  -4    8.10    3.20
  -5  -2   4    4.10    2.50
  -5  -2   4    4.80    2.40
  -5  -2   4   10.10    3.80
   4   2  -4    1.60    1.20
   4   2  -4    2.60    1.70
   4   2  -4    0.30    1.70
  -4  -2   4    3.20    1.90
  -4  -2   4    0.50    1.50
  -4  -2   4    3.30    3.10
  -4  -2   4   -0.20    1.50
   3   2  -4  507.05   22.00
   3   2  -4  550.44   20.30
   3   2  -4  500.95   21.50
   3   2  -4  514.35   21.50
   3   2  -4  546.75   21.00
   3   2  -4  533.05   22.30
  -3  -2   4  530.85   22.60
  -3  -2   4  532.05   21.00
  -3  -2   4  503.85   21.30
  -3  -2   4  502.75   22.60
  -3  -2   4  546.65   20.40
  -3  -2   4  518.25   21.30
  -3  -2   4  484.45   21.90
   2   2  -4  193.48    8.90
   2   2  -4  214.88    9.10
   2   2  -4  202.78    9.80
   2   2  -4  197.08    9.80
  -2  -2   4  198.28    9.20
  -2  -2   4  198.98    9.90
  -2  -2   4  186.38   11.90
  -2  -2   4  200.28    8.80
  -2  -2   4  212.78    9.10
   1   2  -4 4430.76  156.68
   1   2  -4 4319.67  156.18
   1   2  -4 4318.97  155.98
   1   2  -4 4251.87  156.48
  -1  -2   4 4289.37  156.28
  -1  -2   4 4296.17  155.98
  -1  -2   4 4296.57  155.28
  -1  -2   4 4420.06  156.88
   0   2  -4  963.00   34.40
   0   2  -4  965.80   35.80
   0   2  -4  896.21   35.10
   0   2  -4  957.90   35.60
   0   2  -4  970.80   35.70
   0   2  -4  931.41   38.50
   0  -2   4  948.81   35.60
   0  -2   4  967.30   35.30
   0  -2   4  955.60   36.10
   0  -2   4  932.11   36.20
   0  -2   4  900.91   38.00
   0  -2   4  954.30   35.70
  -1   2  -4  838.72   32.30
  -1   2  -4  836.12   32.10
  -1   2  -4  869.11   31.50
  -1   2  -4  780.52   30.10
  -1   2  -4  870.51   32.80
  -1   2  -4  820.12   31.10
   1  -2   4  830.62   31.30
   1  -2   4  840.12   31.20
   1  -2   4  810.22   33.90
   1  -2   4  794.12   30.20
   1  -2   4  923.11   35.50
   1  -2   4  817.02   32.40
  -2   2  -4  320.57   14.80
  -2   2  -4  318.57   13.10
  -2   2  -4  266.67   18.60
  -2   2  -4  314.87   12.30
  -2   2  -4  318.47   14.00
  -2   2  -4  322.07   12.90
   2  -2   4  314.67   13.00
   2  -2   4  330.37   21.90
   2  -2   4  288.77   14.80
   2  -2   4  317.87   16.70
   2  -2   4  320.77   11.90
   2  -2   4  316.57   13.00
  -3   2  -4  410.96   19.60
  -3   2  -4  466.15   16.30
  -3   2  -4  442.96   17.40
  -3   2  -4  442.16   18.20
  -3   2  -4  430.16   18.70
  -3   2  -4  393.06   24.80
   3  -2   4  440.56   17.70
   3  -2   4  415.26   18.50
   3  -2   4  427.66   17.40
   3  -2   4  429.16   22.50
   3  -2   4  436.66   16.50
  -4   2  -4  777.32   27.40
  -4   2  -4  748.03   29.70
  -4   2  -4  718.13   29.70
  -4   2  -4  726.43   28.80
   4  -2   4  710.23   27.60
   4  -2   4  728.83   34.30
   4  -2   4  695.63   28.70
   4  -2   4  720.43   29.60
   4  -2   4  765.12   28.40
  -5   2  -4   25.60    3.90
  -5   2  -4   28.50    2.90
  -5   2  -4   30.20    3.80
   5  -2   4   27.00    4.20
   5  -2   4   30.20    8.40
  -6   2  -4  264.47   14.00
  -6   2  -4  288.77   12.40
  -6   2  -4  293.67   15.40
  -6   2  -4  282.97   14.30
   6  -2   4  270.27   13.60
  -7   2  -4   18.50    4.60
  -7   2  -4   32.00    8.00
  -7   2  -4   27.80    5.40
   7  -2   4   23.00    4.00
  -8   2  -4    8.70    5.80
  -8   2  -4    5.10    5.00
   8  -2   4    6.70    7.00
   8  -2   4    5.50    3.40
   8   1  -4   33.70    9.00
   8   1  -4   17.20    5.60
  -8  -1   4   23.10    7.00
  -8  -1   4   13.70    5.30
  -8  -1   4   20.30    7.60
   7   1  -4    5.10    4.00
   7   1  -4    7.10    5.10
  -7  -1   4    9.90    5.10
  -7  -1   4    3.00    4.20
  -7  -1   4    7.10    4.80
   6   1  -4  244.18   13.50
   6   1  -4  272.67   11.10
   6   1  -4  261.97   14.60
  -6  -1   4  240.98   14.20
  -6  -1   4  249.78   14.00
  -6  -1   4  250.27   15.20
   5   1  -4  154.98    9.30
   5   1  -4  152.58    9.80
   5   1  -4  168.38    7.30
  -5  -1   4  157.18    9.40
  -5  -1   4  160.28   10.70
  -5  -1   4  147.09    9.70
  -5  -1   4  128.79   12.50
   4   1  -4    1.30    1.70
   4   1  -4    1.30    0.90
   4   1  -4   -0.70    3.10
  -4  -1   4   -1.10    1.70
  -4  -1   4   -1.80    1.50
  -4  -1   4   -2.40    2.10
   3   1  -4   58.99    4.50
   3   1  -4   56.59    4.90
   3   1  -4   62.39    4.00
   3   1  -4   67.79    4.90
   3   1  -4   58.99    4.80
  -3  -1   4   68.39    5.70
  -3  -1   4   66.69    4.10
  -3  -1   4   55.59    4.20
  -3  -1   4   60.89    5.10
  -3  -1   4   61.49    3.90
  -3  -1   4   67.19    4.40
  -3  -1   4   57.79    4.50
   2   1  -4  802.22   28.90
   2   1  -4  784.32   29.60
   2   1  -4  765.42   30.30
   2   1  -4  775.02   29.90
   2   1  -4  767.12   30.20
   2   1  -4  707.63   29.70
  -2  -1   4  838.42   29.70
  -2  -1   4  787.72   30.10
  -2  -1   4  751.82   28.50
  -2  -1   4  775.02   29.90
  -2  -1   4  774.32   29.20
  -2  -1   4  779.32   30.70
   1   1  -4 1908.51   69.69
   1   1  -4 1906.51   70.69
   1   1  -4 1917.41   70.19
   1   1  -4 1933.71   69.79
   1   1  -4 1918.91   68.79
   1   1  -4 2036.00   71.19
   1   1  -4 1980.10   69.59
  -1  -1   4 1841.82   70.29
  -1  -1   4 1707.73   70.69
  -1  -1   4 1974.30   70.39
  -1  -1   4 1927.91   69.79
  -1  -1   4 1906.71   69.59
  -1  -1   4 1927.91   68.99
   0   1  -4   60.09    3.40
   0   1  -4   58.99    3.50
   0   1  -4   60.09    3.10
   0   1  -4   60.69    3.60
   0   1  -4   63.19    4.10
   0  -1   4   59.79    3.20
   0  -1   4   66.69    5.50
   0  -1   4   60.29    3.50
   0  -1   4   65.69    3.90
   0  -1   4   58.79    3.40
   0  -1   4   62.39    4.40
   0  -1   4   58.69    4.50
   0  -1   4   57.79    3.70
  -1   1  -4 4897.61  175.78
  -1   1  -4 4850.92  174.48
  -1   1  -4 4765.22  174.38
   1  -1   4 4691.43  177.38
   1  -1   4 4946.51  173.88
   1  -1   4 4814.32  174.38
  -2   1  -4  218.48    9.20
  -2   1  -4  217.08    9.80
  -2   1  -4  216.38   10.90
   2  -1   4  215.48    9.50
   2  -1   4  224.88    8.80
   2  -1   4  221.68   10.20
  -3   1  -4  353.36   14.10
  -3   1  -4  341.17   16.80
  -3   1  -4  331.57   22.00
  -3   1  -4  312.57   15.40
  -3   1  -4  352.46   16.10
   3  -1   4  357.36   14.00
   3  -1   4  357.76   18.70
   3  -1   4  367.46   15.50
   3  -1   4  357.76   15.70
   3  -1   4  360.56   15.20
  -4   1  -4  361.46   16.70
  -4   1  -4  385.66   15.50
  -4   1  -4  358.86   16.80
  -4   1  -4  341.87   15.70
   4  -1   4  377.76   16.90
   4  -1   4  365.66   16.60
   4  -1   4  355.36   15.70
   4  -1   4  360.46   15.00
   4  -1   4  371.86   20.40
  -5   1  -4   -4.20    2.10
  -5   1  -4    1.60    2.00
  -5   1  -4    3.00    2.10
   5  -1   4    2.50    2.40
   5  -1   4   -0.30    1.60
  -6   1  -4   51.39    6.80
  -6   1  -4   63.59    6.20
  -6   1  -4   65.19    6.70
   6  -1   4   67.89    9.50
   6  -1   4   63.49    6.00
  -7   1  -4    7.10    5.80
  -7   1  -4    1.80    4.50
  -7   1  -4    5.00    5.30
   7  -1   4    1.20    4.20
   7  -1   4    8.80    3.40
   8   0  -4  142.69   12.80
   8   0  -4  125.99   11.10
  -8   0   4  123.59   11.70
  -8   0   4  132.89   12.10
  -8   0   4  119.99   13.70
   7   0  -4   26.00    5.60
   7   0  -4   34.80    5.80
  -7   0   4   46.90    7.90
   6   0  -4  912.71   31.70
   6   0  -4  850.31   36.40
   6   0  -4  834.92   35.00
   6   0  -4  867.61   34.30
  -6   0   4  825.12   35.80
  -6   0   4  797.52   36.60
  -6   0   4  888.61   35.60
   5   0  -4  209.18    7.90
   5   0  -4  194.88   11.40
   5   0  -4  202.98    8.20
   5   0  -4  192.88   10.60
  -5   0   4  182.88   10.80
  -5   0   4  194.98   10.70
  -5   0   4  199.18   15.00
  -5   0   4  181.48   11.40
   4   0  -4 2209.18   86.79
   4   0  -4 2249.87   85.29
   4   0  -4 2546.35   87.89
   4   0  -4 2425.26   84.69
  -4   0   4 2250.87   86.79
  -4   0   4 2309.97   86.49
  -4   0   4 2381.26   86.09
  -4   0   4 2262.97   87.89
  -4   0   4 2490.35   89.59
   3   0  -4  187.68    9.40
   3   0  -4  212.18   10.00
   3   0  -4  203.28    8.60
   3   0  -4  197.38    9.90
   3   0  -4  197.28    8.40
   3   0  -4  197.08    9.00
  -3   0   4  198.58    9.00
  -3   0   4  216.18    9.10
  -3   0   4  201.78    9.20
  -3   0   4  186.08   11.50
  -3   0   4  188.18   10.00
  -3   0   4  192.18    9.30
   2   0  -4  244.28   10.10
   2   0  -4  246.58   10.60
   2   0  -4  238.28   10.70
   2   0  -4  251.27    9.80
   2   0  -4  251.57   11.40
   2   0  -4  245.58   10.40
  -2   0   4  237.98   10.10
  -2   0   4  251.37    9.30
  -2   0   4  241.58   10.40
  -2   0   4  244.78   10.90
  -2   0   4  246.88   11.30
  -2   0   4  259.47   10.90
   1   0  -4  240.88   10.50
   1   0  -4  238.68    9.00
   1   0  -4  226.18    9.80
   1   0  -4  238.18    9.70
   1   0  -4  237.68    9.30
   1   0  -4  237.98   11.00
  -1   0   4  213.48   10.70
  -1   0   4  241.98    9.40
  -1   0   4  244.68   10.70
  -1   0   4  235.48   10.30
  -1   0   4  251.87    9.80
  -1   0   4  240.08   10.20
  -1   0   4  243.38    9.10
  -1   0   4  241.28    9.30
   0   0  -4  575.84   23.30
   0   0  -4  580.84   21.60
   0   0  -4  605.94   22.10
   0   0  -4  622.14   23.20
   0   0  -4  593.74   21.60
   0   0  -4  559.24   23.10
   0   0   4  548.45   23.40
   0   0   4  598.34   23.30
   0   0   4  574.24   21.80
   0   0   4  591.44   23.10
   0   0   4  587.94   21.40
   0   0   4  588.44   21.70
   0   0   4  553.64   23.20
   0   0   4  601.54   23.20
  -1   0  -4  984.50   40.60
  -1   0  -4  959.50   36.50
  -1   0  -4  911.21   38.80
  -1   0  -4  979.40   36.20
  -1   0  -4 1068.69   38.40
  -1   0  -4  990.50   38.60
  -1   0  -4  998.40   36.90
   1   0   4 1015.80   38.30
   1   0   4 1018.70   36.70
   1   0   4 1058.49   38.20
   1   0   4 1014.10   36.50
   1   0   4  973.70   38.90
  -2   0  -4   69.49    5.80
  -2   0  -4   68.49    3.40
  -2   0  -4   68.69    5.60
  -2   0  -4   66.19    4.10
  -2   0  -4   68.29    4.40
  -2   0  -4   72.49    8.80
   2   0   4   51.59    5.90
   2   0   4   69.99    5.10
   2   0   4   65.89    4.10
   2   0   4   64.59    3.80
   2   0   4   65.59    5.10
  -3   0  -4   69.29    6.00
  -3   0  -4   76.89    6.20
  -3   0  -4   77.89    4.30
  -3   0  -4   74.09    6.90
  -3   0  -4   74.79    5.00
  -3   0  -4   61.29   10.50
   3   0   4   77.19    5.00
   3   0   4   74.19    5.50
   3   0   4   75.19    4.60
   3   0   4   75.59    5.80
  -4   0  -4  116.99    7.50
  -4   0  -4  109.39    6.80
  -4   0  -4  116.29    6.60
   4   0   4  112.19    7.60
   4   0   4  101.69    7.00
   4   0   4  113.09    7.10
  -5   0  -4   31.80    4.70
  -5   0  -4   30.90    4.20
  -5   0  -4   34.50    5.40
   5   0   4   40.10    6.40
   5   0   4   30.80    4.30
   5   0   4   35.40    5.50
  -6   0  -4   35.30    6.40
  -6   0  -4   36.30    5.30
  -6   0  -4   30.10    4.60
   6   0   4   39.60    7.70
   6   0   4   37.00    5.10
  -7   0  -4  260.67   15.50
  -7   0  -4  291.47   14.60
  -7   0  -4  218.38   18.60
   7   0   4  265.57   18.10
   7   0   4  271.87   14.20
   8  -1  -4   35.60    6.10
   8  -1  -4   41.80    6.70
  -8   1   4   45.80    9.20
  -8   1   4   34.20    6.00
  -8   1   4   36.20    6.90
   7  -1  -4  128.89   10.00
   7  -1  -4  127.99   11.10
  -7   1   4  121.19   10.00
  -7   1   4  100.39   11.20
  -7   1   4  105.09    9.80
   6  -1  -4   17.40    3.90
   6  -1  -4    9.70    3.30
  -6   1   4   16.50    4.50
  -6   1   4   18.60    3.80
  -6   1   4   15.80    3.40
  -6   1   4   11.70    7.90
   5  -1  -4  946.61   38.00
   5  -1  -4  987.50   39.30
  -5   1   4  940.81   37.60
  -5   1   4  939.51   37.90
  -5   1   4  941.51   39.10
  -5   1   4  952.40   42.90
   4  -1  -4   59.19    5.10
   4  -1  -4   58.29    3.70
   4  -1  -4   49.90    4.00
   4  -1  -4   67.09    5.50
  -4   1   4   54.69    4.40
  -4   1   4   57.89    4.40
  -4   1   4   60.69    4.60
  -4   1   4   49.80    4.90
  -4   1   4   57.09    4.50
  -4   1   4   58.79    7.90
   3  -1  -4  447.96   18.50
   3  -1  -4  443.36   17.30
   3  -1  -4  459.25   17.10
   3  -1  -4  446.66   17.30
   3  -1  -4  435.46   18.80
  -3   1   4  448.86   18.00
  -3   1   4  440.36   17.70
  -3   1   4  423.26   17.70
  -3   1   4  441.46   17.60
  -3   1   4  439.76   18.70
  -3   1   4  430.56   19.90
   2  -1  -4   26.80    3.20
   2  -1  -4   30.30    2.80
   2  -1  -4   28.10    2.00
   2  -1  -4   28.10    1.90
   2  -1  -4   29.10    2.70
  -2   1   4   31.60    2.00
  -2   1   4   29.00    2.20
  -2   1   4   31.20    2.60
  -2   1   4   27.30    2.70
  -2   1   4   28.30    2.90
  -2   1   4   30.20    3.40
  -2   1   4   25.00    2.10
  -2   1   4   29.10    3.00
  -2   1   4   29.50    2.90
   1  -1  -4 3947.60  142.49
   1  -1  -4 3792.62  141.19
   1  -1  -4 3885.31  142.29
  -1   1   4 4116.39  142.09
  -1   1   4 3925.81  142.19
  -1   1   4 3923.31  142.59
  -1   1   4 3918.81  141.29
   0  -1  -4   97.29    5.60
   0  -1  -4   90.89    5.80
   0  -1  -4   98.79    6.00
   0  -1  -4  102.39    4.40
   0  -1  -4   95.19    4.60
   0  -1  -4   93.19    6.10
   0   1   4   87.49    5.20
   0   1   4   99.59    6.00
   0   1   4  103.79    4.00
   0   1   4   88.39    4.40
   0   1   4   97.89    6.30
   0   1   4   90.29    5.70
   0   1   4   89.79    4.70
  -1  -1  -4   79.09    5.40
  -1  -1  -4   74.59    4.10
  -1  -1  -4   70.49    6.30
  -1  -1  -4   70.89    4.10
  -1  -1  -4   72.09    6.10
  -1  -1  -4   68.79    5.50
   1   1   4   73.09    4.90
   1   1   4   81.29    4.00
   1   1   4   74.19    5.50
   1   1   4   82.29    5.10
   1   1   4   74.29    4.20
  -2  -1  -4  119.19    6.50
  -2  -1  -4  122.09    6.60
  -2  -1  -4  123.79    5.20
  -2  -1  -4  116.69    7.60
  -2  -1  -4  122.99    8.90
  -2  -1  -4  110.69    7.60
  -2  -1  -4  114.99    9.30
   2   1   4  112.89    7.30
   2   1   4  125.99    6.30
   2   1   4  123.79    7.70
   2   1   4  123.09    7.00
   2   1   4  127.19    6.30
  -3  -1  -4    2.20    2.90
  -3  -1  -4    1.20    1.30
  -3  -1  -4   -2.10    1.40
  -3  -1  -4    1.40    2.10
   3   1   4    0.20    1.60
   3   1   4    0.40    1.60
   3   1   4   -1.60    1.50
   3   1   4    0.80    1.70
   3   1   4    1.50    2.50
  -4  -1  -4   12.50    2.70
  -4  -1  -4    7.90    2.50
  -4  -1  -4   11.80    2.60
   4   1   4    6.00    2.10
   4   1   4   10.90    2.90
   4   1   4    9.50    3.60
   4   1   4    9.00    3.70
  -5  -1  -4  114.29    8.10
  -5  -1  -4  122.49    7.30
  -5  -1  -4  108.49    8.80
   5   1   4  107.19    7.50
   5   1   4  106.99    9.60
  -6  -1  -4   99.29    9.20
  -6  -1  -4   99.09    8.60
  -6  -1  -4   92.29    7.60
   6   1   4   98.89   11.70
   6   1   4  108.89   11.80
  -7  -1  -4   79.79    9.70
  -7  -1  -4   96.09    9.70
  -7  -1  -4   77.79   10.00
   7   1   4   82.79   11.20
   7   1   4   79.39    7.90
   7   1   4   53.29   15.80
   8  -2  -4   35.90    6.90
   8  -2  -4   43.30    6.70
  -8   2   4   45.70    8.30
  -8   2   4   56.69    9.50
  -8   2   4   43.00    7.00
   7  -2  -4   63.69    8.20
   7  -2  -4   69.49    7.30
  -7   2   4   59.59    7.40
  -7   2   4   51.29    7.50
  -7   2   4   55.89    9.30
   6  -2  -4  104.89    8.90
   6  -2  -4  106.19    8.20
  -6   2   4  110.09    8.10
  -6   2   4  104.09    9.20
  -6   2   4  123.69   18.50
  -6   2   4  111.89    8.10
   5  -2  -4    2.20    2.80
   5  -2  -4    6.50    2.30
  -5   2   4    7.30    2.40
  -5   2   4    5.00    2.10
  -5   2   4    8.90    2.90
  -5   2   4   -3.30    6.70
   4  -2  -4    2.60    1.40
   4  -2  -4    1.20    1.60
   4  -2  -4    4.20    1.30
  -4   2   4    3.90    6.10
  -4   2   4    3.60    1.60
  -4   2   4    4.70    1.90
  -4   2   4    3.90    1.50
  -4   2   4    4.30    2.60
   3  -2  -4    6.90    1.90
   3  -2  -4    7.50    1.40
   3  -2  -4   10.10    1.90
   3  -2  -4    7.10    1.40
   3  -2  -4    4.10    1.30
  -3   2   4    6.40    1.70
  -3   2   4    7.40    2.00
  -3   2   4    6.30    1.20
  -3   2   4    8.30    1.60
  -3   2   4    8.30    1.90
  -3   2   4    6.10    2.00
  -3   2   4    6.80    4.40
  -3   2   4    4.90    1.20
  -3   2   4    5.90    1.30
   2  -2  -4  869.11   31.70
   2  -2  -4  882.01   34.00
   2  -2  -4  825.42   33.30
   2  -2  -4  899.41   32.90
  -2   2   4  863.01   32.60
  -2   2   4  936.91   35.30
  -2   2   4  907.31   33.10
  -2   2   4  837.92   32.70
  -2   2   4  896.41   34.60
  -2   2   4  887.01   33.60
  -2   2   4  821.02   31.80
  -2   2   4  866.31   32.20
   1  -2  -4 1059.29   40.30
   1  -2  -4 1021.00   41.30
   1  -2  -4 1097.69   41.30
   1  -2  -4 1084.69   41.70
  -1   2   4 1136.59   42.60
  -1   2   4 1051.69   41.40
  -1   2   4 1045.00   40.40
  -1   2   4 1078.79   41.60
  -1   2   4 1123.09   40.70
  -1   2   4 1131.79   40.70
   0  -2  -4  728.13   28.10
   0  -2  -4  762.92   29.50
   0  -2  -4  713.93   27.70
   0  -2  -4  712.83   30.10
   0   2   4  691.43   29.80
   0   2   4  748.43   29.60
   0   2   4  720.13   28.30
   0   2   4  704.93   27.80
   0   2   4  758.42   30.60
   0   2   4  735.63   28.10
   0   2   4  741.33   26.80
   0   2   4  716.83   27.10
  -1  -2  -4  145.69    7.30
  -1  -2  -4  152.88    8.10
  -1  -2  -4  131.49    9.40
  -1  -2  -4  141.29    9.20
  -1  -2  -4  148.79    7.30
   1   2   4  148.09    9.80
   1   2   4  156.68    9.00
   1   2   4  145.39    6.80
   1   2   4  154.38    6.40
   1   2   4  137.59    9.30
   1   2   4  153.78    7.70
   1   2   4  150.38    7.40
   1   2   4  125.79    7.90
  -2  -2  -4  103.69    6.30
  -2  -2  -4  108.09    5.00
  -2  -2  -4   83.39    8.10
  -2  -2  -4  106.69    6.40
  -2  -2  -4  105.69    7.30
  -2  -2  -4  102.29    6.10
  -2  -2  -4  109.19    8.80
   2   2   4   94.89    6.00
   2   2   4   93.49    8.30
   2   2   4   99.19    5.80
   2   2   4   99.89    6.20
   2   2   4  100.79    6.70
   2   2   4  107.89    7.70
   2   2   4  106.19    4.90
  -3  -2  -4    1.50    1.40
  -3  -2  -4    3.90    4.00
  -3  -2  -4    0.20    1.80
  -3  -2  -4    0.10    2.00
   3   2   4   -2.60    2.10
   3   2   4   -0.50    1.20
   3   2   4   -1.20    1.60
   3   2   4    0.30    3.30
   3   2   4   -1.10    1.50
  -4  -2  -4  271.77   13.70
  -4  -2  -4  298.57   12.90
  -4  -2  -4  285.37   14.40
  -4  -2  -4  308.47   18.50
   4   2   4  281.97   13.40
   4   2   4  278.97   15.20
   4   2   4  274.07   13.50
   4   2   4  255.07   16.60
  -5  -2  -4   52.29    6.80
  -5  -2  -4   41.20    4.90
  -5  -2  -4   43.00    5.70
   5   2   4   50.99    5.60
   5   2   4   50.09    8.30
   5   2   4   51.29    6.80
  -6  -2  -4   49.30    8.10
  -6  -2  -4   57.49    6.00
   6   2   4   32.10    7.70
   6   2   4   53.89    6.70
   6   2   4   38.80    7.60
  -7  -2  -4   24.30    5.50
  -7  -2  -4   23.70    6.20
   7   2   4   34.90    6.60
   7   2   4   19.80    4.50
   7   2   4   22.90    7.40
   8  -3  -4  184.88   13.90
   8  -3  -4  185.08   13.10
  -8   3   4  164.88   12.80
  -8   3   4  214.98   16.00
  -8   3   4  196.98   13.30
   7  -3  -4   97.19    8.60
   7  -3  -4  103.59    9.90
  -7   3   4   89.99   10.50
  -7   3   4   87.19    8.60
  -7   3   4   94.39    8.60
   6  -3  -4  130.89   10.10
   6  -3  -4  125.89    8.90
  -6   3   4  135.49    8.90
  -6   3   4  126.49    8.60
  -6   3   4  151.58   10.60
   5  -3  -4   81.29    6.60
   5  -3  -4   84.69    4.10
  -5   3   4  103.69    7.80
  -5   3   4   87.09   14.40
  -5   3   4   82.59    5.90
  -5   3   4   81.49    6.00
   4  -3  -4  327.27   12.80
   4  -3  -4  311.97   15.90
   4  -3  -4  293.87   14.50
   4  -3  -4  297.77   12.70
  -4   3   4  298.27   14.40
  -4   3   4  312.07   13.50
  -4   3   4  305.67   18.70
  -4   3   4  297.87   13.20
  -4   3   4  319.67   13.40
  -4   3   4  323.57   13.20
   3  -3  -4  522.95   20.50
   3  -3  -4  482.55   21.20
   3  -3  -4  531.85   19.30
   3  -3  -4  500.65   20.60
  -3   3   4  499.55   22.10
  -3   3   4  508.95   20.90
  -3   3   4  513.45   20.50
  -3   3   4  489.35   19.20
  -3   3   4  531.55   19.90
  -3   3   4  454.55   21.00
  -3   3   4  530.35   19.40
  -3   3   4  471.95   19.40
  -3   3   4  509.65   19.50
   2  -3  -4  540.45   22.10
   2  -3  -4  564.24   22.40
   2  -3  -4  530.75   21.60
   2  -3  -4  561.74   22.80
   2  -3  -4  550.04   20.30
   2  -3  -4  559.44   23.00
  -2   3   4  530.95   20.60
  -2   3   4  520.35   22.40
  -2   3   4  537.75   23.50
  -2   3   4  571.24   21.20
  -2   3   4  535.15   21.40
  -2   3   4  521.95   20.00
  -2   3   4  546.05   20.60
  -2   3   4  530.95   22.10
   1  -3  -4 2118.69   77.89
   1  -3  -4 2002.60   75.79
   1  -3  -4 2133.59   74.69
   1  -3  -4 2045.50   74.59
   1  -3  -4 2064.39   76.39
  -1   3   4 2044.10   78.79
  -1   3   4 2053.49   77.09
  -1   3   4 2041.80   78.49
  -1   3   4 2182.48   75.69
  -1   3   4 1996.10   75.09
  -1   3   4 2003.60   74.19
  -1   3   4 2082.79   76.39
  -1   3   4 2116.99   74.59
   0  -3  -4   11.40    2.20
   0  -3  -4   11.20    2.20
   0  -3  -4   13.70    2.20
   0  -3  -4   13.60    3.50
   0   3   4    6.50    2.40
   0   3   4   12.90    3.40
   0   3   4   11.30    2.20
   0   3   4   12.00    2.00
   0   3   4   13.50    2.00
   0   3   4    8.90    2.50
   0   3   4   12.10    2.30
   0   3   4   10.80    3.00
  -1  -3  -4  287.07   12.80
  -1  -3  -4  292.07   13.20
  -1  -3  -4  270.77   15.50
  -1  -3  -4  269.97   12.90
   1   3   4  294.17   16.10
   1   3   4  274.07   15.10
   1   3   4  314.97   13.30
   1   3   4  298.37   12.40
   1   3   4  294.37   12.20
   1   3   4  284.77   12.50
   1   3   4  290.87   14.70
   1   3   4  291.07   13.00
   1   3   4  294.57   13.00
  -2  -3  -4  322.07   15.30
  -2  -3  -4  333.37   14.90
  -2  -3  -4  320.47   18.20
  -2  -3  -4  332.57   15.00
  -2  -3  -4  319.27   13.20
   2   3   4  316.67   17.20
   2   3   4  324.37   14.20
   2   3   4  304.87   14.50
   2   3   4  320.07   15.10
   2   3   4  334.97   13.50
   2   3   4  330.17   14.30
  -3  -3  -4   71.29    5.90
  -3  -3  -4   68.99    6.00
  -3  -3  -4   74.99    4.90
  -3  -3  -4   76.49    9.60
   3   3   4   69.29    6.60
   3   3   4   65.99    7.40
   3   3   4   75.19    5.90
   3   3   4   64.09    5.10
   3   3   4   76.59    4.90
  -4  -3  -4    3.90    2.80
  -4  -3  -4   -3.40    5.40
  -4  -3  -4    1.60    2.30
   4   3   4    1.20    3.30
   4   3   4    1.70    3.50
   4   3   4    0.40    2.10
  -5  -3  -4    2.00    2.50
  -5  -3  -4   -0.70    3.50
  -5  -3  -4   15.50    8.00
  -5  -3  -4   -2.20    3.40
   5   3   4    0.30    3.70
   5   3   4   -1.00    4.10
   5   3   4    0.60    2.70
  -6  -3  -4    2.40   10.10
  -6  -3  -4    3.90    3.90
  -6  -3  -4   -7.80    3.90
  -6  -3  -4   -4.40    3.80
   6   3   4    0.00    5.50
   6   3   4   -4.70    5.00
   6   3   4   -2.80    3.20
   8  -4  -4   49.20    8.00
   8  -4  -4   27.40    6.20
  -8   4   4   37.70    8.80
  -8   4   4   37.90    6.40
  -8   4   4   24.80    4.80
   7  -4  -4   68.49    9.10
  -7   4   4   76.49    7.60
  -7   4   4   78.59   11.20
   6  -4  -4   50.59    3.60
   6  -4  -4   51.99    6.50
  -6   4   4   41.60    5.40
  -6   4   4   54.29    5.70
  -6   4   4   46.60   11.10
   5  -4  -4  185.18   11.10
   5  -4  -4  210.98   15.00
   5  -4  -4  221.98    9.60
  -5   4   4  185.48   10.20
  -5   4   4  202.68   10.20
  -5   4   4  210.38   11.80
  -5   4   4  214.48   15.90
  -5   4   4  208.38   10.20
   4  -4  -4   53.79    5.50
   4  -4  -4   73.19    5.10
   4  -4  -4   66.89    7.70
   4  -4  -4   64.89    4.90
  -4   4   4   65.49    4.80
  -4   4   4   63.39    4.30
  -4   4   4   61.19    4.10
  -4   4   4   64.29    4.40
  -4   4   4   59.89    5.70
  -4   4   4   58.29    7.00
   3  -4  -4 1625.24   56.59
   3  -4  -4 1419.26   56.09
   3  -4  -4 1461.05   54.29
   3  -4  -4 1452.55   55.49
  -3   4   4 1472.95   54.39
  -3   4   4 1504.75   53.89
  -3   4   4 1495.45   56.09
  -3   4   4 1439.06   54.49
  -3   4   4 1485.35   54.99
  -3   4   4 1458.55   54.09
   2  -4  -4    6.90    2.70
   2  -4  -4    5.10    2.30
   2  -4  -4    8.30    1.90
   2  -4  -4    5.30    1.90
   2  -4  -4    6.50    1.40
   2  -4  -4    8.80    3.20
  -2   4   4    5.90    1.30
  -2   4   4    3.20    1.90
  -2   4   4    8.70    3.40
  -2   4   4    5.90    1.60
  -2   4   4    4.40    2.40
  -2   4   4    6.30    1.80
   1  -4  -4    3.30    1.80
   1  -4  -4    2.80    2.50
   1  -4  -4    3.30    1.50
   1  -4  -4    0.90    1.70
  -1   4   4    1.80    1.90
  -1   4   4    2.90    1.40
  -1   4   4    2.70    3.20
  -1   4   4    2.40    1.10
  -1   4   4    1.50    1.80
  -1   4   4    4.20    1.40
  -1   4   4    4.10    2.80
   0  -4  -4   -1.10    1.70
   0  -4  -4    1.20    1.80
   0  -4  -4    0.90    1.60
   0  -4  -4    5.30    2.70
   0   4   4   -0.20    1.20
   0   4   4    1.20    1.90
   0   4   4    0.50    1.60
   0   4   4    2.20    1.20
   0   4   4    2.30    3.40
   0   4   4    1.10    1.70
   0   4   4    1.20    3.00
   0   4   4    0.60    1.40
  -1  -4  -4  288.87   15.20
  -1  -4  -4  282.07   13.80
  -1  -4  -4  314.97   14.00
  -1  -4  -4  276.87   16.50
  -1  -4  -4  301.47   13.60
   1   4   4  305.17   13.30
   1   4   4  290.87   15.70
   1   4   4  295.07   13.40
   1   4   4  311.17   13.30
   1   4   4  290.97   14.00
   1   4   4  306.57   12.60
  -2  -4  -4  297.87   14.90
  -2  -4  -4  315.57   13.20
  -2  -4  -4  320.67   18.60
  -2  -4  -4  294.97   14.90
  -2  -4  -4  317.97   15.20
   2   4   4  313.77   13.80
   2   4   4  312.07   14.10
   2   4   4  307.17   17.00
   2   4   4  309.47   13.30
   2   4   4  313.27   15.00
  -3  -4  -4  437.26   18.90
  -3  -4  -4  401.06   23.50
  -3  -4  -4  427.36   19.70
  -3  -4  -4  456.65   20.10
   3   4   4  420.76   18.90
   3   4   4  435.76   18.00
   3   4   4  419.96   22.10
   3   4   4  432.06   18.10
   3   4   4  425.26   20.10
  -4  -4  -4   98.99    6.50
  -4  -4  -4  101.89    8.40
  -4  -4  -4  119.69   12.60
   4   4   4  104.39    7.20
   4   4   4   97.89    9.80
   4   4   4  106.79    6.90
   4   4   4  103.09    8.80
  -5  -4  -4   57.59    5.60
  -5  -4  -4   50.99   10.70
  -5  -4  -4   50.29    8.40
   5   4   4   50.79    8.20
   5   4   4   53.79   11.00
   5   4   4   55.39    6.30
  -6  -4  -4   20.30    5.50
  -6  -4  -4   26.40    6.70
   6   4   4   20.10    6.90
   6   4   4   31.90    5.50
   6   4   4   29.00    6.90
   8  -5  -4    8.80    5.30
  -8   5   4    7.20    3.80
  -8   5   4   -2.90    6.00
  -8   5   4    1.60    3.80
   7  -5  -4   37.00    7.60
  -7   5   4   56.79    6.60
  -7   5   4   64.39    8.80
   6  -5  -4    8.10    3.40
   6  -5  -4    6.70    8.80
  -6   5   4   22.70    7.20
  -6   5   4   16.30    3.50
   5  -5  -4   31.40    5.50
   5  -5  -4   33.50    6.60
   5  -5  -4   42.40    4.70
   5  -5  -4   38.00    4.60
  -5   5   4   28.90    6.00
  -5   5   4   37.90    3.80
  -5   5   4   36.80    3.80
  -5   5   4   42.60    6.90
  -5   5   4   31.80    4.60
  -5   5   4   43.70    4.00
   4  -5  -4  775.62   30.90
   4  -5  -4  812.62   34.70
   4  -5  -4  715.73   31.50
   4  -5  -4  861.31   31.90
  -4   5   4  808.52   30.90
  -4   5   4  780.62   29.70
  -4   5   4  747.53   31.40
  -4   5   4  806.62   29.60
  -4   5   4  763.92   29.60
  -4   5   4  675.33   30.70
   3  -5  -4   49.40    5.80
   3  -5  -4   39.80    4.00
   3  -5  -4   41.20    4.60
   3  -5  -4   45.50    4.00
  -3   5   4   33.90    4.50
  -3   5   4   40.70    3.60
  -3   5   4   44.50    3.20
  -3   5   4   41.40    5.30
  -3   5   4   47.90    3.00
  -3   5   4   47.70    3.00
   2  -5  -4   19.80    4.50
   2  -5  -4   15.20    3.20
   2  -5  -4   20.00    3.80
   2  -5  -4   16.40    2.90
   2  -5  -4   25.30    2.90
  -2   5   4   21.20    2.30
  -2   5   4   19.80    3.30
  -2   5   4   19.20    4.60
  -2   5   4   20.40    1.90
   1  -5  -4  331.27   14.60
   1  -5  -4  330.77   14.90
   1  -5  -4  346.17   14.70
   1  -5  -4  332.57   18.20
   1  -5  -4  316.07   16.70
  -1   5   4  342.67   13.40
  -1   5   4  342.27   14.20
  -1   5   4  316.67   15.00
  -1   5   4  330.27   15.80
  -1   5   4  341.37   13.60
   0  -5  -4  669.43   26.10
   0  -5  -4  651.13   30.40
   0  -5  -4  658.33   27.70
   0  -5  -4  696.23   27.30
   0   5   4  694.53   27.40
   0   5   4  683.63   26.70
   0   5   4  652.03   29.00
   0   5   4  666.43   26.50
   0   5   4  706.03   25.80
   0   5   4  686.83   25.20
  -1  -5  -4  282.27   14.20
  -1  -5  -4  278.67   13.30
  -1  -5  -4  294.77   17.50
  -1  -5  -4  302.97   14.30
   1   5   4  279.87   15.60
   1   5   4  288.07   13.70
   1   5   4  303.87   13.50
   1   5   4  280.87   12.60
   1   5   4  295.27   12.10
   1   5   4  288.37   13.50
  -2  -5  -4 1126.09   44.90
  -2  -5  -4 1112.69   49.30
  -2  -5  -4 1081.29   44.00
  -2  -5  -4 1173.08   45.10
   2   5   4 1121.49   42.30
   2   5   4 1138.29   44.50
   2   5   4 1164.98   43.30
   2   5   4 1133.09   43.70
   2   5   4 1073.09   46.80
   2   5   4 1149.58   43.50
  -3  -5  -4  176.98   14.50
  -3  -5  -4  181.08   11.20
  -3  -5  -4  172.18    8.90
  -3  -5  -4  162.18   11.70
   3   5   4  171.58   11.10
   3   5   4  181.28    9.00
   3   5   4  170.98    9.80
   3   5   4  174.58   12.80
   3   5   4  170.38   10.50
  -4  -5  -4  155.08   11.50
  -4  -5  -4  148.99   11.20
  -4  -5  -4  138.59    8.30
   4   5   4  154.28   12.50
   4   5   4  160.38    8.80
  -5  -5  -4   17.30    6.20
  -5  -5  -4   11.20    5.10
   5   5   4    2.00    4.90
   5   5   4   12.50    5.30
   8  -6  -4    9.20    5.00
  -8   6   4    2.10    6.40
  -8   6   4   15.20    4.50
   7  -6  -4    0.00    4.60
  -7   6   4    0.10    2.70
  -7   6   4   10.50    3.60
  -7   6   4    4.40    4.80
   6  -6  -4   46.70    6.90
   6  -6  -4   52.79    9.00
  -6   6   4   46.90    5.00
  -6   6   4   52.19    5.40
   5  -6  -4   37.40    7.10
   5  -6  -4   51.29    6.10
   5  -6  -4   50.99    5.10
   5  -6  -4   39.80    6.70
  -5   6   4   37.40    7.60
  -5   6   4   42.90    4.00
  -5   6   4   47.80    8.70
  -5   6   4   43.20    5.20
  -5   6   4   48.70    4.40
  -5   6   4   50.39    5.10
   4  -6  -4    8.70    3.60
   4  -6  -4    3.60    1.80
   4  -6  -4   -2.60    5.70
  -4   6   4    3.20    3.20
  -4   6   4    5.50    2.20
  -4   6   4    7.40    1.80
  -4   6   4    5.10    2.00
  -4   6   4    5.90    3.50
  -4   6   4    1.40    1.30
   3  -6  -4  141.39   10.40
   3  -6  -4  136.89    8.30
   3  -6  -4  133.99    8.40
   3  -6  -4  141.59    8.10
  -3   6   4  118.79    9.60
  -3   6   4  141.49    6.40
  -3   6   4  131.49    8.30
  -3   6   4  130.69    6.80
  -3   6   4  141.19    7.70
   2  -6  -4   51.39    5.70
   2  -6  -4   50.09    4.40
  -2   6   4   51.19    4.90
  -2   6   4   50.79    4.60
  -2   6   4   51.59    3.40
   1  -6  -4   12.50    3.50
   1  -6  -4   15.40    3.10
   1  -6  -4   20.90    3.20
  -1   6   4   13.40    2.30
  -1   6   4   11.00    3.40
  -1   6   4   17.20    3.10
  -1   6   4   12.70    1.80
   0  -6  -4    0.90    2.60
   0  -6  -4    1.40    1.90
   0   6   4    2.50    1.00
   0   6   4    2.10    1.80
   0   6   4    2.10    1.20
   0   6   4    2.80    2.70
   0   6   4    2.30    3.10
   0   6   4    6.60    2.70
  -1  -6  -4   37.90    7.90
  -1  -6  -4   48.60    6.50
  -1  -6  -4   51.79    5.60
  -1  -6  -4   65.69    6.90
   1   6   4   55.29    3.90
   1   6   4   50.09    6.20
   1   6   4   56.09    5.30
   1   6   4   44.40    4.00
   1   6   4   48.30    6.40
   1   6   4   52.29    5.70
  -2  -6  -4  172.18   11.00
  -2  -6  -4  147.39   10.30
  -2  -6  -4  156.38   13.50
  -2  -6  -4  141.49   10.10
   2   6   4  169.48   10.60
   2   6   4  176.78    8.10
   2   6   4  174.28    8.80
   2   6   4  184.78   12.30
   2   6   4  157.38   10.30
  -3  -6  -4    8.20    6.70
  -3  -6  -4   20.70    5.20
  -3  -6  -4   23.60    5.00
   3   6   4   12.40    4.30
   3   6   4   22.90    3.70
  -4  -6  -4  115.29   10.90
  -4  -6  -4   94.49    6.70
  -4  -6  -4   84.99   12.70
   4   6   4  132.49    8.20
   4   6   4  116.59   10.40
   4   6   4  121.59   11.30
  -5  -6  -4   99.69   13.70
  -5  -6  -4   72.69   10.80
  -5  -6  -4   94.09   10.80
   5   6   4   81.49   10.30
   5   6   4  108.69    8.90
   8  -7  -4   42.50    6.90
  -8   7   4   41.80    6.80
  -8   7   4   50.49    7.30
  -8   7   4   60.39   10.30
   7  -7  -4   41.20    6.70
  -7   7   4   44.50    5.90
  -7   7   4   47.70    6.40
   6  -7  -4   44.10    7.70
   6  -7  -4   29.70    5.00
  -6   7   4   28.60    5.80
  -6   7   4   29.90    4.70
  -6   7   4   28.90    4.70
   5  -7  -4   30.90    4.70
   5  -7  -4   14.60    4.80
   5  -7  -4   35.00    8.20
   5  -7  -4   26.60    6.60
  -5   7   4   32.10    3.80
  -5   7   4   24.70    3.40
  -5   7   4   28.00    5.70
  -5   7   4   22.50    4.70
   4  -7  -4   -4.90    2.60
   4  -7  -4    0.90    6.70
   4  -7  -4   -0.90    2.00
  -4   7   4    0.00    1.40
  -4   7   4    0.70    1.40
  -4   7   4    3.20    2.40
  -4   7   4    0.20    3.60
   3  -7  -4  135.19    8.50
   3  -7  -4  136.29    8.20
   3  -7  -4  121.39   11.60
   3  -7  -4  130.29    8.20
  -3   7   4  118.99    6.70
  -3   7   4  136.09    8.80
  -3   7   4  123.69    7.70
  -3   7   4  131.19    6.30
   2  -7  -4   61.79    6.60
   2  -7  -4   54.59    6.50
   2  -7  -4   58.89    6.50
   2  -7  -4   74.19    5.40
  -2   7   4   64.89    5.40
  -2   7   4   64.29    6.10
  -2   7   4   63.39    4.20
   1  -7  -4  652.53   30.00
   1  -7  -4  654.93   27.60
   1  -7  -4  675.03   27.30
  -1   7   4  660.03   26.10
  -1   7   4  679.63   27.20
  -1   7   4  654.53   28.30
   0  -7  -4    8.50    4.30
   0  -7  -4   12.70    3.30
   0  -7  -4   17.00    4.10
   0   7   4   16.00    3.80
   0   7   4    8.80    3.30
  -1  -7  -4   30.00    6.50
  -1  -7  -4   44.10    7.10
  -1  -7  -4   46.30    6.00
   1   7   4   39.00    6.30
   1   7   4   38.40    5.50
   1   7   4   41.10    6.20
  -2  -7  -4  237.98   14.00
  -2  -7  -4  222.98   13.40
   2   7   4  240.18   13.40
   2   7   4  218.78   14.40
  -3  -7  -4    7.40    7.80
   3   7   4   12.20    5.10
   3   7   4   20.90    5.50
  -4  -7  -4  322.37   24.20
  -4  -7  -4  301.47   19.70
  -4  -7  -4  305.67   17.90
   4   7   4  312.97   18.60
   4   7   4  328.07   18.10
   7  -8  -4   41.00    6.70
  -7   8   4   41.60    5.80
  -7   8   4   34.40    4.90
   6  -8  -4  207.18   15.30
   6  -8  -4  261.87   13.60
  -6   8   4  258.97   16.90
  -6   8   4  257.67   12.10
   5  -8  -4    2.60    3.60
   5  -8  -4   -2.20    9.60
   5  -8  -4    2.50    3.00
  -5   8   4   -0.20    5.40
  -5   8   4    1.90    2.00
   4  -8  -4    4.10    8.30
   4  -8  -4    3.60    2.60
   4  -8  -4    1.60    2.90
  -4   8   4    1.30    1.50
  -4   8   4    1.00    3.00
  -4   8   4    1.50    1.80
   3  -8  -4    6.70    5.60
   3  -8  -4    3.90    2.70
   3  -8  -4    1.20    2.80
   3  -8  -4    2.10    2.20
  -3   8   4    4.90    2.00
  -3   8   4    1.30    2.40
  -3   8   4    3.10    1.50
  -3   8   4    1.80    3.70
   2  -8  -4  108.89    8.50
   2  -8  -4  107.59    8.60
   2  -8  -4  115.19    7.50
   2  -8  -4   98.49    7.00
  -2   8   4  104.09    8.50
  -2   8   4   98.99    7.60
  -2   8   4   97.99    5.90
   1  -8  -4   64.39    7.30
   1  -8  -4   77.09    8.10
   1  -8  -4   75.19    6.40
  -1   8   4   73.19    6.80
  -1   8   4   73.39    5.50
   0  -8  -4  196.68   12.70
   0  -8  -4  189.18   14.00
   0  -8  -4  212.28   12.50
   0   8   4  202.18   10.70
   0   8   4  194.58   12.30
  -1  -8  -4    8.70    6.50
  -1  -8  -4   18.40    4.50
   1   8   4   16.10    3.60
  -2  -8  -4   12.30    6.50
  -2  -8  -4   -0.90    4.70
  -2  -8  -4   -0.70    4.00
   2   8   4    3.30    3.90
   2   8   4    4.40    3.70
  -3  -8  -4   32.30    6.30
   3   8   4   46.70    8.40
   3   8   4   54.69    7.90
   7  -9  -4  112.29   12.70
   7  -9  -4  110.39    9.00
  -7   9   4  100.59    7.60
   6  -9  -4   38.00    6.20
   6  -9  -4   34.10    6.70
  -6   9   4   28.00    5.10
  -6   9   4   30.10    8.50
  -6   9   4   31.30    4.60
   5  -9  -4   24.40    4.40
  -5   9   4   29.90    4.40
  -5   9   4   27.30    4.20
  -5   9   4   28.00    6.80
   4  -9  -4    8.50    3.60
  -4   9   4    4.00    2.20
  -4   9   4    6.90    2.10
  -4   9   4    2.80    3.40
   3  -9  -4   13.70    4.10
   3  -9  -4   17.30    5.00
   3  -9  -4   16.80    3.60
  -3   9   4   13.00    3.50
  -3   9   4   17.20    2.70
   2  -9  -4   24.60    6.10
   2  -9  -4   32.20    6.00
  -2   9   4   40.20    4.10
  -2   9   4   34.10    5.30
   1  -9  -4   12.10    4.80
  -1   9   4   18.30    4.10
  -1   9   4   26.70    4.30
   0  -9  -4  102.19   10.40
   0  -9  -4   82.59    9.30
   0   9   4   88.49    8.40
   0   9   4   96.69   11.00
  -1  -9  -4   12.40    6.70
  -1  -9  -4    1.60    4.40
   1   9   4   -5.10    4.00
   1   9   4    4.50    3.70
  -2  -9  -4   26.00    8.20
  -2  -9  -4   23.90    6.00
   2   9   4   36.60    9.00
   2   9   4   24.50    5.60
   6 -10  -4   11.30    3.60
   6 -10  -4    8.80    6.10
  -6  10   4   14.20    3.30
  -6  10   4   16.20    9.10
  -6  10   4   10.80    2.80
   5 -10  -4  331.87   18.60
   5 -10  -4  369.46   17.90
  -5  10   4  359.96   15.90
  -5  10   4  380.26   21.30
  -5  10   4  355.26   15.60
   4 -10  -4    5.10    3.80
   4 -10  -4    5.00    3.80
  -4  10   4    4.40    4.40
  -4  10   4    5.00    2.40
  -4  10   4    1.00    2.20
   3 -10  -4   93.49    8.30
   3 -10  -4   82.49    8.10
  -3  10   4   63.59   11.60
  -2  10   4    3.30    3.20
   1 -10  -4    6.10    4.20
  -1  10   4    3.30    3.10
  -1  10   4   -1.00    2.90
   0 -10  -4   48.50    8.10
   0 -10  -4   44.80    9.50
   0  10   4   52.69    6.20
   0  10   4   38.30    7.40
  -1 -10  -4   20.40    5.90
   1  10   4   18.60    5.40
   1  10   4   23.80    4.80
   4 -11  -4  103.59    9.20
  -4  11   4   87.39   10.10
  -4  11   4   97.19    6.60
  -4  11   4  103.39    7.00
   3 -11  -4   38.40    6.80
   3 -11  -4   39.10    7.00
  -3  11   4   30.30    4.80
  -3  11   4   22.90    5.40
  -2  11   4    3.00    2.70
  -2  11   4   -0.10    4.00
   0  12  -5   50.89    7.60
   0  12  -5   37.00    8.20
   0 -12   5   38.70    9.00
   0 -12   5   60.79   10.90
  -1  12  -5   37.10    9.90
  -1  12  -5   38.00    6.80
   1 -12   5   44.70    7.60
  -2  12  -5  221.48   12.70
  -2  12  -5  178.18   18.90
   2 -12   5  286.77   20.00
   2 -12   5  240.08   14.60
  -3  12  -5    8.10    3.00
  -3  12  -5    8.60   10.80
   3 -12   5   11.40    4.10
   3 -12   5   21.10   10.00
  -4  12  -5   65.49   14.90
  -4  12  -5   32.30    5.60
  -4  12  -5   51.49    4.80
   4 -12   5   34.20   17.30
   4 -12   5   45.40    6.60
   2  11  -5    3.20    5.50
   2  11  -5   15.80    5.80
  -2 -11   5   -1.00    7.30
  -2 -11   5   10.80    5.60
  -2 -11   5    5.50    4.90
   1  11  -5    1.10    3.90
   1  11  -5    1.00    5.60
  -1 -11   5   -5.20    6.20
  -1 -11   5    1.20    5.60
  -1 -11   5    3.50    4.70
   0  11  -5   54.59    7.40
   0 -11   5   49.60    8.30
   0 -11   5   56.09    6.00
  -1  11  -5  113.69    9.10
  -1  11  -5  111.49   12.80
   1 -11   5  130.39   10.80
   1 -11   5   80.99   12.00
  -2  11  -5   -2.50    7.60
  -2  11  -5    0.00    3.10
   2 -11   5    1.40    3.50
   2 -11   5    6.30    6.40
  -3  11  -5  118.99   17.20
  -3  11  -5  151.58    9.50
   3 -11   5  175.08   19.30
   3 -11   5  158.38   10.10
  -4  11  -5   26.10   11.10
  -4  11  -5   30.30    4.60
  -4  11  -5   36.20    4.10
   4 -11   5   43.70    5.90
   4 -11   5   44.60   13.50
  -5  11  -5   18.00   11.40
   5 -11   5   36.80   22.40
   3  10  -5   10.10    5.10
   3  10  -5   15.70    4.70
  -3 -10   5   18.50    8.00
  -3 -10   5   23.00    5.60
   2  10  -5   61.49    7.80
   2  10  -5   78.19    9.00
  -2 -10   5   68.19   11.40
  -2 -10   5   73.39    9.00
   1  10  -5   83.59    8.50
   1  10  -5   71.99    9.10
  -1 -10   5   71.39   11.30
  -1 -10   5   81.29    8.50
  -1 -10   5  114.19   12.40
  -1 -10   5   94.69    9.00
   0  10  -5   22.10    6.60
   0  10  -5   35.00    5.70
   0 -10   5   35.50    6.80
   0 -10   5   33.10    4.80
   0 -10   5   36.80    6.50
   0 -10   5   22.40    4.00
  -1  10  -5    0.10    5.60
  -1  10  -5    0.80    2.80
   1 -10   5   -5.70    4.40
   1 -10   5    6.10    3.70
   1 -10   5    5.30    2.90
  -2  10  -5    6.10    2.80
  -2  10  -5   -4.80    7.30
   2 -10   5   13.20    3.70
   2 -10   5   20.10    5.70
   2 -10   5    6.30    2.80
  -3  10  -5  395.66   18.90
  -3  10  -5  375.36   15.90
   3 -10   5  365.66   17.30
   3 -10   5  363.66   16.10
   3 -10   5  375.86   24.00
  -4  10  -5   14.10   12.10
  -4  10  -5    0.30    2.50
  -4  10  -5    0.90    1.70
   4 -10   5   -1.70   11.70
   4 -10   5    2.10    2.20
   4 -10   5   -0.20    2.20
  -5  10  -5  329.37   15.70
  -5  10  -5  284.07   16.70
  -5  10  -5  334.17   25.10
   5 -10   5  363.16   44.30
   5 -10   5  313.07   14.00
   5 -10   5  308.07   14.50
  -6  10  -5   16.30    3.60
  -6  10  -5   11.60    2.90
   6 -10   5   41.30   22.00
   6 -10   5   10.10    2.80
   4   9  -5    3.70    4.60
   4   9  -5   -1.60    3.90
  -4  -9   5   -1.10    5.30
  -4  -9   5    9.10    6.40
  -4  -9   5    3.00    6.80
   3   9  -5   41.20    7.30
   3   9  -5   51.49    7.60
  -3  -9   5   37.50    7.40
  -3  -9   5   53.49    8.70
  -3  -9   5   51.79   10.00
   2   9  -5  152.48   10.80
   2   9  -5  155.58   10.70
  -2  -9   5  155.88   11.50
  -2  -9   5  129.39   12.10
  -2  -9   5  131.79   11.80
   1   9  -5   81.89    7.40
   1   9  -5   74.49    7.40
  -1  -9   5   77.29    9.60
  -1  -9   5   68.99    7.60
  -1  -9   5   65.19    6.80
  -1  -9   5   68.49    9.00
   0   9  -5    1.90    2.70
   0   9  -5    4.30    3.80
   0   9  -5   -1.90    4.60
   0  -9   5    0.80    3.30
   0  -9   5    7.40    3.10
   0  -9   5    2.20    1.70
   0  -9   5    1.40    2.20
   0  -9   5   -2.40    2.80
   0  -9   5    3.60    3.50
  -1   9  -5   28.90    7.10
  -1   9  -5   30.60    5.70
  -1   9  -5   31.70    4.90
   1  -9   5   21.40    4.80
   1  -9   5   32.30    4.80
   1  -9   5   30.80    4.50
   1  -9   5   29.20    5.50
  -2   9  -5  338.47   15.60
  -2   9  -5  263.77   20.90
   2  -9   5  353.26   18.50
   2  -9   5  342.97   14.90
   2  -9   5  315.37   15.90
  -3   9  -5    9.50    2.60
  -3   9  -5    8.50    1.90
  -3   9  -5    9.00    7.90
   3  -9   5   10.60    2.60
   3  -9   5    0.90    7.00
   3  -9   5   12.60    2.90
  -4   9  -5  349.07   14.50
  -4   9  -5  337.57   15.90
  -4   9  -5  337.47   24.20
   4  -9   5  372.06   31.00
   4  -9   5  352.86   15.50
   4  -9   5  347.57   15.30
  -5   9  -5  105.39   15.90
  -5   9  -5  116.09    6.60
  -5   9  -5  119.89    8.40
   5  -9   5  118.09    7.00
   5  -9   5  118.79    7.60
   5  -9   5   72.79   19.70
  -6   9  -5  122.49    7.70
  -6   9  -5  100.99    8.40
  -6   9  -5  105.09   10.10
   6  -9   5  105.19    7.10
   6  -9   5  104.49    6.60
  -7   9  -5   -1.00    3.70
  -7   9  -5    1.70    3.20
   5   8  -5   58.29    9.50
   5   8  -5   47.20    7.10
  -5  -8   5   32.90    6.70
  -5  -8   5   40.10    8.50
   4   8  -5    7.00    4.50
  -4  -8   5   -1.50    6.30
  -4  -8   5    3.70    5.20
  -4  -8   5   10.00    5.50
   3   8  -5   43.10    7.50
   3   8  -5   47.20    5.60
  -3  -8   5   29.00    7.90
  -3  -8   5   60.59    7.90
  -3  -8   5   41.90    6.60
   2   8  -5   15.50    3.80
   2   8  -5   18.10    4.30
  -2  -8   5   17.50    4.40
  -2  -8   5   23.80    4.70
  -2  -8   5   16.10    4.30
   1   8  -5   10.20    3.40
   1   8  -5    2.00    3.10
  -1  -8   5    6.00    4.00
  -1  -8   5    7.50    3.20
  -1  -8   5    5.60    2.80
   0   8  -5   48.20    5.20
   0   8  -5   37.80    6.90
   0   8  -5   44.90    6.70
   0  -8   5   65.69    7.10
   0  -8   5   48.90    4.70
   0  -8   5   54.39    6.70
   0  -8   5   45.60    3.80
   0  -8   5   48.40    5.10
   0  -8   5   49.40    5.90
  -1   8  -5   36.20    7.60
  -1   8  -5   40.30    4.80
  -1   8  -5   48.00    6.30
   1  -8   5   31.40    4.70
   1  -8   5   38.20    6.10
   1  -8   5   42.50    5.00
   1  -8   5   42.60    5.30
  -2   8  -5   55.89    6.80
  -2   8  -5   46.80    4.80
  -2   8  -5   53.49    9.90
   2  -8   5   69.79    8.10
   2  -8   5   40.30    5.00
   2  -8   5   48.00    4.90
  -3   8  -5   39.10    9.10
  -3   8  -5   37.00    3.20
  -3   8  -5   40.30    4.10
   3  -8   5   41.40    4.40
   3  -8   5   40.40    4.20
   3  -8   5   33.00    7.10
  -4   8  -5   11.90    7.00
  -4   8  -5    1.80    1.80
  -4   8  -5    0.20    1.10
   4  -8   5    0.00    2.10
   4  -8   5   -0.20    1.40
   4  -8   5   -5.30   10.90
  -5   8  -5    0.20    2.40
  -5   8  -5    1.10    1.50
   5  -8   5    1.70   12.70
   5  -8   5    1.80    2.30
   5  -8   5   -0.50    1.50
  -6   8  -5   67.09    6.00
  -6   8  -5   81.79    6.10
  -6   8  -5   79.09    7.50
   6  -8   5   66.09    6.10
  -7   8  -5  138.29   10.10
  -7   8  -5  100.49    8.50
   5   7  -5    2.10    3.30
   5   7  -5    3.50    5.10
   5   7  -5   10.20    3.40
  -5  -7   5    2.70    4.70
  -5  -7   5    2.80    5.20
   4   7  -5  185.18   10.50
   4   7  -5  181.68   10.70
   4   7  -5  177.78   12.50
  -4  -7   5  187.18   14.20
  -4  -7   5  179.08   13.00
  -4  -7   5  191.38   13.60
   3   7  -5   65.49    7.00
   3   7  -5   64.39    7.10
   3   7  -5   58.49    5.80
  -3  -7   5   70.79    8.40
  -3  -7   5   72.69    8.40
  -3  -7   5   72.19    7.80
   2   7  -5   21.50    3.70
   2   7  -5   18.40    3.90
  -2  -7   5   14.00    3.90
  -2  -7   5   12.90    4.20
  -2  -7   5   11.30    4.10
   1   7  -5  403.66   19.40
   1   7  -5  415.06   19.10
  -1  -7   5  400.66   19.60
  -1  -7   5  416.06   16.00
  -1  -7   5  418.46   18.80
  -1  -7   5  397.66   19.90
   0   7  -5   80.29    8.20
   0   7  -5   94.19    7.20
   0   7  -5   92.09    6.70
   0  -7   5   86.39    6.60
   0  -7   5   82.79    7.00
   0  -7   5   80.89    7.30
   0  -7   5   90.29    5.70
   0  -7   5   90.89    5.90
  -1   7  -5 1537.95   56.99
  -1   7  -5 1506.65   56.49
  -1   7  -5 1437.06   61.49
   1  -7   5 1428.46   57.09
   1  -7   5 1526.05   57.89
   1  -7   5 1471.05   56.29
   1  -7   5 1443.96   56.49
  -2   7  -5    0.10    1.10
  -2   7  -5    2.20    2.50
  -2   7  -5    1.40    5.40
   2  -7   5   -0.90    3.50
   2  -7   5    0.80    2.20
   2  -7   5   -2.00    1.50
  -3   7  -5  270.57   20.10
  -3   7  -5  278.87   15.70
  -3   7  -5  295.97   13.60
  -3   7  -5  308.27   14.90
  -3   7  -5  296.47   12.20
   3  -7   5  305.97   13.20
   3  -7   5  326.07   19.90
   3  -7   5  309.17   14.10
  -4   7  -5  116.29    7.30
  -4   7  -5  134.09    8.00
  -4   7  -5  117.19    6.00
  -4   7  -5  104.79   13.10
   4  -7   5  110.19    7.40
   4  -7   5  123.89    6.40
   4  -7   5  164.18   21.90
  -5   7  -5   30.90    3.70
  -5   7  -5   29.00    4.50
  -5   7  -5   34.70    4.70
   5  -7   5   39.00    4.70
   5  -7   5   58.79   14.00
   5  -7   5   31.90    3.30
  -6   7  -5  171.08    9.40
  -6   7  -5  199.78   13.80
  -6   7  -5  165.88    9.60
   6  -7   5  195.28   26.80
   6  -7   5  154.88    9.60
  -7   7  -5    2.50    4.10
  -7   7  -5   10.20    3.60
   7  -7   5    9.20    3.40
   7  -7   5   -9.50   23.40
   6   6  -5   89.79    8.90
   6   6  -5   88.69    7.50
   6   6  -5   83.19   10.70
  -6  -6   5   92.79   10.60
  -6  -6   5  123.09   11.70
  -6  -6   5   92.49   11.30
   5   6  -5  287.97   14.50
   5   6  -5  292.07   15.10
   5   6  -5  307.27   17.20
  -5  -6   5  285.47   17.40
  -5  -6   5  293.97   16.90
  -5  -6   5  315.57   20.30
   4   6  -5  247.38   12.50
   4   6  -5  232.48   14.00
   4   6  -5  234.58   12.50
  -4  -6   5  242.88   14.90
  -4  -6   5  232.88   14.70
  -4  -6   5  247.18   16.50
  -4  -6   5  239.08   13.90
   3   6  -5   98.89    8.10
   3   6  -5   96.69    7.30
   3   6  -5   91.19    6.70
  -3  -6   5   95.99    8.50
  -3  -6   5  104.19    9.50
  -3  -6   5   81.29    8.60
   2   6  -5   -0.40    2.50
   2   6  -5    5.30    2.20
   2   6  -5    3.60    2.30
  -2  -6   5    0.20    2.50
  -2  -6   5   -2.40    2.70
  -2  -6   5    7.00    3.20
  -2  -6   5    2.20    1.20
   1   6  -5   88.19    6.80
   1   6  -5   86.39    6.70
   1   6  -5   88.69    6.50
  -1  -6   5   82.59    7.10
  -1  -6   5   85.89    7.00
  -1  -6   5   97.39    6.60
  -1  -6   5   88.19    5.10
   0   6  -5 1168.68   46.60
   0   6  -5 1244.68   46.40
   0   6  -5 1253.07   46.20
   0   6  -5 1136.49   47.60
   0   6  -5 1254.07   49.80
   0  -6   5 1182.08   47.40
   0  -6   5 1228.98   45.10
   0  -6   5 1193.48   47.30
   0  -6   5 1151.88   47.00
   0  -6   5 1262.37   45.80
  -1   6  -5   20.90    3.70
  -1   6  -5   23.10    6.20
  -1   6  -5   26.30    3.40
  -1   6  -5   25.00    4.80
   1  -6   5   25.00    3.70
   1  -6   5   26.30    3.60
   1  -6   5   28.30    4.50
   1  -6   5   24.40    4.00
   1  -6   5   28.80    4.70
  -2   6  -5  171.98   11.40
  -2   6  -5  171.08   14.90
  -2   6  -5  200.78    9.80
  -2   6  -5  178.68    9.20
   2  -6   5  183.38    9.90
   2  -6   5  190.38    9.10
   2  -6   5  190.78   12.10
  -3   6  -5   30.80    3.70
  -3   6  -5   22.40    3.10
  -3   6  -5   29.30    3.80
  -3   6  -5   24.30    6.70
  -3   6  -5   24.40    2.20
  -3   6  -5   21.70    4.80
   3  -6   5   23.30    4.20
   3  -6   5   31.70    4.00
   3  -6   5   31.30    7.60
  -4   6  -5   -0.20    2.10
  -4   6  -5    0.10    1.20
  -4   6  -5    4.80    2.50
  -4   6  -5   -0.10    1.30
   4  -6   5    3.20    2.20
   4  -6   5    0.80    9.00
   4  -6   5    1.90    1.30
  -5   6  -5   42.90    4.70
  -5   6  -5   37.80    4.70
  -5   6  -5   35.60    4.10
  -5   6  -5   38.20    4.70
   5  -6   5   34.50    4.80
  -6   6  -5  264.57   13.40
  -6   6  -5  293.47   13.50
  -6   6  -5  276.97   14.40
   6  -6   5  273.17   29.40
   6  -6   5  265.67   13.50
  -7   6  -5   -3.80    3.60
  -7   6  -5    4.30    3.70
   7  -6   5    1.70    2.70
   6   5  -5   51.59    5.40
   6   5  -5   57.79    9.30
   6   5  -5   51.99    8.00
  -6  -5   5   61.59    9.10
  -6  -5   5   52.79    9.10
  -6  -5   5   54.89    9.40
   5   5  -5  153.28   10.20
   5   5  -5  156.78   11.40
   5   5  -5  163.18    9.20
  -5  -5   5  165.58   12.30
  -5  -5   5  155.48   11.80
  -5  -5   5  158.68   11.40
  -5  -5   5  192.08   14.70
   4   5  -5   11.10    3.20
   4   5  -5   11.30    3.70
   4   5  -5   15.70    3.20
  -4  -5   5    6.40    3.60
  -4  -5   5    2.00    5.20
  -4  -5   5   15.00    4.50
  -4  -5   5    8.70    3.20
   3   5  -5   37.80    5.20
   3   5  -5   39.70    5.20
   3   5  -5   40.50    4.10
  -3  -5   5   36.60    5.50
  -3  -5   5   38.30    6.30
  -3  -5   5   47.50    5.50
  -3  -5   5   43.10    6.10
   2   5  -5 1325.47   53.09
   2   5  -5 1351.76   52.09
   2   5  -5 1406.56   52.19
   2   5  -5 1422.96   52.69
  -2  -5   5 1343.07   54.09
  -2  -5   5 1431.96   50.59
  -2  -5   5 1377.46   53.69
  -2  -5   5 1345.97   52.99
  -2  -5   5 1302.77   53.59
  -2  -5   5 1409.66   53.29
   1   5  -5    5.90    2.00
   1   5  -5    1.70    2.90
   1   5  -5    6.70    2.10
   1   5  -5    8.70    3.50
   1   5  -5    4.40    2.50
  -1  -5   5    6.20    2.70
  -1  -5   5    2.50    1.60
  -1  -5   5    4.80    1.90
  -1  -5   5    0.50    2.10
  -1  -5   5    8.10    2.50
  -1  -5   5    4.30    1.90
   0   5  -5  533.95   25.30
   0   5  -5  561.74   21.70
   0   5  -5  514.55   23.00
   0   5  -5  518.35   22.00
   0   5  -5  532.55   23.20
   0   5  -5  463.75   23.40
   0  -5   5  518.65   20.10
   0  -5   5  536.05   22.40
   0  -5   5  556.84   21.90
   0  -5   5  533.95   22.70
   0  -5   5  574.84   22.40
   0  -5   5  526.25   22.70
  -1   5  -5  461.05   27.20
  -1   5  -5  581.14   23.90
  -1   5  -5  569.14   22.60
  -1   5  -5  536.15   23.80
  -1   5  -5  577.34   22.10
   1  -5   5  544.45   23.00
   1  -5   5  580.34   22.60
   1  -5   5  569.24   23.90
   1  -5   5  577.24   23.90
   1  -5   5  562.64   23.20
  -2   5  -5   16.90    2.50
  -2   5  -5   14.60    3.80
  -2   5  -5   21.40    2.00
  -2   5  -5   25.70    2.70
  -2   5  -5   27.30    4.30
  -2   5  -5   20.70    6.00
  -2   5  -5   18.80    3.80
   2  -5   5   15.70    3.00
   2  -5   5   15.00    4.00
   2  -5   5   27.00    5.30
   2  -5   5   23.00    3.60
   2  -5   5   23.90    2.60
  -3   5  -5  499.55   20.50
  -3   5  -5  416.66   25.70
  -3   5  -5  504.75   26.00
  -3   5  -5  526.85   19.40
  -3   5  -5  512.45   22.80
  -3   5  -5  537.25   21.40
  -3   5  -5  473.05   22.60
   3  -5   5  494.45   28.20
   3  -5   5  526.75   21.60
   3  -5   5  517.95   22.50
   3  -5   5  505.05   19.30
  -4   5  -5  117.79    6.90
  -4   5  -5  105.59    6.30
  -4   5  -5  107.09    7.20
  -4   5  -5   99.99    5.90
   4  -5   5  100.79    7.10
  -5   5  -5  735.63   28.40
  -5   5  -5  701.03   29.30
  -5   5  -5  787.42   29.90
  -5   5  -5  735.73   30.00
   5  -5   5  714.53   30.00
   5  -5   5  701.03   40.30
  -6   5  -5  112.59    8.10
  -6   5  -5   99.19    7.50
  -6   5  -5   99.89    8.00
   6  -5   5  100.89    7.40
  -7   5  -5  134.79   10.30
  -7   5  -5  132.39    9.80
  -7   5  -5  104.49    9.70
   7  -5   5  119.39    8.50
  -8   5  -5   -7.20    4.60
  -8   5  -5   -1.80    4.80
   8  -5   5   -2.10    2.90
   7   4  -5    2.30    5.10
   7   4  -5    1.20    5.50
  -7  -4   5   -5.30    5.90
  -7  -4   5   -2.40    4.90
  -7  -4   5   -2.70    6.10
   6   4  -5    4.90    2.20
   6   4  -5    3.20    4.10
   6   4  -5    6.20    3.70
  -6  -4   5    5.40    4.80
  -6  -4   5    4.60    4.20
  -6  -4   5    1.30    4.50
   5   4  -5  231.78   10.70
   5   4  -5  212.38   12.20
   5   4  -5  205.08   13.30
  -5  -4   5  215.38   14.00
  -5  -4   5  213.68   13.00
  -5  -4   5  219.18   13.50
   4   4  -5   52.79    5.90
   4   4  -5   53.79    5.90
   4   4  -5   49.99    4.10
  -4  -4   5   49.60    6.10
  -4  -4   5   54.39    6.40
  -4  -4   5   48.70    7.00
  -4  -4   5   52.29    6.60
   3   4  -5 1265.67   48.20
   3   4  -5 1260.67   46.50
   3   4  -5 1221.98   47.10
  -3  -4   5 1175.78   48.40
  -3  -4   5 1233.18   49.10
  -3  -4   5 1184.18   47.00
  -3  -4   5 1208.18   48.50
  -3  -4   5 1173.48   47.50
  -3  -4   5 1252.77   45.20
   2   4  -5   55.09    5.60
   2   4  -5   50.99    5.20
   2   4  -5   45.60    5.60
   2   4  -5   51.69    4.90
   2   4  -5   53.69    4.40
   2   4  -5   49.30    4.30
  -2  -4   5   52.19    5.40
  -2  -4   5   45.00    4.80
  -2  -4   5   43.20    4.30
  -2  -4   5   50.69    3.80
  -2  -4   5   44.30    4.70
  -2  -4   5   42.80    5.10
  -2  -4   5   46.80    4.50
   1   4  -5 1657.43   62.39
   1   4  -5 1648.34   59.79
   1   4  -5 1608.94   61.19
   1   4  -5 1648.24   60.79
   1   4  -5 1664.03   60.59
   1   4  -5 1663.63   61.69
  -1  -4   5 1567.94   59.39
  -1  -4   5 1624.74   59.89
  -1  -4   5 1514.75   61.39
  -1  -4   5 1539.95   61.19
  -1  -4   5 1628.04   60.19
   0   4  -5  573.54   21.60
   0   4  -5  600.34   24.30
   0   4  -5  600.54   23.20
   0   4  -5  588.04   22.30
   0   4  -5  594.44   24.20
   0   4  -5  480.05   26.40
   0  -4   5  568.54   23.40
   0  -4   5  567.44   23.60
   0  -4   5  620.14   23.80
   0  -4   5  575.64   23.40
   0  -4   5  541.85   23.60
  -1   4  -5  183.38   13.90
  -1   4  -5  220.48    9.10
  -1   4  -5  211.08   11.00
   1  -4   5  218.28   11.30
   1  -4   5  238.78   12.90
   1  -4   5  223.78   10.40
   1  -4   5  223.58   11.20
  -2   4  -5   13.80    2.80
  -2   4  -5    8.30    3.90
  -2   4  -5   12.40    3.30
  -2   4  -5   11.00    3.30
  -2   4  -5   11.90    1.30
  -2   4  -5   10.20    3.40
   2  -4   5   11.90    4.90
   2  -4   5   12.00    1.50
   2  -4   5    9.50    2.40
   2  -4   5    9.60    4.00
   2  -4   5    8.10    2.30
  -3   4  -5  190.98   11.90
  -3   4  -5  199.68    9.40
  -3   4  -5  210.38   10.20
  -3   4  -5  212.48   10.50
  -3   4  -5  184.68   13.10
  -3   4  -5  197.58    9.60
   3  -4   5  172.18   16.00
   3  -4   5  193.58    9.90
   3  -4   5  204.28    8.10
   3  -4   5  178.98   14.00
   3  -4   5  197.98   10.50
  -4   4  -5  936.51   36.30
  -4   4  -5  928.71   34.10
  -4   4  -5  947.71   36.00
  -4   4  -5  854.41   34.80
   4  -4   5  924.21   34.00
   4  -4   5  896.71   44.60
   4  -4   5  880.01   36.30
  -5   4  -5  244.48   12.40
  -5   4  -5  240.38   12.00
  -5   4  -5  239.68   10.10
  -5   4  -5  212.68   11.30
   5  -4   5  180.78   20.60
   5  -4   5  224.68   11.90
  -6   4  -5  200.78   10.70
  -6   4  -5  203.08   10.80
  -6   4  -5  207.78   11.90
  -6   4  -5  183.88   10.90
   6  -4   5  187.98   10.80
  -7   4  -5  133.89   10.80
  -7   4  -5  182.08   11.20
  -7   4  -5  154.68   11.40
   7  -4   5  143.79    9.60
  -8   4  -5    1.20    5.20
  -8   4  -5   13.80    5.30
  -8   4  -5    3.20    5.50
   8  -4   5    2.00    3.10
   7   3  -5   44.20    7.60
   7   3  -5   35.10    6.30
  -7  -3   5   45.30    8.00
  -7  -3   5   41.10    6.30
  -7  -3   5   49.70    8.50
   6   3  -5   19.20    3.00
   6   3  -5   15.50    4.30
   6   3  -5   12.80    3.80
  -6  -3   5    6.60    3.80
  -6  -3   5   12.40    4.30
  -6  -3   5   17.70    5.20
   5   3  -5    0.00    2.60
   5   3  -5    2.70    1.60
   5   3  -5    1.80    3.00
  -5  -3   5    5.80    2.90
  -5  -3   5   -4.80    3.30
  -5  -3   5    2.10    2.60
   4   3  -5  255.27   13.10
   4   3  -5  228.38   12.70
   4   3  -5  241.08   12.40
  -4  -3   5  233.88   14.40
  -4  -3   5  239.88   13.20
  -4  -3   5  240.58   12.40
  -4  -3   5  233.48   13.60
  -4  -3   5  231.18   13.60
   3   3  -5   57.69    4.60
   3   3  -5   55.39    5.30
   3   3  -5   63.39    4.50
   3   3  -5   59.29    5.30
  -3  -3   5   58.29    5.80
  -3  -3   5   59.69    5.00
  -3  -3   5   58.69    5.40
  -3  -3   5   55.09    6.00
  -3  -3   5   59.79    4.00
  -3  -3   5   51.89    4.90
   2   3  -5  518.95   21.90
   2   3  -5  553.44   22.00
   2   3  -5  541.05   21.90
   2   3  -5  532.15   22.50
   2   3  -5  487.05   23.40
   2   3  -5  520.15   21.90
  -2  -3   5  529.65   20.70
  -2  -3   5  510.15   20.70
  -2  -3   5  485.15   22.50
  -2  -3   5  534.85   22.00
  -2  -3   5  512.25   22.10
   1   3  -5   10.50    2.20
   1   3  -5    8.80    2.50
   1   3  -5    8.00    1.50
   1   3  -5    9.90    2.50
   1   3  -5   12.20    4.00
  -1  -3   5    8.80    1.50
  -1  -3   5    8.50    1.60
  -1  -3   5    9.30    2.30
  -1  -3   5   15.60    2.90
  -1  -3   5   10.30    2.10
  -1  -3   5    4.40    2.30
   0   3  -5  139.89    7.20
   0   3  -5  147.99    8.10
   0   3  -5  157.08    8.20
   0  -3   5  158.98    9.40
   0  -3   5  141.39    8.30
   0  -3   5  142.59    8.10
   0  -3   5  147.09    7.50
   0  -3   5  151.78    8.00
   0  -3   5  140.79    7.80
  -1   3  -5  347.17   12.40
  -1   3  -5  310.47   14.40
  -1   3  -5  357.56   14.50
  -1   3  -5  335.47   15.30
  -1   3  -5  331.27   13.70
   1  -3   5  336.87   14.10
   1  -3   5  291.67   19.70
   1  -3   5  329.17   15.20
   1  -3   5  345.97   14.20
  -2   3  -5 1421.46   51.19
  -2   3  -5 1311.67   49.70
  -2   3  -5 1345.47   52.69
  -2   3  -5 1333.17   53.29
  -2   3  -5 1373.76   50.89
  -2   3  -5 1255.67   51.89
   2  -3   5 1410.06   51.19
   2  -3   5 1413.96   57.89
   2  -3   5 1373.16   49.20
   2  -3   5 1457.75   56.29
   2  -3   5 1371.26   52.29
  -3   3  -5   93.39    4.20
  -3   3  -5   97.09    5.30
  -3   3  -5  100.89    5.80
  -3   3  -5   90.69    8.10
  -3   3  -5   72.09   10.60
  -3   3  -5   90.19    5.60
   3  -3   5   88.39    6.40
   3  -3   5   85.09    5.60
   3  -3   5   95.69    4.50
   3  -3   5  107.39   11.30
   3  -3   5   92.89    9.80
  -4   3  -5   96.89    4.60
  -4   3  -5   93.29    6.40
  -4   3  -5  100.79    7.30
  -4   3  -5   95.89    5.90
   4  -3   5   94.89   11.20
   4  -3   5   96.09    4.90
   4  -3   5   88.89    6.60
  -5   3  -5  130.29    7.60
  -5   3  -5  116.79    8.20
  -5   3  -5  120.39    8.30
  -5   3  -5  118.39    5.90
   5  -3   5  126.09    8.20
   5  -3   5  136.89   16.30
  -6   3  -5  396.26   18.60
  -6   3  -5  401.16   18.40
  -6   3  -5  411.26   19.50
   6  -3   5  387.56   18.20
  -7   3  -5  110.99    9.60
  -7   3  -5  140.09   10.70
  -7   3  -5  141.39   14.30
   7  -3   5  129.79    8.80
  -8   3  -5   78.49   10.30
  -8   3  -5   79.49   10.20
   8  -3   5   70.19    7.30
   8  -3   5   73.79   13.00
   8   2  -5   42.40    9.10
   8   2  -5   33.60    6.60
  -8  -2   5   24.50    7.30
  -8  -2   5   45.10    7.20
  -8  -2   5   32.20    7.30
   7   2  -5   21.50    5.30
   7   2  -5   22.90    5.30
  -7  -2   5   30.50    7.10
  -7  -2   5   23.70    5.10
  -7  -2   5   18.60    5.00
   6   2  -5   50.69    6.90
   6   2  -5   52.79    4.00
   6   2  -5   46.20    6.60
  -6  -2   5   48.60    6.80
  -6  -2   5   51.39    6.60
  -6  -2   5   50.09    8.00
   5   2  -5   14.70    3.50
   5   2  -5   22.60    2.70
   5   2  -5   25.00    4.60
  -5  -2   5   24.50    4.60
  -5  -2   5   16.50    4.10
  -5  -2   5   21.70    3.70
   4   2  -5  914.21   33.10
   4   2  -5  840.02   35.00
   4   2  -5  887.51   36.50
  -4  -2   5  873.61   34.80
  -4  -2   5  907.31   36.80
  -4  -2   5  842.52   35.50
  -4  -2   5  871.51   36.50
   3   2  -5    2.70    1.80
   3   2  -5    0.80    1.80
   3   2  -5    1.10    1.70
   3   2  -5    0.30    1.90
   3   2  -5    5.10    1.80
   3   2  -5    2.20    1.40
  -3  -2   5    2.90    1.40
  -3  -2   5    3.70    2.30
  -3  -2   5    4.60    1.70
  -3  -2   5    3.40    2.40
  -3  -2   5    2.40    2.00
  -3  -2   5    3.00    1.40
   2   2  -5    3.40    1.80
   2   2  -5    2.40    1.10
   2   2  -5    2.30    2.00
   2   2  -5    2.90    2.00
   2   2  -5   -0.10    1.30
   2   2  -5    3.00    2.30
  -2  -2   5    1.40    0.80
  -2  -2   5    3.50    1.50
  -2  -2   5    3.10    1.90
  -2  -2   5    5.00    1.70
  -2  -2   5    1.10    1.40
  -2  -2   5    1.50    1.30
   1   2  -5  566.84   23.10
   1   2  -5  566.04   22.70
   1   2  -5  572.54   22.40
   1   2  -5  574.64   25.00
   1   2  -5  566.34   23.50
   1   2  -5  566.34   21.30
   1   2  -5  580.24   22.40
  -1  -2   5  537.75   23.10
  -1  -2   5  574.24   23.10
  -1  -2   5  633.54   23.30
  -1  -2   5  525.35   23.00
  -1  -2   5  574.64   21.60
  -1  -2   5  569.54   22.80
   0   2  -5 2017.30   72.19
   0   2  -5 2053.29   77.39
   0   2  -5 1969.80   73.99
   0   2  -5 2039.90   73.99
   0   2  -5 2031.30   74.39
   0   2  -5 1899.11   73.29
   0  -2   5 2038.70   74.09
   0  -2   5 2055.09   77.39
   0  -2   5 2076.29   73.59
   0  -2   5 2058.49   74.89
   0  -2   5 1955.00   73.89
   0  -2   5 2013.30   74.99
  -1   2  -5 2750.02  102.69
  -1   2  -5 2718.03  104.19
  -1   2  -5 2814.92  101.59
  -1   2  -5 2875.11  103.09
  -1   2  -5 2801.52  103.99
  -1   2  -5 2904.21  104.69
   1  -2   5 2758.02  102.89
   1  -2   5 2897.61  106.69
   1  -2   5 3165.28  107.99
   1  -2   5 2797.82  104.49
   1  -2   5 2774.82  102.69
   1  -2   5 2885.71  103.29
  -2   2  -5    1.20    2.00
  -2   2  -5    0.80    2.10
  -2   2  -5    0.20    1.10
  -2   2  -5    1.80    1.30
  -2   2  -5    0.70    3.60
  -2   2  -5    0.60    0.70
   2  -2   5    0.50    1.40
   2  -2   5    1.20    1.20
   2  -2   5    8.50    4.10
   2  -2   5   -0.10    1.50
   2  -2   5    0.20    0.50
   2  -2   5   -2.20    3.30
  -3   2  -5 1590.94   71.49
  -3   2  -5 1670.03   66.89
  -3   2  -5 1791.42   63.99
  -3   2  -5 1770.22   65.09
   3  -2   5 1768.52   70.99
   3  -2   5 1744.03   65.99
   3  -2   5 1795.22   64.49
   3  -2   5 1810.52   63.19
  -4   2  -5    3.30    1.00
  -4   2  -5    1.80    1.40
  -4   2  -5    5.20    2.60
  -4   2  -5    7.40    2.20
   4  -2   5    3.10    2.10
   4  -2   5    2.30    1.90
   4  -2   5    5.70    2.20
   4  -2   5    3.40    1.40
   4  -2   5   13.90    5.10
  -5   2  -5   -2.10    1.80
  -5   2  -5    0.50    2.60
  -5   2  -5    0.50    1.20
  -5   2  -5    2.30    1.90
  -5   2  -5    2.60    2.50
   5  -2   5    1.90    2.20
   5  -2   5    0.30    2.20
  -6   2  -5   58.29    7.00
  -6   2  -5   54.19    5.90
  -6   2  -5   63.49    6.20
   6  -2   5   58.89    6.00
  -7   2  -5  175.68   11.50
  -7   2  -5  187.08   12.70
   7  -2   5  199.68   11.40
   7  -2   5  178.88   15.80
   8   1  -5   -1.50    5.00
   8   1  -5   -0.60    5.90
  -8  -1   5   12.70    5.80
  -8  -1   5    1.20    6.20
  -8  -1   5    0.60    4.90
   7   1  -5   13.80    4.80
   7   1  -5   11.70    4.40
  -7  -1   5   11.80    5.00
  -7  -1   5   11.30    3.80
  -7  -1   5    7.80    9.10
   6   1  -5    0.90    2.80
   6   1  -5    0.10    1.00
   6   1  -5    1.50    1.50
   6   1  -5   -3.30    2.80
  -6  -1   5   -2.50    3.00
  -6  -1   5   -3.70    2.60
  -6  -1   5    0.10    3.50
   5   1  -5  372.86   18.10
   5   1  -5  359.56   18.20
   5   1  -5  408.56   15.00
  -5  -1   5  378.96   18.30
  -5  -1   5  385.66   17.70
  -5  -1   5  391.86   19.40
  -5  -1   5  410.66   21.20
   4   1  -5  276.97   10.70
   4   1  -5  248.58   12.80
   4   1  -5  272.17   13.40
  -4  -1   5  256.87   12.70
  -4  -1   5  244.88   12.10
  -4  -1   5  244.68   13.40
   3   1  -5   64.69    4.70
   3   1  -5   61.99    4.60
   3   1  -5   69.89    5.20
   3   1  -5   69.39    5.30
   3   1  -5   63.09    4.10
   3   1  -5   70.59    5.40
   3   1  -5   70.49    4.10
  -3  -1   5   66.49    4.60
  -3  -1   5   66.09    3.70
  -3  -1   5   65.19    5.40
  -3  -1   5   71.89    5.80
  -3  -1   5   68.39    4.40
  -3  -1   5   65.19    4.80
   2   1  -5 1037.10   41.50
   2   1  -5 1030.90   39.90
   2   1  -5 1076.59   39.20
   2   1  -5 1095.39   40.30
   2   1  -5 1067.39   40.00
   2   1  -5 1051.99   40.90
   2   1  -5 1159.68   40.90
  -2  -1   5 1058.19   39.60
  -2  -1   5 1090.69   40.60
  -2  -1   5 1079.69   40.30
  -2  -1   5 1066.69   40.40
  -2  -1   5  978.80   42.50
  -2  -1   5 1091.99   39.10
   1   1  -5   17.20    2.30
   1   1  -5   16.80    1.90
   1   1  -5   15.90    1.20
   1   1  -5   17.40    2.30
   1   1  -5   15.10    2.40
   1   1  -5   11.90    2.50
  -1  -1   5   17.30    2.20
  -1  -1   5   18.00    2.60
  -1  -1   5   17.60    1.40
  -1  -1   5   17.10    3.40
  -1  -1   5   19.20    3.20
  -1  -1   5   17.20    1.80
  -1  -1   5   15.10    2.00
   0   1  -5  471.15   18.10
   0   1  -5  447.26   18.10
   0   1  -5  454.65   18.20
   0   1  -5  454.35   19.20
   0   1  -5  458.05   17.40
   0  -1   5  448.26   18.00
   0  -1   5  451.95   18.60
   0  -1   5  469.25   17.30
   0  -1   5  481.55   18.70
   0  -1   5  458.65   18.30
   0  -1   5  480.15   19.50
   0  -1   5  445.06   17.60
   0  -1   5  470.65   19.50
  -1   1  -5    5.10    1.80
  -1   1  -5    8.90    1.50
  -1   1  -5    8.10    3.20
  -1   1  -5    6.10    0.90
  -1   1  -5    7.00    1.30
  -1   1  -5    4.30    2.10
  -1   1  -5    7.50    2.30
   1  -1   5   10.80    2.20
   1  -1   5   11.60    4.00
   1  -1   5    7.50    0.80
   1  -1   5    6.50    1.20
   1  -1   5    5.90    2.10
  -2   1  -5  528.65   24.30
  -2   1  -5  531.35   23.00
  -2   1  -5  522.95   20.40
  -2   1  -5  548.15   21.30
  -2   1  -5  487.85   26.70
  -2   1  -5  534.15   20.00
   2  -1   5  537.95   20.00
   2  -1   5  548.15   21.90
   2  -1   5  522.15   25.00
   2  -1   5  555.94   20.90
   2  -1   5  526.25   22.30
  -3   1  -5  168.08    9.70
  -3   1  -5  199.08    8.30
  -3   1  -5  188.68   17.30
  -3   1  -5  171.58   11.40
  -3   1  -5  190.58   10.80
   3  -1   5  178.58   10.10
   3  -1   5  202.88   10.10
   3  -1   5  200.48   10.10
   3  -1   5  199.18    8.60
   3  -1   5  210.58   13.00
  -4   1  -5   62.79    6.10
  -4   1  -5   67.39    5.20
  -4   1  -5   76.29    5.90
  -4   1  -5   71.89    4.90
   4  -1   5   73.49    6.00
   4  -1   5   69.99    5.70
   4  -1   5   71.29    4.80
   4  -1   5   70.09    5.40
  -5   1  -5   38.00    5.70
  -5   1  -5   42.40    4.50
  -5   1  -5   31.60    4.60
   5  -1   5   37.60    5.20
   5  -1   5   45.70    5.20
  -6   1  -5   93.89    8.60
  -6   1  -5   99.69    7.40
  -6   1  -5   97.19    7.90
   6  -1   5   95.09    7.40
   6  -1   5   77.39   10.70
  -7   1  -5   21.70    5.00
  -7   1  -5   25.80    4.70
  -7   1  -5   21.70   10.10
   7  -1   5   13.40    5.60
   7  -1   5   26.40    4.60
   8   0  -5    7.70    5.10
   8   0  -5   12.50    6.30
  -8   0   5    8.00    5.60
  -8   0   5   13.90    5.50
  -8   0   5   11.30    6.90
   7   0  -5   36.50    5.90
   7   0  -5   33.50    5.70
  -7   0   5   37.80    7.30
  -7   0   5   42.60    7.80
   6   0  -5   -1.60    2.90
   6   0  -5   -0.80    2.90
  -6   0   5    0.00    2.90
  -6   0   5   -5.00    7.70
  -6   0   5    1.80    3.50
  -6   0   5    1.80    2.80
   5   0  -5  143.79    9.50
   5   0  -5  157.48    6.90
   5   0  -5  134.99   10.00
  -5   0   5  143.09   10.00
  -5   0   5  144.19    8.80
  -5   0   5  139.39    8.80
   4   0  -5  225.68    9.40
   4   0  -5  214.58   11.40
   4   0  -5  224.28   11.30
   4   0  -5  206.18    9.40
  -4   0   5  211.68   10.70
  -4   0   5  203.38   11.60
  -4   0   5  224.88   10.60
  -4   0   5  197.38   12.70
   3   0  -5 1222.58   46.10
   3   0  -5 1204.68   45.30
   3   0  -5 1225.48   44.80
   3   0  -5 1277.57   46.20
   3   0  -5 1214.98   47.10
   3   0  -5 1233.08   45.30
  -3   0   5 1250.47   45.60
  -3   0   5 1200.98   45.50
  -3   0   5 1151.48   45.70
  -3   0   5 1226.88   45.90
  -3   0   5 1205.48   47.10
   2   0  -5 2310.37   84.79
   2   0  -5 2376.26   85.19
   2   0  -5 2454.95   86.29
   2   0  -5 2382.36   86.09
  -2   0   5 2485.85   87.59
  -2   0   5 2353.16   85.49
  -2   0   5 2331.57   85.69
  -2   0   5 2312.67   86.69
  -2   0   5 2436.96   85.99
  -2   0   5 2374.76   85.29
  -2   0   5 2415.86   85.89
  -2   0   5 2414.96   85.89
  -2   0   5 2011.50   85.69
   1   0  -5  993.80   37.80
   1   0  -5 1023.70   38.90
   1   0  -5 1037.50   37.10
   1   0  -5 1044.90   39.50
   1   0  -5 1020.60   37.00
   1   0  -5 1004.20   36.80
   1   0  -5 1004.50   37.80
  -1   0   5 1000.80   37.00
  -1   0   5 1026.00   39.00
  -1   0   5  984.20   38.20
  -1   0   5 1001.80   38.60
  -1   0   5 1020.90   38.50
  -1   0   5 1014.40   37.00
  -1   0   5 1028.20   36.80
  -1   0   5 1045.20   37.70
   0   0  -5  918.41   34.00
   0   0  -5  886.71   34.20
   0   0  -5  875.21   33.90
   0   0  -5  912.01   32.40
   0   0  -5  840.62   31.80
   0   0  -5  851.01   32.00
   0   0   5  834.82   33.90
   0   0   5  826.12   32.10
   0   0   5  857.01   34.20
   0   0   5  880.11   32.10
   0   0   5  893.01   34.10
   0   0   5  838.02   33.70
   0   0   5  892.11   33.80
   0   0   5  872.21   31.70
  -1   0  -5    7.20    2.40
  -1   0  -5    6.00    4.00
  -1   0  -5    8.50    2.30
  -1   0  -5   10.80    1.60
  -1   0  -5   10.50    2.90
   1   0   5    9.70    2.90
   1   0   5   14.70    3.00
   1   0   5    7.50    1.30
   1   0   5   10.60    2.60
  -2   0  -5  270.37   13.40
  -2   0  -5  266.87   10.50
  -2   0  -5  257.87   11.50
  -2   0  -5  261.67   13.20
  -2   0  -5  254.87   11.10
  -2   0  -5  256.87   14.00
  -2   0  -5  233.78   16.40
   2   0   5  258.07   11.00
   2   0   5  260.37   12.60
   2   0   5  275.27   10.80
   2   0   5  236.58   13.20
   2   0   5  245.38   12.20
  -3   0  -5  138.99    6.30
  -3   0  -5  141.49    8.90
  -3   0  -5  139.29    7.30
  -3   0  -5  139.89    8.90
   3   0   5  137.69    7.40
   3   0   5  140.49    8.60
   3   0   5  142.19    7.00
   3   0   5  131.59    8.10
  -4   0  -5  773.02   28.30
  -4   0  -5  718.13   30.20
  -4   0  -5  714.73   29.40
   4   0   5  736.13   30.20
   4   0   5  729.83   30.10
   4   0   5  720.13   29.10
  -5   0  -5    7.10    2.80
  -5   0  -5    8.80    3.50
   5   0   5    6.70    2.50
   5   0   5    8.60    3.90
  -6   0  -5   46.00    6.50
  -6   0  -5   50.69    5.90
  -6   0  -5   60.09    7.60
   6   0   5   53.79   13.40
  -7   0  -5    6.40    4.80
  -7   0  -5   16.60    5.20
   7   0   5   15.60    3.50
   7   0   5   10.70    6.40
   8  -1  -5  142.99   11.90
   8  -1  -5  144.79   12.10
  -8   1   5  138.89   11.80
  -8   1   5  146.69   12.30
  -8   1   5  141.19   15.50
   7  -1  -5   -3.10    3.80
   7  -1  -5    0.10    4.10
  -7   1   5   -4.00    4.60
  -7   1   5   -2.30    3.50
   6  -1  -5  145.89   10.60
   6  -1  -5  182.68   11.00
  -6   1   5  167.78   18.20
  -6   1   5  158.48   10.10
  -6   1   5  152.68   10.20
  -6   1   5  160.48   11.70
   5  -1  -5  381.86   17.40
   5  -1  -5  327.47   16.60
  -5   1   5  345.87   16.10
  -5   1   5  328.47   20.50
  -5   1   5  348.47   16.10
  -5   1   5  351.96   17.30
   4  -1  -5  111.79    6.20
   4  -1  -5  109.49    5.70
   4  -1  -5  113.99    7.40
   4  -1  -5  104.69    5.50
   4  -1  -5  108.29    7.30
  -4   1   5  117.79    6.40
  -4   1   5  119.99    7.70
  -4   1   5   99.59    6.30
  -4   1   5  111.99    6.60
  -4   1   5  108.39    9.80
   3  -1  -5 1965.70   75.39
   3  -1  -5 2002.10   73.79
   3  -1  -5 2093.89   74.09
   3  -1  -5 2058.09   73.09
   3  -1  -5 2128.59   73.09
  -3   1   5 1984.00   73.69
  -3   1   5 1949.30   73.59
  -3   1   5 2086.09   75.79
  -3   1   5 1942.21   75.09
  -3   1   5 2045.10   73.99
  -3   1   5 1999.40   73.19
  -3   1   5 1856.11   74.39
  -3   1   5 2082.59   74.19
   2  -1  -5  281.77   11.30
   2  -1  -5  281.47   12.70
   2  -1  -5  287.47   10.90
   2  -1  -5  297.27   11.40
  -2   1   5  285.47   12.60
  -2   1   5  269.87   11.90
  -2   1   5  289.77   12.80
  -2   1   5  287.07   11.20
  -2   1   5  298.07   13.20
  -2   1   5  278.27   12.20
  -2   1   5  298.97   13.20
  -2   1   5  284.37   11.40
   0  -1  -5   42.50    5.30
   0  -1  -5   45.70    2.90
   0  -1  -5   44.10    4.60
   0  -1  -5   48.50    2.60
   0  -1  -5   51.99    4.40
   0  -1  -5   43.60    4.70
   0   1   5   47.70    2.30
   0   1   5   45.80    2.60
   0   1   5   48.00    5.00
   0   1   5   46.50    4.50
   0   1   5   44.00    3.10
   0   1   5   45.90    4.50
   0   1   5   41.60    4.00
  -1  -1  -5  251.97   12.50
  -1  -1  -5  224.68   11.60
  -1  -1  -5  245.18   15.70
  -1  -1  -5  230.08   10.20
  -1  -1  -5  240.38   10.00
   1   1   5  234.68    9.80
   1   1   5  252.87   11.60
   1   1   5  227.08   10.00
   1   1   5  237.88   12.00
  -2  -1  -5    6.50    1.90
  -2  -1  -5    7.40    4.30
  -2  -1  -5    5.40    3.20
  -2  -1  -5    6.70    2.00
  -2  -1  -5    5.10    2.50
  -2  -1  -5    7.70    1.60
  -2  -1  -5    6.30    2.80
   2   1   5    5.50    1.90
   2   1   5    5.60    1.90
   2   1   5    6.70    2.80
   2   1   5    7.50    1.70
   2   1   5    3.90    1.40
  -3  -1  -5  336.27   14.80
  -3  -1  -5  333.37   16.80
  -3  -1  -5  344.77   13.20
  -3  -1  -5  325.77   18.60
   3   1   5  336.57   16.40
   3   1   5  339.37   14.40
   3   1   5  335.67   16.50
   3   1   5  331.47   14.50
   3   1   5  320.47   15.20
  -4  -1  -5   65.89    4.70
  -4  -1  -5   67.49    5.70
  -4  -1  -5   76.49    6.40
   4   1   5   68.19    7.40
   4   1   5   70.09    6.00
   4   1   5   66.89    5.90
  -5  -1  -5   13.60    3.50
  -5  -1  -5   13.70    5.00
  -5  -1  -5   20.70    4.50
   5   1   5   14.20    5.40
   5   1   5   14.70    3.40
   5   1   5   14.10    4.80
  -6  -1  -5    6.00    4.00
  -6  -1  -5    7.90    3.80
  -6  -1  -5   13.10    3.70
   6   1   5   16.90    6.10
   6   1   5    8.20    3.60
  -7  -1  -5    2.20    9.30
  -7  -1  -5    7.60    5.90
  -7  -1  -5   11.60    5.00
   7   1   5    7.90    7.40
   7   1   5    9.20    4.10
   7   1   5    6.60    6.10
   8  -2  -5   11.10    5.30
   8  -2  -5   -2.00    4.40
  -8   2   5    5.10    5.00
  -8   2   5   -1.60    6.40
  -8   2   5    3.60    4.00
   7  -2  -5  228.18   13.90
  -7   2   5  172.28   12.60
  -7   2   5  181.38   12.20
  -7   2   5  201.28   14.30
   6  -2  -5  224.18   12.80
   6  -2  -5  185.38   12.10
  -6   2   5  193.78   11.40
  -6   2   5  197.48   11.40
  -6   2   5  206.98   13.00
   5  -2  -5    2.50    2.50
   5  -2  -5    4.40    2.50
  -5   2   5    4.50    2.80
  -5   2   5    1.30    6.30
  -5   2   5    1.30    2.10
  -5   2   5    1.60    2.00
   4  -2  -5   68.29    5.60
   4  -2  -5   62.29    4.00
   4  -2  -5   67.69    5.70
   4  -2  -5   64.09    4.10
  -4   2   5   83.59    9.80
  -4   2   5   63.39    4.60
  -4   2   5   60.79    4.60
  -4   2   5   61.29    4.40
   3  -2  -5  205.18    8.90
   3  -2  -5  205.58    9.90
   3  -2  -5  210.18    8.50
   3  -2  -5  209.28    9.80
   3  -2  -5  197.38   10.70
  -3   2   5  193.38   12.50
  -3   2   5  204.08    9.00
  -3   2   5  201.38    8.90
  -3   2   5  211.78   10.00
  -3   2   5  216.08   11.20
  -3   2   5  209.68    9.50
  -3   2   5  200.88   10.00
  -3   2   5  208.48    8.10
  -3   2   5  206.68    9.60
   2  -2  -5 1675.23   63.19
   2  -2  -5 1736.03   63.89
   2  -2  -5 1665.53   62.99
   2  -2  -5 1771.72   64.69
  -2   2   5 1645.54   64.59
  -2   2   5 1672.93   62.99
  -2   2   5 1724.03   61.89
  -2   2   5 1759.72   63.89
  -2   2   5 1678.33   63.49
  -2   2   5 1663.73   63.19
  -2   2   5 1804.22   64.39
   1  -2  -5  181.18    9.80
   1  -2  -5  183.18    8.40
   1  -2  -5  193.88    9.80
   1  -2  -5  172.78   11.20
  -1   2   5  177.38   10.70
  -1   2   5  173.78    8.80
  -1   2   5  174.08    9.70
  -1   2   5  181.78    9.00
  -1   2   5  182.08    9.90
  -1   2   5  177.48    8.60
   0  -2  -5   49.30    3.10
   0  -2  -5   49.50    3.50
   0  -2  -5   51.29    4.60
   0  -2  -5   47.00    4.10
   0  -2  -5   49.10    4.60
   0  -2  -5   50.09    5.10
   0   2   5   47.60    4.90
   0   2   5   43.40    4.90
   0   2   5   48.90    4.70
   0   2   5   46.70    5.90
   0   2   5   45.20    4.10
   0   2   5   47.30    3.90
   0   2   5   48.10    2.60
   0   2   5   46.80    3.00
  -1  -2  -5  282.27   14.60
  -1  -2  -5  289.17   12.60
  -1  -2  -5  286.17   13.70
  -1  -2  -5  283.57   15.60
  -1  -2  -5  303.77   12.80
  -1  -2  -5  288.37   14.50
   1   2   5  302.77   11.60
   1   2   5  309.67   15.00
   1   2   5  294.07   13.00
   1   2   5  287.07   15.70
   1   2   5  295.07   12.80
   1   2   5  309.37   16.30
   1   2   5  298.67   13.60
   1   2   5  309.87   12.50
  -2  -2  -5  710.33   28.80
  -2  -2  -5  721.53   27.60
  -2  -2  -5  693.33   31.40
  -2  -2  -5  700.73   28.40
  -2  -2  -5  659.23   33.50
   2   2   5  662.43   28.00
   2   2   5  693.23   29.40
   2   2   5  700.63   27.10
   2   2   5  657.03   30.80
   2   2   5  650.83   26.60
   2   2   5  686.83   27.60
  -3  -2  -5   -0.70    1.80
  -3  -2  -5    0.70    2.10
  -3  -2  -5    1.70    1.20
   3   2   5   -5.40    3.10
   3   2   5    0.50    1.90
   3   2   5    0.20    1.80
   3   2   5   -0.10    2.90
  -4  -2  -5  412.76   19.00
  -4  -2  -5  419.66   17.20
  -4  -2  -5  434.06   24.20
  -4  -2  -5  427.86   19.60
   4   2   5  467.35   23.30
   4   2   5  396.16   18.30
   4   2   5  403.66   18.60
   4   2   5  408.76   20.50
  -5  -2  -5   11.40    3.20
  -5  -2  -5   12.00    4.30
  -5  -2  -5   18.80    7.60
   5   2   5    1.20    5.30
   5   2   5    9.50    2.90
   5   2   5    8.50    4.20
  -6  -2  -5    0.10    4.00
  -6  -2  -5    0.30    3.80
   6   2   5    2.10    3.30
   6   2   5   -0.70    5.90
   6   2   5   -3.50    5.10
   8  -3  -5    6.70    4.60
   8  -3  -5   13.60    5.10
  -8   3   5   15.20    4.20
  -8   3   5    3.90    4.60
  -8   3   5    9.10    6.60
   7  -3  -5  412.66   20.50
  -7   3   5  383.16   19.10
  -7   3   5  363.46   23.30
   6  -3  -5   84.59    8.00
   6  -3  -5  113.59    9.70
  -6   3   5   99.59    7.60
  -6   3   5   96.39    7.50
  -6   3   5  114.99    9.00
  -6   3   5   86.49   15.10
   5  -3  -5  815.42   32.40
   5  -3  -5  715.93   32.00
  -5   3   5  801.12   32.60
  -5   3   5  756.62   37.70
  -5   3   5  763.52   30.60
  -5   3   5  756.42   30.60
   4  -3  -5  240.68   12.80
   4  -3  -5  239.78   10.40
  -4   3   5  244.08   12.50
  -4   3   5  243.88   11.10
  -4   3   5  239.78   10.90
  -4   3   5  256.27   10.90
  -4   3   5  255.77   11.20
  -4   3   5  266.87   11.00
  -4   3   5  256.77   15.70
   3  -3  -5  268.87   13.20
   3  -3  -5  249.58   10.20
   3  -3  -5  249.48   11.60
   3  -3  -5  258.27   12.80
  -3   3   5  231.78   11.30
  -3   3   5  274.07   10.80
  -3   3   5  251.57   11.90
  -3   3   5  266.57   11.30
  -3   3   5  255.07   10.40
  -3   3   5  252.87   10.60
  -3   3   5  250.37   10.30
  -3   3   5  249.38   13.50
  -3   3   5  240.08   12.00
   2  -3  -5   25.50    2.90
   2  -3  -5   27.90    2.60
   2  -3  -5   26.50    3.90
  -2   3   5   22.10    3.00
  -2   3   5   24.80    2.10
  -2   3   5   28.30    3.30
  -2   3   5   25.80    4.90
  -2   3   5   29.10    3.60
  -2   3   5   21.40    4.10
   1  -3  -5  119.59    8.00
   1  -3  -5  134.79    8.00
   1  -3  -5  125.29    6.70
  -1   3   5  128.79    6.80
  -1   3   5  141.89    7.30
  -1   3   5  121.29    8.40
  -1   3   5  136.19    7.50
  -1   3   5  140.89    9.70
   0  -3  -5  177.28   11.20
   0  -3  -5  185.18    8.90
   0  -3  -5  193.28    9.40
   0   3   5  180.38   10.80
   0   3   5  188.68    7.90
   0   3   5  183.98    9.60
   0   3   5  181.58    8.90
   0   3   5  185.28    9.40
   0   3   5  183.48   12.00
   0   3   5  191.48    8.40
   0   3   5  161.78   10.60
  -1  -3  -5  507.65   20.40
  -1  -3  -5  508.15   24.40
  -1  -3  -5  498.65   20.60
  -1  -3  -5  455.35   21.30
   1   3   5  506.45   21.10
   1   3   5  471.25   23.30
   1   3   5  514.95   19.50
   1   3   5  490.15   19.70
   1   3   5  511.45   20.50
   1   3   5  503.05   26.50
   1   3   5  513.05   20.70
  -2  -3  -5  257.57   16.20
  -2  -3  -5  283.77   13.20
  -2  -3  -5  265.67   12.90
  -2  -3  -5  274.07   13.90
   2   3   5  283.97   11.30
   2   3   5  256.27   12.80
   2   3   5  273.87   15.80
   2   3   5  271.07   12.60
   2   3   5  261.07   13.10
   2   3   5  280.97   12.40
  -3  -3  -5  504.25   21.80
  -3  -3  -5  493.75   21.90
  -3  -3  -5  503.95   19.50
  -3  -3  -5  512.75   26.60
   3   3   5  522.25   19.50
   3   3   5  491.25   21.00
   3   3   5  472.05   24.90
   3   3   5  524.15   22.20
   3   3   5  482.85   22.40
  -4  -3  -5   59.29    4.70
  -4  -3  -5   55.29    6.30
  -4  -3  -5   49.00    6.20
  -4  -3  -5   60.39    6.40
   4   3   5   59.29    5.60
   4   3   5   58.59    7.20
   4   3   5   71.19    9.20
   4   3   5   62.59    7.30
  -5  -3  -5    5.10    3.30
  -5  -3  -5   -8.40    8.50
  -5  -3  -5    7.50    3.60
  -5  -3  -5    8.40    3.00
   5   3   5    9.10    5.40
   5   3   5    1.20    3.50
   5   3   5    5.40    3.00
  -6  -3  -5    8.40    4.50
  -6  -3  -5    2.10    5.20
   6   3   5   -1.20    3.10
   6   3   5    2.40    5.80
   6   3   5   -1.30    5.10
   8  -4  -5   10.20    4.90
  -8   4   5   -6.20    6.00
  -8   4   5    8.30    4.50
  -8   4   5    7.90    4.50
   7  -4  -5  228.58   13.80
   7  -4  -5  189.68   14.40
  -7   4   5  196.58   12.50
  -7   4   5  197.08   12.20
   6  -4  -5  389.66   20.00
  -6   4   5  440.36   18.90
  -6   4   5  423.96   25.30
  -6   4   5  425.86   21.10
  -6   4   5  411.16   18.70
   5  -4  -5  484.15   23.40
  -5   4   5  517.05   25.40
  -5   4   5  550.04   23.40
  -5   4   5  503.15   21.40
  -5   4   5  538.25   21.60
  -5   4   5  536.75   22.20
   4  -4  -5  115.19    7.10
   4  -4  -5  116.09    7.20
   4  -4  -5  101.39    7.70
  -4   4   5  109.69    5.90
  -4   4   5  113.99    5.90
  -4   4   5  118.79    7.00
  -4   4   5  116.29    6.00
  -4   4   5   95.49    7.60
  -4   4   5  109.99    6.40
   3  -4  -5  437.36   19.20
   3  -4  -5  423.96   17.90
   3  -4  -5  404.66   18.80
   3  -4  -5  408.16   16.50
   3  -4  -5  431.26   19.10
  -3   4   5  430.66   17.00
  -3   4   5  422.36   17.10
  -3   4   5  406.26   16.20
  -3   4   5  406.96   16.90
  -3   4   5  440.26   19.90
  -3   4   5  409.66   16.60
  -3   4   5  431.86   16.40
   2  -4  -5   30.90    2.90
   2  -4  -5   24.50    4.20
   2  -4  -5   26.60    3.50
   2  -4  -5   22.20    4.10
   2  -4  -5   26.50    5.10
  -2   4   5   22.30    3.00
  -2   4   5   26.30    3.40
  -2   4   5   23.10    7.20
  -2   4   5   32.50    4.80
  -2   4   5   26.30    3.60
  -2   4   5   28.00    4.60
   1  -4  -5  682.03   27.00
   1  -4  -5  718.23   25.90
   1  -4  -5  687.63   25.80
   1  -4  -5  676.43   27.60
   1  -4  -5  694.03   29.50
  -1   4   5  675.93   26.00
  -1   4   5  709.23   25.50
  -1   4   5  694.83   28.60
  -1   4   5  577.74   25.70
  -1   4   5  661.73   29.10
  -1   4   5  709.03   26.60
  -1   4   5  689.53   28.10
  -1   4   5  660.33   31.20
   0  -4  -5    0.10    1.40
   0  -4  -5    1.30    2.10
   0  -4  -5   -0.30    1.90
   0  -4  -5    4.60    3.50
   0  -4  -5   -0.10    1.60
   0   4   5    2.80    2.20
   0   4   5    0.30    1.80
   0   4   5   -0.10    1.40
   0   4   5    1.00    1.70
   0   4   5    0.10    1.20
   0   4   5    3.10    1.10
   0   4   5    1.00    2.30
  -1  -4  -5  114.19    8.40
  -1  -4  -5  125.69    7.50
  -1  -4  -5  125.19    7.60
  -1  -4  -5  127.59   10.20
   1   4   5  123.09    9.40
   1   4   5  127.59    6.90
   1   4   5  127.29    7.80
   1   4   5  117.39    7.00
   1   4   5  128.09    7.00
   1   4   5  108.59    7.40
  -2  -4  -5   78.09    7.60
  -2  -4  -5   97.59   10.70
  -2  -4  -5   76.39    6.80
  -2  -4  -5   77.19    6.20
   2   4   5   75.99    8.30
   2   4   5   87.39    5.50
   2   4   5   74.39    6.40
   2   4   5   80.79    5.40
   2   4   5   83.19    6.00
  -3  -4  -5   60.19   10.20
  -3  -4  -5   78.19    6.80
  -3  -4  -5   75.19    4.80
  -3  -4  -5   85.89    7.00
   3   4   5   70.09    6.70
   3   4   5   71.19    6.30
   3   4   5   75.09    5.60
   3   4   5   74.99    5.10
   3   4   5   70.49    8.40
  -4  -4  -5   15.80    3.90
  -4  -4  -5    7.70    3.40
  -4  -4  -5   -3.60    5.50
   4   4   5    8.50    4.40
   4   4   5   18.20    6.20
   4   4   5    9.00    2.90
  -5  -4  -5   50.49    8.40
  -5  -4  -5   58.09   12.10
   5   4   5   58.49    8.70
   5   4   5   64.49   10.30
   5   4   5   61.49    8.40
  -6  -4  -5   28.00    7.20
   6   4   5   18.00    4.40
   6   4   5   29.70    7.20
   6   4   5    8.60    6.40
   8  -5  -5    9.30    5.00
  -8   5   5    8.30    4.20
  -8   5   5    5.00    6.60
  -8   5   5   14.90    3.80
   7  -5  -5   14.50    4.80
  -7   5   5   23.60    4.10
   6  -5  -5   30.20    4.80
   6  -5  -5   34.70    5.40
  -6   5   5   51.79    5.60
  -6   5   5   53.89    5.30
   5  -5  -5   89.09   10.70
   5  -5  -5   87.79    6.50
   5  -5  -5   86.89    6.70
  -5   5   5   91.69    5.80
  -5   5   5   89.49    5.90
  -5   5   5   78.09    8.20
  -5   5   5   82.89    6.20
  -5   5   5   80.19    8.20
  -5   5   5   95.49    6.00
   4  -5  -5  230.18   11.20
   4  -5  -5  204.48   12.10
   4  -5  -5  238.78   13.50
  -4   5   5  225.58    9.90
  -4   5   5  235.88   11.70
  -4   5   5  218.68    9.90
  -4   5   5  241.78    9.90
  -4   5   5  189.18   13.00
  -4   5   5  208.98   11.10
   3  -5  -5    7.10    4.70
   3  -5  -5   14.00    3.70
   3  -5  -5   14.10    2.40
   3  -5  -5    8.30    2.70
  -3   5   5   14.00    1.80
  -3   5   5   12.30    4.00
  -3   5   5   13.00    1.90
  -3   5   5   11.80    2.30
  -3   5   5   12.60    1.90
  -3   5   5   11.10    2.20
  -3   5   5   10.90    2.50
   2  -5  -5  366.26   16.20
   2  -5  -5  369.06   15.20
   2  -5  -5  383.86   17.10
   2  -5  -5  385.46   18.00
   2  -5  -5  398.76   16.40
   2  -5  -5  367.26   19.30
  -2   5   5  375.26   14.30
  -2   5   5  390.06   15.30
  -2   5   5  391.66   15.30
  -2   5   5  327.87   18.10
  -2   5   5  377.46   16.90
   1  -5  -5  427.96   19.30
   1  -5  -5  445.36   19.40
   1  -5  -5  424.96   21.50
   1  -5  -5  459.85   18.50
  -1   5   5  453.35   17.70
  -1   5   5  455.25   19.50
  -1   5   5  454.15   17.40
  -1   5   5  479.15   18.30
  -1   5   5  459.25   20.70
  -1   5   5  484.55   18.30
   0  -5  -5  387.26   21.20
   0  -5  -5  414.76   17.60
   0  -5  -5  420.46   18.70
   0  -5  -5  443.56   18.20
   0   5   5  444.46   17.60
   0   5   5  424.66   17.40
   0   5   5  417.36   18.20
   0   5   5  430.06   17.40
   0   5   5  433.76   16.70
   0   5   5  414.56   20.40
  -1  -5  -5    4.40    2.70
  -1  -5  -5    1.90    2.70
  -1  -5  -5    2.70    1.90
  -1  -5  -5   -1.80    3.50
   1   5   5    5.70    2.50
   1   5   5    0.60    2.80
   1   5   5    4.00    1.60
   1   5   5    4.50    2.50
   1   5   5    4.20    2.10
  -2  -5  -5    0.30    3.40
  -2  -5  -5   -1.40    1.90
  -2  -5  -5   -2.70    4.20
  -2  -5  -5    1.30    4.30
   2   5   5   -1.70    3.40
   2   5   5    0.60    2.20
   2   5   5    1.40    1.50
   2   5   5    1.70    2.60
  -3  -5  -5    2.70    5.30
  -3  -5  -5   11.10    4.10
   3   5   5   14.20    4.70
   3   5   5    7.20    4.00
   3   5   5    4.60    2.00
   3   5   5    3.80    3.30
   3   5   5    0.40    2.90
  -4  -5  -5  284.47   16.10
  -4  -5  -5  264.27   12.60
  -4  -5  -5  295.87   20.90
  -4  -5  -5  302.67   16.10
   4   5   5  305.77   13.80
   4   5   5  289.87   16.60
   4   5   5  283.07   18.20
  -5  -5  -5   35.00    7.20
  -5  -5  -5   34.10   10.00
   5   5   5   33.90    7.10
  -8   6   5   48.00    7.60
  -8   6   5   49.20    6.50
   6  -6  -5   84.39    9.30
   6  -6  -5  140.09   16.00
  -6   6   5   97.79    6.90
  -6   6   5   97.49    6.90
   5  -6  -5   45.10    7.40
   5  -6  -5   56.29    5.30
   5  -6  -5   61.49    6.90
   5  -6  -5   58.09   10.00
  -5   6   5   48.70    4.30
  -5   6   5   51.79    5.10
  -5   6   5   57.39    4.50
  -5   6   5   44.70    7.20
  -5   6   5   67.89    6.60
  -5   6   5   44.10    8.00
   4  -6  -5    7.00    3.80
   4  -6  -5    0.40    5.10
   4  -6  -5    6.80    2.20
   4  -6  -5    2.30    3.00
  -4   6   5    7.60    1.90
  -4   6   5    6.40    3.20
  -4   6   5    3.50    3.60
  -4   6   5    4.70    2.00
  -4   6   5    7.70    1.70
   3  -6  -5    1.50    1.90
   3  -6  -5    4.30    2.60
   3  -6  -5    6.60    2.10
   3  -6  -5    1.10    4.10
  -3   6   5    0.50    1.80
  -3   6   5    3.90    2.40
  -3   6   5    5.10    1.20
  -3   6   5    2.20    1.30
   2  -6  -5   18.20    3.00
   2  -6  -5   11.20    2.80
   2  -6  -5   12.10    3.20
  -2   6   5   12.20    2.80
  -2   6   5   12.70    2.70
  -2   6   5   13.90    1.90
  -2   6   5   12.50    1.90
   1  -6  -5  374.96   19.40
   1  -6  -5  357.56   16.80
  -1   6   5  413.06   16.20
  -1   6   5  358.16   17.90
  -1   6   5  353.86   17.40
  -1   6   5  384.46   14.90
  -1   6   5  375.76   15.30
   0  -6  -5   15.50    3.50
   0  -6  -5   18.00    2.90
   0  -6  -5   19.60    5.50
   0  -6  -5   14.40    3.60
   0   6   5   20.10    3.40
   0   6   5   28.80    4.90
   0   6   5   18.30    3.00
   0   6   5   20.00    3.40
   0   6   5   17.60    2.10
   0   6   5   17.00    3.90
  -1  -6  -5   31.80    5.40
  -1  -6  -5   34.80    5.70
  -1  -6  -5   30.20    5.00
  -1  -6  -5   34.10    7.30
   1   6   5   36.20    6.10
   1   6   5   29.30    4.70
   1   6   5   30.70    4.10
   1   6   5   27.00    4.90
   1   6   5   33.70    4.40
  -2  -6  -5   35.30    5.90
  -2  -6  -5   53.89    9.00
   2   6   5   40.10    6.30
   2   6   5   34.90    6.90
   2   6   5   41.60    6.20
   2   6   5   57.29    4.00
   2   6   5   51.09    6.30
   2   6   5   48.10    6.20
  -3  -6  -5   59.59    8.70
  -3  -6  -5   85.69   12.50
  -3  -6  -5   66.99    7.40
   3   6   5   78.89    9.70
   3   6   5   59.99    9.50
   3   6   5   72.49    5.40
  -4  -6  -5   14.40    5.00
   4   6   5    6.40    4.30
   4   6   5   16.40    5.80
   4   6   5   10.50    3.10
   6  -7  -5  122.69    8.90
   6  -7  -5  101.79   11.20
  -6   7   5  128.09   10.50
  -6   7   5  125.19    7.70
  -6   7   5  125.59    7.80
   5  -7  -5   14.10    3.10
   5  -7  -5    8.70    4.00
  -5   7   5    7.00    4.20
  -5   7   5   13.10    2.50
   4  -7  -5   16.40    3.10
   4  -7  -5   18.40    4.10
  -4   7   5   15.40    2.30
  -4   7   5   24.30    3.00
  -4   7   5   17.90    4.30
  -4   7   5   22.40    3.80
   3  -7  -5    6.60    2.70
   3  -7  -5    7.90    3.00
   3  -7  -5    7.90    2.20
  -3   7   5   10.00    2.00
  -3   7   5    2.60    2.20
  -3   7   5    7.20    1.50
  -3   7   5    7.90    3.00
   2  -7  -5    2.50    3.40
   2  -7  -5    5.30    1.80
   2  -7  -5   -1.70    2.40
   2  -7  -5    8.30    2.50
  -2   7   5    1.20    1.20
  -2   7   5    2.70    2.60
   1  -7  -5    1.70    3.00
   1  -7  -5   -0.30    3.40
   1  -7  -5   -2.80    2.00
  -1   7   5    7.00    3.00
  -1   7   5    1.50    1.60
  -1   7   5   -1.40    2.70
   0  -7  -5  274.27   17.00
   0  -7  -5  289.27   14.60
   0  -7  -5  281.27   14.70
   0   7   5  285.27   13.80
   0   7   5  282.27   13.10
   0   7   5  279.67   15.70
   0   7   5  282.17   11.00
  -1  -7  -5  108.09    9.10
  -1  -7  -5  109.79    8.70
  -1  -7  -5   88.79   11.00
   1   7   5  111.99    7.80
   1   7   5  104.19    9.50
   1   7   5  106.09    5.70
  -2  -7  -5   51.89    9.80
   2   7   5   46.90    4.10
   2   7   5   41.10    7.40
   2   7   5   32.70    6.70
  -3  -7  -5   30.40    6.20
  -3  -7  -5   20.50    5.00
  -3  -7  -5   27.50    8.60
   3   7   5   31.30    4.50
   3   7   5   21.30    6.70
   3   7   5   28.30    5.70
   4   7   5   -3.30    5.10
   4   7   5    3.60    4.80
   7  -8  -5   35.20    7.40
  -7   8   5   42.50    6.20
  -7   8   5   41.70    5.80
   6  -8  -5   64.19    6.80
   6  -8  -5   49.10    7.20
  -6   8   5   46.50    9.80
  -6   8   5   54.69    5.30
   5  -8  -5  220.48   12.70
   5  -8  -5  225.98   14.40
  -5   8   5  236.88   10.70
  -5   8   5  224.08   13.90
  -5   8   5  228.78   10.90
   4  -8  -5  314.17   16.20
   4  -8  -5  319.67   15.40
  -4   8   5  302.07   13.50
  -4   8   5  305.07   12.90
  -4   8   5  288.07   14.80
   3  -8  -5  122.59    8.70
   3  -8  -5  136.49    8.30
  -3   8   5  111.19    5.90
  -3   8   5  114.99    8.00
  -3   8   5  106.99    7.00
  -3   8   5  111.09    8.20
   2  -8  -5    3.70    4.30
   2  -8  -5    5.10    2.50
   2  -8  -5    6.90    4.00
   2  -8  -5    8.90    3.60
  -2   8   5    6.80    2.80
  -2   8   5    4.50    1.90
  -2   8   5    7.60    3.40
   1  -8  -5   20.80    4.40
   1  -8  -5   20.00    4.50
   1  -8  -5   17.80    4.90
  -1   8   5   24.40    3.80
  -1   8   5   23.60    4.90
   0  -8  -5   34.70    6.70
   0  -8  -5   42.00    8.40
   0   8   5   39.00    6.30
   0   8   5   42.10    5.00
  -1  -8  -5    3.40    5.50
  -1  -8  -5    2.20    5.30
   1   8   5    6.80    3.70
   1   8   5   -3.40    4.10
  -2  -8  -5  120.19   13.10
  -2  -8  -5   87.89   10.40
   2   8   5  104.29    9.20
   2   8   5  112.59   10.50
  -3  -8  -5    1.00    7.60
   3   8   5   -0.10    4.80
   3   8   5   -6.70    4.40
   6  -9  -5   62.29    7.20
  -6   9   5   70.19    5.90
  -6   9   5   76.09    6.30
  -6   9   5   62.59   12.10
   5  -9  -5  193.38   11.70
  -5   9   5  205.58   13.50
  -5   9   5  196.78    9.70
  -5   9   5  199.18   10.00
   4  -9  -5   23.20    4.90
   4  -9  -5   25.80    4.50
  -4   9   5   33.60    5.80
  -4   9   5   26.20    3.30
  -4   9   5   23.80    3.40
   3  -9  -5  196.08   11.10
   3  -9  -5  187.08   11.00
   3  -9  -5  189.18   12.10
  -3   9   5  177.38    8.60
  -3   9   5  182.68   10.90
   2  -9  -5    9.70    3.10
   2  -9  -5    3.50    3.90
  -2   9   5    1.50    1.90
  -2   9   5   -0.50    2.60
   1  -9  -5    1.70    4.10
   1  -9  -5   -0.60    2.90
  -1   9   5    1.90    2.40
  -1   9   5   -0.70    3.20
   0  -9  -5    6.80    4.90
   0   9   5    8.90    2.80
   0   9   5    0.40    3.60
  -1  -9  -5   12.90    6.10
  -1  -9  -5    2.10    4.50
   1   9   5   21.90    4.50
   1   9   5   13.30    4.80
   2   9   5    6.40    5.30
   2   9   5   10.40    4.40
   5 -10  -5    3.70    5.20
   5 -10  -5    3.10    3.30
  -5  10   5    3.80    2.30
  -5  10   5    3.00    2.50
  -5  10   5   -2.70    5.80
   4 -10  -5  187.28   12.10
  -4  10   5  174.68    8.90
  -4  10   5  196.98    9.90
  -4  10   5  162.68   11.70
   3 -10  -5  169.18   10.10
   3 -10  -5  150.68   10.50
  -3  10   5  136.09   10.20
   2 -10  -5   60.49    8.30
  -2  10   5   60.79    7.30
  -2  10   5   67.29    5.80
   1 -10  -5   71.59    8.80
   1 -10  -5   79.59    9.00
  -1  10   5   69.69    8.00
  -1  10   5   83.29    6.90
   0 -10  -5   -5.60    4.20
   0 -10  -5   -7.60    4.90
   0  10   5    0.00    3.10
   0 -12   6   35.40    7.00
   0 -12   6   38.30    8.50
  -1  12  -6    8.00    9.50
  -1  12  -6   14.00    4.50
   1 -12   6   27.90    6.70
   1 -12   6    8.20    9.90
  -2  12  -6    6.10   10.20
   2 -12   6   19.00    9.80
   2 -12   6   14.40    4.30
  -3  12  -6   -3.40    2.20
  -3  12  -6   -4.20   11.50
  -3  12  -6   -0.90    3.20
   3 -12   6    5.50    3.70
   3 -12   6  -29.00   19.10
  -4  12  -6   76.79   15.20
  -4  12  -6   72.49    5.70
  -4  12  -6   78.39    7.30
   4 -12   6   92.89   19.00
   4 -12   6   73.09    7.40
   2  11  -6   12.60    5.30
   2  11  -6    6.90    6.60
  -2 -11   6  -11.30    7.30
  -2 -11   6    8.10    5.20
   1  11  -6    5.30    6.70
   1  11  -6    8.40    4.20
  -1 -11   6   16.70    4.70
  -1 -11   6   13.10    5.00
  -1 -11   6    6.80    6.00
  -1 -11   6   10.20    6.20
   0  11  -6   53.39    7.50
   0  11  -6   36.70    9.80
   0 -11   6   65.79   10.90
   0 -11   6   62.49    5.60
   0 -11   6   50.69    7.10
   0 -11   6   60.69    8.70
   0 -11   6   87.59   12.40
  -1  11  -6   -4.60    8.20
  -1  11  -6    2.00    3.60
   1 -11   6   -4.20    5.80
   1 -11   6    9.60    8.20
  -2  11  -6    0.50    3.20
  -2  11  -6   -0.90   10.20
   2 -11   6   -1.10    6.70
   2 -11   6   -6.00    3.40
   2 -11   6   -0.40    3.00
  -3  11  -6   54.79    5.50
  -3  11  -6   73.89   14.80
  -3  11  -6   54.69    6.20
   3 -11   6   44.20   12.20
   3 -11   6   61.19    6.60
   3 -11   6   54.79    5.30
  -4  11  -6   42.60    4.30
  -4  11  -6   33.80   10.90
   4 -11   6   73.39   15.20
   4 -11   6   50.49    6.00
   4 -11   6   49.40    5.60
  -5  11  -6  335.67   16.70
  -5  11  -6  342.97   25.90
  -5  11  -6  327.17   14.70
   5 -11   6  338.27   15.60
   5 -11   6  487.95   87.19
   3  10  -6   10.90    6.10
   3  10  -6   15.10    5.50
  -3 -10   6    8.20    6.10
  -3 -10   6   17.30    6.50
   2  10  -6   -7.00    4.30
   2  10  -6    0.80    5.10
  -2 -10   6    2.50    4.70
   1  10  -6   22.30    5.40
   1  10  -6   12.10    6.30
  -1 -10   6   15.10    4.70
  -1 -10   6   28.30    4.90
   0  10  -6  104.69   14.70
   0  10  -6  140.79   10.00
   0 -10   6  126.59   11.70
   0 -10   6  132.19    9.30
   0 -10   6  142.29    7.70
   0 -10   6  139.39   11.60
  -1  10  -6    1.70    3.10
  -1  10  -6    5.00    7.60
   1 -10   6    6.50    3.30
   1 -10   6   -8.10    4.30
  -2  10  -6  123.19   16.70
  -2  10  -6  121.29    8.50
   2 -10   6  118.99    8.10
   2 -10   6  114.39   12.90
   2 -10   6  114.39    8.90
  -3  10  -6   21.70    3.10
  -3  10  -6    5.20   10.90
  -3  10  -6   12.90    5.00
   3 -10   6   -3.00    7.70
   3 -10   6   17.70    3.40
   3 -10   6   16.20    3.20
  -4  10  -6    0.70    9.00
  -4  10  -6   -1.70    2.40
  -4  10  -6    1.00    1.60
   4 -10   6    3.80    2.30
   4 -10   6  -13.90   11.50
   4 -10   6    0.40    2.60
  -5  10  -6   29.90   11.60
  -5  10  -6   35.00    4.00
  -5  10  -6   39.90    5.90
   5 -10   6   30.10    5.20
   5 -10   6   42.80    4.60
   5 -10   6   28.80   21.10
  -6  10  -6   30.30    5.30
   6 -10   6   38.50    5.40
   6 -10   6   97.19   26.20
   6 -10   6   47.50    4.50
   4   9  -6    3.70    5.10
   4   9  -6   13.30    5.00
  -4  -9   6   15.30    6.20
  -4  -9   6    1.70    6.80
  -4  -9   6    4.50    5.30
   3   9  -6  190.38   13.10
  -3  -9   6  222.78   13.60
  -3  -9   6  163.38   15.10
  -3  -9   6  185.98   14.00
   2   9  -6    8.20    4.50
   2   9  -6    9.00    3.60
  -2  -9   6    7.00    5.10
  -2  -9   6   13.40    6.90
  -2  -9   6   15.70    4.50
   1   9  -6   13.60    4.90
   1   9  -6   16.30    4.30
  -1  -9   6   11.10    3.40
  -1  -9   6    8.20    4.10
  -1  -9   6   18.30    4.80
   0   9  -6   38.60    7.90
   0   9  -6   57.89    6.10
   0  -9   6   43.50    6.30
   0  -9   6   52.69    7.80
   0  -9   6   60.29    6.10
   0  -9   6   43.90    5.20
   0  -9   6   48.10    8.40
   0  -9   6   45.30    4.10
  -1   9  -6  155.08   14.80
  -1   9  -6  159.58   10.00
  -1   9  -6  153.88   11.10
   1  -9   6  166.58   13.60
   1  -9   6  157.78   11.90
   1  -9   6  174.38    9.80
   1  -9   6  173.48   10.60
  -2   9  -6  216.78   11.30
  -2   9  -6  192.98   12.90
  -2   9  -6  186.48   18.10
   2  -9   6  207.98   11.00
   2  -9   6  234.08   15.30
   2  -9   6  201.58   11.50
  -3   9  -6  124.49    6.60
  -3   9  -6  124.09   15.10
  -3   9  -6  118.79    7.90
   3  -9   6  130.19    7.60
   3  -9   6  166.68   17.60
   3  -9   6  129.59    8.60
  -4   9  -6   30.30    3.10
  -4   9  -6   27.70    4.40
  -4   9  -6   29.20    9.70
   4  -9   6   30.90    3.80
   4  -9   6   24.40    4.10
   4  -9   6   31.10   12.90
  -5   9  -6   22.90    3.40
   5  -9   6   12.60   18.50
   5  -9   6   14.60    3.40
   5  -9   6   18.50    3.40
  -6   9  -6  174.28   12.00
  -6   9  -6  176.58   10.10
  -6   9  -6  176.68   11.00
   6  -9   6   97.49   26.50
   6  -9   6  165.28   10.00
   5   8  -6   -2.70    4.30
   5   8  -6    2.80    5.00
  -5  -8   6    5.90    5.70
  -5  -8   6    2.70    6.90
   4   8  -6  294.47   16.40
   4   8  -6  314.27   17.90
  -4  -8   6  323.57   18.90
  -4  -8   6  350.36   19.60
  -4  -8   6  318.47   19.50
   3   8  -6  305.37   16.70
   3   8  -6  334.17   17.70
  -3  -8   6  331.67   18.10
  -3  -8   6  303.87   18.10
  -3  -8   6  329.47   18.80
   2   8  -6   84.99    7.70
   2   8  -6   69.69    7.80
  -2  -8   6   73.59    8.50
  -2  -8   6   70.69    7.60
  -2  -8   6   77.09    8.10
   1   8  -6   12.20    3.30
   1   8  -6   11.80    4.30
  -1  -8   6    5.30    1.70
  -1  -8   6    6.00    3.10
  -1  -8   6    3.60    4.00
  -1  -8   6    6.00    2.60
   0   8  -6  102.19    7.70
   0   8  -6   97.49   10.40
   0  -8   6  106.19    8.90
   0  -8   6  113.69    8.40
   0  -8   6   93.49    6.50
   0  -8   6   99.89    7.40
   0  -8   6  105.29    9.00
  -1   8  -6   83.89   12.20
  -1   8  -6   99.99    7.30
  -1   8  -6  117.09   12.30
   1  -8   6   96.49    7.20
   1  -8   6  102.79    7.50
   1  -8   6  107.29    8.90
   1  -8   6   95.29    7.50
   1  -8   6   99.59    8.00
  -2   8  -6   53.79    6.30
  -2   8  -6   53.09    5.10
  -2   8  -6   52.89   11.10
   2  -8   6   51.59    5.30
   2  -8   6   76.39    8.20
   2  -8   6   57.19    5.70
  -3   8  -6   17.00    2.30
  -3   8  -6   19.90    3.40
  -3   8  -6   14.70    7.40
  -3   8  -6   21.20    4.40
   3  -8   6   14.80    6.90
   3  -8   6   14.80    2.70
   3  -8   6   16.30    3.20
  -4   8  -6   21.60    3.60
  -4   8  -6   25.00    2.70
  -4   8  -6   22.30    9.10
   4  -8   6   21.20    2.90
   4  -8   6    9.50   12.00
   4  -8   6   18.70    3.40
  -5   8  -6   21.10    3.20
  -5   8  -6   29.90    5.80
  -5   8  -6   22.00    3.80
   5  -8   6   15.00    3.10
   5  -8   6   20.50    3.10
   5  -8   6    8.90   14.60
  -6   8  -6   11.70    4.00
   6  -8   6   16.70   16.90
  -7   8  -6   97.79    8.00
  -7   8  -6   76.39    8.10
   7  -8   6  121.39   22.80
   7  -8   6   79.29    7.20
   5   7  -6   30.10    7.00
   5   7  -6   24.30    4.80
   5   7  -6   19.30    4.40
  -5  -7   6   23.20    6.00
  -5  -7   6   30.20    7.20
   4   7  -6   87.49    7.90
   4   7  -6   84.79    7.60
   4   7  -6   93.99    9.00
  -4  -7   6  106.09   10.30
  -4  -7   6   94.69   10.50
   3   7  -6  148.69   10.10
   3   7  -6  137.79    8.90
   3   7  -6  136.89    9.60
  -3  -7   6  136.69   10.70
  -3  -7   6  133.79   11.00
  -3  -7   6  143.69   10.90
   2   7  -6  310.87   16.20
   2   7  -6  299.87   16.30
  -2  -7   6  325.47   17.20
  -2  -7   6  337.77   16.20
  -2  -7   6  300.87   17.00
  -2  -7   6  322.77   12.90
   1   7  -6   31.60    4.80
   1   7  -6   28.00    5.80
  -1  -7   6   35.00    4.50
  -1  -7   6   34.50    5.70
  -1  -7   6   34.10    3.70
  -1  -7   6   32.00    5.50
   0   7  -6   22.80    3.70
   0   7  -6   26.40    4.30
   0   7  -6   14.00    5.20
   0  -7   6   16.70    3.10
   0  -7   6   26.40    4.20
   0  -7   6   21.80    2.50
   0  -7   6   26.40    5.00
  -1   7  -6   10.70    2.70
  -1   7  -6    3.20    5.40
  -1   7  -6    6.30    2.40
   1  -7   6   13.30    3.60
   1  -7   6    8.60    3.10
   1  -7   6   11.90    3.40
   1  -7   6   10.80    2.60
   1  -7   6   12.00    2.80
  -2   7  -6  590.64   24.60
  -2   7  -6  578.54   32.40
  -2   7  -6  601.44   26.30
   2  -7   6  611.34   24.50
   2  -7   6  609.64   28.00
   2  -7   6  609.44   25.40
  -3   7  -6  717.63   28.70
  -3   7  -6  695.53   26.40
  -3   7  -6  670.33   35.90
   3  -7   6  707.03   29.00
   3  -7   6  698.53   34.90
   3  -7   6  693.03   27.10
  -4   7  -6  117.69    5.90
  -4   7  -6  123.59    8.00
  -4   7  -6  102.49    6.90
   4  -7   6  104.29    5.70
   4  -7   6  101.49    7.60
  -5   7  -6  316.47   15.00
  -5   7  -6  312.77   13.80
  -5   7  -6  313.27   14.90
   5  -7   6  295.67   15.30
  -6   7  -6    6.30    5.10
  -6   7  -6    1.60    2.50
  -6   7  -6    3.00    3.30
   6  -7   6  -23.30   15.50
   6  -7   6   -3.20    2.60
  -7   7  -6    1.60    3.60
  -7   7  -6    8.20    3.70
   7  -7   6   -0.60   18.30
   7  -7   6    9.30    3.30
   6   6  -6   83.79    9.40
   6   6  -6   78.39   10.40
   6   6  -6   68.49    7.00
  -6  -6   6   81.99   11.60
  -6  -6   6   96.39   11.60
  -6  -6   6   79.19   10.70
  -6  -6   6   95.49   14.00
   5   6  -6   56.39    7.40
   5   6  -6   45.10    5.80
   5   6  -6   45.80    7.80
  -5  -6   6   40.20    9.40
  -5  -6   6   49.00    7.00
  -5  -6   6   30.10    5.60
   4   6  -6   19.30    4.60
   4   6  -6   20.00    3.90
   4   6  -6   10.30    3.20
  -4  -6   6   11.80    3.40
  -4  -6   6   19.30    5.10
  -4  -6   6   19.10    4.70
   3   6  -6  943.21   38.90
   3   6  -6  922.61   37.30
   3   6  -6  927.91   37.80
  -3  -6   6  949.40   40.10
  -3  -6   6  907.61   39.50
  -3  -6   6  966.40   39.30
   2   6  -6   42.50    5.50
   2   6  -6   33.90    5.00
  -2  -6   6   40.20    6.20
  -2  -6   6   44.40    5.90
  -2  -6   6   39.50    5.70
   1   6  -6 1101.99   45.50
   1   6  -6 1100.09   43.40
   1   6  -6 1049.70   42.20
  -1  -6   6 1124.49   41.60
  -1  -6   6 1094.59   44.30
  -1  -6   6 1073.99   44.20
  -1  -6   6 1130.19   41.80
   0   6  -6  167.98   13.10
   0   6  -6  194.78    9.60
   0   6  -6  190.98   10.00
   0   6  -6  182.38    9.00
   0  -6   6  181.28   10.50
   0  -6   6  190.48   11.00
   0  -6   6  182.38   10.60
   0  -6   6  176.18    9.90
   0  -6   6  183.28   10.20
  -1   6  -6   16.40    2.90
  -1   6  -6   20.10    6.30
  -1   6  -6   14.00    2.90
   1  -6   6   11.70    2.80
   1  -6   6   18.00    3.20
   1  -6   6   16.00    3.70
   1  -6   6   14.30    2.70
   1  -6   6   21.90    4.20
  -2   6  -6  842.62   31.70
  -2   6  -6  818.32   30.10
  -2   6  -6  811.92   31.70
  -2   6  -6  740.33   38.70
   2  -6   6  823.82   32.90
   2  -6   6  804.72   35.00
  -3   6  -6  116.89    5.50
  -3   6  -6  105.39    7.50
  -3   6  -6  116.59    6.80
  -3   6  -6  123.49   12.90
   3  -6   6  114.99    5.80
   3  -6   6  114.99    7.90
   3  -6   6  112.09   13.70
  -4   6  -6  223.88   11.30
  -4   6  -6  231.18   10.30
  -4   6  -6  227.08   12.00
   4  -6   6  219.48   11.90
   4  -6   6  234.08    9.70
   4  -6   6  209.88   23.40
  -5   6  -6   13.90    2.90
  -5   6  -6   14.30    2.90
  -5   6  -6   16.10    2.80
   5  -6   6   15.40    3.60
   5  -6   6   27.90   10.00
  -6   6  -6   63.39    6.10
  -6   6  -6   37.80    5.60
  -6   6  -6   60.99    6.60
   6  -6   6   49.40    6.00
  -7   6  -6    4.60    3.70
  -7   6  -6    7.60    3.70
   7  -6   6   13.10    3.40
   7  -6   6   41.40   17.20
   6   5  -6   14.70    4.90
   6   5  -6   16.40    4.70
  -6  -5   6   12.10    5.60
  -6  -5   6    8.50    4.70
  -6  -5   6   14.00    5.40
   5   5  -6    2.50    3.70
   5   5  -6    2.30    2.60
   5   5  -6    7.30    3.50
  -5  -5   6    6.40    3.90
  -5  -5   6    3.70    4.60
  -5  -5   6    7.20    4.70
   4   5  -6   84.39    7.30
   4   5  -6   79.29    6.10
   4   5  -6   78.39    7.40
  -4  -5   6   73.29    8.10
  -4  -5   6   81.79    7.60
  -4  -5   6   85.49    9.10
  -4  -5   6   78.69    8.10
   3   5  -6   87.49    6.90
   3   5  -6   85.09    6.30
   3   5  -6   84.69    7.00
  -3  -5   6   66.79    7.50
  -3  -5   6   92.29    5.10
  -3  -5   6   86.79    7.40
  -3  -5   6   87.89    7.60
  -3  -5   6   89.89    7.00
  -3  -5   6   73.19    7.40
   2   5  -6 1207.58   46.40
   2   5  -6 1237.18   47.60
   2   5  -6 1225.18   45.80
   2   5  -6 1241.48   47.10
  -2  -5   6 1244.48   45.00
  -2  -5   6 1148.29   47.60
  -2  -5   6 1204.58   47.30
  -2  -5   6 1152.98   46.00
  -2  -5   6 1183.08   48.10
  -2  -5   6 1110.79   46.10
   1   5  -6   46.10    4.50
   1   5  -6   54.69    6.30
   1   5  -6   49.40    4.50
  -1  -5   6   56.59    5.20
  -1  -5   6   51.19    5.50
  -1  -5   6   52.29    4.80
  -1  -5   6   53.79    3.80
  -1  -5   6   62.99    5.50
  -1  -5   6   46.70    4.70
   0   5  -6   84.29    5.60
   0   5  -6   77.99    6.90
   0   5  -6   92.09    5.40
   0   5  -6   67.59    8.90
   0   5  -6   88.29    7.70
   0  -5   6   83.39    6.20
   0  -5   6   82.49    6.20
   0  -5   6   81.09    6.40
   0  -5   6   81.49    6.10
   0  -5   6   88.09    6.40
   0  -5   6   83.09    6.50
  -1   5  -6   54.79    8.20
  -1   5  -6   66.29    4.70
  -1   5  -6   71.19    6.30
  -1   5  -6   62.29    6.80
   1  -5   6   77.29    6.20
   1  -5   6   65.49    5.50
   1  -5   6   68.99    5.40
   1  -5   6   76.29    6.80
   1  -5   6   66.69    5.80
  -2   5  -6  449.16   19.60
  -2   5  -6  457.65   18.80
  -2   5  -6  446.86   20.90
  -2   5  -6  475.85   20.20
  -2   5  -6  440.86   21.20
  -2   5  -6  483.45   17.40
  -2   5  -6  394.56   24.50
   2  -5   6  451.75   22.90
   2  -5   6  475.65   20.40
   2  -5   6  487.75   18.10
   2  -5   6  457.35   19.80
  -3   5  -6  311.57   13.90
  -3   5  -6  330.77   15.10
  -3   5  -6  317.17   12.70
  -3   5  -6  310.37   14.80
   3  -5   6  268.97   21.40
   3  -5   6  307.47   15.00
   3  -5   6  319.27   12.30
  -4   5  -6   27.90    3.60
  -4   5  -6   27.10    4.70
  -4   5  -6   20.00    3.00
   4  -5   6   17.90    3.40
  -5   5  -6   38.30    4.70
  -5   5  -6   41.20    5.40
  -5   5  -6   35.60    4.30
  -5   5  -6   38.00    3.80
   5  -5   6   21.90   10.00
   5  -5   6   35.20    4.90
  -6   5  -6   34.80    5.30
  -7   5  -6   69.39    7.80
  -7   5  -6   60.89    8.00
  -7   5  -6   88.49    9.00
   7  -5   6   62.59    6.70
   7  -5   6  111.49   22.60
   7   4  -6   58.69   12.20
  -7  -4   6   89.39   11.80
  -7  -4   6   73.29   10.80
  -7  -4   6   84.09   10.90
   6   4  -6  176.38    9.70
   6   4  -6  198.18   13.20
   6   4  -6  188.08   12.60
  -6  -4   6  193.48   13.30
  -6  -4   6  197.98   13.80
   5   4  -6   10.50    2.50
   5   4  -6   12.00    4.00
   5   4  -6   12.60    4.20
  -5  -4   6   15.90    4.10
  -5  -4   6    9.20    4.50
  -5  -4   6   16.90    4.70
   4   4  -6   -1.00    2.50
   4   4  -6   -1.70    2.50
   4   4  -6    0.90    1.80
  -4  -4   6   -0.90    2.90
  -4  -4   6    0.50    2.50
  -4  -4   6   -3.50    2.70
  -4  -4   6    1.30    3.10
   3   4  -6   22.50    3.70
   3   4  -6   13.40    3.00
   3   4  -6   15.20    3.30
  -3  -4   6   11.80    3.00
  -3  -4   6   24.10    4.30
  -3  -4   6   14.00    2.30
  -3  -4   6   19.10    4.30
  -3  -4   6   16.40    2.90
  -3  -4   6   14.70    3.50
   2   4  -6  671.03   28.70
   2   4  -6  703.43   27.40
   2   4  -6  738.93   30.10
   2   4  -6  682.53   28.60
  -2  -4   6  696.03   27.80
  -2  -4   6  736.93   29.20
  -2  -4   6  680.73   29.50
  -2  -4   6  665.13   29.10
  -2  -4   6  698.63   27.70
  -2  -4   6  702.93   28.00
  -2  -4   6  713.33   27.50
   1   4  -6  362.86   17.60
   1   4  -6  384.86   18.10
   1   4  -6  405.76   17.20
   1   4  -6  392.46   17.70
   1   4  -6  417.16   16.10
  -1  -4   6  417.16   16.80
  -1  -4   6  372.86   17.20
  -1  -4   6  386.76   15.10
  -1  -4   6  364.96   17.40
  -1  -4   6  381.26   17.90
  -1  -4   6  416.86   17.20
   0   4  -6  929.11   33.90
   0   4  -6  937.11   35.20
   0   4  -6  907.51   36.00
   0   4  -6  891.61   36.10
   0  -4   6  901.61   36.00
   0  -4   6  969.30   36.60
   0  -4   6  862.21   35.70
   0  -4   6  844.32   36.00
   0  -4   6  911.01   35.30
   0  -4   6  907.71   35.80
  -1   4  -6 1779.12   67.49
  -1   4  -6 1736.23   66.19
  -1   4  -6 1819.02   67.49
   1  -4   6 1745.73   67.79
   1  -4   6 1952.70   71.39
   1  -4   6 1798.02   66.69
   1  -4   6 1793.92   68.09
   1  -4   6 1735.73   66.79
  -2   4  -6  227.58    8.90
  -2   4  -6  225.08   10.10
  -2   4  -6  223.88   12.60
  -2   4  -6  234.18   11.30
  -2   4  -6  214.38   12.40
  -2   4  -6  204.48   11.00
   2  -4   6  227.28   11.60
   2  -4   6  203.78   14.50
   2  -4   6  221.48    8.80
   2  -4   6  225.98   10.90
   2  -4   6  208.48   15.10
  -3   4  -6 1064.29   42.40
  -3   4  -6 1097.39   41.40
  -3   4  -6 1128.49   41.80
  -3   4  -6 1051.89   40.50
   3  -4   6 1086.39   42.70
   3  -4   6 1077.89   41.60
   3  -4   6 1047.50   49.90
  -4   4  -6   41.50    3.90
  -4   4  -6   47.00    4.30
  -4   4  -6   32.30    3.90
  -4   4  -6   45.00    5.10
  -4   4  -6   42.50    5.40
   4  -4   6   38.60    4.90
   4  -4   6   40.60    3.20
   4  -4   6   35.90    8.60
  -5   4  -6    3.30    1.40
  -5   4  -6   11.60    3.00
  -5   4  -6    4.50    2.90
  -5   4  -6    3.40    2.00
   5  -4   6    1.80    7.00
   5  -4   6    0.10    2.20
  -6   4  -6  132.09    9.30
  -6   4  -6  145.89    8.60
  -6   4  -6  107.59    8.10
  -6   4  -6  124.89    8.50
   6  -4   6  110.29    8.70
   6  -4   6  166.98   22.80
  -7   4  -6   10.60    4.30
  -7   4  -6   13.30    5.30
  -7   4  -6    9.10    3.90
   7  -4   6    6.70    3.50
   7   3  -6  306.47   17.40
  -7  -3   6  263.37   16.40
  -7  -3   6  264.57   18.40
  -7  -3   6  286.47   17.50
   6   3  -6   76.29    8.50
   6   3  -6   89.39    5.70
   6   3  -6   85.09    8.70
  -6  -3   6   82.49    9.40
  -6  -3   6   69.79   10.20
  -6  -3   6   87.89    8.90
   5   3  -6  277.77   15.00
   5   3  -6  304.97   15.70
  -5  -3   6  281.57   15.60
  -5  -3   6  286.27   16.60
  -5  -3   6  291.37   14.90
   4   3  -6  208.18   11.90
   4   3  -6  225.88   10.70
   4   3  -6  221.78   11.90
  -4  -3   6  213.28   11.40
  -4  -3   6  211.88   12.20
  -4  -3   6  217.98   11.50
  -4  -3   6  220.78   13.20
  -4  -3   6  207.88   13.00
   3   3  -6    2.40    2.20
   3   3  -6   -1.40    1.60
   3   3  -6    0.50    2.40
  -3  -3   6   -0.40    1.50
  -3  -3   6    1.00    1.60
  -3  -3   6   -1.10    1.90
  -3  -3   6    0.00    1.90
  -3  -3   6   -0.40    1.60
  -3  -3   6    1.30    2.90
   2   3  -6  920.21   34.60
   2   3  -6  945.71   36.70
   2   3  -6  806.72   37.50
   2   3  -6  927.51   36.90
   2   3  -6  920.61   36.10
   2   3  -6  962.30   36.10
  -2  -3   6  927.61   35.50
  -2  -3   6  879.81   36.00
  -2  -3   6  949.31   35.50
  -2  -3   6  922.81   37.20
  -2  -3   6  894.31   36.40
  -2  -3   6  950.10   34.80
   1   3  -6    3.80    1.10
   1   3  -6    1.50    1.90
   1   3  -6    3.30    2.20
   1   3  -6    3.50    2.30
   1   3  -6    2.60    1.50
  -1  -3   6    3.00    1.80
  -1  -3   6    7.60    2.50
  -1  -3   6    3.30    0.60
  -1  -3   6    4.60    1.80
  -1  -3   6    4.20    1.70
  -1  -3   6    4.10    1.30
  -1  -3   6    3.10    1.80
  -1  -3   6    2.90    0.70
   0   3  -6 1874.81   68.59
   0   3  -6 1915.41   69.59
   0   3  -6 1963.90   69.49
   0   3  -6 1776.92   69.19
   0   3  -6 1892.41   67.29
   0  -3   6 1901.21   68.79
   0  -3   6 1772.52   72.79
   0  -3   6 1819.62   69.09
   0  -3   6 1831.62   70.19
   0  -3   6 1916.41   70.19
   0  -3   6 1830.02   69.19
  -1   3  -6    1.80    2.00
  -1   3  -6    0.70    0.90
  -1   3  -6    6.60    1.90
  -1   3  -6    2.90    1.70
  -1   3  -6    3.50    2.10
  -1   3  -6    2.40    0.50
   1  -3   6    3.80    1.50
   1  -3   6    2.40    2.70
   1  -3   6    3.00    1.60
   1  -3   6    5.50    4.00
   1  -3   6   -1.40    1.80
  -2   3  -6  665.03   28.00
  -2   3  -6  689.23   26.00
  -2   3  -6  615.64   27.90
  -2   3  -6  613.24   27.00
  -2   3  -6  696.63   24.60
  -2   3  -6  704.43   25.90
   2  -3   6  640.04   32.50
   2  -3   6  666.43   31.10
   2  -3   6  624.94   27.20
  -3   3  -6 1398.26   50.69
  -3   3  -6 1399.36   49.99
  -3   3  -6 1337.97   50.99
   3  -3   6 1311.67   58.69
   3  -3   6 1354.76   50.49
   3  -3   6 1360.36   49.10
   3  -3   6 1303.57   50.79
   3  -3   6 1337.97   52.39
  -4   3  -6    7.20    2.20
  -4   3  -6   12.20    3.40
  -4   3  -6   11.00    2.10
   4  -3   6   12.60    2.60
   4  -3   6    9.90    5.20
   4  -3   6   11.30    3.00
   4  -3   6    8.00    1.50
  -5   3  -6   83.19    7.10
  -5   3  -6   89.09    6.20
  -5   3  -6   96.19    6.00
  -5   3  -6   93.79    7.50
  -5   3  -6   87.99    4.50
   5  -3   6   81.29    6.80
   5  -3   6   81.99    5.60
   5  -3   6   75.89   12.20
  -6   3  -6  164.38    9.80
  -6   3  -6  152.58    9.60
  -6   3  -6  155.58   10.70
  -6   3  -6  160.08    9.50
   6  -3   6  147.39    9.80
   6  -3   6  158.78   22.80
  -7   3  -6    5.70    4.00
  -7   3  -6    5.00    4.00
  -7   3  -6   15.20    5.30
   7  -3   6    3.60    3.20
   8   2  -6   34.10   10.40
   8   2  -6   32.90    6.60
  -8  -2   6   28.70    6.20
  -8  -2   6   28.70    6.60
  -8  -2   6   19.90    8.60
   7   2  -6   21.10    5.90
   7   2  -6   26.40    4.60
  -7  -2   6   20.70    5.80
  -7  -2   6   19.10    6.00
  -7  -2   6   30.70    6.20
   6   2  -6  116.89    9.20
   6   2  -6  103.99    5.90
   6   2  -6  104.29    9.70
  -6  -2   6  111.69   10.40
  -6  -2   6  110.29    9.20
  -6  -2   6  117.69    9.90
   5   2  -6    1.00    1.70
   5   2  -6    3.20    3.00
   5   2  -6   -0.20    2.80
  -5  -2   6    1.10    2.20
  -5  -2   6    4.40    3.00
  -5  -2   6    2.70    2.50
   4   2  -6   68.59    6.70
   4   2  -6   74.49    5.50
   4   2  -6   72.19    6.50
  -4  -2   6   68.29    5.20
  -4  -2   6   71.79    6.40
  -4  -2   6   79.69    5.80
  -4  -2   6   69.39    6.70
   3   2  -6   18.20    3.10
   3   2  -6   11.60    2.90
   3   2  -6   12.90    3.30
   3   2  -6   17.80    2.70
   3   2  -6   18.80    3.30
   3   2  -6   16.80    3.10
  -3  -2   6   15.30    3.20
  -3  -2   6   19.60    2.50
  -3  -2   6   17.80    3.40
  -3  -2   6   19.90    3.10
  -3  -2   6   11.30    2.50
   2   2  -6 2430.06   87.59
   2   2  -6 2435.56   88.59
   2   2  -6 2411.16   86.69
   2   2  -6 2272.57   87.79
   2   2  -6 2368.76   86.69
   2   2  -6 2360.86   85.29
  -2  -2   6 2376.06   86.79
  -2  -2   6 2383.16   85.49
  -2  -2   6 2205.98   86.79
  -2  -2   6 2348.76   85.89
  -2  -2   6 2388.06   86.89
  -2  -2   6 2314.17   87.89
   1   2  -6   18.00    4.00
   1   2  -6   17.60    2.30
   1   2  -6   17.70    3.20
   1   2  -6   18.90    4.00
   1   2  -6   18.80    1.60
  -1  -2   6   17.70    2.60
  -1  -2   6   18.50    1.70
  -1  -2   6   16.20    3.10
  -1  -2   6   16.80    3.80
  -1  -2   6   18.10    1.90
  -1  -2   6   17.40    3.20
   0   2  -6  173.18    7.20
   0   2  -6  166.08    8.50
   0   2  -6  165.78    7.60
   0   2  -6  175.38    8.50
   0  -2   6  171.18    8.40
   0  -2   6  181.08   11.90
   0  -2   6  178.18    8.10
   0  -2   6  166.88    9.60
   0  -2   6  160.68    8.70
  -1   2  -6   37.00    4.10
  -1   2  -6   33.50    3.50
  -1   2  -6   33.10    4.90
  -1   2  -6   39.60    3.20
  -1   2  -6   32.60    1.70
  -1   2  -6   41.60    4.20
  -1   2  -6   32.10    2.60
   1  -2   6   40.90    6.90
   1  -2   6   29.40    4.00
   1  -2   6   33.90    2.70
   1  -2   6   30.30    3.20
   1  -2   6   31.20    6.10
   1  -2   6   31.30    2.90
  -2   2  -6  102.29    5.30
  -2   2  -6   90.59    7.00
  -2   2  -6  105.99    5.80
  -2   2  -6   98.29    7.80
  -2   2  -6   99.49    4.70
  -2   2  -6   92.59    9.40
   2  -2   6   93.69    6.70
   2  -2   6  100.19    5.60
   2  -2   6   82.49    9.90
   2  -2   6   99.49    4.20
   2  -2   6   95.79    6.00
  -3   2  -6  544.45   20.00
  -3   2  -6  487.05   22.40
  -3   2  -6  496.05   21.10
  -3   2  -6  505.95   20.00
   3  -2   6  488.55   20.40
   3  -2   6  504.15   19.00
   3  -2   6  505.05   22.00
   3  -2   6  516.15   21.00
   3  -2   6  485.15   26.00
  -4   2  -6   23.80    3.30
  -4   2  -6   33.50    2.00
  -4   2  -6   27.80    5.10
  -4   2  -6   28.20    3.30
  -4   2  -6   28.60    4.00
   4  -2   6   28.80    2.90
   4  -2   6   28.10    4.20
   4  -2   6   38.20    7.90
   4  -2   6   29.20    4.10
   4  -2   6   25.40    4.50
  -5   2  -6  406.36   19.70
  -5   2  -6  437.06   19.90
  -5   2  -6  417.96   18.60
  -5   2  -6  442.16   18.00
  -5   2  -6  441.06   16.30
   5  -2   6  406.06   18.20
   5  -2   6  409.66   19.40
  -6   2  -6   11.90    3.40
  -6   2  -6   11.60    3.90
  -7   2  -6   45.00    8.00
  -7   2  -6   38.80    8.20
   7  -2   6   37.20    6.00
   7  -2   6   31.30    8.50
   8   1  -6   86.99   10.70
   8   1  -6   79.39   11.00
  -8  -1   6   81.99   12.40
  -8  -1   6   76.59   10.30
  -8  -1   6   63.19   10.40
   7   1  -6  177.38   12.30
  -7  -1   6  161.98   12.50
  -7  -1   6  163.08   13.40
  -7  -1   6  152.28   12.10
   6   1  -6    1.50    2.70
   6   1  -6    2.20    3.60
   6   1  -6    5.30    2.40
  -6  -1   6    5.20    8.80
  -6  -1   6    4.70    4.10
  -6  -1   6    0.90    2.90
  -6  -1   6    5.10    4.00
   5   1  -6  252.87   10.80
   5   1  -6  219.08   12.80
   5   1  -6  240.48   12.90
  -5  -1   6  227.68   12.70
  -5  -1   6  244.18   12.50
  -5  -1   6  239.68   15.60
  -5  -1   6  237.98   14.10
   4   1  -6   17.60    3.70
   4   1  -6   13.00    2.30
   4   1  -6   12.50    2.60
   4   1  -6    8.40    2.70
  -4  -1   6   13.00    3.40
  -4  -1   6   13.40    3.30
  -4  -1   6   13.30    2.40
   3   1  -6   97.29    6.20
   3   1  -6   95.79    6.90
   3   1  -6  100.09    5.10
   3   1  -6   91.79    6.60
   3   1  -6   98.99    5.60
   3   1  -6   92.89    6.00
  -3  -1   6   97.99    6.80
  -3  -1   6   97.99    6.90
  -3  -1   6   94.59    4.50
  -3  -1   6   99.99    6.10
  -3  -1   6   93.89    5.60
  -3  -1   6   94.59    6.00
   2   1  -6   31.90    3.10
   2   1  -6   34.70    3.40
   2   1  -6   27.30    3.60
   2   1  -6   30.60    4.20
   2   1  -6   32.10    3.70
   2   1  -6   35.00    2.30
  -2  -1   6   33.40    2.80
  -2  -1   6   34.90    4.10
  -2  -1   6   34.20    3.40
  -2  -1   6   35.70    3.90
  -2  -1   6   32.60    2.70
  -2  -1   6   34.00    3.40
  -2  -1   6   29.00    3.50
   1   1  -6   86.09    5.20
   1   1  -6   84.89    5.70
   1   1  -6   87.79    3.60
   1   1  -6   88.99    5.00
  -1  -1   6   83.59    7.00
  -1  -1   6   82.29    5.10
  -1  -1   6   86.29    5.60
  -1  -1   6   91.79    4.90
  -1  -1   6   82.09    7.30
  -1  -1   6   88.09    4.70
  -1  -1   6   83.89    3.90
   0   1  -6   11.60    1.40
   0   1  -6   13.40    2.20
   0   1  -6   15.30    3.60
   0   1  -6   12.50    2.10
   0   1  -6   11.30    2.00
   0  -1   6   12.40    2.40
   0  -1   6   11.80    2.40
   0  -1   6   11.90    2.00
   0  -1   6   13.30    3.10
   0  -1   6   10.50    2.60
   0  -1   6   10.90    1.80
   0  -1   6   11.00    1.40
   0  -1   6   11.40    2.70
  -1   1  -6   85.49    6.20
  -1   1  -6   77.69    6.50
  -1   1  -6   78.59    5.90
  -1   1  -6   83.49    7.30
  -1   1  -6   91.69    4.50
  -1   1  -6   78.09    4.00
   1  -1   6   78.29    5.50
   1  -1   6   77.19    6.00
   1  -1   6   77.39    4.40
   1  -1   6   78.99    3.30
   1  -1   6   76.29    3.50
   1  -1   6   76.69    3.80
  -2   1  -6  216.48   11.80
  -2   1  -6  224.88   10.20
  -2   1  -6  189.78   15.50
  -2   1  -6  212.88    9.20
  -2   1  -6  226.18    8.70
  -2   1  -6  207.78   12.10
   2  -1   6  222.38   13.60
   2  -1   6  225.98    9.80
   2  -1   6  218.58   10.90
   2  -1   6  202.88   11.10
   2  -1   6  224.08    8.80
  -3   1  -6    6.00    1.10
  -3   1  -6    5.40    2.80
  -3   1  -6    7.50    1.40
   3  -1   6    3.10    1.50
   3  -1   6    2.60    1.90
   3  -1   6    3.40    3.70
   3  -1   6    5.30    2.70
   3  -1   6    6.90    2.40
  -4   1  -6  381.86   17.30
  -4   1  -6  393.36   15.20
  -4   1  -6  360.56   16.00
  -4   1  -6  363.16   17.90
   4  -1   6  366.96   17.40
   4  -1   6  346.97   16.70
   4  -1   6  385.26   15.30
   4  -1   6  359.96   16.20
  -5   1  -6    3.40    2.90
  -5   1  -6    0.40    2.20
  -5   1  -6    9.10    3.20
   5  -1   6    2.50    2.60
  -6   1  -6  288.27   15.90
  -6   1  -6  289.57   13.60
  -6   1  -6  275.07   14.60
   6  -1   6  266.47   16.90
  -7   1  -6   36.30    6.00
  -7   1  -6   47.50    8.00
   7  -1   6   29.20    6.10
   7  -1   6   33.70    6.30
   8   0  -6    2.20    4.70
   8   0  -6   18.40    5.40
  -8   0   6   14.30    5.80
  -8   0   6    8.60    6.40
  -8   0   6    5.60    5.30
   7   0  -6   12.30    3.90
  -7   0   6   11.60    4.50
  -7   0   6   10.40    7.30
  -7   0   6    3.00    5.40
   6   0  -6  206.08    8.90
   6   0  -6  201.18   12.10
   6   0  -6  195.58   12.40
  -6   0   6  206.78   18.10
  -6   0   6  205.78   12.00
  -6   0   6  196.48   11.80
  -6   0   6  191.38   13.60
   5   0  -6  229.48   10.20
   5   0  -6  245.88   12.90
   5   0  -6  226.68   13.00
  -5   0   6  225.58   11.90
  -5   0   6  231.68   12.20
  -5   0   6  220.88   13.30
  -5   0   6  223.48   15.60
   4   0  -6    1.50    2.00
   4   0  -6    0.20    1.20
   4   0  -6    4.70    1.80
   4   0  -6    5.00    2.60
  -4   0   6    2.20    1.60
  -4   0   6    5.10    2.10
  -4   0   6    3.80    3.10
  -4   0   6    3.20    1.80
   3   0  -6   66.39    4.60
   3   0  -6   60.89    3.50
   3   0  -6   61.39    4.10
   3   0  -6   56.49    5.40
   3   0  -6   66.09    4.60
  -3   0   6   58.19    4.20
  -3   0   6   60.29    4.30
  -3   0   6   61.49    2.50
  -3   0   6   63.99    5.20
  -3   0   6   63.69    4.90
  -3   0   6   57.79    4.50
   2   0  -6  327.07   12.80
   2   0  -6  305.67   15.10
   2   0  -6  321.07   14.20
   2   0  -6  338.97   12.50
  -2   0   6  319.67   13.50
  -2   0   6  324.27   13.20
  -2   0   6  323.37   13.70
  -2   0   6  312.17   12.80
  -2   0   6  317.67   14.00
  -2   0   6  332.77   13.30
  -2   0   6  323.77   14.40
   1   0  -6  391.86   16.70
   1   0  -6  407.86   16.40
   1   0  -6  417.56   18.00
   1   0  -6  423.46   15.60
   1   0  -6  432.66   15.90
  -1   0   6  413.16   17.00
  -1   0   6  397.46   17.40
  -1   0   6  416.76   15.90
  -1   0   6  405.66   15.70
  -1   0   6  416.86   15.50
  -1   0   6  428.46   17.80
  -1   0   6  421.46   16.50
   0   0  -6    2.20    0.80
   0   0  -6    2.40    1.60
   0   0  -6    1.80    1.90
   0   0  -6    0.30    1.20
   0   0  -6    0.30    0.70
   0   0   6    1.30    2.40
   0   0   6    1.80    1.00
   0   0   6    1.80    0.80
   0   0   6    2.20    0.90
   0   0   6    0.40    2.20
   0   0   6    0.80    1.90
   0   0   6    0.40    1.70
  -1   0  -6 2363.36   83.09
  -1   0  -6 2143.29   84.89
  -1   0  -6 2248.38   83.79
  -1   0  -6 2238.78   80.69
  -1   0  -6 2129.39   79.79
  -1   0  -6 2206.18   83.39
   1   0   6 2183.88   80.29
   1   0   6 2175.18   83.19
   1   0   6 2279.47   82.69
   1   0   6 2364.46   82.79
   1   0   6 2088.69   80.09
  -2   0  -6    1.50    0.80
  -2   0  -6    0.60    1.50
  -2   0  -6    4.00    6.00
  -2   0  -6    1.20    2.20
  -2   0  -6    0.50    2.40
  -2   0  -6   -0.20    2.80
   2   0   6    2.40    1.40
   2   0   6    0.20    1.00
   2   0   6    2.90    2.50
   2   0   6   -1.30    1.60
  -3   0  -6    0.20    1.20
  -3   0  -6    0.10    2.40
  -3   0  -6    5.30    3.40
  -3   0  -6   -1.60    1.40
  -3   0  -6    0.70    2.00
   3   0   6    1.10    2.70
   3   0   6    1.00    2.00
   3   0   6   -0.90    1.70
   3   0   6    0.80    1.40
  -4   0  -6   40.00    3.40
  -4   0  -6   49.30    5.20
  -4   0  -6   36.60    4.30
  -4   0  -6   42.70    5.90
   4   0   6   35.40    4.70
   4   0   6   37.40    5.20
  -5   0  -6    6.50    2.60
  -5   0  -6   10.50    4.10
  -5   0  -6    7.80    2.60
   5   0   6    5.00    2.80
   5   0   6    7.80    4.40
  -6   0  -6  293.07   15.50
  -6   0  -6  284.67   16.50
  -6   0  -6  307.17   13.90
   6   0   6  292.37   15.10
   6   0   6  309.27   19.00
  -7   0  -6    2.60    4.60
  -7   0  -6    9.90    5.60
   7   0   6    6.80    6.60
   7   0   6    0.60    3.10
   8  -1  -6   -1.30    4.50
   8  -1  -6    7.50    4.80
  -8   1   6    1.80    4.60
  -8   1   6   -0.70    4.70
  -8   1   6   -2.10    6.70
   7  -1  -6  171.98   11.90
   6  -1  -6  345.67   18.70
   6  -1  -6  378.16   18.30
  -6   1   6  390.96   19.50
  -6   1   6  403.16   27.50
  -6   1   6  358.86   17.60
  -6   1   6  349.37   17.50
   5  -1  -6  147.49    9.90
   5  -1  -6  155.48    9.60
   5  -1  -6  154.28    7.30
  -5   1   6  160.08   10.40
  -5   1   6  143.39    8.80
  -5   1   6  153.28   13.40
  -5   1   6  137.19    8.60
   4  -1  -6  643.54   24.90
   4  -1  -6  642.64   24.80
   4  -1  -6  642.04   25.70
   4  -1  -6  590.04   26.80
  -4   1   6  650.93   28.30
  -4   1   6  613.44   25.20
  -4   1   6  649.14   27.20
  -4   1   6  624.04   26.00
  -4   1   6  627.44   25.30
   3  -1  -6  873.71   32.60
   3  -1  -6  922.11   32.70
   3  -1  -6  889.81   34.00
   3  -1  -6  870.51   35.40
  -3   1   6  857.81   31.80
  -3   1   6  889.21   33.30
  -3   1   6  875.91   33.10
  -3   1   6  878.71   34.60
  -3   1   6  899.81   33.90
  -3   1   6  849.61   32.50
  -3   1   6  886.91   33.30
  -3   1   6  874.21   34.80
  -3   1   6  842.92   34.70
   2  -1  -6  263.37   12.20
   2  -1  -6  242.58   12.50
  -2   1   6  246.08   11.70
  -2   1   6  262.97   12.00
  -2   1   6  257.67   12.40
  -2   1   6  219.58   14.30
  -2   1   6  261.57   11.30
  -2   1   6  254.47   10.20
   1  -1  -6  687.63   31.10
   1  -1  -6  716.13   29.10
   1  -1  -6  748.03   27.90
  -1   1   6  751.62   26.80
  -1   1   6  737.73   30.10
  -1   1   6  707.63   27.80
  -1   1   6  734.83   29.30
  -1   1   6  755.72   28.10
   0  -1  -6 1789.62   69.49
   0  -1  -6 1814.72   66.09
   0  -1  -6 1745.13   66.69
   0  -1  -6 1859.31   69.69
   0  -1  -6 1857.91   67.99
   0  -1  -6 1918.71   68.69
   0   1   6 1788.82   67.09
   0   1   6 1818.22   65.89
   0   1   6 1880.51   68.49
   0   1   6 1920.41   70.29
   0   1   6 1778.32   66.29
  -1  -1  -6 1950.30   76.89
  -1  -1  -6 1994.60   72.99
  -1  -1  -6 1960.00   73.19
  -1  -1  -6 1987.30   77.49
  -1  -1  -6 2028.50   76.39
  -1  -1  -6 2062.19   75.39
   1   1   6 2085.39   75.99
   1   1   6 1971.10   73.09
   1   1   6 1945.51   73.09
   1   1   6 2100.89   75.09
  -2  -1  -6  811.62   30.90
  -2  -1  -6  787.62   32.80
  -2  -1  -6  803.22   33.50
  -2  -1  -6  718.13   36.00
  -2  -1  -6  799.22   34.90
  -2  -1  -6  837.32   30.30
   2   1   6  809.92   30.30
   2   1   6  777.32   32.10
   2   1   6  785.12   32.90
   2   1   6  762.62   31.80
   2   1   6  805.22   30.50
  -3  -1  -6  825.72   33.10
  -3  -1  -6  888.11   32.70
  -3  -1  -6  810.02   37.60
  -3  -1  -6  889.71   34.20
  -3  -1  -6  829.12   35.50
   3   1   6  837.52   35.20
   3   1   6  824.32   34.00
   3   1   6  829.12   32.50
   3   1   6  865.91   32.80
  -4  -1  -6   53.39    5.90
  -4  -1  -6   53.39    3.60
  -4  -1  -6   50.69    5.20
  -4  -1  -6   43.30    8.10
   4   1   6   49.40    5.60
   4   1   6   59.39    6.00
   4   1   6   50.39    6.80
  -5  -1  -6   33.30    5.60
  -5  -1  -6   32.90    3.90
  -5  -1  -6   33.30    5.40
   5   1   6   31.80    5.20
   5   1   6   29.90    6.20
  -6  -1  -6   21.40    8.50
  -6  -1  -6    3.10    3.60
  -6  -1  -6    1.60    4.10
   6   1   6   12.40    9.10
   6   1   6    7.90    5.80
   6   1   6    2.60    3.10
   8  -2  -6   29.00    6.50
   8  -2  -6   28.70    5.90
  -8   2   6   16.80    5.00
  -8   2   6   37.50    9.10
  -8   2   6   18.00    4.40
   7  -2  -6   63.49   12.40
   7  -2  -6   86.69    9.20
  -7   2   6   74.69   14.30
  -7   2   6   69.39    9.00
   6  -2  -6   13.50    4.50
   6  -2  -6   13.90    4.20
  -6   2   6   22.20    4.40
  -6   2   6   25.10    9.90
  -6   2   6   20.60    5.60
  -6   2   6   28.00    4.30
   5  -2  -6  933.51   40.90
   5  -2  -6 1115.79   40.70
  -5   2   6 1033.40   45.70
  -5   2   6  973.50   39.30
  -5   2   6 1016.70   41.30
  -5   2   6 1002.60   39.60
   4  -2  -6    3.60    2.00
   4  -2  -6    2.30    1.80
   4  -2  -6    1.60    1.30
   4  -2  -6    1.30    2.40
  -4   2   6    2.30    1.60
  -4   2   6    0.20    1.40
  -4   2   6    1.60    2.40
  -4   2   6    5.90    1.50
  -4   2   6   -0.40    4.80
   3  -2  -6   56.79    3.90
   3  -2  -6   57.89    3.10
   3  -2  -6   52.69    5.70
   3  -2  -6   57.49    4.40
   3  -2  -6   58.69    4.80
  -3   2   6   55.59    5.80
  -3   2   6   57.39    7.00
  -3   2   6   62.29    3.30
  -3   2   6   54.09    3.60
  -3   2   6   57.19    4.80
  -3   2   6   58.89    4.70
  -3   2   6   60.39    4.90
  -3   2   6   54.49    3.70
   2  -2  -6  141.79    7.60
   2  -2  -6  140.79    7.30
   2  -2  -6  140.69    8.60
  -2   2   6  137.49    7.50
  -2   2   6  140.59    7.60
  -2   2   6  148.49    7.90
  -2   2   6  142.29    6.40
  -2   2   6  151.78    9.30
  -2   2   6  137.19    7.70
   1  -2  -6  576.84   24.50
   1  -2  -6  575.44   22.60
   1  -2  -6  572.24   24.40
   1  -2  -6  571.94   24.40
  -1   2   6  559.74   22.80
  -1   2   6  575.54   23.40
  -1   2   6  567.24   22.20
  -1   2   6  572.74   25.40
  -1   2   6  565.54   24.40
  -1   2   6  607.54   24.90
  -1   2   6  556.54   24.60
   0  -2  -6 1007.80   36.70
   0  -2  -6  959.20   40.40
   0  -2  -6 1056.79   38.90
   0  -2  -6 1004.60   38.60
   0  -2  -6  980.50   39.80
   0  -2  -6 1001.80   37.50
   0   2   6  960.40   36.60
   0   2   6 1010.40   38.50
   0   2   6  930.71   40.50
   0   2   6  981.00   41.20
   0   2   6 1022.10   40.10
   0   2   6 1006.20   38.00
   0   2   6  997.50   36.20
  -1  -2  -6  151.58    9.10
  -1  -2  -6  138.19    9.30
  -1  -2  -6  145.79   10.40
  -1  -2  -6  152.58    7.40
  -1  -2  -6  140.19   10.30
  -1  -2  -6  151.08    7.40
   1   2   6  145.89    8.40
   1   2   6  144.29    9.70
   1   2   6  152.88    6.90
   1   2   6  145.69    9.20
   1   2   6  133.79   10.40
   1   2   6  140.69    7.60
   1   2   6  146.79    7.60
  -2  -2  -6  833.02   34.70
  -2  -2  -6  844.02   33.00
  -2  -2  -6  898.31   33.40
  -2  -2  -6  823.12   37.40
   2   2   6  843.22   33.70
   2   2   6  881.01   32.40
   2   2   6  759.32   36.70
   2   2   6  851.21   33.90
   2   2   6  852.71   32.70
  -3  -2  -6   45.30    7.10
   3   2   6   29.40    5.00
   3   2   6   27.50    6.90
   3   2   6   29.50    4.10
   3   2   6   31.90    4.50
  -4  -2  -6   12.00    2.90
  -4  -2  -6    8.70    2.80
  -4  -2  -6   16.00    3.40
  -4  -2  -6   -0.30    5.80
   4   2   6   10.80    3.10
   4   2   6    8.40    4.00
   4   2   6   15.50    3.30
  -5  -2  -6    6.10    3.90
  -5  -2  -6    2.30    3.20
   5   2   6   -4.50    5.40
   5   2   6    6.40    6.00
   5   2   6    3.20    2.80
  -6  -2  -6   34.80    6.10
  -6  -2  -6   40.40    6.00
   6   2   6   40.10    6.90
   6   2   6   44.00    9.50
   6   2   6   39.00    6.60
   8  -3  -6   59.99   10.40
  -8   3   6   70.99   13.00
  -8   3   6   77.69    9.10
  -8   3   6   73.29    8.90
   7  -3  -6    9.00    4.80
   7  -3  -6   13.20    4.40
  -7   3   6    9.40    3.80
  -7   3   6    8.20    4.70
  -7   3   6   20.10    5.50
   6  -3  -6    1.80    3.40
   6  -3  -6   -4.20    3.50
  -6   3   6    9.40    3.80
  -6   3   6   -2.80    9.70
  -6   3   6    4.90    2.60
  -6   3   6    7.70    2.60
   5  -3  -6   91.99    8.40
   5  -3  -6  111.29    7.90
  -5   3   6  116.09    9.20
  -5   3   6  105.79    6.60
  -5   3   6  102.49    7.00
  -5   3   6   96.79   14.00
   4  -3  -6   27.40    2.70
   4  -3  -6   33.30    5.00
   4  -3  -6   28.60    4.60
  -4   3   6   33.50    4.00
  -4   3   6   32.20    3.30
  -4   3   6   37.20    3.40
  -4   3   6   40.60    7.20
  -4   3   6   36.20    3.50
  -4   3   6   33.30    2.90
   3  -3  -6 1029.00   38.00
   3  -3  -6 1047.80   41.70
   3  -3  -6 1065.89   40.20
  -3   3   6 1033.60   40.50
  -3   3   6 1067.59   38.80
  -3   3   6 1054.39   38.90
  -3   3   6 1001.20   39.50
   2  -3  -6  233.28   12.10
   2  -3  -6  234.18   11.80
   2  -3  -6  222.78   10.70
   2  -3  -6  231.08   11.50
  -2   3   6  209.58   11.20
  -2   3   6  229.78   13.50
  -2   3   6  263.77   11.20
  -2   3   6  236.08    9.60
  -2   3   6  217.98   12.00
  -2   3   6  236.18   11.50
   1  -3  -6  240.88   10.90
   1  -3  -6  236.78   12.20
   1  -3  -6  241.48   13.00
   1  -3  -6  248.08   12.70
  -1   3   6  249.68   13.00
  -1   3   6  242.08   14.20
  -1   3   6  253.37   11.80
  -1   3   6  234.28   11.30
  -1   3   6  228.28   12.90
  -1   3   6  242.98   11.60
   0  -3  -6  217.18    9.40
   0  -3  -6  212.88    9.80
   0  -3  -6  194.88   12.30
   0  -3  -6  221.08   10.80
   0  -3  -6  184.78   10.10
   0   3   6  213.78    8.60
   0   3   6  218.28    9.20
   0   3   6  217.38   10.40
   0   3   6  200.58   10.60
   0   3   6  208.08    8.90
   0   3   6  190.48   13.00
   0   3   6  195.88   12.30
  -1  -3  -6   22.50    5.10
  -1  -3  -6   22.70    3.90
  -1  -3  -6   25.80    3.50
  -1  -3  -6   25.60    3.00
  -1  -3  -6   20.80    4.30
   1   3   6   25.70    4.90
   1   3   6   26.10    3.60
   1   3   6   26.60    2.90
   1   3   6   25.20    4.20
   1   3   6   30.30    3.80
   1   3   6   26.90    4.00
  -2  -3  -6  223.58   14.80
  -2  -3  -6  205.28   10.50
  -2  -3  -6  233.68   14.20
  -2  -3  -6  210.98   10.90
   2   3   6  197.28   13.70
   2   3   6  211.58   10.10
   2   3   6  205.38   11.00
   2   3   6  203.88   10.50
  -3  -3  -6    5.40    5.40
  -3  -3  -6    2.90    2.20
  -3  -3  -6    3.40    2.60
   3   3   6    4.20    3.10
   3   3   6   -2.90    3.80
  -4  -3  -6  493.45   21.80
  -4  -3  -6  472.85   26.70
  -4  -3  -6  461.45   21.00
   4   3   6  498.25   25.80
   4   3   6  479.05   20.70
   4   3   6  459.05   22.40
   4   3   6  427.56   20.60
  -5  -3  -6   22.40    4.50
  -5  -3  -6   17.90    8.60
   5   3   6   26.40    7.60
   5   3   6   26.70    5.60
   5   3   6   31.50    6.60
  -6  -3  -6   18.80    5.70
  -6  -3  -6    9.40    6.00
   6   3   6    9.80    4.00
   6   3   6   13.40    5.20
   6   3   6    5.70    6.90
   8  -4  -6    6.90    5.20
  -8   4   6   12.20    4.20
  -8   4   6    7.90    4.30
  -8   4   6    9.50    7.20
   7  -4  -6  214.38   14.60
  -7   4   6  239.98   13.20
  -7   4   6  220.78   13.80
  -7   4   6  240.78   16.00
   6  -4  -6   22.30    5.10
   6  -4  -6   19.10    5.20
  -6   4   6   19.50    3.60
  -6   4   6   21.70    8.40
  -6   4   6   20.80    3.70
   5  -4  -6  355.76   18.80
  -5   4   6  366.56   16.40
  -5   4   6  396.16   19.40
  -5   4   6  389.46   18.60
  -5   4   6  414.06   15.80
  -5   4   6  389.86   16.70
   4  -4  -6 1037.40   42.50
   4  -4  -6 1079.39   41.10
  -4   4   6 1101.59   39.30
  -4   4   6  924.01   39.80
  -4   4   6 1064.99   39.20
  -4   4   6 1112.99   39.60
  -4   4   6 1030.80   39.10
   3  -4  -6  177.78   10.30
   3  -4  -6  166.28    8.90
  -3   4   6  164.78    7.70
  -3   4   6  179.18    8.40
  -3   4   6  158.08    9.80
   2  -4  -6 2020.00   76.79
   2  -4  -6 1972.00   75.29
   2  -4  -6 2089.09   76.69
  -2   4   6 2157.08   74.99
  -2   4   6 1981.80   73.99
  -2   4   6 2064.39   76.09
  -2   4   6 2087.59   74.99
  -2   4   6 1888.71   76.99
   1  -4  -6  613.24   23.60
   1  -4  -6  636.14   27.60
   1  -4  -6  644.54   26.00
   1  -4  -6  620.64   25.00
  -1   4   6  598.24   24.40
  -1   4   6  622.14   24.80
  -1   4   6  598.54   26.70
   0  -4  -6  233.58   14.90
   0  -4  -6  245.68   12.00
   0  -4  -6  242.08   11.70
   0   4   6  266.07   15.10
   0   4   6  248.58   11.50
   0   4   6  257.77   10.50
   0   4   6  248.78   11.10
   0   4   6  242.58   14.10
   0   4   6  239.18   10.50
  -1  -4  -6   13.90    4.60
  -1  -4  -6   28.40    4.40
  -1  -4  -6   25.40    3.50
  -1  -4  -6   20.00    3.90
   1   4   6   29.30    3.40
   1   4   6   19.70    4.70
   1   4   6   22.50    3.30
   1   4   6   22.60    3.40
   1   4   6   25.80    4.20
   1   4   6   25.60    3.60
  -2  -4  -6   -2.40    4.10
  -2  -4  -6    5.40    2.30
  -2  -4  -6   -0.50    2.70
   2   4   6    3.10    3.50
   2   4   6    2.20    2.00
   2   4   6    2.00    2.00
   2   4   6    0.90    2.40
   2   4   6    4.70    3.70
   2   4   6    0.20    2.00
  -3  -4  -6  403.36   18.90
  -3  -4  -6  430.06   24.30
  -3  -4  -6  419.46   19.50
   3   4   6  414.86   18.40
   3   4   6  427.26   18.20
   3   4   6  410.06   19.80
   3   4   6  404.26   16.30
   3   4   6  420.86   22.60
  -4  -4  -6   12.80    8.40
  -4  -4  -6   18.50    4.20
   4   4   6   17.10    3.20
   4   4   6    9.40    8.70
  -5  -4  -6    9.70    5.10
   5   4   6    9.40    6.70
   5   4   6    6.70    4.80
   5   4   6    7.70    3.50
   8  -5  -6   16.30    6.50
  -8   5   6   45.00    7.10
  -8   5   6   27.00    5.20
   7  -5  -6   62.69   10.70
  -7   5   6   87.89    7.80
   6  -5  -6   49.00    8.10
  -6   5   6   56.59    5.90
  -6   5   6   77.69    6.10
  -6   5   6   66.99    9.00
   5  -5  -6   11.10    2.70
   5  -5  -6    7.90    3.60
  -5   5   6    9.00    3.90
  -5   5   6   12.30    3.30
  -5   5   6    9.20    3.80
  -5   5   6    7.20    2.50
  -5   5   6   11.70    2.40
  -5   5   6    9.40    2.60
   4  -5  -6   13.30    4.10
   4  -5  -6   16.20    3.90
  -4   5   6   17.80    4.30
  -4   5   6   15.60    2.50
  -4   5   6   14.20    2.80
  -4   5   6   19.20    2.50
  -4   5   6   14.30    3.00
   3  -5  -6   65.59    6.60
   3  -5  -6   73.09    4.50
   3  -5  -6   68.69    7.50
   3  -5  -6   78.89    6.10
   3  -5  -6   81.09    5.60
  -3   5   6   73.59    4.50
  -3   5   6   74.49    5.20
  -3   5   6   76.89    4.00
  -3   5   6   65.29    7.20
   2  -5  -6  267.27   14.30
   2  -5  -6  267.27   12.60
   2  -5  -6  280.27   13.10
   2  -5  -6  271.77   13.60
  -2   5   6  254.47   11.60
  -2   5   6  268.07   11.90
  -2   5   6  274.37   13.30
   1  -5  -6   35.90    4.20
   1  -5  -6   32.80    5.00
   1  -5  -6   30.30    3.90
   1  -5  -6   26.90    3.70
  -1   5   6   26.70    3.30
  -1   5   6   30.20    3.00
  -1   5   6   34.40    5.00
  -1   5   6   32.60    4.00
  -1   5   6   30.60    4.60
  -1   5   6   28.40    2.50
   0  -5  -6   13.90    3.10
   0  -5  -6   17.90    3.50
   0  -5  -6   27.40    5.40
   0   5   6   16.90    3.10
   0   5   6   19.90    3.20
   0   5   6   21.00    3.10
   0   5   6   20.20    4.70
   0   5   6   17.50    3.30
  -1  -5  -6  228.88   12.50
  -1  -5  -6  233.08   15.80
  -1  -5  -6  237.68   12.30
  -1  -5  -6  235.18   12.30
   1   5   6  232.48   14.70
   1   5   6  224.98   11.50
   1   5   6  242.68   11.60
   1   5   6  235.88   11.30
   1   5   6  253.87   10.90
   1   5   6  259.07   13.00
  -2  -5  -6  128.59    9.50
  -2  -5  -6  122.99    8.50
  -2  -5  -6   97.79   11.40
   2   5   6  123.49    8.40
   2   5   6  134.99    9.60
   2   5   6  122.79    7.90
   2   5   6  117.69    7.40
   2   5   6  129.89   11.20
   2   5   6  128.09    7.00
  -3  -5  -6   30.50    5.80
  -3  -5  -6   40.70   10.10
  -3  -5  -6   45.00    7.20
   3   5   6   53.59    8.30
   3   5   6   43.20    6.60
  -4  -5  -6   13.80    7.80
  -4  -5  -6    9.80    4.10
  -4  -5  -6   16.00    4.60
   4   5   6   -0.10    4.50
   4   5   6    4.50    5.10
  -5  -5  -6   -8.30    6.20
  -5  -5  -6   -2.20    5.10
  -5  -5  -6   14.80    9.40
   5   5   6   11.30    4.90
   5   5   6   -2.70    6.40
   8  -6  -6    1.60    5.70
  -8   6   6    7.00    8.00
  -8   6   6    4.70    3.90
  -8   6   6   -5.40    3.40
   7  -6  -6   95.49   11.40
  -7   6   6  112.29    8.50
  -7   6   6  100.39    8.30
   6  -6  -6   30.60    5.70
  -6   6   6   38.50    4.80
  -6   6   6   36.50    6.90
  -6   6   6   42.20    7.00
   5  -6  -6  106.99    9.70
   5  -6  -6  116.39   10.60
   5  -6  -6  112.79    7.80
  -5   6   6  122.29    8.60
  -5   6   6  113.69    6.60
  -5   6   6  110.99    6.60
  -5   6   6  117.19    8.30
  -5   6   6   91.69    8.30
  -5   6   6  116.49    6.90
   4  -6  -6  166.38   12.30
   4  -6  -6  174.58   11.50
   4  -6  -6  170.58   12.30
   4  -6  -6  177.18    9.70
  -4   6   6  176.68    9.50
  -4   6   6  177.78    8.00
  -4   6   6  176.68    8.90
  -4   6   6  182.58    8.50
  -4   6   6  176.18    8.00
   3  -6  -6    9.90    3.20
   3  -6  -6    5.20    5.40
   3  -6  -6    6.30    2.00
   3  -6  -6    8.00    2.50
  -3   6   6    6.40    2.10
  -3   6   6    4.00    1.70
  -3   6   6    7.40    1.30
  -3   6   6    9.70    2.40
   2  -6  -6  101.19    7.20
   2  -6  -6   89.49    6.40
   2  -6  -6  102.49    7.30
   2  -6  -6   84.49    7.50
  -2   6   6   93.19    5.50
  -2   6   6   97.19    5.70
  -2   6   6  104.79    7.20
  -2   6   6   95.39    4.40
   1  -6  -6  110.09    9.20
   1  -6  -6  112.09    7.50
  -1   6   6  112.59    5.80
  -1   6   6  118.49    6.50
  -1   6   6  118.99    6.40
  -1   6   6  114.29    9.00
  -1   6   6  110.79    9.50
   0  -6  -6    3.60    1.90
   0  -6  -6   -2.00    3.80
   0  -6  -6    4.30    3.10
   0   6   6    3.90    3.40
   0   6   6    5.00    1.60
   0   6   6    7.70    2.20
   0   6   6    8.80    2.10
   0   6   6    6.20    2.40
  -1  -6  -6   15.60    3.10
  -1  -6  -6   11.60    4.90
  -1  -6  -6   15.10    3.90
  -1  -6  -6   17.50    4.20
   1   6   6   10.10    4.60
   1   6   6   15.10    4.00
   1   6   6   12.90    3.80
   1   6   6   16.30    3.30
   1   6   6   19.00    3.50
  -2  -6  -6   43.70    9.10
  -2  -6  -6   40.60    6.50
  -2  -6  -6   46.90    7.70
   2   6   6   48.20    4.10
   2   6   6   63.49    6.20
  -3  -6  -6   26.00    4.70
  -3  -6  -6   18.90    5.30
  -3  -6  -6    6.60    7.90
   3   6   6   26.10    6.20
   3   6   6   16.30    3.10
   3   6   6   21.80    5.60
   4   6   6    9.60    4.80
   4   6   6   15.20    3.70
   7  -7  -6    2.50    5.60
  -7   7   6   10.10    3.40
  -7   7   6   23.10    7.10
  -7   7   6   11.50    3.80
   6  -7  -6  296.47   18.50
   6  -7  -6  321.27   16.10
  -6   7   6  328.27   14.80
  -6   7   6  323.87   14.50
  -6   7   6  312.57   17.10
   5  -7  -6  112.69   10.60
   5  -7  -6  126.89   10.10
  -5   7   6  135.49    7.00
  -5   7   6  133.69    9.30
  -5   7   6  134.89    7.40
   4  -7  -6    6.50    3.60
  -4   7   6    3.20    1.50
  -4   7   6    4.30    3.10
  -4   7   6    4.10    2.10
  -4   7   6    3.00    1.80
   3  -7  -6    4.00    2.80
   3  -7  -6    7.90    7.20
   3  -7  -6    4.40    3.20
   3  -7  -6    6.60    2.00
  -3   7   6    0.10    2.50
  -3   7   6    2.50    1.80
  -3   7   6    4.90    1.40
  -3   7   6    2.10    2.20
   2  -7  -6   48.10    5.60
   2  -7  -6   48.40    6.80
   2  -7  -6   46.10    5.00
   2  -7  -6   56.89    6.70
  -2   7   6   48.30    3.20
  -2   7   6   39.80    5.00
  -2   7   6   50.09    4.80
  -2   7   6   52.29    3.90
   1  -7  -6   13.90    3.40
   1  -7  -6   14.90    4.70
  -1   7   6    9.90    3.70
  -1   7   6   17.20    3.10
  -1   7   6   15.60    3.20
   0  -7  -6   31.50    5.10
   0  -7  -6   21.40    5.90
   0  -7  -6   34.60    5.50
   0   7   6   27.10    4.10
   0   7   6   22.10    3.90
   0   7   6   27.10    2.50
   0   7   6   34.80    6.30
  -1  -7  -6    1.60    8.40
  -1  -7  -6    3.60    2.90
   1   7   6    9.80    3.10
   1   7   6    6.30    4.40
  -2  -7  -6    6.70    7.50
   2   7   6   12.10    4.00
   2   7   6   15.60    5.30
   2   7   6   21.00    3.30
  -3  -7  -6    9.40    4.80
   3   7   6   13.70    2.90
   3   7   6   10.60    5.40
   7  -8  -6   35.70    8.30
  -7   8   6   34.50    5.10
  -7   8   6   41.10    5.60
   6  -8  -6   -3.40    5.90
   6  -8  -6    3.40    3.40
  -6   8   6    5.30    2.70
  -6   8   6   -0.10    2.00
   5  -8  -6   10.20    3.30
   5  -8  -6   14.30    5.10
  -5   8   6    1.40    3.90
  -5   8   6    4.80    2.20
  -5   8   6    7.20    2.40
   4  -8  -6    4.50    3.80
  -4   8   6    4.60    2.50
  -4   8   6    3.10    2.50
  -4   8   6    3.60    1.60
   3  -8  -6  182.78   13.90
   3  -8  -6  227.28   12.60
  -3   8   6  215.38   10.60
  -3   8   6  224.38   11.60
  -3   8   6  212.98    9.10
   2  -8  -6  107.29    9.30
   2  -8  -6  110.99    8.10
  -2   8   6  104.09    5.60
  -2   8   6  103.89    8.40
   1  -8  -6  377.26   18.40
  -1   8   6  385.76   19.00
  -1   8   6  374.56   15.90
   0  -8  -6   27.70    7.30
   0  -8  -6   15.00    5.80
   0   8   6   26.30    5.80
   0   8   6   18.90    3.40
  -1  -8  -6   15.80    7.00
  -1  -8  -6    5.90    4.20
   1   8   6   13.40    4.80
   1   8   6   16.70    4.30
  -2  -8  -6   -1.80    4.20
   2   8   6   -3.50    4.60
   2   8   6    9.40    3.90
   6  -9  -6   45.20    6.80
  -6   9   6   41.40    5.00
  -6   9   6   50.19    5.40
   5  -9  -6   -3.30    3.30
   5  -9  -6   -4.50    5.30
  -5   9   6   -1.50    1.90
  -5   9   6    1.60    4.40
  -5   9   6   -0.60    2.10
   4  -9  -6   48.50    8.30
  -4   9   6   39.70    4.60
  -4   9   6   42.10    4.00
  -4   9   6   37.80    5.90
   3  -9  -6   64.29    6.80
   3  -9  -6   50.09    6.60
   3  -9  -6   49.60    6.90
  -3   9   6   46.90    5.40
  -3   9   6   50.49    3.90
  -3   9   6   42.60    5.80
   2  -9  -6  206.88   12.20
   2  -9  -6  189.38   12.90
  -2   9   6  207.98    9.40
  -2   9   6  197.28   13.80
   1  -9  -6  218.28   14.80
   1  -9  -6  208.38   12.90
  -1   9   6  211.78   13.10
  -1   9   6  206.28   10.50
   0  -9  -6   17.80    6.30
   0  -9  -6   27.60    5.50
   0   9   6   26.20    4.30
  -1  -9  -6   -6.00    6.00
  -1  -9  -6   -5.90    4.00
   1   9   6    1.30    4.70
   1   9   6    3.10    3.70
  -5  10   6   16.30    6.10
  -4  10   6   17.10    5.50
  -4  10   6   20.40    3.30
   3 -10  -6   10.40    3.70
   3 -10  -6    9.80    4.20
  -3  10   6    8.50    2.50
  -3  10   6   11.40    4.10
  -3  10   6   16.30    3.40
   2 -10  -6   39.00    7.30
   2 -10  -6   59.29    8.70
  -2  10   6   48.80    4.80
  -2  10   6   35.40    6.40
   1 -10  -6    3.50    3.90
   1 -10  -6    7.00    5.00
  -1  10   6   -2.60    3.80
  -1  10   6   -2.60    2.70
   0  12  -7    0.80    3.50
   0  12  -7    5.10    8.80
   0 -12   7    0.90    7.40
   0 -12   7    3.20    5.10
  -1  12  -7   74.79    8.00
  -1  12  -7   49.99   12.90
   1 -12   7   52.99    9.70
  -2  12  -7   -0.20    3.50
  -2  12  -7    2.60   12.10
   2 -12   7    7.60    8.80
   2 -12   7   12.40    4.30
  -3  12  -7   15.40    3.90
  -3  12  -7   41.30   13.50
  -3  12  -7   16.00    3.00
   3 -12   7   22.60    4.70
   3 -12   7   17.90   12.30
  -4  12  -7   47.00    6.30
  -4  12  -7   58.99   14.00
   4 -12   7   70.49    7.80
   4 -12   7  108.49   21.00
   2  11  -7   -4.60    6.20
   2  11  -7    2.00    4.10
  -2 -11   7   -3.40    7.80
  -2 -11   7   -2.20    5.40
   1  11  -7   56.79    8.40
   1  11  -7   62.49   12.70
  -1 -11   7   43.20    8.20
  -1 -11   7   60.59    8.70
   0  11  -7   26.80    5.40
   0  11  -7   23.60    9.50
   0 -11   7   22.30    5.20
   0 -11   7   27.70    5.00
  -1  11  -7   56.89   12.30
  -1  11  -7   81.99    7.90
   1 -11   7   76.99   13.10
   1 -11   7   66.99    7.40
   1 -11   7   76.59   13.90
  -2  11  -7   22.00   10.90
  -2  11  -7   25.10    4.50
   2 -11   7   45.30    9.40
   2 -11   7   23.30    4.10
  -3  11  -7   25.50    3.60
  -3  11  -7   24.90   10.60
  -3  11  -7   20.50    4.80
   3 -11   7   29.90    5.50
   3 -11   7    9.20   10.80
   3 -11   7   20.40    3.90
  -4  11  -7   -4.80    3.00
  -4  11  -7    1.80    9.70
   4 -11   7   -0.90    3.00
   4 -11   7  -12.20   31.00
  -5  11  -7   11.90    2.50
  -5  11  -7   -1.70    9.80
  -5  11  -7    7.40    3.30
   5 -11   7   14.00   23.80
   3  10  -7   13.50    5.10
   3  10  -7    7.10    6.30
  -3 -10   7   10.80    7.20
  -3 -10   7   12.30    5.90
   2  10  -7   20.60    5.10
   2  10  -7   15.50    7.00
  -2 -10   7   21.20    6.90
  -2 -10   7   11.40    4.90
   1  10  -7    5.70    6.50
  -1 -10   7   16.60    5.50
  -1 -10   7    5.90    4.60
  -1 -10   7    0.60    2.40
  -1 -10   7   -2.40    5.70
   0  10  -7  155.78   10.70
   0 -10   7  183.08   12.60
   0 -10   7  167.98   13.20
   0 -10   7  145.89   10.60
   0 -10   7  153.28   11.60
  -1  10  -7   -0.80   10.40
  -1  10  -7    7.90    3.40
   1 -10   7    3.40    3.40
   1 -10   7    2.60    5.10
  -2  10  -7   -2.80    2.60
   2 -10   7   -4.50    2.50
   2 -10   7    0.50    6.00
   2 -10   7   -1.90    3.00
  -3  10  -7   10.10    2.00
  -3  10  -7   16.30   10.60
   3 -10   7   17.80    3.10
   3 -10   7    9.60    3.30
   3 -10   7    5.70    8.50
  -4  10  -7   41.10    3.80
  -4  10  -7   41.70    5.60
  -4  10  -7   59.49   13.40
   4 -10   7   68.39   17.10
   4 -10   7   49.80    6.30
   4 -10   7   47.50    4.90
  -5  10  -7   25.60    4.90
  -5  10  -7   33.00    3.80
   5 -10   7   -4.00   47.30
   5 -10   7   24.10    4.10
   5 -10   7   32.40    4.10
   6 -10   7   69.29   24.70
   4   9  -7   22.90    5.60
   4   9  -7   10.10    5.90
  -4  -9   7   21.40    6.20
  -4  -9   7   12.90    6.60
   3   9  -7   10.70    4.80
   3   9  -7    4.60    8.80
  -3  -9   7   12.30    5.60
  -3  -9   7   14.80    5.60
   2   9  -7  152.58   11.20
   2   9  -7  137.99   12.00
  -2  -9   7  149.09   12.80
  -2  -9   7  160.08    9.80
  -2  -9   7  157.08   13.40
   1   9  -7  257.37   17.70
   1   9  -7  245.18   14.00
  -1  -9   7  260.57   12.20
  -1  -9   7  260.77   15.70
  -1  -9   7  249.38   15.00
   0   9  -7   31.00    7.90
   0   9  -7   43.00    5.70
   0  -9   7   34.20    5.70
   0  -9   7   40.50    6.60
   0  -9   7   43.00    6.10
   0  -9   7   43.50    6.20
  -1   9  -7    1.70    7.10
  -1   9  -7    3.50    3.30
  -1   9  -7    4.30    2.90
   1  -9   7    2.40    4.20
   1  -9   7    2.90    3.10
   1  -9   7   -2.10    3.30
   1  -9   7    1.00    3.10
   1  -9   7    0.50    2.60
  -2   9  -7   10.50    2.60
  -2   9  -7    6.30    3.90
  -2   9  -7    8.70    8.60
   2  -9   7   19.10    5.20
   2  -9   7   14.30    3.40
   2  -9   7    7.50    2.80
  -3   9  -7  151.68    9.10
  -3   9  -7  146.09   16.90
  -3   9  -7  152.38    7.50
   3  -9   7  181.08   18.60
   3  -9   7  160.08    9.70
   3  -9   7  163.78    8.60
  -4   9  -7    4.90    2.50
  -4   9  -7    1.80    7.30
  -4   9  -7    5.60    1.60
   4  -9   7    7.50    2.00
   4  -9   7   24.90   14.10
   4  -9   7    1.30    3.00
  -5   9  -7  277.47   12.50
  -5   9  -7  281.27   14.30
   5  -9   7  275.57   43.50
   5  -9   7  274.57   12.10
   5  -9   7  281.47   14.30
  -6   9  -7   18.30    3.30
  -6   9  -7   10.60    4.40
  -6   9  -7   15.30    3.60
   6  -9   7   17.40    4.10
   6  -9   7   19.80   16.80
   5   8  -7   -1.10    5.10
  -5  -8   7   -5.90    4.90
  -5  -8   7   -0.30    6.40
  -5  -8   7    6.50    6.20
   4   8  -7  109.39    9.60
   4   8  -7  119.39    9.10
   4   8  -7   99.19   11.40
  -4  -8   7  107.79   11.20
  -4  -8   7  114.99   12.60
   3   8  -7  300.17   16.40
   3   8  -7  287.67   16.80
  -3  -8   7  303.27   18.00
  -3  -8   7  288.67   23.20
   2   8  -7  784.62   35.80
   2   8  -7  805.82   34.00
  -2  -8   7  823.42   33.00
  -2  -8   7  789.22   35.00
  -2  -8   7  782.82   35.10
   1   8  -7   32.30    5.00
   1   8  -7   29.90    7.00
  -1  -8   7   34.60    6.20
  -1  -8   7   24.40    5.80
  -1  -8   7   35.00    4.50
   0   8  -7  786.62   31.40
   0   8  -7  669.73   36.10
   0  -8   7  723.33   29.70
   0  -8   7  728.63   31.30
   0  -8   7  773.02   32.70
   0  -8   7  768.72   32.10
  -1   8  -7  176.38   10.10
  -1   8  -7  167.48   16.10
  -1   8  -7  167.88    9.90
   1  -8   7  170.08   10.50
   1  -8   7  157.78   10.60
   1  -8   7  180.88   12.20
   1  -8   7  183.28   10.40
   1  -8   7  181.58   10.70
  -2   8  -7   13.10    2.60
  -2   8  -7   10.10    3.30
  -2   8  -7   19.20    7.90
   2  -8   7   18.70    3.80
   2  -8   7    6.20    5.10
  -3   8  -7   -0.90    7.10
  -3   8  -7    0.60    3.10
  -3   8  -7   -0.30    1.00
  -3   8  -7    1.00    2.10
   3  -8   7    8.60    6.70
   3  -8   7    1.50    2.80
   3  -8   7    2.70    1.60
  -4   8  -7   77.39   12.60
  -4   8  -7   63.39    7.40
  -4   8  -7   46.30    5.00
  -4   8  -7   50.39    3.70
   4  -8   7   51.49    5.90
   4  -8   7   48.40    3.80
   4  -8   7   62.49   13.10
  -5   8  -7   12.20    3.30
  -5   8  -7   10.60    2.20
   5  -8   7   10.00    3.40
   5  -8   7   16.40    2.70
  -6   8  -7   23.70    4.00
  -6   8  -7   26.10    4.60
  -6   8  -7   37.30    6.00
   6  -8   7  -16.50   18.70
   6  -8   7   21.10    4.30
  -7   8  -7    1.30    3.80
  -7   8  -7    7.80    4.20
   7  -8   7  -20.40   18.10
   7  -8   7   10.20    3.80
   5   7  -7   19.50    4.90
   5   7  -7   17.30    6.00
   5   7  -7    9.90    4.50
  -5  -7   7    5.40    5.40
  -5  -7   7   15.10    6.20
  -5  -7   7   24.70    6.70
   4   7  -7   77.99    7.60
   4   7  -7   88.79    8.90
   4   7  -7   88.79    7.90
  -4  -7   7   65.29    9.80
  -4  -7   7   82.49   13.00
   3   7  -7  260.37   15.10
   3   7  -7  273.07   13.80
   3   7  -7  292.07   15.40
  -3  -7   7  270.17   16.10
  -3  -7   7  291.07   16.50
  -3  -7   7  261.47   12.20
  -3  -7   7  254.37   14.80
   2   7  -7    3.30    4.30
   2   7  -7   -0.70    2.30
  -2  -7   7    0.00    3.10
  -2  -7   7   -2.10    3.50
  -2  -7   7   -1.00    1.80
   1   7  -7  325.87   19.60
   1   7  -7  327.57   16.30
  -1  -7   7  348.27   14.40
  -1  -7   7  345.37   17.80
  -1  -7   7  338.67   17.50
  -1  -7   7  332.57   14.80
   0   7  -7  834.92   33.10
   0   7  -7  798.22   31.90
   0   7  -7  727.63   38.30
   0  -7   7  811.72   33.70
   0  -7   7  814.12   32.40
   0  -7   7  817.42   34.20
   0  -7   7  823.72   33.70
  -1   7  -7  151.88    8.70
  -1   7  -7  117.69   14.80
  -1   7  -7  155.98    8.30
   1  -7   7  142.19   10.30
   1  -7   7  126.69    9.20
   1  -7   7  164.78    9.20
   1  -7   7  144.99    9.20
   1  -7   7  146.19    9.80
  -2   7  -7  482.75   19.80
  -2   7  -7  425.06   27.30
  -2   7  -7  465.05   19.90
  -2   7  -7  467.55   18.10
   2  -7   7  457.75   21.00
   2  -7   7  485.75   19.50
   2  -7   7  457.95   23.50
  -3   7  -7   34.90    4.70
  -3   7  -7   50.89    5.70
  -3   7  -7   40.90    9.10
  -3   7  -7   39.00    4.00
  -3   7  -7   38.30    2.80
   3  -7   7   38.30    3.40
   3  -7   7   37.50    5.30
   3  -7   7   29.30    8.80
  -4   7  -7   11.90    3.70
  -4   7  -7    5.60    1.60
  -4   7  -7    7.30    2.50
   4  -7   7    3.30    1.60
   4  -7   7    9.30    3.00
   4  -7   7   -2.70   10.30
  -6   7  -7  118.59    9.00
  -6   7  -7  138.69    8.50
  -6   7  -7  118.39    8.80
   6  -7   7   84.09   31.30
   6  -7   7  132.69    9.40
  -7   7  -7   63.29    9.90
  -7   7  -7   41.10    7.40
   7  -7   7   76.99   23.00
   7  -7   7   45.00    6.90
   6   6  -7  101.39   10.70
   6   6  -7  104.49    8.70
   6   6  -7  135.99   12.30
  -6  -6   7  135.39   15.80
  -6  -6   7  137.79   11.60
  -6  -6   7  120.19   12.80
  -6  -6   7  130.49   12.80
   5   6  -7   35.60    5.80
   5   6  -7   51.29    7.90
   5   6  -7   34.40    6.10
  -5  -6   7   57.79   10.40
  -5  -6   7   36.40    7.00
  -5  -6   7   49.20    8.50
  -5  -6   7   44.60    9.20
   4   6  -7  220.18   12.90
   4   6  -7  233.48   14.50
   4   6  -7  223.58   12.60
  -4  -6   7  232.08   14.60
  -4  -6   7  197.98   15.00
  -4  -6   7  239.08   13.50
  -4  -6   7  237.18   14.60
   3   6  -7    1.20    2.40
   3   6  -7    0.60    3.30
   3   6  -7   -0.30    2.80
  -3  -6   7    3.20    3.40
  -3  -6   7   -1.60    1.70
  -3  -6   7   -4.00    3.60
   2   6  -7  180.48   12.10
   2   6  -7  165.18   10.10
   2   6  -7  174.78   10.00
  -2  -6   7  159.68   11.00
  -2  -6   7  161.48   11.30
  -2  -6   7  166.98    8.60
  -2  -6   7  177.08    9.70
   1   6  -7  555.64   29.20
   1   6  -7  628.54   24.80
   1   6  -7  624.64   25.90
  -1  -6   7  599.94   26.70
  -1  -6   7  608.04   24.80
  -1  -6   7  572.64   27.10
  -1  -6   7  607.34   26.80
  -1  -6   7  637.24   23.20
   0   6  -7   87.09   11.40
   0   6  -7  100.19    6.70
   0   6  -7  104.39    6.40
   0  -6   7   92.79    7.60
   0  -6   7  107.79    7.50
   0  -6   7  101.59    7.60
   0  -6   7   95.69    7.50
   0  -6   7   92.49    7.60
  -1   6  -7 1315.77   64.19
  -1   6  -7 1548.65   57.19
  -1   6  -7 1551.94   57.39
   1  -6   7 1588.44   57.29
   1  -6   7 1543.35   58.79
   1  -6   7 1560.44   58.29
   1  -6   7 1448.56   57.99
   1  -6   7 1563.74   58.59
   1  -6   7 1519.05   58.99
  -2   6  -7  103.79   12.90
  -2   6  -7  126.69    7.30
  -2   6  -7  131.59    5.90
  -2   6  -7  140.29    7.10
  -2   6  -7  135.69    8.30
   2  -6   7  134.09   11.30
   2  -6   7  133.49    8.80
   2  -6   7  135.19    7.10
  -3   6  -7  124.89    8.30
  -3   6  -7  118.19    6.90
  -3   6  -7  119.39    5.60
   3  -6   7   97.19   15.30
   3  -6   7  117.39    5.60
   3  -6   7  121.19    8.40
  -4   6  -7  162.18    8.20
  -4   6  -7  163.58    9.10
  -4   6  -7  182.38   10.70
   4  -6   7  168.28    7.40
   4  -6   7  184.68   23.80
   4  -6   7  165.98   10.20
  -5   6  -7  488.45   21.10
  -5   6  -7  518.15   22.20
  -5   6  -7  535.45   22.80
   5  -6   7  474.85   35.60
   5  -6   7  489.65   22.50
  -6   6  -7  416.26   18.60
  -6   6  -7  366.36   18.00
  -6   6  -7  397.06   19.00
   6  -6   7  393.76   18.90
  -7   6  -7   38.30    6.10
  -7   6  -7   53.39    7.60
   7  -6   7   44.90    7.10
   7  -6   7   94.79   25.20
   6   5  -7  105.59   10.90
   6   5  -7  108.89    8.00
   6   5  -7  118.69   10.70
  -6  -5   7  104.29   11.70
  -6  -5   7  109.29   10.50
  -6  -5   7  113.49   13.80
   5   5  -7  429.56   20.50
   5   5  -7  404.36   20.00
   5   5  -7  398.66   18.40
  -5  -5   7  398.86   19.90
  -5  -5   7  381.56   20.90
  -5  -5   7  397.96   21.80
   4   5  -7   44.80    6.50
   4   5  -7   46.50    6.00
  -4  -5   7   62.09    7.30
  -4  -5   7   41.10    7.10
  -4  -5   7   51.89    6.30
   3   5  -7   53.79    5.90
   3   5  -7   59.99    6.50
   3   5  -7   61.39    6.90
  -3  -5   7   59.89    7.10
  -3  -5   7   61.09    6.80
  -3  -5   7   52.69    6.20
  -3  -5   7   51.09    4.50
  -3  -5   7   56.99    6.70
  -3  -5   7   62.19    5.80
   2   5  -7  141.99    8.50
   2   5  -7  134.59    8.80
   2   5  -7  128.99   10.40
   2   5  -7  135.39    7.80
  -2  -5   7  145.19    7.80
  -2  -5   7  141.39    9.60
  -2  -5   7  129.59    9.10
  -2  -5   7  126.39    8.10
  -2  -5   7  139.89    7.70
  -2  -5   7  122.49    9.20
   1   5  -7   18.10    2.60
   1   5  -7   18.80    3.30
   1   5  -7   14.70    5.30
  -1  -5   7   15.90    3.00
  -1  -5   7   14.00    3.10
  -1  -5   7   17.60    1.50
  -1  -5   7   21.70    3.70
  -1  -5   7   14.90    3.40
  -1  -5   7   14.70    3.60
   0   5  -7 1492.35   55.49
   0   5  -7 1527.45   54.19
   0   5  -7 1364.76   56.49
   0  -5   7 1458.85   56.79
   0  -5   7 1459.95   56.19
   0  -5   7 1444.46   56.19
   0  -5   7 1508.65   56.39
   0  -5   7 1479.65   56.09
   0  -5   7 1418.96   55.59
  -1   5  -7    3.60    4.60
  -1   5  -7   -0.60    1.00
  -1   5  -7    2.00    2.60
  -1   5  -7    1.10    1.00
  -1   5  -7    4.20    2.00
   1  -5   7    1.10    1.90
   1  -5   7   -1.80    2.10
   1  -5   7   -0.60    2.40
   1  -5   7    0.50    2.40
  -2   5  -7 1102.69   43.50
  -2   5  -7 1132.69   40.40
  -2   5  -7 1124.59   46.70
  -2   5  -7  999.10   43.30
  -2   5  -7 1120.29   42.20
   2  -5   7 1128.39   43.20
   2  -5   7 1125.19   40.90
   2  -5   7 1123.09   44.10
   2  -5   7 1098.99   47.20
  -3   5  -7    9.80    3.50
  -3   5  -7    5.90    1.50
  -3   5  -7    9.50    2.90
  -3   5  -7    7.70    1.50
   3  -5   7    7.00    2.90
   3  -5   7    4.40    6.00
   3  -5   7    6.50    1.10
  -4   5  -7   10.30    2.00
  -4   5  -7   12.20    2.80
  -4   5  -7   14.30    3.70
   4  -5   7   11.80    3.30
  -5   5  -7   88.99    7.50
  -5   5  -7   85.79    6.20
  -5   5  -7   79.19    6.50
   5  -5   7   80.99    7.30
   5  -5   7  136.39   21.60
  -6   5  -7  133.19    9.00
  -6   5  -7  133.09    9.80
  -6   5  -7  153.28    9.80
   6  -5   7  143.49   10.40
   7   4  -7    4.30    5.50
   7   4  -7    7.50    5.50
  -7  -4   7   -8.00    6.20
  -7  -4   7   11.80    5.90
  -7  -4   7    2.40    5.50
   6   4  -7   26.80    5.40
   6   4  -7   44.20    7.70
   6   4  -7   33.80    5.90
  -6  -4   7   46.10    7.00
  -6  -4   7   46.10    7.90
  -6  -4   7   49.99    8.60
   5   4  -7  144.99    8.90
   5   4  -7  146.49   10.70
   5   4  -7  152.48   10.40
  -5  -4   7  143.39   10.40
  -5  -4   7  151.98   11.80
  -5  -4   7  146.29   10.90
   4   4  -7   11.90    3.50
   4   4  -7   16.20    3.30
   4   4  -7   22.10    4.40
  -4  -4   7   21.70    3.90
  -4  -4   7   24.90    5.20
  -4  -4   7   21.20    5.80
  -4  -4   7   18.90    4.60
   3   4  -7  272.07   14.90
   3   4  -7  278.27   14.00
   3   4  -7  278.57   14.50
  -3  -4   7  272.37   14.70
  -3  -4   7  274.37   13.20
  -3  -4   7  280.07   12.50
  -3  -4   7  273.57   15.00
  -3  -4   7  283.97   13.40
  -3  -4   7  264.77   14.40
   2   4  -7  503.35   22.00
   2   4  -7  478.05   22.50
   2   4  -7  523.45   20.10
   2   4  -7  436.36   23.80
  -2  -4   7  501.95   22.10
  -2  -4   7  501.65   20.80
  -2  -4   7  502.95   20.30
  -2  -4   7  501.15   20.50
  -2  -4   7  505.55   22.60
   1   4  -7    0.20    2.50
   1   4  -7   -0.70    2.20
   1   4  -7    6.70    4.40
   1   4  -7    1.10    1.50
   1   4  -7    1.50    1.20
  -1  -4   7    0.40    2.10
  -1  -4   7    1.60    1.80
  -1  -4   7    0.70    1.70
  -1  -4   7    3.10    2.00
  -1  -4   7   -0.20    2.40
   0   4  -7   19.60    3.70
   0   4  -7   13.10    4.40
   0   4  -7   15.10    2.10
   0   4  -7   11.20    2.60
   0   4  -7   19.70    3.80
   0   4  -7   14.80    2.70
   0  -4   7   21.10    3.80
   0  -4   7   16.40    3.10
   0  -4   7   21.00    3.50
   0  -4   7   15.10    4.00
   0  -4   7   17.70    3.30
   0  -4   7   14.20    3.50
  -1   4  -7   72.59    5.70
  -1   4  -7   81.79    3.40
  -1   4  -7   80.89    6.00
  -1   4  -7   77.89    6.70
  -1   4  -7   78.19    4.90
  -1   4  -7   66.19    8.80
   1  -4   7   76.29    9.40
   1  -4   7   78.19    6.90
   1  -4   7   73.39    5.40
   1  -4   7   67.19    6.10
   1  -4   7   77.89    5.40
  -2   4  -7   83.89    5.10
  -2   4  -7   81.59    6.00
  -2   4  -7   79.59    4.00
  -2   4  -7   66.79    7.60
  -2   4  -7   80.79    6.30
   2  -4   7   86.59    6.00
   2  -4   7   78.29    6.50
   2  -4   7   77.79    3.50
   2  -4   7   85.79   10.30
  -3   4  -7   98.79    7.00
  -3   4  -7   82.89    4.90
  -3   4  -7   87.39    6.30
  -3   4  -7   75.79    5.30
   3  -4   7   78.29    6.70
   3  -4   7   71.59   11.40
   3  -4   7   71.59    6.10
  -4   4  -7  141.49    7.90
  -4   4  -7  124.09    9.30
  -4   4  -7  119.09    6.70
  -4   4  -7  123.79    7.90
   4  -4   7  123.29    8.70
   4  -4   7  120.49    6.00
   4  -4   7  120.99   17.90
  -5   4  -7  464.55   19.90
  -5   4  -7  478.25   21.20
  -5   4  -7  469.75   20.50
  -5   4  -7  462.95   21.60
   5  -4   7  452.25   21.30
   5  -4   7  469.55   30.80
  -6   4  -7    4.10    3.10
  -6   4  -7   16.00    3.70
  -6   4  -7    9.90    4.00
  -6   4  -7   10.80    3.20
   6  -4   7   17.20   13.80
  -7   4  -7   19.10    5.70
  -7   4  -7   28.30    5.20
   7  -4   7   20.40    4.30
   7  -4   7   12.60   19.80
   7   3  -7   17.80    5.90
   7   3  -7   20.40    5.80
  -7  -3   7   25.90    6.90
  -7  -3   7   29.00    6.00
  -7  -3   7   38.70    6.50
   6   3  -7   17.20    4.70
   6   3  -7   16.00    3.80
   6   3  -7   32.00    6.00
  -6  -3   7   31.90    7.00
  -6  -3   7   26.50    5.00
   5   3  -7  183.98   11.00
   5   3  -7  174.38   10.00
   5   3  -7  169.38   11.50
  -5  -3   7  171.28   11.50
  -5  -3   7  160.38   12.40
  -5  -3   7  164.18   10.60
   4   3  -7  465.85   22.00
   4   3  -7  477.25   21.50
   4   3  -7  500.35   21.70
  -4  -3   7  475.85   20.80
  -4  -3   7  494.55   20.50
  -4  -3   7  461.05   21.90
  -4  -3   7  466.65   22.40
  -4  -3   7  488.45   23.30
   3   3  -7 1880.01   69.39
   3   3  -7 1993.90   71.49
   3   3  -7 1798.22   72.49
   3   3  -7 1898.21   72.09
  -3  -3   7 1922.61   70.29
  -3  -3   7 1867.91   71.69
  -3  -3   7 1891.81   70.09
  -3  -3   7 1857.61   72.69
  -3  -3   7 1918.51   71.39
  -3  -3   7 1847.02   69.59
   2   3  -7  620.84   24.90
   2   3  -7  585.34   25.10
   2   3  -7  593.04   25.90
   2   3  -7  604.94   23.40
   2   3  -7  615.64   27.90
  -2  -3   7  622.84   23.80
  -2  -3   7  609.64   26.30
  -2  -3   7  607.04   25.00
  -2  -3   7  600.14   24.90
  -2  -3   7  592.24   25.40
  -2  -3   7  617.14   24.00
   1   3  -7   80.39    6.30
   1   3  -7   85.39    6.80
   1   3  -7   74.39    6.00
   1   3  -7   79.39    5.20
   1   3  -7   77.79    5.30
   1   3  -7   81.09    4.10
  -1  -3   7   77.19    4.30
  -1  -3   7   78.29    6.00
  -1  -3   7   76.69    5.50
  -1  -3   7   90.29    6.90
  -1  -3   7   74.29    5.50
  -1  -3   7   80.69    6.60
   0   3  -7  444.56   19.30
   0   3  -7  474.05   19.30
   0   3  -7  449.26   18.00
   0   3  -7  452.15   19.10
   0   3  -7  466.55   16.60
   0  -3   7  427.96   19.80
   0  -3   7  420.46   22.60
   0  -3   7  452.85   19.00
   0  -3   7  445.06   19.00
   0  -3   7  413.36   19.90
   0  -3   7  440.06   18.40
  -1   3  -7   85.69    4.90
  -1   3  -7   83.79    7.30
  -1   3  -7   88.29    3.50
  -1   3  -7   86.39    6.20
  -1   3  -7   92.29    5.70
  -1   3  -7   83.29    6.50
  -1   3  -7   81.79    5.20
   1  -3   7   88.39    9.80
   1  -3   7   85.99    8.10
   1  -3   7   83.19    5.40
   1  -3   7   80.89    6.30
   1  -3   7   81.99    5.30
  -2   3  -7 1075.79   38.70
  -2   3  -7  955.50   40.50
  -2   3  -7 1076.19   38.80
  -2   3  -7  967.80   41.00
  -2   3  -7 1036.30   37.10
  -2   3  -7 1003.80   41.40
   2  -3   7 1043.40   44.90
   2  -3   7 1026.80   38.80
   2  -3   7  959.70   45.90
   2  -3   7  956.20   40.30
   2  -3   7 1034.20   38.90
  -3   3  -7  997.30   43.10
  -3   3  -7 1138.59   41.10
  -3   3  -7 1097.39   40.20
  -3   3  -7 1075.29   41.50
   3  -3   7 1070.29   41.10
   3  -3   7 1022.40   41.30
   3  -3   7 1084.89   43.10
   3  -3   7 1113.39   39.40
   3  -3   7 1117.39   49.99
  -4   3  -7  235.88   13.20
  -4   3  -7  239.18   11.90
  -4   3  -7  234.68   10.70
   4  -3   7  220.58   11.70
   4  -3   7  221.68   18.30
   4  -3   7  221.68    9.50
   4  -3   7  222.28   12.50
  -5   3  -7   42.40    6.30
  -5   3  -7   34.30    4.50
  -5   3  -7   44.50    4.60
  -5   3  -7   31.80    5.00
  -5   3  -7   42.90    5.10
   5  -3   7   40.80    5.50
   5  -3   7   66.39   13.70
  -6   3  -7  184.78   11.10
  -6   3  -7  181.18   10.60
  -6   3  -7  183.28   11.80
  -6   3  -7  173.88   10.20
   6  -3   7  165.98   11.70
  -7   3  -7    8.60    4.40
  -7   3  -7    1.70    5.20
   7  -3   7   10.30    3.50
   7   2  -7   63.09    8.90
   7   2  -7   56.09   10.10
  -7  -2   7   61.79   10.50
  -7  -2   7   56.19    8.70
  -7  -2   7   54.59    8.90
   6   2  -7   45.30    6.70
   6   2  -7   33.20    5.00
   6   2  -7   44.70    4.10
   6   2  -7   43.90    6.70
  -6  -2   7   43.60    7.40
  -6  -2   7   43.90    8.40
  -6  -2   7   34.30    5.40
   5   2  -7   43.60    5.40
   5   2  -7   39.10    5.10
   5   2  -7   39.60    6.60
   5   2  -7   53.29    4.30
  -5  -2   7   43.70    5.70
  -5  -2   7   49.80    6.30
  -5  -2   7   62.69    7.00
   4   2  -7  468.35   22.10
   4   2  -7  510.75   20.00
   4   2  -7  518.75   21.90
   4   2  -7  491.95   21.00
  -4  -2   7  499.25   22.70
  -4  -2   7  499.75   19.80
  -4  -2   7  456.65   21.60
  -4  -2   7  504.45   23.30
  -4  -2   7  460.75   20.70
   3   2  -7  244.08   10.70
   3   2  -7  254.27   11.40
   3   2  -7  256.37   12.20
   3   2  -7  263.47   12.90
   3   2  -7  235.88   13.00
  -3  -2   7  245.48   11.90
  -3  -2   7  245.08   12.50
  -3  -2   7  241.28   10.40
  -3  -2   7  230.48   13.10
  -3  -2   7  253.17   12.30
  -3  -2   7  245.88   11.40
   2   2  -7 2002.90   73.79
   2   2  -7 1922.91   75.49
   2   2  -7 1977.70   73.79
   2   2  -7 1990.10   72.29
   2   2  -7 2092.59   75.99
   2   2  -7 1960.60   73.99
   2   2  -7 1960.70   74.69
  -2  -2   7 2126.39   73.39
  -2  -2   7 1971.30   72.49
  -2  -2   7 2056.49   74.69
  -2  -2   7 2054.59   72.99
  -2  -2   7 1930.41   75.29
  -2  -2   7 1905.01   74.09
   1   2  -7  190.08    9.20
   1   2  -7  164.68    8.60
   1   2  -7  171.78   10.10
   1   2  -7  148.59    9.40
   1   2  -7  166.38    7.90
  -1  -2   7  167.78    7.10
  -1  -2   7  172.48    8.30
  -1  -2   7  142.49   10.80
  -1  -2   7  167.48    9.60
  -1  -2   7  162.78    8.30
  -1  -2   7  176.08    7.60
   0   2  -7    2.70    1.80
   0   2  -7    4.20    1.30
   0   2  -7    2.70    1.10
   0   2  -7    3.90    1.70
   0   2  -7    2.00    1.80
   0  -2   7   -0.80    2.40
   0  -2   7    1.90    1.30
   0  -2   7    0.10    1.60
   0  -2   7    4.40    1.50
   0  -2   7    4.10    1.70
   0  -2   7   -0.30    4.30
   0  -2   7    3.90    2.00
  -1   2  -7   99.39    7.70
  -1   2  -7   94.89    5.40
  -1   2  -7   96.79    6.80
  -1   2  -7   93.79    6.30
  -1   2  -7   96.69    5.10
  -1   2  -7  100.99    6.80
   1  -2   7   91.99    3.90
   1  -2   7   93.89   10.00
   1  -2   7   93.19    6.90
   1  -2   7   97.69    5.50
   1  -2   7   99.39    6.10
   1  -2   7   85.89    9.20
   1  -2   7   90.79    5.00
  -2   2  -7 1156.18   48.10
  -2   2  -7 1265.97   44.90
  -2   2  -7 1105.09   48.40
  -2   2  -7 1205.18   44.20
  -2   2  -7 1204.88   48.00
  -2   2  -7 1248.98   45.70
   2  -2   7 1220.48   46.30
   2  -2   7 1256.47   45.40
   2  -2   7 1220.58   43.60
   2  -2   7 1182.68   47.30
   2  -2   7 1231.98   52.49
  -3   2  -7  185.88    8.20
  -3   2  -7  167.98    8.20
  -3   2  -7  188.08    9.50
  -3   2  -7  161.58   10.80
   3  -2   7  163.28    8.80
   3  -2   7  209.48   14.70
   3  -2   7  169.78   10.30
   3  -2   7  175.08    7.40
   3  -2   7  171.18    9.50
  -4   2  -7    3.60    1.90
  -4   2  -7   -0.40    2.30
  -4   2  -7    5.30    2.10
  -4   2  -7    3.80    3.10
  -4   2  -7    2.90    1.60
   4  -2   7    2.20    1.50
   4  -2   7    4.60    2.80
   4  -2   7    2.50    2.40
   4  -2   7   22.30    6.90
  -5   2  -7   -0.50    2.00
  -5   2  -7   -1.30    2.40
  -5   2  -7    1.90    3.50
   5  -2   7   -1.30    2.60
  -6   2  -7  158.68   11.40
  -6   2  -7  161.28    8.90
  -6   2  -7  138.79    9.50
   6  -2   7  144.69   10.20
  -7   2  -7   39.30    7.50
   7  -2   7   34.40    6.30
   8   1  -7   14.70    6.00
   8   1  -7   22.90    5.60
  -8  -1   7   27.30    6.50
  -8  -1   7   14.90    7.50
  -8  -1   7   13.50    5.70
   7   1  -7   19.90    5.70
   7   1  -7   29.40    5.50
  -7  -1   7   19.50    5.10
  -7  -1   7   13.60    5.80
  -7  -1   7   20.70    5.90
   6   1  -7   57.59    8.60
   6   1  -7   49.90    4.90
   6   1  -7   71.89    7.40
  -6  -1   7   69.69    8.20
  -6  -1   7   33.10    8.90
  -6  -1   7   59.79    7.40
  -6  -1   7   55.99    7.20
   5   1  -7   66.99    6.90
   5   1  -7   60.79    7.30
   5   1  -7   65.39    4.60
  -5  -1   7   62.59    6.10
  -5  -1   7   69.19    6.50
  -5  -1   7   45.80    8.60
  -5  -1   7   71.29    7.80
   4   1  -7   75.69    5.10
   4   1  -7   74.09    6.90
   4   1  -7   86.39    6.40
  -4  -1   7   98.99    7.40
  -4  -1   7   77.09    5.80
  -4  -1   7   79.99    6.20
   3   1  -7  824.22   32.00
   3   1  -7  799.62   31.70
   3   1  -7  791.82   33.80
   3   1  -7  852.91   32.20
   3   1  -7  822.32   32.80
   3   1  -7  841.42   30.80
  -3  -1   7  781.92   30.40
  -3  -1   7  838.52   32.60
  -3  -1   7  842.82   32.40
  -3  -1   7  811.92   32.40
  -3  -1   7  810.62   33.70
  -3  -1   7  827.82   31.60
   2   1  -7  116.69    8.20
   2   1  -7  117.09    5.10
   2   1  -7  119.09    7.00
   2   1  -7  112.89    6.80
   2   1  -7  118.79    6.10
   2   1  -7  115.09    6.20
  -2  -1   7  118.09    7.70
  -2  -1   7  115.89    6.40
  -2  -1   7  109.09    7.20
  -2  -1   7  116.79    5.70
  -2  -1   7   97.79    7.50
  -2  -1   7  115.69    6.50
  -2  -1   7  116.99    6.30
   1   1  -7   13.00    2.30
   1   1  -7   18.50    3.00
   1   1  -7   13.20    3.00
   1   1  -7   13.10    1.60
   1   1  -7   14.50    1.10
   1   1  -7   15.00    2.60
  -1  -1   7   11.60    2.40
  -1  -1   7   13.70    1.40
  -1  -1   7   13.30    2.10
  -1  -1   7   13.30    2.80
  -1  -1   7   11.30    3.80
  -1  -1   7   15.50    2.90
  -1  -1   7   14.70    2.30
  -1  -1   7   14.30    3.20
   0   1  -7  181.28    8.30
   0   1  -7  185.18    9.20
   0   1  -7  193.68    7.90
   0   1  -7  177.58   10.20
   0  -1   7  178.98    9.40
   0  -1   7  192.18    9.70
   0  -1   7  191.38   10.90
   0  -1   7  191.48   10.40
   0  -1   7  176.28    8.50
   0  -1   7  185.88    7.90
   0  -1   7  181.98    8.20
  -1   1  -7 2006.70   71.29
  -1   1  -7 1950.50   72.09
  -1   1  -7 1904.01   68.49
  -1   1  -7 1871.11   72.09
  -1   1  -7 1920.71   71.79
  -1   1  -7 1826.82   69.19
   1  -1   7 1869.41   67.79
   1  -1   7 1896.71   71.59
   1  -1   7 1880.41   68.19
   1  -1   7 1881.41   69.09
   1  -1   7 1870.31   68.39
   1  -1   7 1874.01   74.39
   1  -1   7 1877.81   70.99
  -2   1  -7    0.30    2.40
  -2   1  -7    1.20    1.00
  -2   1  -7    0.20    3.30
  -2   1  -7    1.00    6.10
  -2   1  -7    3.90    2.80
  -2   1  -7   -2.40    1.40
   2  -1   7   -0.40    0.80
   2  -1   7    7.30    4.00
   2  -1   7   -1.70    2.20
   2  -1   7   -1.30    2.20
   2  -1   7   -0.20    1.40
  -3   1  -7  194.68   12.00
   3  -1   7  221.48   14.90
   3  -1   7  199.28   11.20
   3  -1   7  200.18    9.80
  -4   1  -7   88.19    6.00
  -4   1  -7   88.99    8.30
  -4   1  -7  100.39    5.00
  -4   1  -7   97.99    4.80
  -4   1  -7   91.49    7.10
  -4   1  -7   96.09    5.10
   4  -1   7   93.59    6.70
   4  -1   7   94.39    5.60
   4  -1   7   88.19    7.50
  -5   1  -7    3.10    2.40
  -5   1  -7    5.50    1.70
  -5   1  -7    9.00    2.50
  -5   1  -7    9.90    3.40
   5  -1   7    8.50    3.30
  -6   1  -7   71.39    7.70
  -6   1  -7   53.29    6.60
  -6   1  -7   51.09    7.80
   6  -1   7   45.30    8.90
   6  -1   7   52.79    7.00
  -7   1  -7   39.00    6.40
  -7   1  -7   55.29    9.80
   7  -1   7   49.50    9.30
   7  -1   7   36.20    6.60
   8   0  -7   19.80    6.60
   8   0  -7   29.80    6.40
  -8   0   7   24.80    6.30
  -8   0   7   22.60    5.80
  -8   0   7   39.00    9.20
   7   0  -7  184.88   11.80
   7   0  -7  160.58   13.10
  -7   0   7  162.68   12.00
  -7   0   7  157.98   14.70
  -7   0   7  161.88   12.40
   6   0  -7   50.29    4.20
   6   0  -7   49.80    7.80
   6   0  -7   51.29    6.50
  -6   0   7   47.30    6.40
  -6   0   7   47.40    9.60
  -6   0   7   41.10    6.50
   5   0  -7  497.35   19.90
   5   0  -7  478.35   23.00
   5   0  -7  508.35   21.90
  -5   0   7  497.75   21.40
  -5   0   7  492.65   23.30
  -5   0   7  488.85   24.70
  -5   0   7  466.85   21.40
   4   0  -7  147.29    7.80
   4   0  -7  130.49    9.20
   4   0  -7  145.39    8.20
  -4   0   7  129.29    7.80
  -4   0   7  124.29    8.90
  -4   0   7  149.09    7.90
   3   0  -7    3.00    1.60
   3   0  -7    4.50    2.40
   3   0  -7    0.80    1.90
   3   0  -7    1.30    1.00
   3   0  -7    1.70    1.50
  -3   0   7    2.20    0.90
  -3   0   7    0.50    1.50
  -3   0   7    3.80    2.50
  -3   0   7    1.80    1.40
  -3   0   7    1.80    1.70
  -3   0   7    3.00    3.30
  -3   0   7    1.80    1.30
   2   0  -7  400.76   15.40
   2   0  -7  379.46   18.30
   2   0  -7  383.76   16.30
   2   0  -7  401.86   15.10
   2   0  -7  361.06   16.30
   2   0  -7  398.56   17.40
  -2   0   7  394.96   17.30
  -2   0   7  409.96   17.20
  -2   0   7  397.16   18.10
  -2   0   7  398.46   15.70
  -2   0   7  414.06   15.80
  -2   0   7  391.36   17.10
  -2   0   7  403.26   15.40
  -2   0   7  381.76   17.40
  -2   0   7  386.96   16.20
   1   0  -7   24.90    3.60
   1   0  -7   25.80    1.80
   1   0  -7   22.50    2.50
   1   0  -7   20.20    3.80
   1   0  -7   28.10    2.50
   1   0  -7   22.90    2.80
  -1   0   7   21.30    3.80
  -1   0   7   31.20    4.80
  -1   0   7   25.90    1.70
  -1   0   7   23.90    3.80
  -1   0   7   25.40    2.00
  -1   0   7   22.50    2.50
  -1   0   7   20.60    3.60
  -1   0   7   23.90    3.10
  -1   0   7   19.60    3.40
   0   0  -7   66.59    3.70
   0   0  -7   68.29    4.40
   0   0  -7   66.59    5.70
   0   0  -7   62.19    5.50
   0   0   7   73.19    5.80
   0   0   7   71.59    5.90
   0   0   7   67.09    3.80
   0   0   7   70.29    3.60
   0   0   7   68.59    4.10
   0   0   7   60.59    5.40
   0   0   7   61.99    6.30
   0   0   7   72.99    6.60
  -1   0  -7   97.79    5.20
  -1   0  -7   95.29    4.50
  -1   0  -7   93.49    7.40
  -1   0  -7  103.59    7.50
  -1   0  -7   83.89    9.30
  -1   0  -7  101.39    7.80
   1   0   7  108.79    5.20
   1   0   7   93.69    4.60
   1   0   7  101.79    7.30
   1   0   7   95.99    7.10
   1   0   7   99.09    6.90
   1   0   7   95.49    5.10
  -2   0  -7    9.20    2.10
  -2   0  -7   17.70    4.40
  -2   0  -7   12.10    1.50
   2   0   7   11.80    2.10
   2   0   7   10.40    2.80
   2   0   7    2.80    3.20
   2   0   7   13.50    1.80
   2   0   7   13.90    3.80
  -3   0  -7  350.76   14.90
  -3   0  -7  361.66   13.80
  -3   0  -7  322.77   17.40
  -3   0  -7  320.87   17.00
  -3   0  -7  352.96   19.50
   3   0   7  354.66   15.10
   3   0   7  343.27   16.60
   3   0   7  341.87   14.20
  -4   0  -7    2.30    1.60
  -4   0  -7   -1.20    1.80
  -4   0  -7    0.80    2.40
  -4   0  -7    9.40    5.60
  -4   0  -7    0.60    3.40
   4   0   7    0.80    2.30
   4   0   7    0.90    2.50
  -5   0  -7   -0.40    2.60
  -5   0  -7   -2.10    3.30
  -5   0  -7    3.50    1.90
   5   0   7    1.90    4.00
   5   0   7   -0.40    3.20
  -6   0  -7   45.60    6.90
  -6   0  -7   42.30    7.60
   6   0   7   45.00    6.40
   6   0   7   33.50    7.30
  -7   0  -7   11.40    5.40
   7   0   7   30.10    7.50
   7   0   7   22.50    4.40
   8  -1  -7   61.09   10.80
  -8   1   7   53.99    7.60
  -8   1   7   66.89   11.00
  -8   1   7   41.10    6.80
   7  -1  -7  232.08   13.70
   7  -1  -7  205.08   14.70
  -7   1   7  184.08   16.50
  -7   1   7  188.18   14.40
  -7   1   7  212.88   15.80
   6  -1  -7  271.57   14.40
   6  -1  -7  251.77   15.10
  -6   1   7  244.58   20.20
  -6   1   7  245.78   13.40
  -6   1   7  243.38   15.70
  -6   1   7  243.68   13.50
   5  -1  -7   37.80    6.60
   5  -1  -7   39.80    4.00
   5  -1  -7   47.50    5.30
  -5   1   7   32.40    4.60
  -5   1   7   24.60    6.50
  -5   1   7   34.40    4.60
   4  -1  -7    2.90    2.00
   4  -1  -7    3.00    2.60
   4  -1  -7    4.00    2.10
  -4   1   7    2.80    1.70
  -4   1   7    2.60    2.20
  -4   1   7    1.10    3.30
   3  -1  -7  478.15   17.70
   3  -1  -7  510.45   19.20
   3  -1  -7  428.46   20.50
   3  -1  -7  447.76   17.30
  -3   1   7  449.16   19.40
  -3   1   7  452.15   17.90
  -3   1   7  448.76   18.10
  -3   1   7  448.66   19.90
  -3   1   7  428.96   18.50
  -3   1   7  448.26   17.50
  -3   1   7  438.26   19.30
  -3   1   7  442.56   19.30
  -3   1   7  447.26   20.00
   2  -1  -7 1226.38   48.30
   2  -1  -7 1253.07   49.40
   2  -1  -7 1268.57   47.00
  -2   1   7 1308.07   47.30
  -2   1   7 1254.57   48.10
  -2   1   7 1232.38   47.70
  -2   1   7 1259.07   48.80
  -2   1   7 1239.98   45.90
  -2   1   7 1250.27   48.10
   1  -1  -7  422.56   19.30
   1  -1  -7  452.35   19.70
  -1   1   7  424.16   17.40
  -1   1   7  435.46   16.10
  -1   1   7  423.16   20.40
  -1   1   7  437.56   19.20
  -1   1   7  416.66   19.10
   0  -1  -7  170.98   10.60
   0  -1  -7  196.78   10.60
   0  -1  -7  190.38    9.20
   0  -1  -7  179.18   10.70
   0  -1  -7  193.28    8.50
   0  -1  -7  198.18    7.90
   0   1   7  197.58    7.60
   0   1   7  189.98   10.80
   0   1   7  187.28   10.90
   0   1   7  186.28    8.10
   0   1   7  185.18   10.20
   0   1   7  184.28   11.40
   0   1   7  186.68    8.70
  -1  -1  -7  213.78   12.00
  -1  -1  -7  206.98    9.20
  -1  -1  -7  206.98   11.70
  -1  -1  -7  190.08   12.10
  -1  -1  -7  214.48    9.00
  -1  -1  -7  176.88   14.40
   1   1   7  210.68   11.90
   1   1   7  205.48    9.10
   1   1   7  207.48    8.80
   1   1   7  199.38   10.90
  -2  -1  -7  513.95   24.50
  -2  -1  -7  479.95   22.90
  -2  -1  -7  513.55   19.50
  -2  -1  -7  489.45   20.30
   2   1   7  524.75   20.80
   2   1   7  482.15   19.70
   2   1   7  457.85   21.30
   2   1   7  487.55   21.60
  -3  -1  -7   58.89    5.90
  -3  -1  -7   51.49    4.20
  -3  -1  -7   50.99    4.60
  -3  -1  -7   68.69    8.00
  -3  -1  -7   39.90    6.40
   3   1   7   54.89    4.90
   3   1   7   54.49    5.80
   3   1   7   47.80    6.10
   3   1   7   54.49    4.90
  -4  -1  -7  525.15   23.00
  -4  -1  -7  574.54   21.50
  -4  -1  -7  488.35   22.00
  -4  -1  -7  531.15   27.60
   4   1   7  534.45   23.30
   4   1   7  495.15   24.50
   4   1   7  478.15   21.70
  -5  -1  -7   94.29    7.30
  -5  -1  -7   89.59    7.30
  -5  -1  -7   87.09    8.70
   5   1   7   97.59    8.20
  -6  -1  -7   54.49    9.50
  -6  -1  -7   62.99    7.70
   6   1   7   62.09    7.10
   6   1   7   53.49   11.00
   8  -2  -7   93.19   11.90
  -8   2   7  115.79   14.50
  -8   2   7   86.79   10.10
  -8   2   7   88.99    9.60
   7  -2  -7   20.80    4.60
   7  -2  -7   21.20    6.00
  -7   2   7   15.00    5.10
  -7   2   7   33.10    7.40
   6  -2  -7   44.40    7.90
   6  -2  -7   50.29    6.80
  -6   2   7   62.59    5.80
  -6   2   7   26.80   10.00
  -6   2   7   36.50    5.90
  -6   2   7   52.49    7.30
   5  -2  -7    2.90    2.50
   5  -2  -7    0.10    1.90
   5  -2  -7    7.40    3.50
  -5   2   7    4.70    3.40
  -5   2   7    4.40    2.10
  -5   2   7    3.70    6.40
  -5   2   7    1.20    2.20
   4  -2  -7  127.59    6.40
   4  -2  -7  132.29    7.60
   4  -2  -7  126.69    9.00
  -4   2   7  128.39    7.70
  -4   2   7  121.49    6.90
  -4   2   7  137.19    8.40
  -4   2   7  112.69   11.00
  -4   2   7  132.69    7.00
  -4   2   7  122.59    6.70
   3  -2  -7  915.21   33.10
   3  -2  -7  918.81   35.90
   3  -2  -7  909.71   37.40
  -3   2   7  927.51   37.50
  -3   2   7  892.21   34.10
  -3   2   7  884.11   36.00
  -3   2   7  913.81   34.20
  -3   2   7  904.81   35.60
   2  -2  -7 1024.10   39.50
   2  -2  -7  956.90   38.30
   2  -2  -7  991.00   40.10
   2  -2  -7  979.30   38.00
  -2   2   7  968.90   39.20
  -2   2   7 1004.10   38.20
  -2   2   7 1022.70   40.70
  -2   2   7 1001.00   39.00
  -2   2   7  971.40   36.60
  -2   2   7 1024.70   38.40
  -2   2   7  985.10   38.70
   1  -2  -7 1624.24   60.89
   1  -2  -7 1589.24   60.79
   1  -2  -7 1565.84   58.59
   1  -2  -7 1603.74   61.09
  -1   2   7 1611.04   59.19
  -1   2   7 1601.24   58.39
  -1   2   7 1593.34   60.89
  -1   2   7 1576.64   59.89
  -1   2   7 1462.45   60.79
  -1   2   7 1561.64   62.19
  -1   2   7 1610.94   61.39
   0  -2  -7  502.05   23.50
   0  -2  -7  541.95   24.50
   0  -2  -7  515.75   20.30
   0  -2  -7  499.75   21.80
   0  -2  -7  517.75   19.50
   0  -2  -7  499.95   22.90
   0   2   7  516.15   18.90
   0   2   7  481.35   23.90
   0   2   7  528.35   19.40
   0   2   7  508.55   20.90
   0   2   7  488.05   23.90
   0   2   7  524.55   22.30
   0   2   7  515.35   21.80
   0   2   7  470.65   23.40
  -1  -2  -7   17.50    2.50
  -1  -2  -7   15.60    6.00
  -1  -2  -7   25.30    5.00
  -1  -2  -7   23.70    4.40
  -1  -2  -7   20.80    4.50
  -1  -2  -7   23.00    3.00
   1   2   7   16.90    3.90
   1   2   7   24.40    2.70
   1   2   7   23.30    4.30
   1   2   7   23.40    3.10
   1   2   7   23.10    3.50
  -2  -2  -7  334.37   17.50
  -2  -2  -7  343.47   15.10
  -2  -2  -7  334.37   14.40
  -2  -2  -7  321.67   19.00
   2   2   7  308.57   15.40
   2   2   7  333.87   15.80
   2   2   7  325.97   14.60
   2   2   7  346.47   14.30
  -3  -2  -7  569.84   29.00
  -3  -2  -7  563.24   26.10
  -3  -2  -7  595.34   23.40
   3   2   7  567.74   24.50
   3   2   7  541.65   28.40
   3   2   7  556.34   25.30
   3   2   7  605.94   23.50
  -4  -2  -7  328.47   21.20
  -4  -2  -7  363.56   17.60
  -4  -2  -7  390.66   16.30
   4   2   7  319.27   18.10
   4   2   7  384.96   22.50
   4   2   7  355.26   16.60
   4   2   7  369.96   17.40
  -5  -2  -7   82.09    8.80
  -5  -2  -7   82.59    7.70
  -5  -2  -7   79.19    7.20
   5   2   7   65.59    8.60
   5   2   7   66.99   11.70
  -6  -2  -7   70.39   14.90
  -6  -2  -7   75.49   10.50
  -6  -2  -7   97.59    9.20
   6   2   7   62.89   11.10
   6   2   7   72.49   10.50
   6   2   7   87.79    8.20
   8  -3  -7   34.40    7.40
  -8   3   7   25.90    5.20
  -8   3   7   20.80    5.30
   7  -3  -7   59.09    9.40
   7  -3  -7   37.30    7.10
  -7   3   7   46.60    6.60
  -7   3   7   53.19    9.10
  -7   3   7   48.10    7.30
   6  -3  -7  119.29    9.10
   6  -3  -7   90.79    9.00
  -6   3   7  108.09    8.30
  -6   3   7  111.19    7.80
  -6   3   7   95.39   17.30
  -6   3   7  112.49    9.50
   5  -3  -7    1.50    3.20
   5  -3  -7    4.40    2.80
  -5   3   7   -1.50    6.60
  -5   3   7    7.90    2.10
  -5   3   7    1.70    2.00
   4  -3  -7    4.90    2.10
   4  -3  -7    1.70    2.80
   4  -3  -7    2.60    1.30
   4  -3  -7    0.50    2.00
  -4   3   7    0.00    2.90
  -4   3   7    0.00    1.40
  -4   3   7    2.50    3.00
  -4   3   7    0.90    0.90
  -4   3   7    2.30    1.80
   3  -3  -7   40.50    5.30
   3  -3  -7   45.20    4.70
   3  -3  -7   45.90    4.10
  -3   3   7   49.00    3.90
  -3   3   7   46.30    3.30
  -3   3   7   41.90    5.50
  -3   3   7   56.89    5.00
   2  -3  -7 1740.53   66.69
   2  -3  -7 1750.32   66.99
   2  -3  -7 1771.32   67.39
   2  -3  -7 1734.73   65.39
  -2   3   7 1720.03   63.89
  -2   3   7 1791.72   65.89
  -2   3   7 1854.31   66.19
  -2   3   7 1778.92   66.49
  -2   3   7 1738.93   65.29
  -2   3   7 1694.23   67.09
   1  -3  -7  173.58   10.00
   1  -3  -7  159.08   10.20
   1  -3  -7  176.88    8.50
   1  -3  -7  175.28   10.30
  -1   3   7  165.38   10.30
  -1   3   7  163.38    9.50
  -1   3   7  170.48    9.50
  -1   3   7  167.18    9.40
   0  -3  -7   14.40    3.40
   0  -3  -7   15.30    3.60
   0  -3  -7   10.40    3.00
   0  -3  -7   17.80    2.90
   0  -3  -7   13.00    2.40
   0  -3  -7   16.50    4.00
   0   3   7   14.80    2.20
   0   3   7   15.40    2.40
   0   3   7   15.70    1.90
   0   3   7   11.40    3.70
   0   3   7   14.80    3.70
   0   3   7   18.20    3.30
   0   3   7   13.20    2.90
  -1  -3  -7  370.06   18.00
  -1  -3  -7  381.76   16.40
  -1  -3  -7  402.66   16.60
  -1  -3  -7  407.86   21.50
   1   3   7  400.46   16.50
   1   3   7  377.86   17.10
   1   3   7  376.36   16.80
   1   3   7  392.16   18.40
   1   3   7  381.86   14.90
   1   3   7  376.96   15.50
   1   3   7  360.66   20.20
  -2  -3  -7   14.40    2.90
  -2  -3  -7   20.70    3.10
  -2  -3  -7   20.30    5.50
   2   3   7   23.70    3.60
   2   3   7   19.20    5.10
   2   3   7   11.90    4.40
   2   3   7   19.50    3.60
   2   3   7   21.50    3.60
  -3  -3  -7   10.70    5.30
   3   3   7   12.70    4.80
   3   3   7   15.60    3.30
   3   3   7   14.90    3.80
   3   3   7   12.80    3.50
  -4  -3  -7    9.40    3.20
  -4  -3  -7    0.90    7.40
   4   3   7   12.70    4.80
   4   3   7    8.00    5.30
   4   3   7   14.00    3.60
  -5  -3  -7    7.80    4.50
   5   3   7    0.90    4.90
   5   3   7   11.00    5.90
   5   3   7    6.00    3.70
   8  -4  -7    2.50    5.70
  -8   4   7   -7.20    3.80
  -8   4   7   -5.20    6.00
  -8   4   7   -0.30    3.80
   7  -4  -7  347.87   20.00
  -7   4   7  369.16   17.60
  -7   4   7  325.77   18.50
   6  -4  -7    7.30    4.50
   6  -4  -7    4.50    3.60
  -6   4   7    5.00    5.00
  -6   4   7    5.50    2.80
  -6   4   7    8.90    3.00
   5  -4  -7  288.07   16.80
   5  -4  -7  338.87   16.80
  -5   4   7  323.37   13.70
  -5   4   7  311.37   16.70
  -5   4   7  311.27   14.10
  -5   4   7  300.97   13.60
  -5   4   7  299.57   12.90
  -5   4   7  310.67   15.50
   4  -4  -7    8.60    3.10
   4  -4  -7   11.30    2.60
   4  -4  -7    4.30    3.20
  -4   4   7   13.20    2.20
  -4   4   7   10.50    2.40
  -4   4   7    9.80    2.10
  -4   4   7   15.60    2.40
  -4   4   7    9.50    3.50
  -4   4   7    7.40    1.70
   3  -4  -7  187.88    9.60
   3  -4  -7  175.78   11.00
  -3   4   7  177.48    8.10
  -3   4   7  171.38   10.90
  -3   4   7  184.58    9.10
   2  -4  -7  454.45   20.30
   2  -4  -7  447.56   20.20
   2  -4  -7  428.26   18.60
  -2   4   7  452.45   17.30
  -2   4   7  431.26   18.50
  -2   4   7  426.26   18.60
  -2   4   7  418.46   19.40
   1  -4  -7   -1.40    1.10
   1  -4  -7    0.60    2.30
   1  -4  -7   -0.40    2.10
  -1   4   7    1.60    2.80
  -1   4   7    0.20    2.40
  -1   4   7   -0.80    2.30
   0  -4  -7 1409.36   52.39
   0  -4  -7 1439.86   51.49
   0  -4  -7 1444.26   53.39
   0  -4  -7 1299.17   52.49
   0  -4  -7 1392.76   56.49
   0   4   7 1335.87   52.69
   0   4   7 1359.56   52.29
   0   4   7 1395.46   50.49
   0   4   7 1393.26   51.39
   0   4   7 1354.06   50.79
   0   4   7 1355.76   55.79
  -1  -4  -7    5.60    4.10
  -1  -4  -7   11.00    3.90
  -1  -4  -7   12.10    2.30
  -1  -4  -7   11.70    3.00
   1   4   7   14.20    2.70
   1   4   7   14.10    4.20
   1   4   7   12.50    2.50
   1   4   7   12.60    2.30
   1   4   7   12.00    4.30
   1   4   7   20.20    3.80
  -2  -4  -7  400.36   17.80
  -2  -4  -7  420.46   23.30
  -2  -4  -7  406.86   18.30
   2   4   7  381.16   16.90
   2   4   7  382.66   19.30
   2   4   7  385.06   21.80
   2   4   7  397.36   17.60
   2   4   7  385.56   17.90
  -3  -4  -7   37.00    6.40
  -3  -4  -7   30.90    7.90
  -3  -4  -7   37.70    4.90
   3   4   7   29.90    5.20
   3   4   7   44.60    4.90
   3   4   7   33.60    7.30
  -4  -4  -7   18.70    4.40
   4   4   7   31.20    5.20
  -5  -4  -7   90.89    9.30
  -5  -4  -7   72.89    8.30
  -5  -4  -7   54.79   11.20
   5   4   7   86.99   10.30
   8  -5  -7   73.09   12.40
  -8   5   7   84.99    8.60
  -8   5   7   53.89    7.80
  -8   5   7   76.69   13.00
   7  -5  -7   63.79   11.20
  -7   5   7   89.49    7.90
   6  -5  -7  362.26   20.70
  -6   5   7  396.06   17.50
  -6   5   7  392.86   17.10
   5  -5  -7  209.08   11.50
   5  -5  -7  182.28   13.20
  -5   5   7  199.18    9.70
  -5   5   7  209.28   10.90
  -5   5   7  205.08   11.80
  -5   5   7  234.88   13.30
  -5   5   7  206.08   10.80
  -5   5   7  219.78   10.40
   4  -5  -7  659.53   29.60
   4  -5  -7  672.13   27.50
  -4   5   7  672.13   25.90
  -4   5   7  661.93   25.90
  -4   5   7  679.03   25.40
  -4   5   7  636.54   28.00
   3  -5  -7   14.70    3.20
   3  -5  -7   16.50    3.90
  -3   5   7   22.10    4.10
  -3   5   7   15.50    2.40
   2  -5  -7  297.17   14.10
   2  -5  -7  292.77   15.90
   2  -5  -7  295.87   15.30
  -2   5   7  304.77   13.70
  -2   5   7  314.07   15.20
  -2   5   7  322.87   13.80
   1  -5  -7  401.86   20.30
   1  -5  -7  404.36   15.70
   1  -5  -7  387.66   17.30
  -1   5   7  389.06   19.20
  -1   5   7  382.16   16.50
  -1   5   7  382.36   17.20
  -1   5   7  386.16   16.90
   0  -5  -7  184.08   10.00
   0  -5  -7  205.48   13.40
   0   5   7  190.88    8.70
   0   5   7  183.98   10.30
   0   5   7  188.08    9.90
   0   5   7  185.28   12.40
   0   5   7  189.38    8.70
  -1  -5  -7  414.76   20.40
  -1  -5  -7  455.95   20.00
  -1  -5  -7  451.55   24.20
  -1  -5  -7  477.45   20.00
   1   5   7  443.76   18.70
   1   5   7  447.56   18.60
   1   5   7  459.05   19.20
   1   5   7  436.76   20.10
   1   5   7  460.15   18.70
   1   5   7  452.25   23.50
  -2  -5  -7  243.28   12.80
  -2  -5  -7  234.88   13.50
  -2  -5  -7  242.58   17.40
   2   5   7  233.28   16.30
   2   5   7  258.27   11.60
   2   5   7  240.28   12.80
   2   5   7  228.18   13.70
  -3  -5  -7   16.40    7.60
  -3  -5  -7   -3.40    4.00
   3   5   7   -2.40    5.10
   3   5   7    6.20    2.40
  -4  -5  -7    8.80    9.00
   4   5   7   -2.50    3.90
   4   5   7   -5.30    4.80
   4   5   7    6.40    3.00
   7  -6  -7   20.60    6.90
  -7   6   7   28.00    4.30
  -7   6   7   32.30    4.90
   6  -6  -7  185.98   14.80
  -6   6   7  239.38   11.70
  -6   6   7  220.58   10.90
   5  -6  -7    2.80    2.40
  -5   6   7    3.30    2.80
  -5   6   7    3.60    3.20
  -5   6   7    0.80    1.80
  -5   6   7   -0.50    1.80
   4  -6  -7  165.18   10.40
   4  -6  -7  164.58   11.70
   4  -6  -7  158.68    9.30
  -4   6   7  161.38    8.40
  -4   6   7  154.08    7.30
  -4   6   7  156.98    8.00
   3  -6  -7   -0.90    3.00
   3  -6  -7    5.70    2.20
   3  -6  -7   -1.30    2.10
  -3   6   7    2.00    2.60
  -3   6   7    2.00    2.10
  -3   6   7   -0.90    1.50
  -3   6   7    0.80    1.20
   2  -6  -7   11.40    3.40
   2  -6  -7    8.50    2.40
   2  -6  -7    9.50    3.00
  -2   6   7   11.20    2.50
  -2   6   7   14.20    3.70
   1  -6  -7   31.30    4.60
   1  -6  -7   33.70    4.40
   1  -6  -7   32.00    6.30
  -1   6   7   31.70    2.80
  -1   6   7   38.00    3.30
  -1   6   7   34.10    3.30
  -1   6   7   31.90    4.40
   0  -6  -7   12.50    2.90
   0  -6  -7   11.00    4.40
   0  -6  -7   12.60    3.90
   0   6   7   18.40    2.70
   0   6   7   14.70    2.70
   0   6   7   13.10    2.50
   0   6   7   13.60    4.10
   0   6   7   14.00    3.10
  -1  -6  -7   25.00    4.90
  -1  -6  -7   21.30    6.10
  -1  -6  -7   29.30    5.10
   1   6   7   31.10    4.90
   1   6   7   38.20    7.10
   1   6   7   34.10    3.50
  -2  -6  -7    1.70    6.30
  -2  -6  -7    7.80    3.30
  -2  -6  -7    5.60    4.80
   2   6   7    9.10    2.30
   2   6   7    3.80    3.30
   2   6   7    5.30    4.80
  -3  -6  -7    6.60    7.60
   3   6   7    2.30    2.60
   3   6   7    3.70    3.60
  -4  -6  -7   35.90   10.80
   4   6   7   59.09    8.40
   4   6   7   44.30    9.60
   7  -7  -7    6.50    6.20
  -7   7   7    8.80    3.50
  -7   7   7    9.00    3.60
   6  -7  -7   -0.40    3.00
  -6   7   7    2.50    2.50
  -6   7   7    1.10    2.30
   5  -7  -7   34.00    6.00
   5  -7  -7   46.60    6.10
  -5   7   7   40.70    5.50
  -5   7   7   49.40    4.10
   4  -7  -7  361.76   17.30
   4  -7  -7  384.26   19.30
  -4   7   7  373.56   15.70
  -4   7   7  355.96   16.30
   3  -7  -7   37.60    6.40
   3  -7  -7   27.50    4.70
  -3   7   7   29.10    4.40
  -3   7   7   30.40    3.80
   2  -7  -7  240.18   12.40
   2  -7  -7  217.58   13.70
   2  -7  -7  222.58   11.90
  -2   7   7  236.98   12.80
  -2   7   7  215.38   10.10
   1  -7  -7  148.29    9.20
   1  -7  -7  138.39   11.20
  -1   7   7  141.09    7.00
  -1   7   7  148.39    7.60
  -1   7   7  156.28   10.80
   0  -7  -7   -4.20    5.30
   0  -7  -7   -2.30    2.40
   0   7   7    4.00    3.90
   0   7   7   -1.20    2.00
   0   7   7    0.30    1.50
  -1  -7  -7   22.60    7.10
  -1  -7  -7   23.80    4.40
   1   7   7   26.10    6.10
   1   7   7   26.20    4.00
   1   7   7   27.00    3.20
  -2  -7  -7   -3.20    5.70
   2   7   7    3.10    3.70
   2   7   7    2.40    2.00
   2   7   7   -2.80    4.70
   3   7   7   24.50    4.60
   3   7   7   13.50    5.00
   6  -8  -7    6.70    6.40
   6  -8  -7    1.20    3.30
  -6   8   7   -0.80    2.40
  -6   8   7   -0.40    2.50
   5  -8  -7   57.99    6.60
   5  -8  -7   80.89   10.70
  -5   8   7   64.79    5.30
  -5   8   7   58.69    4.70
  -5   8   7   55.69    6.60
   4  -8  -7    6.00    2.50
  -4   8   7    0.10    2.30
  -4   8   7   -0.10    2.00
   3  -8  -7   63.19    7.00
   3  -8  -7   80.39    6.90
   3  -8  -7   83.39    8.20
  -3   8   7   74.49    6.00
  -3   8   7   69.29    6.40
   2  -8  -7   81.49    7.60
   2  -8  -7   86.99    8.70
  -2   8   7   77.39    7.60
  -2   8   7   84.89    4.40
   1  -8  -7    6.80    4.90
   1  -8  -7    3.60    3.10
  -1   8   7    5.20    2.00
  -1   8   7    8.40    4.40
   0  -8  -7   10.40    5.00
   0  -8  -7    4.90    3.30
   0   8   7    3.80    2.50
   0   8   7    2.50    4.10
  -1  -8  -7   46.70    9.90
  -1  -8  -7   49.00    7.50
   1   8   7   57.89    6.80
   1   8   7   40.10    7.80
  -2  -8  -7    0.00    7.10
  -2  -8  -7   -0.10    4.30
   2   8   7    4.30    5.40
   2   8   7    2.90    4.10
   5  -9  -7   40.00    6.60
   5  -9  -7   42.90    7.50
  -5   9   7   37.60    7.20
  -5   9   7   38.20    4.80
   4  -9  -7    5.60    4.90
  -4   9   7   10.10    3.50
  -4   9   7    8.00    2.30
   3  -9  -7   14.30    4.70
   3  -9  -7   17.60    4.60
  -3   9   7   11.30    3.70
   2  -9  -7    3.30    3.80
   2  -9  -7   11.10    4.30
  -2   9   7    0.80    1.60
   1  -9  -7   12.10    4.20
   1  -9  -7   12.80    5.90
  -1   9   7   14.40    2.90
  -1   9   7   13.40    4.70
   0  -9  -7  141.89   10.80
   0  -9  -7  124.29   13.10
   0   9   7  142.29   11.60
   0   9   7  143.89    8.70
   3 -10  -7   41.50    6.90
  -3  10   7   40.00    6.90
   2 -10  -7    7.40    3.90
   2 -10  -7    7.30    5.30
  -2  10   7   10.30    3.00
  -2  10   7    7.80    4.20
   0  12  -8  102.89   10.10
   0  12  -8   83.99   17.60
   0 -12   8   89.89   14.90
  -1  12  -8  225.68   13.20
  -1  12  -8  157.98   22.00
   1 -12   8  213.78   18.30
   1 -12   8  229.58   15.30
  -2  12  -8   72.59    7.50
  -2  12  -8   69.29   15.40
   2 -12   8   63.09   10.80
   2 -12   8   85.29    9.30
  -3  12  -8    0.40   10.60
  -3  12  -8    4.70    3.00
  -3  12  -8    5.00    2.40
   3 -12   8   13.10   13.50
   3 -12   8    7.20    4.10
   2  11  -8   -5.00    4.60
   2  11  -8    5.40    8.90
  -2 -11   8   -9.20    6.40
  -2 -11   8    3.70    5.50
   1  11  -8    6.00    4.70
   1  11  -8   15.10   10.10
  -1 -11   8    8.70    6.80
  -1 -11   8   -1.80    5.20
  -1 -11   8   14.00    4.70
  -1 -11   8    0.60    5.20
   0  11  -8   75.49   15.00
   0  11  -8  102.39    9.30
   0 -11   8   93.39   11.10
   0 -11   8  113.59   12.70
   0 -11   8  101.59    9.80
   0 -11   8  102.59    9.60
  -1  11  -8   -8.60   11.10
  -1  11  -8    5.10    3.50
   1 -11   8    2.80    4.10
   1 -11   8    0.50    6.80
  -2  11  -8   -2.10   10.20
  -2  11  -8    3.30    3.40
   2 -11   8   -6.90    3.70
   2 -11   8   -1.00    3.40
  -3  11  -8   11.80   10.60
  -3  11  -8    9.00    2.10
  -3  11  -8    5.90    3.40
   3 -11   8    8.20    3.10
   3 -11   8    4.20    3.70
   3 -11   8   16.90   11.80
  -4  11  -8   69.69   13.40
  -4  11  -8   54.19    4.70
  -4  11  -8   52.69    6.40
   4 -11   8   51.29    6.90
   4 -11   8   42.40   18.00
   4 -11   8   69.79    5.80
  -5  11  -8   33.70    5.40
  -5  11  -8   31.20    4.50
   5 -11   8   27.50    4.40
   5 -11   8   28.50   27.10
   3  10  -8  101.69   10.80
   3  10  -8  109.59   13.80
  -3 -10   8  108.19   11.70
  -3 -10   8   98.29   13.90
   2  10  -8    3.20    8.00
   2  10  -8    3.40    3.20
  -2 -10   8    1.70    6.50
  -2 -10   8   11.80    5.30
   1  10  -8   22.90    9.20
   1  10  -8    4.30    4.10
  -1 -10   8    9.10    4.80
  -1 -10   8   18.90    5.40
   0  10  -8   -0.70    9.10
   0  10  -8    4.90    3.60
   0 -10   8    9.80    4.10
   0 -10   8    2.20    5.00
  -1  10  -8   11.50    3.60
  -1  10  -8    5.70   10.80
   1 -10   8   10.40    4.00
   1 -10   8    9.50    5.80
  -2  10  -8  170.68   19.80
  -2  10  -8  183.38   10.90
   2 -10   8  206.38   11.10
   2 -10   8  169.38   11.30
   2 -10   8  198.48   17.10
  -3  10  -8   -0.10    3.20
  -3  10  -8    4.90    9.10
  -3  10  -8    1.30    1.50
   3 -10   8   -1.00    3.50
   3 -10   8    0.40    2.20
   3 -10   8    9.00    9.80
  -4  10  -8  138.79    9.20
  -4  10  -8  142.39    7.20
  -4  10  -8  143.49   19.40
   4 -10   8  148.29    9.60
   4 -10   8  145.59    7.90
   4 -10   8  102.19   46.30
  -5  10  -8   37.10    4.50
  -5  10  -8   47.70    6.20
   5 -10   8   49.20    5.00
   5 -10   8   36.00    6.90
   5 -10   8    0.80   25.20
   4   9  -8  171.18   15.10
   4   9  -8  182.48   13.90
  -4  -9   8  165.48   14.10
  -4  -9   8  205.18   15.70
   3   9  -8   93.79   17.10
   3   9  -8  116.59   10.50
  -3  -9   8  128.99   12.50
  -3  -9   8  116.99   11.40
   2   9  -8   90.89   12.50
   2   9  -8  125.59    9.90
  -2  -9   8  120.69   10.70
  -2  -9   8  132.99    7.70
  -2  -9   8  111.79   13.10
   1   9  -8  176.48   11.30
   1   9  -8  179.08   15.10
  -1  -9   8  170.58   12.50
  -1  -9   8  170.48   11.80
   0   9  -8    0.10    7.10
   0   9  -8    4.30    2.80
   0  -9   8    2.40    4.00
   0  -9   8    3.50    3.50
   0  -9   8    9.10    3.70
   0  -9   8   -1.00    3.80
   0  -9   8    2.70    4.00
  -1   9  -8   32.90    5.50
  -1   9  -8   47.30    5.50
  -1   9  -8   48.00   11.00
   1  -9   8   50.29    7.60
   1  -9   8   49.80    6.70
   1  -9   8   28.00    5.80
   1  -9   8   57.09    6.50
   1  -9   8   34.20    6.10
  -2   9  -8    9.40    7.60
  -2   9  -8   23.80    4.20
   2  -9   8   15.30    3.80
   2  -9   8   26.60    6.30
  -3   9  -8   12.60    4.70
  -3   9  -8    5.40    2.60
  -3   9  -8    0.00    7.90
  -3   9  -8    4.50    1.40
   3  -9   8    5.90    2.10
   3  -9   8    0.60    3.40
   3  -9   8    2.10    8.00
  -4   9  -8   44.10    3.60
  -4   9  -8   38.80    5.20
  -4   9  -8   42.10   15.50
   4  -9   8   45.10    6.10
   4  -9   8   46.20    3.90
   4  -9   8   57.89   16.80
  -5   9  -8   56.59    4.90
  -5   9  -8   40.10    5.60
   5  -9   8   55.49    3.80
   5  -9   8   49.80    7.00
   5  -9   8   78.19   31.30
  -6   9  -8    4.40    4.00
  -6   9  -8    2.70    3.10
  -6   9  -8    3.40    3.60
   6  -9   8    4.00    4.20
   6  -9   8  -16.40   19.70
   5   8  -8    8.80    5.60
   5   8  -8   -1.30    6.50
  -5  -8   8    8.80    6.00
  -5  -8   8    4.60    6.50
   4   8  -8    1.30    5.60
   4   8  -8   -0.30    3.60
  -4  -8   8   -3.60    5.50
  -4  -8   8    2.90    4.70
   3   8  -8   25.10    4.30
   3   8  -8   29.40    7.40
   2   8  -8    0.80    5.50
   2   8  -8   -1.90    3.00
  -2  -8   8    2.10    3.70
  -2  -8   8   -2.50    3.70
   1   8  -8   78.69    7.20
   1   8  -8   73.59   11.80
  -1  -8   8   89.69    8.20
  -1  -8   8   68.39    8.50
  -1  -8   8   75.29    6.20
  -1  -8   8   78.29    4.60
   0   8  -8  137.49    8.90
   0   8  -8  120.49   14.50
   0  -8   8  133.69    9.60
   0  -8   8  118.09    8.90
   0  -8   8  129.79   10.00
   0  -8   8  132.39   10.20
  -1   8  -8  712.33   39.40
  -1   8  -8  774.22   31.20
  -1   8  -8  757.92   30.00
   1  -8   8  757.02   32.20
   1  -8   8  762.32   32.20
   1  -8   8  747.83   33.40
   1  -8   8  788.72   31.40
  -2   8  -8  820.12   43.50
  -2   8  -8  857.31   34.20
  -2   8  -8  881.31   34.60
   2  -8   8  867.61   38.50
   2  -8   8  878.01   35.80
   2  -8   8  842.02   33.70
  -3   8  -8   70.19    6.80
  -3   8  -8   65.89   12.00
  -3   8  -8   58.99    3.80
  -3   8  -8   62.99    5.30
   3  -8   8   68.49    4.50
   3  -8   8   57.99    6.80
   3  -8   8   50.09   10.40
  -4   8  -8   38.30    7.70
  -4   8  -8   18.00    3.30
  -4   8  -8   31.10    3.00
   4  -8   8   24.90    4.30
   4  -8   8   27.50    2.80
   4  -8   8   35.00   13.90
  -5   8  -8    9.30    2.70
  -5   8  -8    9.80    2.60
   5  -8   8   47.20   15.00
   5  -8   8   14.20    4.10
  -6   8  -8   28.80    4.30
   6  -8   8    6.10   19.50
   6  -8   8   26.20    4.90
   5   7  -8   29.30    6.40
   5   7  -8   40.30    6.10
  -5  -7   8   26.80    6.10
  -5  -7   8   35.80    7.50
   4   7  -8   15.10    5.10
   4   7  -8   14.20    4.90
   4   7  -8   25.60    5.00
  -4  -7   8   25.00    6.90
  -4  -7   8   16.30    5.70
   3   7  -8   15.90    4.30
   3   7  -8   10.80    5.20
   3   7  -8   14.00    3.70
  -3  -7   8   15.50    4.90
  -3  -7   8    9.30    4.10
   2   7  -8    4.20    2.80
   2   7  -8    2.80    5.40
  -2  -7   8    2.00    2.30
  -2  -7   8   -0.50    2.50
  -2  -7   8   -0.30    3.40
  -2  -7   8    8.80    3.80
   1   7  -8  157.28    9.70
   1   7  -8  142.29   14.40
  -1  -7   8  160.98    6.70
  -1  -7   8  154.78   10.90
  -1  -7   8  151.38    9.10
  -1  -7   8  153.98   10.70
   0   7  -8  512.75   21.40
   0   7  -8  420.46   27.30
   0   7  -8  479.05   20.20
   0  -7   8  462.35   21.90
   0  -7   8  469.45   22.20
   0  -7   8  483.75   21.40
   0  -7   8  496.75   22.50
  -1   7  -8  814.02   43.10
  -1   7  -8  872.81   34.70
   1  -7   8  896.41   36.30
   1  -7   8  878.81   36.70
   1  -7   8  848.42   35.50
   1  -7   8  895.01   34.70
  -2   7  -8    6.90    1.10
  -2   7  -8    6.40    2.30
  -2   7  -8    4.90    1.50
  -2   7  -8   -4.60    5.60
   2  -7   8   -0.10    4.40
   2  -7   8    6.30    3.00
  -3   7  -8  633.74   24.60
  -3   7  -8  621.44   26.60
  -3   7  -8  590.84   22.90
  -3   7  -8  607.44   24.90
   3  -7   8  573.74   26.20
   3  -7   8  579.34   33.30
  -4   7  -8  111.09    6.20
  -4   7  -8  120.69    7.50
  -4   7  -8  124.49    9.60
   4  -7   8  115.79    6.70
   4  -7   8  132.19   19.10
   4  -7   8  117.49    8.70
  -5   7  -8    6.30    2.60
  -5   7  -8   12.00    3.90
  -5   7  -8   17.00    3.40
   5  -7   8   17.00   12.20
   5  -7   8   10.00    3.80
  -7   7  -8    7.50    4.00
   7  -7   8   29.70   18.50
   7  -7   8   10.10    4.30
   6   6  -8    2.60    5.20
   6   6  -8    6.10    5.30
   6   6  -8    0.30    5.00
  -6  -6   8   -4.00    5.30
  -6  -6   8    8.20    5.60
  -6  -6   8   -5.70    4.50
   5   6  -8    7.90    4.40
   5   6  -8    6.50    4.50
   5   6  -8    7.00    4.80
  -5  -6   8    2.50    4.30
  -5  -6   8   15.10    6.10
  -5  -6   8   14.30    5.80
   4   6  -8  224.78   13.20
   4   6  -8  211.78   13.90
   4   6  -8  219.58   13.10
  -4  -6   8  190.08   13.90
  -4  -6   8  215.08   14.50
  -4  -6   8  202.18   12.60
  -4  -6   8  201.18   13.60
   3   6  -8   51.29    6.60
   3   6  -8   39.80    7.90
   3   6  -8   45.00    6.10
  -3  -6   8   59.69    7.50
  -3  -6   8   49.20    7.20
  -3  -6   8   36.30    7.40
   2   6  -8   47.30    8.10
   2   6  -8   49.40    5.60
  -2  -6   8   52.69    6.40
  -2  -6   8   56.59    5.50
  -2  -6   8   54.69    6.80
  -2  -6   8   49.10    4.50
   1   6  -8   59.69    9.10
   1   6  -8   54.89    5.10
   1   6  -8   49.70    4.90
  -1  -6   8   52.19    6.00
  -1  -6   8   55.09    6.10
  -1  -6   8   49.50    6.60
  -1  -6   8   51.69    6.30
   0   6  -8   11.20    2.50
   0   6  -8   -2.00    5.40
   0   6  -8    8.10    2.30
   0  -6   8    8.10    3.00
   0  -6   8    4.00    2.50
   0  -6   8    7.90    3.60
   0  -6   8   12.10    3.80
   0  -6   8    9.80    3.00
  -1   6  -8   56.39   10.30
  -1   6  -8   67.69    5.90
  -1   6  -8   68.59    5.20
  -1   6  -8   72.49    4.00
   1  -6   8   68.99    5.90
   1  -6   8   61.49    6.60
   1  -6   8   59.49    8.20
   1  -6   8   64.39    6.60
   1  -6   8   80.59    7.20
  -2   6  -8  657.73   29.80
  -2   6  -8  707.03   28.40
  -2   6  -8  745.13   27.50
   2  -6   8  730.03   30.70
   2  -6   8  702.93   33.20
   2  -6   8  731.13   27.50
  -3   6  -8  398.76   15.40
  -3   6  -8  398.96   17.00
  -3   6  -8  398.66   18.90
   3  -6   8  339.77   26.10
   3  -6   8  387.46   15.00
   3  -6   8  385.56   18.70
  -4   6  -8  172.78    9.10
  -4   6  -8  209.18   12.30
  -4   6  -8  194.18   10.30
   4  -6   8  199.38   11.60
   4  -6   8  187.38   23.60
  -5   6  -8  655.83   28.00
  -5   6  -8  662.73   27.10
  -5   6  -8  612.24   25.90
   5  -6   8  585.54   41.50
   5  -6   8  633.54   27.80
  -6   6  -8   12.90    5.10
  -6   6  -8   -6.30    2.90
  -6   6  -8    5.60    3.80
   6  -6   8   -1.30    3.30
  -7   6  -8   -2.90    4.10
   7  -6   8    2.30    3.90
   6   5  -8   16.20    4.70
   6   5  -8   18.60    5.90
  -6  -5   8   28.00    6.00
  -6  -5   8   22.50    7.50
  -6  -5   8   22.00    6.70
   5   5  -8  126.39   10.00
   5   5  -8  143.99   10.70
   5   5  -8  126.19   10.30
  -5  -5   8  115.39   15.10
  -5  -5   8  135.09   10.50
   4   5  -8   38.90    5.70
   4   5  -8   33.90    6.80
   4   5  -8   40.60    6.90
  -4  -5   8   51.29    7.00
  -4  -5   8   50.29    7.10
  -4  -5   8   48.90    6.40
   3   5  -8 1231.98   48.30
   3   5  -8 1245.98   48.00
   3   5  -8 1096.89   49.80
  -3  -5   8 1295.17   47.20
  -3  -5   8 1221.98   49.50
  -3  -5   8 1165.58   48.50
  -3  -5   8 1231.28   48.80
  -3  -5   8 1256.97   47.00
  -3  -5   8 1091.79   46.50
   2   5  -8   78.09    6.20
   2   5  -8   79.39    5.70
   2   5  -8   72.49    7.10
   2   5  -8   73.39    9.70
  -2  -5   8   80.89    7.10
  -2  -5   8   77.49    6.00
  -2  -5   8   81.19    7.50
  -2  -5   8   79.39    5.00
  -2  -5   8   80.59    6.40
  -2  -5   8   81.89    7.50
   1   5  -8  966.70   36.70
   1   5  -8  784.32   41.00
  -1  -5   8  909.01   36.10
  -1  -5   8  939.31   37.70
  -1  -5   8  922.41   36.80
  -1  -5   8  960.90   36.90
  -1  -5   8  917.81   37.20
   0   5  -8   37.60    3.90
   0   5  -8   32.20    7.30
   0   5  -8   40.60    7.40
   0   5  -8   31.60    4.20
   0   5  -8   35.30    3.20
   0  -5   8   34.30    4.30
   0  -5   8   34.30    4.80
   0  -5   8   34.20    4.50
   0  -5   8   25.30    4.50
   0  -5   8   28.90    4.90
  -1   5  -8   47.70    6.00
  -1   5  -8   42.30    4.80
  -1   5  -8   51.89    4.00
  -1   5  -8   36.40    7.60
  -1   5  -8   50.59    2.90
   1  -5   8   54.69    5.30
   1  -5   8   53.39    4.80
   1  -5   8   40.80    5.50
   1  -5   8   60.29    6.80
   1  -5   8   46.80    6.90
  -2   5  -8  819.92   36.40
  -2   5  -8  918.41   36.10
  -2   5  -8  924.21   32.80
  -2   5  -8  902.31   34.60
   2  -5   8  915.81   33.00
   2  -5   8  887.51   36.90
   2  -5   8  872.41   40.50
  -3   5  -8    6.90    3.30
  -3   5  -8    9.90    2.50
  -3   5  -8   14.40    3.60
   3  -5   8    5.30    2.90
   3  -5   8   10.30    7.20
  -4   5  -8 1018.00   41.20
  -4   5  -8  952.70   41.20
  -4   5  -8 1058.49   39.60
  -4   5  -8  965.50   37.90
   4  -5   8  984.90   40.60
   4  -5   8  998.40   50.59
  -5   5  -8   46.40    5.00
  -5   5  -8   70.09    7.30
  -5   5  -8   52.09    5.90
   5  -5   8   50.79   13.10
   5  -5   8   53.79    6.60
  -6   5  -8   90.49    7.80
  -6   5  -8  113.29    9.20
  -6   5  -8  117.09    9.30
   6  -5   8  127.19   22.70
   6  -5   8  105.39    9.00
  -7   5  -8    0.50    4.50
  -7   5  -8   -3.20    3.80
  -7   5  -8   -2.40    4.20
   7  -5   8  -24.80   16.70
   7  -5   8    1.80    3.50
   7   4  -8   15.60    6.40
   7   4  -8   13.50    5.50
  -7  -4   8   18.70    7.10
  -7  -4   8   11.80    5.80
  -7  -4   8   23.40    6.30
   6   4  -8   58.79    9.00
   6   4  -8   35.10    7.10
   6   4  -8   54.19    9.30
  -6  -4   8   53.29   10.20
  -6  -4   8   56.29    8.60
  -6  -4   8   53.69    7.20
   5   4  -8   31.70    6.60
   5   4  -8   28.60    5.70
   5   4  -8   35.60    5.90
  -5  -4   8   20.80    7.50
  -5  -4   8   25.90    5.80
  -5  -4   8   27.10    5.00
  -5  -4   8   43.50    7.70
   4   4  -8    1.30    3.40
   4   4  -8    0.00    3.80
   4   4  -8    7.10    3.20
  -4  -4   8    8.50    3.20
  -4  -4   8    3.80    3.00
  -4  -4   8    0.90    2.60
  -4  -4   8    9.20    4.60
  -4  -4   8    4.20    4.20
   3   4  -8  333.57   15.70
   3   4  -8  288.87   17.60
   3   4  -8  334.27   16.70
  -3  -4   8  308.97   16.20
  -3  -4   8  315.37   16.20
  -3  -4   8  313.47   14.30
  -3  -4   8  327.17   17.00
  -3  -4   8  323.97   14.90
   2   4  -8  133.29    9.50
   2   4  -8  129.09   11.30
   2   4  -8  138.89    7.10
  -2  -4   8  140.09    7.50
  -2  -4   8  131.29    8.60
  -2  -4   8  146.09    9.10
  -2  -4   8  146.09    7.60
  -2  -4   8  123.59    8.60
  -2  -4   8  135.49    9.10
   1   4  -8  248.58   12.10
   1   4  -8  262.17   10.50
   1   4  -8  258.37   12.00
   1   4  -8  240.78   13.30
   1   4  -8  246.18   16.00
  -1  -4   8  222.38   12.10
  -1  -4   8  244.38   12.30
  -1  -4   8  236.58   12.80
  -1  -4   8  230.48   12.70
  -1  -4   8  258.07   12.50
   0   4  -8  401.06   22.60
   0   4  -8  422.56   15.30
   0   4  -8  371.26   17.90
   0   4  -8  379.66   17.80
   0   4  -8  411.46   16.90
   0  -4   8  383.26   17.90
   0  -4   8  389.76   17.20
   0  -4   8  385.56   17.60
   0  -4   8  389.86   18.90
   0  -4   8  417.56   21.00
   0  -4   8  384.96   18.80
  -1   4  -8   16.60    2.40
  -1   4  -8   15.10    1.10
  -1   4  -8   16.30    2.80
  -1   4  -8   20.40    3.60
   1  -4   8   13.00    3.90
   1  -4   8   10.00    2.30
   1  -4   8   15.90    3.00
  -2   4  -8   60.49    4.90
  -2   4  -8   64.59    5.70
  -2   4  -8   64.29    3.30
  -2   4  -8   55.69    6.00
   2  -4   8   67.59   10.70
   2  -4   8   58.49    6.10
   2  -4   8   59.69    5.50
  -3   4  -8  220.58    9.50
  -3   4  -8  217.98   10.60
  -3   4  -8  198.48   12.30
  -3   4  -8  218.28   11.10
   3  -4   8  197.48   11.20
   3  -4   8  270.47   19.90
   3  -4   8  202.98   12.10
  -4   4  -8    0.90    2.60
  -4   4  -8   -0.20    1.80
  -4   4  -8    5.00    1.70
  -4   4  -8    3.20    3.60
   4  -4   8    3.60    1.50
   4  -4   8   16.90    6.40
   4  -4   8    0.70    2.70
  -5   4  -8  174.78   10.10
  -5   4  -8  156.08   10.80
  -5   4  -8  142.99    8.50
   5  -4   8  139.89   10.10
   5  -4   8  151.88   20.90
  -6   4  -8   29.50    5.50
  -6   4  -8   21.00    4.00
  -6   4  -8   23.40    4.30
   6  -4   8   24.80    4.60
   6  -4   8  -10.60   16.10
  -7   4  -8   30.30    5.40
  -7   4  -8   21.70    5.70
   7  -4   8   26.90    5.10
   7  -4   8   86.09   21.60
   7   3  -8   69.69   11.30
   7   3  -8   80.99    9.70
  -7  -3   8   98.59   10.10
  -7  -3   8   65.29   10.60
  -7  -3   8   71.99   12.40
   6   3  -8  284.27   15.70
   6   3  -8  266.17   12.50
   6   3  -8  255.97   19.20
  -6  -3   8  272.57   18.20
  -6  -3   8  270.87   15.30
  -6  -3   8  266.07   16.20
   5   3  -8   11.20    4.60
   5   3  -8   12.20    3.30
   5   3  -8   14.70    4.40
   5   3  -8    8.10    2.30
  -5  -3   8    8.20    5.10
  -5  -3   8   16.00    4.00
  -5  -3   8   18.80    5.00
   4   3  -8   59.69    7.80
   4   3  -8   69.59    6.10
   4   3  -8   57.89    7.10
   4   3  -8   51.29    4.60
  -4  -3   8   53.59    7.60
  -4  -3   8   67.59    7.50
  -4  -3   8   54.79    5.20
  -4  -3   8   54.29    6.20
  -4  -3   8   63.89    6.00
   3   3  -8  256.87   14.40
   3   3  -8  258.47   12.50
   3   3  -8  284.67   15.60
   3   3  -8  274.17   11.90
   3   3  -8  280.87   13.70
  -3  -3   8  268.17   11.90
  -3  -3   8  265.87   13.80
  -3  -3   8  279.37   12.70
  -3  -3   8  276.97   14.00
  -3  -3   8  277.57   15.00
   2   3  -8  430.66   18.40
   2   3  -8  396.86   19.70
   2   3  -8  466.95   23.10
   2   3  -8  437.86   16.70
   2   3  -8  434.26   18.40
  -2  -3   8  401.26   18.60
  -2  -3   8  403.06   18.70
  -2  -3   8  453.45   18.80
  -2  -3   8  427.26   17.40
  -2  -3   8  395.46   18.40
  -2  -3   8  413.26   19.60
   1   3  -8  173.38    8.70
   1   3  -8  165.58    7.10
   1   3  -8  167.98    9.80
   1   3  -8  157.78   10.10
   1   3  -8  165.68    9.60
   1   3  -8  179.58    9.50
  -1  -3   8  178.78   10.60
  -1  -3   8  174.68    9.00
  -1  -3   8  184.08   11.30
  -1  -3   8  162.38    8.90
  -1  -3   8  167.08    9.60
   0   3  -8 1651.73   59.89
   0   3  -8 1606.74   58.49
   0   3  -8 1494.85   60.39
   0   3  -8 1661.43   61.19
   0  -3   8 1609.74   61.19
   0  -3   8 1469.15   59.59
   0  -3   8 1542.65   59.69
   0  -3   8 1589.54   61.19
   0  -3   8 1652.53   59.09
   0  -3   8 1526.15   64.29
  -1   3  -8   23.10    3.80
  -1   3  -8   19.50    3.80
  -1   3  -8   21.90    2.60
  -1   3  -8   28.20    3.80
  -1   3  -8   25.50    3.20
   1  -3   8   22.90    3.40
   1  -3   8   14.80    5.70
   1  -3   8   25.40    3.30
   1  -3   8   24.70    5.30
   1  -3   8   18.70    4.10
  -2   3  -8   57.09    6.10
  -2   3  -8   60.19    4.80
  -2   3  -8   65.39    3.30
  -2   3  -8   74.19    4.90
   2  -3   8   59.89    4.90
   2  -3   8   43.30    9.20
   2  -3   8   66.19    6.10
  -3   3  -8   20.50    2.60
  -3   3  -8   21.30    3.60
  -3   3  -8   25.60    5.30
  -3   3  -8   19.60    3.20
   3  -3   8   15.30    2.70
   3  -3   8   19.20    4.10
   3  -3   8   23.70    2.00
   3  -3   8   14.40    6.30
  -4   3  -8  248.38   11.10
  -4   3  -8  215.88   10.40
  -4   3  -8  217.18   11.80
  -4   3  -8  219.98   13.50
   4  -3   8  222.98    9.40
   4  -3   8  237.68   18.70
   4  -3   8  227.38   12.80
  -5   3  -8  245.18   11.60
  -5   3  -8  252.47   13.50
  -5   3  -8  215.28   12.30
  -5   3  -8  248.48   14.30
  -5   3  -8  255.47   12.10
   5  -3   8  244.78   13.70
  -6   3  -8   86.19    6.90
  -6   3  -8   81.49    8.90
  -6   3  -8   93.79    7.70
  -6   3  -8  105.19    9.10
   6  -3   8  122.79   20.40
   6  -3   8   98.79    8.60
  -7   3  -8   67.69    8.30
  -7   3  -8   87.99   10.60
   7  -3   8   62.09    7.50
   7   2  -8  572.64   28.80
   7   2  -8  620.94   28.20
  -7  -2   8  562.34   28.10
  -7  -2   8  643.64   28.10
  -7  -2   8  601.24   30.00
   6   2  -8   25.10    4.00
   6   2  -8   34.30    6.30
   6   2  -8   30.80    4.80
  -6  -2   8   45.50    7.20
  -6  -2   8   29.70    5.00
   5   2  -8  532.15   23.10
   5   2  -8  477.85   24.00
   5   2  -8  505.75   21.10
  -5  -2   8  543.45   22.80
  -5  -2   8  504.35   23.40
  -5  -2   8  514.85   25.10
   4   2  -8   17.20    3.70
   4   2  -8   15.10    4.00
   4   2  -8   17.70    3.00
  -4  -2   8   14.30    4.30
  -4  -2   8   13.60    3.60
  -4  -2   8   22.10    4.40
  -4  -2   8   14.30    2.90
  -4  -2   8   19.00    3.20
   3   2  -8  159.68    8.60
   3   2  -8  158.48    7.40
   3   2  -8  159.58   10.60
   3   2  -8  161.68    8.90
  -3  -2   8  158.18    9.90
  -3  -2   8  160.68    9.30
  -3  -2   8  156.78    7.20
  -3  -2   8  161.88    9.20
  -3  -2   8  149.29    8.10
   2   2  -8  247.28   11.30
   2   2  -8  234.08   12.30
   2   2  -8  246.08   12.00
   2   2  -8  232.28   11.50
   2   2  -8  230.08   13.30
   2   2  -8  250.27    9.80
  -2  -2   8  236.68   12.70
  -2  -2   8  250.17   11.70
  -2  -2   8  257.87   12.00
  -2  -2   8  245.58   10.60
  -2  -2   8  246.38   10.70
  -2  -2   8  234.48   11.50
  -2  -2   8  231.58   12.30
   1   2  -8 1280.87   46.80
   1   2  -8 1304.07   48.80
   1   2  -8 1322.37   47.70
   1   2  -8 1241.08   47.90
   1   2  -8 1227.18   49.60
   1   2  -8 1260.47   45.20
  -1  -2   8 1260.97   48.40
  -1  -2   8 1271.57   45.70
  -1  -2   8 1291.67   47.10
  -1  -2   8 1227.78   47.20
  -1  -2   8 1283.97   49.20
  -1  -2   8 1283.37   46.60
  -1  -2   8 1050.79   53.19
   0   2  -8 1063.39   42.70
   0   2  -8 1071.19   39.80
   0   2  -8 1078.79   40.90
   0   2  -8 1115.19   40.90
   0   2  -8 1052.99   40.10
   0  -2   8 1054.99   42.90
   0  -2   8 1083.79   40.40
   0  -2   8 1041.50   42.80
   0  -2   8 1078.29   41.10
   0  -2   8 1054.79   39.40
   0  -2   8 1049.30   40.80
   0  -2   8 1091.09   42.20
  -1   2  -8  868.11   34.30
  -1   2  -8  809.22   35.60
  -1   2  -8  862.41   35.80
  -1   2  -8  857.91   34.50
  -1   2  -8  875.51   33.00
  -1   2  -8  916.41   33.00
   1  -2   8  887.11   32.70
   1  -2   8  804.32   34.00
   1  -2   8  877.41   31.40
   1  -2   8  863.51   38.80
   1  -2   8  821.42   35.30
   1  -2   8  877.81   39.50
   1  -2   8  929.01   33.30
  -2   2  -8  683.63   30.10
  -2   2  -8  695.23   25.80
  -2   2  -8  695.43   27.40
  -2   2  -8  703.23   26.50
  -2   2  -8  661.83   29.60
   2  -2   8  734.53   34.50
   2  -2   8  692.13   29.50
   2  -2   8  695.23   27.30
  -3   2  -8   42.00    3.50
  -3   2  -8   40.90    3.60
  -3   2  -8   46.50    6.00
  -3   2  -8   41.40    4.50
   3  -2   8   42.90    4.40
   3  -2   8   54.49    9.80
   3  -2   8   49.99    6.20
   3  -2   8   46.60    2.70
  -4   2  -8   21.00    4.70
  -4   2  -8   22.90    3.20
  -4   2  -8   19.80    3.10
  -4   2  -8   14.40    2.90
  -4   2  -8   21.60    2.90
   4  -2   8   21.90    8.20
   4  -2   8   10.90    3.10
   4  -2   8   15.70    3.40
   4  -2   8   16.50    2.60
  -5   2  -8   51.09    5.20
  -5   2  -8   49.50    6.30
  -5   2  -8   50.79    7.40
  -5   2  -8   49.70    4.60
   5  -2   8   51.19    6.60
  -6   2  -8  127.99   10.50
  -6   2  -8  102.89    8.50
   6  -2   8  111.59    9.50
  -7   2  -8   34.30    5.90
  -7   2  -8   10.30    5.30
   7  -2   8   21.70    4.40
   7  -2   8   28.50    9.10
   8   1  -8   97.19   12.80
  -8  -1   8  106.19   11.10
  -8  -1   8   90.99   14.20
  -8  -1   8  107.99   11.70
   7   1  -8   44.90    7.70
   7   1  -8   32.60    7.20
  -7  -1   8   33.90    6.10
  -7  -1   8   58.19    9.50
  -7  -1   8   40.50    7.10
   6   1  -8  386.26   18.50
   6   1  -8  367.96   15.80
   6   1  -8  340.97   19.50
  -6  -1   8  336.17   18.40
  -6  -1   8  389.36   20.70
  -6  -1   8  383.86   18.30
   5   1  -8  205.38   10.20
   5   1  -8  192.88   13.10
   5   1  -8  213.38   12.20
  -5  -1   8  225.38   11.70
  -5  -1   8  208.38   14.10
  -5  -1   8  224.18   13.50
  -5  -1   8  204.58   11.90
   4   1  -8   34.70    3.90
   4   1  -8   34.70    4.60
   4   1  -8   31.60    5.70
  -4  -1   8   40.50    4.90
  -4  -1   8   33.10    5.70
  -4  -1   8   37.40    4.30
  -4  -1   8   37.00    2.30
   3   1  -8   58.89    4.60
   3   1  -8   55.69    3.40
   3   1  -8   58.49    5.00
   3   1  -8   59.79    6.10
   3   1  -8   54.89    4.60
  -3  -1   8   49.20    4.20
  -3  -1   8   56.09    5.30
  -3  -1   8   59.29    5.50
  -3  -1   8   48.00    4.80
  -3  -1   8   59.79    3.40
   2   1  -8  541.85   22.40
   2   1  -8  526.75   24.20
   2   1  -8  542.65   21.40
   2   1  -8  546.85   23.00
   2   1  -8  569.94   20.30
  -2  -1   8  527.75   23.10
  -2  -1   8  548.25   21.70
  -2  -1   8  464.05   23.80
  -2  -1   8  568.24   21.70
  -2  -1   8  548.45   22.10
  -2  -1   8  534.45   23.10
  -2  -1   8  547.95   20.80
  -2  -1   8  565.84   21.80
   1   1  -8  180.38    8.30
   1   1  -8  176.78   10.10
   1   1  -8  183.38   11.10
   1   1  -8  193.18    9.00
   1   1  -8  195.58    9.30
  -1  -1   8  173.58   10.40
  -1  -1   8  192.68    8.60
  -1  -1   8  203.38    9.90
  -1  -1   8  183.38   11.20
  -1  -1   8  186.08    9.80
  -1  -1   8  190.18    8.50
  -1  -1   8  189.58    9.80
  -1  -1   8  190.38    8.90
  -1  -1   8  193.48   12.70
  -1  -1   8  188.78    7.50
   0   1  -8  173.58   10.40
   0   1  -8  191.48    7.90
   0   1  -8  179.58    9.40
   0   1  -8  184.18    8.70
   0   1  -8  184.78    8.30
   0  -1   8  173.28    9.70
   0  -1   8  176.18    8.10
   0  -1   8  165.88    8.40
   0  -1   8  177.78   12.60
   0  -1   8  173.48    9.80
   0  -1   8  180.68    7.80
   0  -1   8  189.48   11.40
   0  -1   8  193.38   10.50
  -1   1  -8 1413.16   53.99
  -1   1  -8 1384.76   54.19
  -1   1  -8 1363.86   49.80
  -1   1  -8 1421.26   52.49
  -1   1  -8 1360.26   50.69
  -1   1  -8 1382.46   53.59
   1  -1   8 1380.86   50.59
   1  -1   8 1434.76   53.59
   1  -1   8 1360.56   49.70
   1  -1   8 1333.07   49.80
   1  -1   8 1324.97   55.69
   1  -1   8 1299.57   53.69
   1  -1   8 1338.07   52.59
  -2   1  -8  256.47   12.00
  -2   1  -8  254.37   14.50
  -2   1  -8  264.87   14.50
   2  -1   8  262.07   10.30
   2  -1   8  276.17   15.70
   2  -1   8  263.37   11.60
   2  -1   8  263.97   13.80
  -3   1  -8    9.50    2.60
  -3   1  -8   15.50    4.10
  -3   1  -8    8.90    3.60
   3  -1   8   20.40    5.70
   3  -1   8    9.70    3.00
  -4   1  -8    8.30    2.20
  -4   1  -8    9.60    2.90
  -4   1  -8    7.20    4.30
  -4   1  -8    9.60    5.40
   4  -1   8    6.40    3.10
   4  -1   8    6.20    3.20
   4  -1   8    9.30    2.10
  -5   1  -8  188.08   10.30
  -5   1  -8  205.08   13.20
  -5   1  -8  177.98   11.70
   5  -1   8  191.58   11.90
  -6   1  -8    0.10    4.10
  -6   1  -8   -4.80    3.20
   6  -1   8   -2.40    5.50
   6  -1   8   -1.00    3.30
   8   0  -8   12.00    6.10
  -8   0   8   14.70    5.60
  -8   0   8   28.10    7.30
  -8   0   8    8.50    7.20
   7   0  -8    6.50    4.10
   7   0  -8    6.50    5.50
  -7   0   8    0.60    4.30
  -7   0   8    5.20    4.20
  -7   0   8    6.30    4.90
   6   0  -8   10.70    4.60
   6   0  -8   12.60    4.70
   6   0  -8   12.60    3.40
  -6   0   8   10.50    3.40
  -6   0   8    9.30    3.90
  -6   0   8   18.20    5.70
   5   0  -8   10.50    2.40
   5   0  -8    7.60    3.20
   5   0  -8   10.20    4.50
  -5   0   8   11.00    4.10
  -5   0   8    3.70    4.90
  -5   0   8    9.20    3.10
  -5   0   8   18.00    3.10
   4   0  -8  131.49    7.70
   4   0  -8  125.19    9.60
   4   0  -8  136.09    7.90
  -4   0   8  105.19    7.80
  -4   0   8  130.99    7.50
  -4   0   8  137.69    9.40
  -4   0   8  137.39    7.70
  -4   0   8  136.49    9.20
   3   0  -8 1181.38   46.20
   3   0  -8 1247.78   44.10
   3   0  -8 1189.48   44.40
   3   0  -8 1214.48   48.40
  -3   0   8 1183.58   44.80
  -3   0   8 1196.68   45.00
  -3   0   8 1187.48   46.40
  -3   0   8 1195.08   47.10
   2   0  -8   75.89    5.80
   2   0  -8   72.89    5.10
   2   0  -8   76.39    3.90
   2   0  -8   74.29    7.00
   2   0  -8   78.69    4.10
   2   0  -8   79.19    4.30
  -2   0   8   76.99    4.20
  -2   0   8   69.09    6.20
  -2   0   8   82.49    7.70
  -2   0   8   84.09    5.90
  -2   0   8   71.59    5.70
  -2   0   8   77.69    4.50
  -2   0   8   75.19    6.10
  -2   0   8   81.29    5.20
   1   0  -8    0.00    2.30
   1   0  -8    2.40    0.90
   1   0  -8   -0.20    2.00
   1   0  -8    3.10    1.50
   1   0  -8    2.00    1.50
   1   0  -8    2.20    1.30
  -1   0   8    1.80    2.30
  -1   0   8   -1.40    2.40
  -1   0   8    3.10    2.90
  -1   0   8   -0.70    2.10
  -1   0   8    1.60    1.40
  -1   0   8    0.90    1.60
  -1   0   8    3.30    0.80
   0   0  -8 1464.35   52.29
   0   0  -8 1367.56   55.59
   0   0  -8 1518.25   52.49
   0   0  -8 1357.46   55.39
   0   0   8 1398.66   50.99
   0   0   8 1377.76   52.39
   0   0   8 1438.46   54.19
   0   0   8 1406.96   54.79
   0   0   8 1429.06   55.39
   0   0   8 1372.16   51.49
   0   0   8 1454.95   51.89
   0   0   8 1437.46   52.29
   0   0   8 1464.45   55.09
   0   0   8 1420.76   55.39
  -1   0  -8   48.90    5.60
  -1   0  -8   48.60    7.80
  -1   0  -8   50.99    5.90
  -1   0  -8   47.10    2.80
  -1   0  -8   50.99    3.60
  -1   0  -8   47.70    6.70
   1   0   8   47.60    3.60
   1   0   8   45.40    5.30
   1   0   8   46.30    2.90
   1   0   8   38.60    5.80
   1   0   8   45.20    3.30
   1   0   8   54.39    6.50
  -2   0  -8   54.99    5.70
  -2   0  -8   44.20    6.10
  -2   0  -8   46.40    4.30
  -2   0  -8   45.70    2.70
   2   0   8   43.90    3.90
   2   0   8   42.90    7.10
   2   0   8   51.59    3.40
   2   0   8   36.70    5.50
  -3   0  -8  226.48   13.40
  -3   0  -8  235.78   14.40
  -3   0  -8  254.27    9.90
  -3   0  -8  236.58   11.10
  -3   0  -8  229.78   14.90
   3   0   8  231.78   13.20
   3   0   8  255.77   10.70
   3   0   8  245.18   11.40
  -4   0  -8   16.10    2.70
  -4   0  -8   15.90    2.60
  -4   0  -8   28.40    4.70
  -4   0  -8    9.00    4.60
   4   0   8   19.20    4.30
   4   0   8   13.70    3.60
  -5   0  -8    1.60    3.10
  -5   0  -8    0.10    2.10
  -5   0  -8   -1.70    2.80
   5   0   8   -0.60    3.70
  -6   0  -8   34.40    6.20
  -6   0  -8   49.40    8.20
   6   0   8   58.39    9.50
   6   0   8   48.80    7.00
   8  -1  -8   20.00    7.00
  -8   1   8   23.00    7.20
  -8   1   8   27.70    6.60
  -8   1   8   14.70    7.50
   7  -1  -8    5.40    3.70
   7  -1  -8   -4.10    4.70
  -7   1   8   -5.10    3.80
  -7   1   8   -0.50    5.50
  -7   1   8    9.40    3.90
   6  -1  -8   11.40    2.80
   6  -1  -8    8.90    4.20
   6  -1  -8   13.40    3.80
  -6   1   8   -1.00    9.90
  -6   1   8   20.30    3.70
  -6   1   8   14.10    3.70
   5  -1  -8  467.35   19.70
   5  -1  -8  403.16   21.30
  -5   1   8  416.26   23.10
  -5   1   8  473.65   19.60
  -5   1   8  436.46   19.30
  -5   1   8  456.35   21.90
   4  -1  -8  101.29    8.30
   4  -1  -8  102.79    6.80
  -4   1   8   94.39    6.30
  -4   1   8   96.69    7.60
  -4   1   8   97.59    8.70
  -4   1   8  105.59    6.30
   3  -1  -8  405.36   18.10
   3  -1  -8  382.96   15.40
   3  -1  -8  406.66   16.00
   3  -1  -8  426.26   16.10
   3  -1  -8  413.46   19.80
  -3   1   8  398.36   15.90
  -3   1   8  404.66   16.40
  -3   1   8  390.56   16.50
  -3   1   8  385.86   17.40
  -3   1   8  406.06   18.90
  -3   1   8  415.26   18.50
  -3   1   8  408.46   17.50
   2  -1  -8  443.26   18.10
   2  -1  -8  433.46   19.50
   2  -1  -8  436.76   20.60
  -2   1   8  422.96   18.70
  -2   1   8  436.16   20.60
  -2   1   8  446.66   19.40
  -2   1   8  433.36   20.20
  -2   1   8  432.26   18.30
  -2   1   8  434.66   16.80
   1  -1  -8  282.57   12.00
   1  -1  -8  284.37   13.40
   1  -1  -8  270.17   14.30
   1  -1  -8  267.67   14.10
  -1   1   8  294.47   15.20
  -1   1   8  247.88   13.70
  -1   1   8  273.67   14.10
  -1   1   8  268.77   12.20
  -1   1   8  274.57   14.80
  -1   1   8  283.87   10.60
  -1   1   8  263.77   12.10
   0  -1  -8   50.69    5.40
   0  -1  -8   53.49    3.20
   0  -1  -8   50.59    4.30
   0  -1  -8   55.79    5.30
   0  -1  -8   49.60    3.60
   0   1   8   53.29    5.20
   0   1   8   53.79    6.70
   0   1   8   48.40    6.40
   0   1   8   47.50    3.40
   0   1   8   48.60    3.90
   0   1   8   47.60    2.90
  -1  -1  -8  224.08    9.60
  -1  -1  -8  233.48   10.00
  -1  -1  -8  194.18   15.50
  -1  -1  -8  226.88   13.70
  -1  -1  -8  227.58   13.20
  -1  -1  -8  213.78   12.80
   1   1   8  214.98    9.80
   1   1   8  229.88   12.10
   1   1   8  232.38    9.60
   1   1   8  215.88   13.00
  -2  -1  -8  185.88    8.30
  -2  -1  -8  171.68   12.40
  -2  -1  -8  184.28    9.30
  -2  -1  -8  170.38   11.60
   2   1   8  180.68   10.20
   2   1   8  180.88    8.70
   2   1   8  182.58   10.70
   2   1   8  184.98    8.70
  -3  -1  -8   21.60    3.10
  -3  -1  -8   20.90    4.20
  -3  -1  -8   15.10    4.50
   3   1   8   15.80    2.90
   3   1   8   20.00    4.80
   3   1   8   15.90    3.80
   3   1   8   16.40    3.00
  -4  -1  -8   14.50    3.90
  -4  -1  -8    8.80    6.80
  -4  -1  -8   12.40    2.90
   4   1   8   15.90    4.50
   4   1   8   14.80    4.20
  -5  -1  -8   11.50    3.50
  -5  -1  -8    3.80    7.40
  -5  -1  -8    2.30    2.50
  -5  -1  -8    0.90    3.70
   5   1   8   11.40    5.10
   5   1   8   11.10    4.10
  -6  -1  -8  174.68   13.40
  -6  -1  -8  205.08   18.90
   6   1   8  186.58   14.80
   6   1   8  174.68   17.20
   6   1   8  183.38   14.70
   8  -2  -8   -5.00    5.60
  -8   2   8   -4.20    4.30
  -8   2   8    1.70    4.60
  -8   2   8   17.10    6.80
   7  -2  -8   17.70    6.20
  -7   2   8   20.90    4.90
   6  -2  -8  115.19   10.30
   6  -2  -8  123.49    8.80
  -6   2   8  123.39    8.60
  -6   2   8  111.69   11.00
  -6   2   8  121.59    8.40
   5  -2  -8    1.60    3.60
   5  -2  -8    5.20    2.60
  -5   2   8    3.60    6.80
  -5   2   8   11.90    3.00
  -5   2   8   10.00    2.50
   4  -2  -8  157.18   11.30
   4  -2  -8  180.98    8.40
   4  -2  -8  163.18    9.10
  -4   2   8  162.78    7.90
  -4   2   8  164.98    8.60
  -4   2   8  163.88   12.30
  -4   2   8  147.59    8.30
  -4   2   8  154.58    6.20
  -4   2   8  169.78   10.30
   3  -2  -8   37.70    4.50
   3  -2  -8   40.80    5.40
  -3   2   8   37.40    3.80
  -3   2   8   49.60    4.60
  -3   2   8   39.50    3.20
  -3   2   8   35.30    5.20
   2  -2  -8  164.78    8.50
   2  -2  -8  164.18    9.70
   2  -2  -8  163.58    8.80
   2  -2  -8  164.18   10.50
  -2   2   8  159.38   10.90
  -2   2   8  149.99    9.90
  -2   2   8  160.18    9.90
  -2   2   8  162.28    8.90
  -2   2   8  167.28    7.10
  -2   2   8  153.98   11.10
  -2   2   8  161.28    8.70
   1  -2  -8    4.20    2.20
   1  -2  -8    2.90    2.50
   1  -2  -8    1.40    1.20
   1  -2  -8   -0.10    2.00
  -1   2   8   -0.90    2.40
  -1   2   8    4.50    1.90
  -1   2   8    1.80    1.80
  -1   2   8    2.10    0.90
  -1   2   8   -5.20    2.70
  -1   2   8    1.70    3.40
   0  -2  -8  823.42   36.40
   0  -2  -8  860.31   32.90
   0  -2  -8  899.11   32.10
   0  -2  -8  877.41   36.40
   0   2   8  863.01   32.00
   0   2   8  892.01   34.80
   0   2   8  849.12   40.50
   0   2   8  826.02   35.10
   0   2   8  842.12   33.60
  -1  -2  -8  465.15   22.80
  -1  -2  -8  434.86   21.80
  -1  -2  -8  421.36   20.60
  -1  -2  -8  436.26   18.00
   1   2   8  447.66   17.50
   1   2   8  450.65   18.60
   1   2   8  458.65   20.10
   1   2   8  439.36   22.70
   1   2   8  450.85   18.40
  -2  -2  -8  403.96   21.90
  -2  -2  -8  399.46   17.40
  -2  -2  -8  399.76   20.40
  -2  -2  -8  399.06   16.40
   2   2   8  379.96   16.80
   2   2   8  390.66   16.40
   2   2   8  371.26   17.70
   2   2   8  406.06   18.40
  -3  -2  -8   69.49   10.00
  -3  -2  -8   59.29    4.80
  -3  -2  -8   61.69    6.70
   3   2   8   64.09    6.80
   3   2   8   60.49    5.50
   3   2   8   51.79    8.50
   3   2   8   60.59    6.70
  -4  -2  -8  139.49   13.30
  -4  -2  -8  125.49    9.20
  -4  -2  -8  141.99    7.50
   4   2   8  113.29    9.90
   4   2   8  117.29    9.30
   4   2   8  118.29   12.80
  -5  -2  -8  162.58   11.70
  -5  -2  -8  201.88   16.70
  -5  -2  -8  168.48    9.90
   5   2   8  132.79   15.00
   5   2   8  183.98   11.60
   5   2   8  168.18   12.90
   8  -3  -8   27.80    6.30
  -8   3   8   20.70    5.30
  -8   3   8   34.20    6.10
  -8   3   8   15.70    7.30
   7  -3  -8  111.79   12.00
  -7   3   8  129.19   10.00
   6  -3  -8   -4.70    4.00
   6  -3  -8   -0.20    5.30
  -6   3   8   13.50    4.50
  -6   3   8    8.00    3.60
  -6   3   8    4.30    2.70
   5  -3  -8  169.18   12.30
  -5   3   8  176.68   11.90
  -5   3   8  204.48   13.70
  -5   3   8  199.88   10.00
  -5   3   8  191.78    9.40
   4  -3  -8    2.30    2.10
   4  -3  -8    0.40    1.20
  -4   3   8    1.30    1.70
  -4   3   8    1.20    0.90
  -4   3   8   -1.40    2.60
  -4   3   8   -0.90    2.70
   3  -3  -8  104.89    6.90
   3  -3  -8  111.59    7.60
   3  -3  -8  114.49    9.00
  -3   3   8  101.69    8.30
  -3   3   8  108.09    5.60
  -3   3   8  112.99    6.70
   2  -3  -8  690.43   28.40
   2  -3  -8  682.63   29.20
   2  -3  -8  668.53   27.00
   2  -3  -8  655.93   28.70
  -2   3   8  700.93   27.90
  -2   3   8  677.63   26.90
  -2   3   8  655.63   25.30
  -2   3   8  648.84   28.20
   1  -3  -8   22.60    4.40
   1  -3  -8   17.70    3.90
   1  -3  -8   17.40    2.60
   1  -3  -8   18.90    3.90
  -1   3   8   14.70    3.60
  -1   3   8   25.50    5.00
  -1   3   8   25.50    4.70
  -1   3   8   18.80    3.20
   0  -3  -8  130.59   10.90
   0  -3  -8  153.28    8.00
   0  -3  -8  170.98   11.40
   0  -3  -8  152.38   10.60
   0  -3  -8  165.08    7.60
   0   3   8  165.18    9.30
   0   3   8  146.59    9.20
   0   3   8  160.78    7.20
   0   3   8  158.08    7.30
   0   3   8  167.08   11.30
   0   3   8  146.79    6.80
   0   3   8  143.09   10.30
  -1  -3  -8  180.28   13.00
  -1  -3  -8  195.68    9.50
  -1  -3  -8  186.48   13.10
   1   3   8  187.38    8.60
   1   3   8  190.48   10.50
   1   3   8  167.08   13.40
   1   3   8  189.48   13.60
   1   3   8  197.28    9.50
   1   3   8  190.08   10.20
  -2  -3  -8  281.97   12.90
  -2  -3  -8  280.77   13.50
  -2  -3  -8  288.27   18.60
   2   3   8  275.27   12.50
   2   3   8  229.58   17.10
   2   3   8  290.27   13.80
   2   3   8  288.27   14.10
  -3  -3  -8   33.60    4.30
  -3  -3  -8   55.89    9.80
   3   3   8   46.80    9.10
   3   3   8   48.10    6.50
   3   3   8   35.30    5.60
  -4  -3  -8    7.00    3.90
  -4  -3  -8   -5.10    6.90
   4   3   8   -0.60    6.00
   4   3   8    0.60    3.80
   4   3   8   -1.10    3.20
  -5  -3  -8   15.20    5.00
  -5  -3  -8  -10.00    8.50
  -5  -3  -8    6.00    3.40
   5   3   8    9.50    3.60
   5   3   8    4.00    4.90
   5   3   8   13.00    6.70
   8  -4  -8   -3.30    6.10
  -8   4   8   10.60    6.30
  -8   4   8    6.60    4.30
  -8   4   8    2.00    4.10
   7  -4  -8   19.60    6.50
  -7   4   8   25.80    7.30
  -7   4   8   11.20    4.40
  -7   4   8   12.40    4.10
   6  -4  -8   17.10    5.50
  -6   4   8   19.40    3.30
  -6   4   8   14.50    3.80
   5  -4  -8  244.68   15.90
   5  -4  -8  300.97   13.00
  -5   4   8  273.47   12.80
  -5   4   8  262.17   11.90
  -5   4   8  251.87   12.70
  -5   4   8  267.27   11.70
  -5   4   8  301.97   16.30
  -5   4   8  270.67   12.70
   4  -4  -8   -0.60    4.00
   4  -4  -8    4.60    1.70
  -4   4   8    2.00    1.40
  -4   4   8    5.50    3.70
  -4   4   8    3.80    1.60
  -4   4   8    0.60    1.80
   3  -4  -8  713.73   30.40
   3  -4  -8  775.92   32.80
   3  -4  -8  775.62   31.10
  -3   4   8  780.62   31.00
  -3   4   8  747.13   30.60
  -3   4   8  746.03   28.70
  -3   4   8  764.22   30.20
   2  -4  -8   13.10    3.90
   2  -4  -8   18.40    3.10
   2  -4  -8   18.90    3.70
  -2   4   8   17.90    2.40
  -2   4   8   26.70    4.30
   1  -4  -8  130.89    7.60
   1  -4  -8  132.99   10.10
  -1   4   8  131.29    9.60
  -1   4   8  127.39    8.80
  -1   4   8  151.78    8.60
   0  -4  -8    3.00    3.40
   0  -4  -8   10.50    2.60
   0  -4  -8    8.70    2.10
   0   4   8    9.50    2.40
   0   4   8   12.10    3.00
   0   4   8    7.80    3.70
   0   4   8   11.00    1.90
   0   4   8    9.60    1.70
  -1  -4  -8   56.69    7.80
  -1  -4  -8   51.59    5.00
   1   4   8   66.69    5.70
   1   4   8   67.19    5.00
   1   4   8   70.69    8.70
   1   4   8   61.79   10.80
   1   4   8   54.89    4.30
   1   4   8   63.99    4.50
  -2  -4  -8  353.46   16.30
  -2  -4  -8  343.07   21.10
  -2  -4  -8  336.57   15.50
   2   4   8  320.37   19.70
   2   4   8  332.97   16.00
   2   4   8  342.47   15.70
   2   4   8  316.77   14.60
  -3  -4  -8  153.28    8.80
  -3  -4  -8  131.39   10.90
   3   4   8   97.29   18.20
   3   4   8  130.79    9.70
   3   4   8  145.09    8.90
  -4  -4  -8  176.68   17.10
  -4  -4  -8  159.18   10.20
   4   4   8  164.48   10.00
   4   4   8  138.39   11.10
   4   4   8  131.79   13.80
   7  -5  -8    4.10    5.60
  -7   5   8    5.00    3.20
   6  -5  -8   33.70    7.40
  -6   5   8   40.00    6.20
  -6   5   8   44.20    5.00
   5  -5  -8    9.60    2.40
   5  -5  -8    6.80    4.40
  -5   5   8    0.80    2.40
  -5   5   8    5.10    2.40
   4  -5  -8  789.22   34.50
   4  -5  -8  764.52   31.70
  -4   5   8  768.92   29.70
  -4   5   8  784.82   30.10
  -4   5   8  792.92   30.20
  -4   5   8  792.32   32.80
   3  -5  -8   34.50    5.70
   3  -5  -8   32.60    4.50
   3  -5  -8   37.40    4.20
  -3   5   8   31.60    4.20
  -3   5   8   27.00    3.10
   2  -5  -8  773.82   33.80
   2  -5  -8  819.62   33.40
   2  -5  -8  783.82   31.70
  -2   5   8  799.42   30.20
  -2   5   8  779.52   33.00
  -2   5   8  776.82   31.30
   1  -5  -8   44.20    6.10
   1  -5  -8   41.40    4.50
  -1   5   8   46.30    5.80
  -1   5   8   50.99    5.50
  -1   5   8   50.79    6.60
   0  -5  -8  338.77   19.60
   0  -5  -8  337.17   15.70
   0  -5  -8  347.77   15.10
   0   5   8  365.96   19.10
   0   5   8  367.36   16.10
   0   5   8  324.47   14.00
   0   5   8  339.07   13.80
   0   5   8  317.97   16.10
   0   5   8  344.37   15.10
  -1  -5  -8  267.07   12.90
  -1  -5  -8  243.38   17.60
  -1  -5  -8  247.48   12.70
   1   5   8  221.98   14.70
   1   5   8  248.58   11.50
   1   5   8  271.97   12.00
   1   5   8  252.17   16.60
   1   5   8  251.87   12.00
   1   5   8  244.38   11.40
  -2  -5  -8   12.60    9.10
  -2  -5  -8    0.30    2.40
   2   5   8    2.00    2.70
  -3  -5  -8  439.86   27.60
  -3  -5  -8  504.45   21.60
   3   5   8  452.25   25.80
   3   5   8  486.25   20.40
   3   5   8  485.05   22.40
  -4  -5  -8   -0.10    8.60
  -4  -5  -8    1.20    4.30
   4   5   8    6.80    4.70
   4   5   8   13.20    5.10
   7  -6  -8   68.99   12.60
  -7   6   8   93.99    7.80
  -7   6   8   77.39    8.40
   6  -6  -8   20.30    9.90
  -6   6   8    7.20    2.80
  -6   6   8   10.50    2.90
   5  -6  -8  111.69    8.90
   5  -6  -8   99.59   11.00
  -5   6   8   99.29    6.70
  -5   6   8  116.39    6.80
   4  -6  -8   64.39    5.70
   4  -6  -8   53.49    8.10
  -4   6   8   53.09    4.40
  -4   6   8   51.39    4.40
   3  -6  -8  182.08   12.30
   3  -6  -8  187.98   11.50
   3  -6  -8  195.18   10.60
  -3   6   8  190.88    8.20
  -3   6   8  185.68    9.00
  -3   6   8  193.58   10.30
  -3   6   8  189.38   11.10
   2  -6  -8  384.16   17.60
   2  -6  -8  377.06   19.70
   2  -6  -8  365.76   18.30
  -2   6   8  387.66   16.10
  -2   6   8  408.56   19.10
   1  -6  -8  120.99    8.10
   1  -6  -8  129.79   10.40
  -1   6   8  148.39   10.60
  -1   6   8  136.59    8.50
  -1   6   8  121.89    8.20
   0  -6  -8   -5.10    3.90
   0  -6  -8   -1.60    2.00
   0   6   8    0.00    2.00
   0   6   8   -1.00    1.80
   0   6   8    0.00    1.70
   0   6   8   -0.60    3.80
  -1  -6  -8    2.40    8.80
  -1  -6  -8    5.50    2.70
   1   6   8    2.90    5.50
   1   6   8    5.40    2.60
   1   6   8    6.10    2.20
  -2  -6  -8   21.80    4.10
  -2  -6  -8   20.90    7.30
   2   6   8   30.10    4.70
  -3  -6  -8   12.20    8.00
   3   6   8   31.70    5.40
   3   6   8   25.50    5.20
   7  -7  -8  124.59   14.50
  -7   7   8  114.69    8.20
  -7   7   8  122.49    9.00
   6  -7  -8   34.30    7.30
   6  -7  -8   37.50    6.00
  -6   7   8   43.60    5.10
   5  -7  -8  125.59   13.10
   5  -7  -8  145.09    9.00
  -5   7   8  141.29    7.80
  -5   7   8  124.29    7.90
   4  -7  -8    1.80    2.50
   4  -7  -8    3.80    4.00
  -4   7   8    1.50    1.80
  -4   7   8   -0.20    2.20
   3  -7  -8   40.10    5.50
   3  -7  -8   33.60    7.90
   3  -7  -8   57.39    7.80
  -3   7   8   46.00    4.40
  -3   7   8   52.39    5.40
   2  -7  -8   49.50    8.90
   2  -7  -8   47.40    5.70
  -2   7   8   45.30    6.30
   1  -7  -8  105.59    8.00
   1  -7  -8   74.59   14.20
  -1   7   8  121.29    9.90
   0  -7  -8  173.58   14.30
   0  -7  -8  167.88   10.40
   0   7   8  163.68    8.50
   0   7   8  163.98   18.30
  -1  -7  -8    3.20    4.40
  -1  -7  -8    9.40    6.90
   1   7   8    2.50    1.80
   1   7   8   -1.30    2.80
  -2  -7  -8    4.80    3.90
  -2  -7  -8   15.30    8.30
   2   7   8    4.10    3.40
   2   7   8   11.50    5.90
   2   7   8    3.60    3.70
   6  -8  -8  276.07   15.70
   6  -8  -8  294.07   20.00
  -6   8   8  368.56   20.30
  -6   8   8  309.07   14.40
   5  -8  -8    4.00    2.90
  -5   8   8    0.90    3.20
  -5   8   8    3.70    2.20
   4  -8  -8   90.79    7.30
  -4   8   8   70.69    6.30
  -4   8   8   69.49    5.70
   3  -8  -8   30.20    5.90
   3  -8  -8   27.80    5.20
   3  -8  -8   27.70    5.50
  -3   8   8   35.70    4.50
  -3   8   8   39.90    5.60
   2  -8  -8   64.39    7.20
   2  -8  -8   60.59    7.90
  -2   8   8   81.69    7.80
   1  -8  -8  211.88   12.40
   1  -8  -8  206.48   14.80
  -1   8   8  213.18   13.50
  -1   8   8  213.68    9.20
   0  -8  -8   -2.30    3.20
   0  -8  -8   -1.30    4.60
   0   8   8    2.30    4.00
   0   8   8   -1.10    2.30
  -1  -8  -8   13.40    4.70
  -1  -8  -8   28.40    8.20
   1   8   8   20.70    4.10
   1   8   8   23.70    6.10
   5  -9  -8   38.90    7.60
  -5   9   8   37.60    6.60
  -5   9   8   38.00    4.90
   4  -9  -8   32.80    5.80
  -4   9   8   33.20    4.70
  -4   9   8   28.40    5.40
   3  -9  -8    3.90    3.70
   3  -9  -8    0.60    4.00
  -3   9   8   -1.10    2.20
  -3   9   8    0.70    3.40
   2  -9  -8   -1.00    3.10
   2  -9  -8   -5.10    4.20
  -2   9   8   -2.40    3.50
   1  -9  -8   43.20    7.30
   1  -9  -8   43.90    8.50
  -1   9   8   56.49    4.50
  -1   9   8   58.09    8.40
  -1  12  -9    7.50   13.50
  -1  12  -9   23.40    4.50
   1 -12   9   38.90    9.50
   1 -12   9   38.60    6.80
  -2  12  -9  128.19    9.70
  -2  12  -9  116.69   19.60
   2 -12   9  123.49   19.20
   2 -12   9  132.99   10.70
   1  11  -9  162.68   12.30
   1  11  -9  146.09   18.20
  -1 -11   9  167.28   12.90
  -1 -11   9  136.19   15.30
  -1 -11   9  133.29   12.60
  -1 -11   9  147.79   14.60
   0  11  -9   34.30   13.20
   0  11  -9   22.20    5.40
   0 -11   9   16.00    6.80
   0 -11   9   27.70    6.10
   0 -11   9   21.20    4.70
  -1  11  -9   12.10   13.10
  -1  11  -9    9.60    3.70
   1 -11   9    9.70    7.20
   1 -11   9    7.60    4.40
  -2  11  -9   14.60   11.10
  -2  11  -9   15.50    3.80
   2 -11   9   17.30    4.00
   2 -11   9   27.40    8.40
   2 -11   9   16.60    4.40
  -3  11  -9   28.60   12.30
  -3  11  -9   10.70    3.70
  -3  11  -9    4.20    2.00
   3 -11   9   -0.40    4.10
   3 -11   9    8.10    3.00
   3 -11   9   -4.70   12.40
  -4  11  -9  132.19    7.30
  -4  11  -9  129.49   21.10
  -4  11  -9  144.89    9.60
   4 -11   9  132.29   10.00
   4 -11   9  189.78   28.10
   4 -11   9  155.48    8.10
   3  10  -9   -4.30    8.90
   3  10  -9    3.40    4.20
  -3 -10   9    0.00    5.30
  -3 -10   9    2.90    6.20
   2  10  -9   24.60    5.30
   2  10  -9   22.10   10.00
  -2 -10   9   33.90    7.00
  -2 -10   9   29.30    6.90
   1  10  -9  280.77   25.00
   1  10  -9  337.97   19.70
  -1 -10   9  376.16   19.90
  -1 -10   9  380.66   19.30
  -1 -10   9  344.57   18.80
   0  10  -9   -2.80    3.40
   0  10  -9    2.00    9.90
   0 -10   9    0.50    4.20
   0 -10   9   -1.20    3.50
  -1  10  -9   73.49    7.20
  -1  10  -9   72.49   15.20
   1 -10   9   81.29   11.60
   1 -10   9   81.89    8.50
   1 -10   9   65.19    8.30
  -2  10  -9    2.10    2.50
   2 -10   9    7.10    3.10
   2 -10   9    1.90    3.80
   2 -10   9   22.40    7.50
  -3  10  -9   25.30    3.00
  -3  10  -9   26.20   11.30
  -3  10  -9   30.40    6.60
  -3  10  -9   30.50    5.20
   3 -10   9   33.70   19.90
   3 -10   9   22.30    4.50
  -4  10  -9   49.80   12.10
  -4  10  -9   31.00    5.10
  -4  10  -9   22.50    3.40
   4 -10   9   29.70    5.20
   4 -10   9    6.70   18.60
  -5  10  -9   19.90    3.70
   5 -10   9   27.00    5.50
   5 -10   9   30.40   26.20
   4   9  -9    2.80    9.00
   4   9  -9   -6.50    5.00
  -4  -9   9   -4.10    4.80
  -4  -9   9    1.60    5.60
   3   9  -9   34.20   13.50
   3   9  -9   59.69    8.20
  -3  -9   9   65.79   11.70
  -3  -9   9   65.79    9.60
   2   9  -9  265.67   15.20
   2   9  -9  239.68   20.70
  -2  -9   9  262.97   17.10
  -2  -9   9  272.37   16.70
   1   9  -9    9.20    3.70
   1   9  -9   -0.80    9.00
  -1  -9   9   17.30    6.50
  -1  -9   9   12.20    4.20
  -1  -9   9   14.30    5.50
   0   9  -9  495.85   21.80
   0   9  -9  407.06   28.70
   0  -9   9  472.85   22.30
   0  -9   9  481.35   23.40
   0  -9   9  455.85   22.40
  -1   9  -9   93.39   17.00
  -1   9  -9  107.89    7.80
   1  -9   9   99.59   10.80
   1  -9   9   96.29    8.90
   1  -9   9   95.39    8.70
   1  -9   9  111.59    8.00
  -2   9  -9    9.20    2.30
  -2   9  -9   22.80   10.10
  -2   9  -9   11.20    1.90
   2  -9   9   14.70    6.40
   2  -9   9   18.00    4.40
  -3   9  -9   -1.00    1.30
  -3   9  -9   10.40    4.80
  -3   9  -9    2.20    1.70
   3  -9   9    0.90    9.50
   3  -9   9   -3.90    3.30
   3  -9   9    3.70    1.90
  -4   9  -9  148.69    9.90
  -4   9  -9  147.29    7.40
   4  -9   9  139.39   10.40
   4  -9   9  151.68    7.20
  -5   9  -9   83.89    6.20
  -5   9  -9   78.59    7.40
   5  -9   9   89.39    8.70
   5  -9   9  124.19   27.70
  -6   9  -9   -1.60    3.10
  -6   9  -9   -2.00    3.20
   6  -9   9   -3.90    3.90
   6  -9   9  -22.00   19.40
  -5  -8   9   31.70    8.10
   4   8  -9    2.60    4.80
   4   8  -9   -9.30    7.20
  -4  -8   9   16.00    6.90
  -4  -8   9   13.40    5.20
   3   8  -9   15.30    4.90
   3   8  -9    6.60    7.00
  -3  -8   9    8.60    5.40
  -3  -8   9   27.10    5.70
   2   8  -9   -2.70    7.50
   2   8  -9    3.10    2.80
  -2  -8   9    5.80    4.60
  -2  -8   9   11.30    4.20
  -2  -8   9    4.00    2.10
   1   8  -9  121.09   16.00
   1   8  -9  138.19    9.50
  -1  -8   9  147.59   11.10
  -1  -8   9  138.79   10.60
   0   8  -9   16.80    8.60
   0   8  -9   18.30    3.80
   0  -8   9   23.40    5.00
   0  -8   9   14.60    3.80
   0  -8   9   12.60    4.30
  -1   8  -9   50.49    4.90
  -1   8  -9   56.09    5.60
  -1   8  -9   57.49   12.40
   1  -8   9   54.59    8.60
   1  -8   9   53.09    6.50
   1  -8   9   60.79    6.00
   1  -8   9   53.09    7.30
  -2   8  -9  106.19    5.20
  -2   8  -9  115.89    7.10
  -2   8  -9  103.79   16.20
  -2   8  -9  109.99    7.40
   2  -8   9   98.49    9.30
   2  -8   9  102.09    6.80
   2  -8   9  110.39   12.80
  -3   8  -9  102.29   14.60
  -3   8  -9   98.29    6.80
  -3   8  -9  100.39    5.20
   3  -8   9  112.19    9.70
   3  -8   9  103.59    5.70
   3  -8   9  101.19   14.80
  -4   8  -9   69.19    6.20
  -4   8  -9   69.49    9.20
  -4   8  -9   74.69    4.90
   4  -8   9   75.99    7.90
   4  -8   9   95.09   20.80
  -5   8  -9  114.19    9.40
  -5   8  -9   90.49    6.50
   5  -8   9   81.49    8.80
   5  -8   9   68.09   18.70
  -6   8  -9    9.00    3.50
  -6   8  -9    8.10    4.00
  -6   8  -9   10.40    4.70
   6  -8   9    7.30    4.00
   6  -8   9   29.70   18.20
   5   7  -9   19.40    5.50
   5   7  -9   33.30    6.40
   5   7  -9   15.30    7.20
  -5  -7   9   27.30    7.10
  -5  -7   9   18.50    7.50
   4   7  -9   51.59   10.20
   4   7  -9   59.79    8.20
   4   7  -9   51.19    8.70
  -4  -7   9   77.09    9.60
  -4  -7   9   60.59    7.60
  -4  -7   9   56.99   10.00
   3   7  -9  321.67   21.60
   3   7  -9  391.36   18.90
   3   7  -9  390.76   18.70
  -3  -7   9  361.96   19.90
  -3  -7   9  385.86   20.70
   2   7  -9   82.59    7.20
  -2  -7   9   80.09    4.90
  -2  -7   9   80.79    8.70
  -2  -7   9   72.39    8.30
   1   7  -9  122.89    8.40
   1   7  -9   96.69   14.10
  -1  -7   9  114.29    9.20
  -1  -7   9  128.09    9.10
   0   7  -9   -9.70    6.50
   0   7  -9    2.40    2.30
   0   7  -9    2.20    2.00
   0  -7   9   -1.70    3.00
   0  -7   9   -0.20    3.00
   0  -7   9   -1.30    2.90
  -1   7  -9    3.90    2.20
  -1   7  -9    3.50    6.30
  -1   7  -9    4.50    2.80
  -1   7  -9   -1.20    2.10
   1  -7   9    1.60    2.50
   1  -7   9    3.20    3.00
  -2   7  -9  262.17   15.00
  -2   7  -9  292.47   13.60
  -2   7  -9  294.77   11.40
  -2   7  -9  232.38   21.20
  -2   7  -9  299.67   12.80
   2  -7   9  295.77   18.80
   2  -7   9  297.17   12.70
   2  -7   9  296.27   15.70
  -3   7  -9  160.48    9.10
  -3   7  -9  177.98    8.90
  -3   7  -9  158.48   11.20
  -3   7  -9  164.18    7.40
   3  -7   9  162.58    7.40
   3  -7   9  171.98   11.20
   3  -7   9  150.48   21.10
  -4   7  -9  417.66   17.50
  -4   7  -9  440.96   21.10
  -4   7  -9  412.96   18.90
   4  -7   9  425.36   37.30
   4  -7   9  425.66   20.50
  -5   7  -9  451.05   21.00
  -5   7  -9  397.16   18.10
  -5   7  -9  442.06   19.70
   5  -7   9  422.26   20.50
   5  -7   9  328.07   53.89
  -6   7  -9   -3.70    3.40
  -6   7  -9    8.00    4.30
  -6   7  -9    2.00    3.30
   6  -7   9    2.20    3.90
   6  -7   9  -22.10   15.60
   6   6  -9    6.30    5.80
   6   6  -9    7.10    9.40
  -6  -6   9   12.30    6.20
  -6  -6   9   10.10    4.90
  -6  -6   9    3.70    6.50
   5   6  -9  142.99   10.70
   5   6  -9  111.19   12.10
   5   6  -9  131.59   11.70
  -5  -6   9  134.39   12.10
  -5  -6   9  133.29   12.60
   4   6  -9  465.45   22.60
   4   6  -9  457.95   22.10
   4   6  -9  402.06   24.00
  -4  -6   9  460.65   21.50
  -4  -6   9  454.85   23.60
  -4  -6   9  477.85   24.40
  -4  -6   9  527.55   22.20
   3   6  -9   30.10    7.20
   3   6  -9   32.10    5.30
   3   6  -9   31.50    5.50
  -3  -6   9   36.20    5.40
  -3  -6   9   46.50    7.00
  -3  -6   9   22.20    4.30
   2   6  -9   -5.80    6.30
   2   6  -9   -2.00    2.60
  -2  -6   9    0.50    2.90
  -2  -6   9   -1.90    2.90
  -2  -6   9    1.70    1.30
   1   6  -9    2.40    5.50
   1   6  -9   11.30    3.10
   1   6  -9    9.50    2.40
  -1  -6   9   16.00    4.60
  -1  -6   9    6.70    3.30
  -1  -6   9    7.60    3.50
   0   6  -9  151.68    8.40
   0   6  -9  129.19    8.70
   0   6  -9  127.19   13.40
   0   6  -9  136.79    8.70
   0  -6   9  134.79    9.40
   0  -6   9  130.49    8.90
   0  -6   9  133.49    9.40
   0  -6   9  126.29    9.70
  -1   6  -9   26.40    3.40
  -1   6  -9   15.90    6.60
  -1   6  -9   28.00    3.60
  -1   6  -9   19.90    4.40
   1  -6   9   25.50    4.20
   1  -6   9   20.70    4.30
   1  -6   9   23.40    4.50
   1  -6   9   26.80    5.20
  -2   6  -9   75.59    4.50
  -2   6  -9   78.59    3.90
  -2   6  -9   82.19    7.10
  -2   6  -9   69.49    5.20
   2  -6   9   72.49    4.60
   2  -6   9   84.49   11.80
   2  -6   9   71.69    7.40
  -3   6  -9   32.30    6.00
  -3   6  -9   25.70    2.70
  -3   6  -9   24.10    3.80
   3  -6   9   29.20    2.00
   3  -6   9   39.50   10.10
   3  -6   9   31.20    5.70
  -4   6  -9   76.99    5.40
  -4   6  -9   80.39    6.40
  -4   6  -9   86.59    8.70
   4  -6   9   91.49    8.20
   4  -6   9  131.69   19.40
  -5   6  -9   29.40    5.20
   5  -6   9   56.59   13.10
  -6   6  -9  245.48   13.50
  -6   6  -9  286.17   15.20
   6  -6   9  260.37   14.80
   6   5  -9  110.49   11.20
   6   5  -9  104.79   11.80
  -6  -5   9  121.89   11.60
  -6  -5   9  120.99   11.20
  -6  -5   9  119.49   13.20
   5   5  -9    6.80    4.40
   5   5  -9   10.70    6.30
   5   5  -9   15.00    4.90
  -5  -5   9   14.30    4.70
  -5  -5   9   11.10    4.00
   4   5  -9   82.89    9.40
   4   5  -9   85.89    7.70
   4   5  -9   87.99   10.10
  -4  -5   9   71.39    8.40
  -4  -5   9   81.09    7.60
  -4  -5   9   83.09    9.10
   3   5  -9   37.20    7.50
   3   5  -9   50.29    5.80
   3   5  -9   61.49    7.10
  -3  -5   9   46.70    7.20
  -3  -5   9   68.99    8.70
  -3  -5   9   50.79    7.10
  -3  -5   9   46.20    5.60
  -3  -5   9   50.69    6.60
  -3  -5   9   57.19    5.50
   2   5  -9    2.60    2.20
   2   5  -9    4.90    3.10
   2   5  -9    2.10    5.50
   2   5  -9    3.50    2.00
  -2  -5   9    1.80    3.70
  -2  -5   9    2.40    3.10
  -2  -5   9    2.60    3.00
  -2  -5   9    3.00    1.20
   1   5  -9 1330.97   52.39
   1   5  -9 1441.06   50.09
   1   5  -9 1252.47   57.49
   1   5  -9 1375.46   51.99
  -1  -5   9 1362.66   53.49
  -1  -5   9 1346.77   52.39
  -1  -5   9 1347.07   52.79
   0   5  -9    7.30    2.20
   0   5  -9   14.40    3.60
   0   5  -9    9.40    5.10
   0   5  -9    7.70    1.70
   0  -5   9    4.70    2.60
   0  -5   9   10.00    3.60
   0  -5   9    9.80    3.30
   0  -5   9   10.20    2.60
  -1   5  -9 1608.24   57.49
  -1   5  -9 1618.94   57.49
  -1   5  -9 1669.63   59.99
  -1   5  -9 1695.73   57.89
  -1   5  -9 1606.64   61.59
  -1   5  -9 1368.56   61.39
  -1   5  -9 1717.53   58.29
   1  -5   9 1614.24   62.69
   1  -5   9 1581.74   62.89
   1  -5   9 1600.54   60.69
   1  -5   9 1490.45   60.59
  -2   5  -9   11.10    1.90
  -2   5  -9   14.90    4.00
  -2   5  -9   12.50    4.00
  -2   5  -9   12.10    1.80
   2  -5   9   12.80    1.70
   2  -5   9   11.80    3.30
   2  -5   9    6.20    5.50
   2  -5   9    7.70    2.90
  -3   5  -9  242.38   12.80
  -3   5  -9  243.68   10.20
  -3   5  -9  238.58   11.50
  -3   5  -9  235.38   13.80
   3  -5   9  201.88   21.90
   3  -5   9  231.58   13.50
  -4   5  -9  190.28   10.30
  -4   5  -9  182.78   11.20
  -4   5  -9  186.68    9.10
  -4   5  -9  181.58   12.30
   4  -5   9  190.48   12.00
   4  -5   9  223.88   23.00
  -5   5  -9  318.27   16.40
  -5   5  -9  324.37   15.00
  -5   5  -9  349.47   18.10
   5  -5   9  366.36   30.40
   5  -5   9  325.27   17.40
  -6   5  -9  335.87   17.10
  -6   5  -9  316.27   17.00
  -6   5  -9  309.17   15.50
   6  -5   9  295.47   36.30
   6  -5   9  305.67   16.80
  -7   5  -9   69.89    8.50
  -7   5  -9   53.99    8.00
   7  -5   9   80.29    8.70
   7   4  -9  216.58   14.40
   7   4  -9  185.28   16.20
  -7  -4   9  196.88   15.10
  -7  -4   9  205.38   14.60
  -7  -4   9  218.38   17.40
   6   4  -9   16.60    5.90
   6   4  -9   16.40    5.10
  -6  -4   9   14.90    6.70
  -6  -4   9   16.30    5.00
  -6  -4   9   29.50    6.70
   5   4  -9  340.07   19.10
   5   4  -9  332.57   18.00
   5   4  -9  346.77   17.90
   5   4  -9  366.26   15.90
  -5  -4   9  340.27   17.50
  -5  -4   9  348.17   18.80
  -5  -4   9  365.56   20.40
   4   4  -9    8.20    3.70
   4   4  -9    3.20    4.40
   4   4  -9    7.80    4.30
  -4  -4   9    9.60    3.10
  -4  -4   9    5.50    3.10
  -4  -4   9    9.10    3.90
  -4  -4   9    7.70    4.90
  -4  -4   9    8.10    3.20
   3   4  -9   41.00    5.00
   3   4  -9   50.19    4.60
   3   4  -9   35.00    4.30
   3   4  -9   49.10    7.70
   3   4  -9   38.20    6.60
  -3  -4   9   39.70    6.00
  -3  -4   9   37.50    6.40
  -3  -4   9   39.80    5.00
  -3  -4   9   40.30    5.80
  -3  -4   9   35.80    4.30
   2   4  -9   63.79    5.50
   2   4  -9   82.29    6.30
   2   4  -9   69.19    4.50
   2   4  -9   65.29    6.90
   2   4  -9   64.99    8.60
  -2  -4   9   67.49    6.40
  -2  -4   9   73.99    3.60
  -2  -4   9   70.69    5.30
  -2  -4   9   64.29    6.70
  -2  -4   9   66.29    6.50
  -2  -4   9   69.99    5.20
   1   4  -9  130.19   11.40
   1   4  -9  121.89    5.80
   1   4  -9  126.89    8.00
   1   4  -9  123.99    7.60
  -1  -4   9  110.49    7.70
  -1  -4   9  122.69    8.00
  -1  -4   9  134.49    9.10
  -1  -4   9  112.99    8.10
   0   4  -9 1472.85   54.79
   0   4  -9 1411.66   56.79
   0   4  -9 1525.15   56.49
   0   4  -9 1498.75   52.79
   0  -4   9 1436.56   56.19
   0  -4   9 1494.95   55.49
   0  -4   9 1384.16   57.39
   0  -4   9 1477.85   56.09
  -1   4  -9  302.67   16.50
  -1   4  -9  356.26   14.80
  -1   4  -9  355.76   16.00
  -1   4  -9  354.16   14.10
   1  -4   9  347.77   18.80
   1  -4   9  337.77   15.10
   1  -4   9  301.97   16.80
   1  -4   9  333.77   15.30
  -2   4  -9  180.18    7.30
  -2   4  -9  186.48    9.10
  -2   4  -9  181.88    9.80
  -2   4  -9  169.98   11.40
   2  -4   9  187.68   10.10
   2  -4   9  178.48   17.20
   2  -4   9  175.88   11.40
  -3   4  -9    5.40    1.80
  -3   4  -9    5.30    2.90
  -3   4  -9    9.00    1.70
  -3   4  -9   13.70    3.90
   3  -4   9   12.40    3.70
   3  -4   9   18.70    7.60
   3  -4   9    7.30    3.30
  -4   4  -9   58.99    4.40
  -4   4  -9   61.49    5.60
  -4   4  -9   53.69    5.90
  -4   4  -9   55.19    7.40
   4  -4   9   49.20    6.60
   4  -4   9   97.89   17.60
  -5   4  -9  100.69    7.00
  -5   4  -9  105.79    8.00
  -5   4  -9  119.19   10.10
   5  -4   9  108.79    9.10
  -6   4  -9   18.60    3.80
  -6   4  -9    3.80    3.30
  -6   4  -9   11.60    4.40
  -6   4  -9    9.10    5.20
   6  -4   9   18.20   15.90
   6  -4   9    7.30    4.10
  -7   4  -9  138.39   12.10
  -7   4  -9  111.69    9.60
   7  -4   9  101.09    9.60
   7   3  -9   -1.30    5.30
   7   3  -9    3.20    5.10
  -7  -3   9   -6.20    6.00
  -7  -3   9   -5.20    4.70
  -7  -3   9    6.80    4.70
   6   3  -9   74.29    6.20
   6   3  -9   86.89   10.60
   6   3  -9   86.89    9.00
  -6  -3   9   82.79    9.50
  -6  -3   9   93.79    9.00
   5   3  -9   85.09    7.70
   5   3  -9   82.39    7.30
   5   3  -9   69.19    9.50
   5   3  -9   76.09    5.70
  -5  -3   9   70.09    6.10
  -5  -3   9   81.09    7.80
  -5  -3   9   73.49   10.40
  -5  -3   9   78.49    9.10
  -5  -3   9   80.49    8.20
   4   3  -9   41.80    4.20
   4   3  -9   43.70    7.60
   4   3  -9   36.80    6.80
   4   3  -9   42.40    5.50
  -4  -3   9   47.60    5.90
  -4  -3   9   43.90    7.20
  -4  -3   9   48.20    7.50
  -4  -3   9   45.70    5.20
  -4  -3   9   37.30    4.40
   3   3  -9  599.04   23.40
   3   3  -9  609.04   25.10
   3   3  -9  574.64   27.00
   3   3  -9  622.74   25.50
  -3  -3   9  607.54   24.50
  -3  -3   9  575.24   25.90
  -3  -3   9  593.04   27.20
  -3  -3   9  617.94   25.80
  -3  -3   9  622.64   23.90
   2   3  -9    6.40    3.00
   2   3  -9    8.60    1.50
   2   3  -9    6.30    2.10
   2   3  -9    4.40    2.00
  -2  -3   9    3.80    2.20
  -2  -3   9    6.70    2.90
  -2  -3   9    9.80    2.10
  -2  -3   9    4.40    2.40
  -2  -3   9    8.40    2.40
   1   3  -9   36.10    5.10
   1   3  -9   41.20    4.20
   1   3  -9   32.40    3.50
   1   3  -9   31.60    2.10
  -1  -3   9   28.20    4.10
  -1  -3   9   45.20    8.00
  -1  -3   9   26.10    4.10
  -1  -3   9   35.70    5.60
  -1  -3   9   29.60    4.20
   0   3  -9   88.59    4.10
   0   3  -9   86.89    7.10
   0   3  -9   89.49    5.30
   0   3  -9   94.89    6.60
   0  -3   9   89.19    6.30
   0  -3   9   86.79    7.40
   0  -3   9   83.29   10.70
   0  -3   9   91.89    7.40
   0  -3   9   89.89    6.20
  -1   3  -9   93.69    6.20
  -1   3  -9   97.19    6.30
  -1   3  -9   96.29    5.60
  -1   3  -9   98.19    7.60
   1  -3   9   92.29    4.30
   1  -3   9   85.29    7.30
   1  -3   9   93.19    6.30
   1  -3   9   99.09    6.10
   1  -3   9  101.69   10.50
  -2   3  -9 1217.58   44.00
  -2   3  -9 1289.67   46.50
  -2   3  -9 1263.27   46.00
  -2   3  -9 1219.98   48.70
  -2   3  -9 1135.09   49.10
   2  -3   9 1228.28   46.50
   2  -3   9 1192.48   54.49
   2  -3   9 1188.68   48.60
  -3   3  -9  229.88   14.00
  -3   3  -9  235.08   10.80
  -3   3  -9  234.88   10.00
  -3   3  -9  241.58   11.60
   3  -3   9  218.88   19.20
   3  -3   9  226.08   11.50
   3  -3   9  219.78   13.20
   3  -3   9  233.68    9.20
  -4   3  -9  122.89    6.80
  -4   3  -9  119.29   10.30
  -4   3  -9  130.99    7.20
  -4   3  -9  134.09    8.40
   4  -3   9  123.09    5.90
   4  -3   9  122.79    9.30
  -5   3  -9   57.79    6.80
  -5   3  -9   53.99    5.30
  -5   3  -9   58.09    8.20
   5  -3   9   47.00    7.40
  -6   3  -9    5.10    5.00
  -6   3  -9   10.40    4.90
  -6   3  -9    5.70    3.30
   6  -3   9   12.50    4.80
   7   2  -9    2.00    5.40
  -7  -2   9   11.20    6.40
  -7  -2   9    6.00    4.60
  -7  -2   9    3.60    4.70
   6   2  -9    8.70    5.50
   6   2  -9    8.80    4.20
  -6  -2   9    3.70    5.20
  -6  -2   9    9.40    4.00
   5   2  -9  500.35   25.30
   5   2  -9  518.85   21.80
   5   2  -9  529.55   23.40
  -5  -2   9  527.05   23.00
  -5  -2   9  513.75   23.90
  -5  -2   9  546.95   25.80
   4   2  -9  199.48   13.00
   4   2  -9  210.78   11.50
   4   2  -9  205.78   10.50
  -4  -2   9  203.88   12.30
  -4  -2   9  194.18   12.70
  -4  -2   9  205.88    9.10
  -4  -2   9  196.88   10.40
  -4  -2   9  199.08   11.50
   3   2  -9 2640.44   98.89
   3   2  -9 2645.34   98.39
   3   2  -9 2674.03  101.29
   3   2  -9 2711.33   96.59
  -3  -2   9 2535.85  100.39
  -3  -2   9 2728.03   97.79
  -3  -2   9 2633.04   96.69
  -3  -2   9 2709.33   98.89
  -3  -2   9 2641.74   98.99
  -3  -2   9 2807.82   97.89
   2   2  -9   28.80    3.90
   2   2  -9   29.70    5.50
   2   2  -9   27.60    2.20
   2   2  -9   30.80    3.40
   2   2  -9   31.50    4.60
  -2  -2   9   35.60    4.90
  -2  -2   9   29.60    3.90
  -2  -2   9   31.90    4.00
  -2  -2   9   32.20    3.60
  -2  -2   9   29.80    5.70
  -2  -2   9   29.50    3.10
   1   2  -9  404.56   17.80
   1   2  -9  393.66   17.50
   1   2  -9  414.56   16.60
   1   2  -9  407.76   19.80
   1   2  -9  407.06   18.80
   1   2  -9  411.06   15.00
  -1  -2   9  365.26   19.00
  -1  -2   9  408.76   15.40
  -1  -2   9  415.16   17.00
  -1  -2   9  410.36   18.50
  -1  -2   9  425.46   16.70
  -1  -2   9  425.96   17.10
  -1  -2   9  405.56   17.40
   0   2  -9   31.70    3.70
   0   2  -9   29.50    4.50
   0   2  -9   32.50    4.80
   0   2  -9   37.10    3.00
   0   2  -9   32.50    3.20
   0  -2   9   29.40    2.60
   0  -2   9   39.40    6.70
   0  -2   9   33.60    4.00
   0  -2   9   34.60    3.60
   0  -2   9   31.90    7.20
  -1   2  -9  488.75   18.90
  -1   2  -9  452.15   21.90
  -1   2  -9  465.35   20.60
  -1   2  -9  481.45   18.80
   1  -2   9  442.46   25.50
   1  -2   9  471.85   18.50
   1  -2   9  464.95   19.10
   1  -2   9  451.05   21.40
   1  -2   9  471.15   17.40
  -2   2  -9  132.59    7.40
  -2   2  -9  118.99    9.50
  -2   2  -9  102.39    8.80
  -2   2  -9  129.09    6.30
   2  -2   9  121.09    7.10
   2  -2   9  131.69    9.40
   2  -2   9  141.39   12.90
   2  -2   9  127.89    5.00
  -3   2  -9  819.52   37.80
  -3   2  -9  888.71   38.50
  -3   2  -9  908.61   33.60
  -3   2  -9  893.91   35.40
  -3   2  -9  815.22   33.40
   3  -2   9  930.31   32.60
   3  -2   9  925.01   37.30
   3  -2   9  913.21   34.90
   3  -2   9  927.31   41.50
  -4   2  -9    6.10    2.40
  -4   2  -9   10.30    5.20
  -4   2  -9   13.10    2.20
   4  -2   9   25.00    9.20
   4  -2   9    7.90    3.90
   4  -2   9   11.70    3.70
   4  -2   9    9.00    1.70
  -5   2  -9  103.59    7.10
  -5   2  -9  105.39    9.80
  -5   2  -9   93.59    8.70
  -6   2  -9    5.90    5.00
  -6   2  -9   11.50    3.50
   6  -2   9    8.20    4.30
   7   1  -9  122.19   11.30
   7   1  -9  121.39   13.00
  -7  -1   9  129.39   11.00
  -7  -1   9  140.09   11.70
  -7  -1   9  136.19   13.20
   6   1  -9  256.17   12.30
   6   1  -9  257.67   14.50
   6   1  -9  239.48   16.20
  -6  -1   9  273.27   14.50
  -6  -1   9  263.07   16.50
  -6  -1   9  262.67   14.80
   5   1  -9   -4.40    3.40
   5   1  -9    2.80    2.90
   5   1  -9    1.80    2.20
  -5  -1   9    6.60    4.70
  -5  -1   9    4.50    3.20
  -5  -1   9    1.00    2.50
  -5  -1   9   -0.50    3.50
   4   1  -9 1611.64   63.09
   4   1  -9 1642.64   60.09
   4   1  -9 1576.14   60.09
  -4  -1   9 1554.04   62.39
  -4  -1   9 1534.45   59.89
  -4  -1   9 1635.64   59.69
  -4  -1   9 1574.54   57.29
  -4  -1   9 1565.14   60.29
   3   1  -9   44.50    4.90
   3   1  -9   46.50    6.80
   3   1  -9   45.60    3.10
   3   1  -9   45.50    4.20
  -3  -1   9   45.70    3.90
  -3  -1   9   44.80    4.90
  -3  -1   9   45.80    3.90
  -3  -1   9   47.90    5.00
  -3  -1   9   48.50    5.30
   2   1  -9 1298.27   48.10
   2   1  -9 1294.37   49.30
   2   1  -9 1279.27   52.89
   2   1  -9 1407.26   50.79
   2   1  -9 1296.77   51.49
  -2  -1   9 1305.77   49.40
  -2  -1   9 1420.06   50.89
  -2  -1   9 1342.17   49.80
  -2  -1   9 1398.26   49.60
  -2  -1   9 1198.78   52.79
  -2  -1   9 1342.47   48.70
  -2  -1   9 1338.07   51.59
   1   1  -9   20.20    2.40
   1   1  -9   24.60    3.80
   1   1  -9   15.40    3.70
   1   1  -9   18.80    3.70
  -1  -1   9   20.00    5.60
  -1  -1   9   16.20    3.60
  -1  -1   9   11.90    3.10
  -1  -1   9   16.60    4.00
  -1  -1   9   18.00    1.60
  -1  -1   9   20.00    3.80
  -1  -1   9   17.50    2.60
  -1  -1   9   19.20    2.70
   0   1  -9   32.70    4.20
   0   1  -9   30.00    3.00
   0   1  -9   27.80    2.50
   0   1  -9   30.00    4.50
   0   1  -9   27.50    3.90
   0  -1   9   22.10    3.00
   0  -1   9   28.70    5.70
   0  -1   9   20.70    4.00
   0  -1   9   27.40    3.00
   0  -1   9   26.00    2.50
  -1   1  -9   19.30    3.70
  -1   1  -9   16.40    2.60
  -1   1  -9   17.80    2.00
  -1   1  -9   22.80    4.70
   1  -1   9   13.40    4.10
   1  -1   9   19.60    2.70
   1  -1   9   16.90    2.60
   1  -1   9   18.50    3.90
   1  -1   9   17.40    1.90
  -2   1  -9 1020.40   43.20
  -2   1  -9  993.10   43.10
  -2   1  -9 1064.69   39.90
   2  -1   9 1021.20   42.00
   2  -1   9 1059.69   37.70
   2  -1   9 1023.80   43.80
   2  -1   9 1057.29   39.40
  -3   1  -9  161.08    9.70
  -3   1  -9  145.89   11.90
  -3   1  -9  154.08   11.40
   3  -1   9  138.09    7.50
   3  -1   9  146.19   10.30
   3  -1   9  171.38   15.10
  -4   1  -9   63.29    6.10
  -4   1  -9   39.40    4.20
  -4   1  -9   43.70    7.80
  -4   1  -9   51.29    8.50
   4  -1   9   45.20    6.60
   4  -1   9   48.80    4.20
   4  -1   9   46.10    5.70
  -5   1  -9  136.19   10.10
  -5   1  -9   93.29   11.50
  -5   1  -9  116.59   10.70
  -5   1  -9  101.39    7.50
   5  -1   9  107.59   10.00
  -6   1  -9    5.00    8.90
  -6   1  -9   14.20    4.90
  -6   1  -9    8.30    3.90
   6  -1   9    7.20    4.00
   6  -1   9    9.00    5.40
   8   0  -9   12.80    6.40
  -8   0   9    2.80    4.80
  -8   0   9   -6.00    7.20
  -8   0   9   -4.40    5.40
   7   0  -9   16.70    5.90
   7   0  -9    2.00    7.60
  -7   0   9   20.60    7.20
  -7   0   9   15.60    5.30
   6   0  -9    9.50    2.90
   6   0  -9    8.40    3.70
   6   0  -9    8.40    4.80
  -6   0   9    3.70    3.20
   5   0  -9   14.40    3.60
   5   0  -9    2.50    4.10
   5   0  -9   13.40    3.00
  -5   0   9    4.00    5.10
  -5   0   9   16.10    3.60
  -5   0   9    9.90    3.00
   4   0  -9    1.30    2.10
   4   0  -9   -2.30    2.00
   4   0  -9    6.10    3.70
  -4   0   9    3.20    1.90
  -4   0   9   -1.40    3.10
  -4   0   9    0.60    2.80
  -4   0   9    1.80    3.90
  -4   0   9   -1.00    1.70
   3   0  -9  671.73   26.20
   3   0  -9  686.93   30.40
   3   0  -9  688.03   28.60
   3   0  -9  730.23   26.00
  -3   0   9  612.14   28.10
  -3   0   9  714.23   26.70
  -3   0   9  687.33   26.70
  -3   0   9  716.43   29.00
  -3   0   9  681.13   29.10
   2   0  -9  281.07   14.40
   2   0  -9  304.37   11.70
   2   0  -9  281.77   11.60
   2   0  -9  287.77   15.70
  -2   0   9  291.67   13.10
  -2   0   9  254.77   13.70
  -2   0   9  307.77   12.00
  -2   0   9  297.27   14.10
  -2   0   9  295.67   11.80
  -2   0   9  306.97   14.80
  -2   0   9  281.87   16.10
   1   0  -9  150.18    6.20
   1   0  -9  143.19    9.30
   1   0  -9  137.09    8.70
   1   0  -9  152.08   10.10
   1   0  -9  147.19    6.90
  -1   0   9  146.99    6.00
  -1   0   9  142.69    8.10
  -1   0   9  145.39    7.50
  -1   0   9  143.59    9.40
   0   0  -9  688.13   29.80
   0   0  -9  665.13   28.60
   0   0  -9  722.53   26.20
   0   0   9  631.74   27.70
   0   0   9  670.53   26.10
   0   0   9  671.33   25.10
   0   0   9  699.83   26.20
   0   0   9  642.84   29.00
   0   0   9  702.83   29.10
   0   0   9  693.63   25.60
   0   0   9  667.43   24.60
  -1   0  -9  577.54   26.90
  -1   0  -9  623.44   23.50
  -1   0  -9  596.54   27.50
  -1   0  -9  591.74   22.60
   1   0   9  593.54   23.00
   1   0   9  605.14   26.10
   1   0   9  599.44   25.40
   1   0   9  599.74   22.40
   1   0   9  591.94   23.20
  -2   0  -9   79.79    3.90
  -2   0  -9   81.59    5.60
  -2   0  -9   68.49    7.70
  -2   0  -9   71.89    7.70
   2   0   9   84.99    5.30
   2   0   9   80.69    4.50
   2   0   9   59.19    8.80
   2   0   9   75.39    7.30
  -3   0  -9   42.30    2.60
  -3   0  -9   50.09    7.60
  -3   0  -9   40.70    6.90
  -3   0  -9   38.40    6.30
   3   0   9   46.00    3.90
   3   0   9   35.30    6.50
   3   0   9   40.40    4.50
  -4   0  -9   43.50    2.90
  -4   0  -9   45.20    6.00
  -4   0  -9   38.30    7.20
  -4   0  -9   24.10    8.00
  -4   0  -9   39.10    4.40
   4   0   9   28.70    5.70
   4   0   9   36.50    5.80
   4   0   9   40.30    5.90
  -5   0  -9   66.79    6.70
  -5   0  -9   61.59    7.70
  -5   0  -9   88.49   15.50
   5   0   9   69.79   10.10
   5   0   9   68.39    9.10
  -6   0  -9   -1.70    3.80
  -6   0  -9    3.20    4.20
  -6   0  -9   19.30   10.40
   6   0   9   -2.70    3.80
   6   0   9   -2.20    5.00
   8  -1  -9   44.30    8.10
  -8   1   9   63.89    8.40
  -8   1   9   62.89    9.60
   7  -1  -9   68.39   11.30
  -7   1   9   57.79    9.10
  -7   1   9   77.29    9.00
   6  -1  -9  208.88   15.20
   6  -1  -9  212.48   12.20
  -6   1   9  217.88   12.10
  -6   1   9  208.28   12.40
  -6   1   9  214.18   15.50
   5  -1  -9   21.20    3.90
   5  -1  -9   27.90    4.20
   5  -1  -9   17.30    5.10
  -5   1   9   16.00    4.60
  -5   1   9   31.00    4.70
  -5   1   9   18.10    6.50
  -5   1   9   21.60    3.80
   4  -1  -9  156.88    9.10
   4  -1  -9  158.88   11.30
  -4   1   9  159.18    8.50
  -4   1   9  153.78   10.80
  -4   1   9  176.48    8.40
  -4   1   9  162.88   10.50
   3  -1  -9  189.28   12.00
   3  -1  -9  179.28   10.40
  -3   1   9  183.18    9.40
  -3   1   9  203.18   10.60
  -3   1   9  179.58    8.50
  -3   1   9  183.68   11.60
  -3   1   9  161.78    9.90
   2  -1  -9   74.19    6.40
   2  -1  -9   67.99    6.80
   2  -1  -9   78.79    5.10
  -2   1   9   66.89    5.50
  -2   1   9   74.49    7.60
  -2   1   9   80.39    5.70
  -2   1   9   76.49    4.10
  -2   1   9   60.39    7.20
   1  -1  -9 1012.00   38.20
   1  -1  -9  974.00   39.80
   1  -1  -9 1010.90   41.40
   1  -1  -9  995.20   41.20
  -1   1   9 1024.50   40.60
  -1   1   9  973.90   41.40
  -1   1   9 1047.50   38.60
  -1   1   9 1014.90   36.60
  -1   1   9  980.80   38.40
   0  -1  -9  645.34   29.20
   0  -1  -9  687.53   24.80
   0  -1  -9  651.43   25.40
   0  -1  -9  629.74   28.70
   0  -1  -9  659.53   25.20
   0   1   9  694.33   24.60
   0   1   9  678.43   25.20
   0   1   9  667.83   25.10
   0   1   9  630.24   25.90
   0   1   9  674.83   28.10
   0   1   9  605.04   29.30
  -1  -1  -9    1.30    1.20
  -1  -1  -9    1.60    1.50
  -1  -1  -9    5.50    3.00
  -1  -1  -9   -0.30    3.20
   1   1   9    0.30    1.30
   1   1   9    2.20    2.10
   1   1   9   -0.10    2.60
   1   1   9   -1.20    1.40
  -2  -1  -9   64.89    4.10
  -2  -1  -9   61.89    5.20
  -2  -1  -9   84.69    7.80
  -2  -1  -9   63.79    7.40
   2   1   9   73.29    7.50
   2   1   9   66.89    4.90
   2   1   9   71.79    6.20
   2   1   9   65.09    5.00
  -3  -1  -9  241.78   15.50
  -3  -1  -9  257.37   16.70
  -3  -1  -9  263.07   10.80
  -3  -1  -9  258.17   13.10
   3   1   9  235.08   11.40
   3   1   9  227.28   13.80
   3   1   9  243.88   13.80
   3   1   9  250.57   11.90
  -4  -1  -9   37.20    8.50
  -4  -1  -9   25.70    4.90
   4   1   9   20.10    5.10
   4   1   9   22.10    5.00
  -5  -1  -9  111.89    9.50
  -5  -1  -9  115.99   14.60
   5   1   9  101.59   10.70
   5   1   9   96.59    9.70
   8  -2  -9   30.40    7.90
  -8   2   9   46.90    8.20
  -8   2   9   22.40    5.50
  -8   2   9   48.30   10.90
   7  -2  -9   66.09   11.40
  -7   2   9   80.69    8.40
  -7   2   9   66.99    9.50
   6  -2  -9   56.89    6.40
   6  -2  -9   60.39   10.00
  -6   2   9   73.69    6.70
  -6   2   9   69.79    7.00
   5  -2  -9   30.90    5.90
   5  -2  -9   41.40    4.80
  -5   2   9   39.20    4.70
  -5   2   9   27.40    7.70
  -5   2   9   39.50    5.20
  -5   2   9   39.20    7.00
   4  -2  -9   21.80    4.00
   4  -2  -9   23.80    3.20
   4  -2  -9   17.00    4.70
  -4   2   9   19.80    1.80
  -4   2   9   21.40    3.90
  -4   2   9   23.10    3.70
  -4   2   9   16.90    3.40
   3  -2  -9    2.60    2.20
   3  -2  -9    3.90    3.50
  -3   2   9    0.60    1.80
  -3   2   9    0.10    3.30
  -3   2   9    0.20    1.30
   2  -2  -9  708.13   28.30
   2  -2  -9  698.13   28.90
   2  -2  -9  692.43   30.10
   2  -2  -9  703.73   30.90
  -2   2   9  714.23   30.00
  -2   2   9  710.93   30.10
  -2   2   9  719.63   26.60
  -2   2   9  729.13   28.60
   1  -2  -9    1.40    2.40
   1  -2  -9    4.20    2.20
   1  -2  -9    1.40    1.30
  -1   2   9    1.40    2.00
  -1   2   9    3.20    2.00
  -1   2   9    7.30    3.40
  -1   2   9    6.90    3.00
   0  -2  -9  167.18    7.30
   0  -2  -9  151.88    7.80
   0  -2  -9  154.98    8.70
   0  -2  -9  149.69   10.60
   0  -2  -9  155.48   10.70
   0   2   9  149.79    8.80
   0   2   9  169.18   10.20
   0   2   9  160.18    7.30
  -1  -2  -9   25.00    5.80
  -1  -2  -9   24.70    5.50
  -1  -2  -9   18.20    2.70
   1   2   9   24.50    3.60
   1   2   9   20.10    2.60
   1   2   9   24.40    3.90
   1   2   9   28.30    4.70
  -2  -2  -9  416.36   22.20
  -2  -2  -9  355.36   19.90
  -2  -2  -9  376.56   16.70
  -2  -2  -9  375.36   15.60
   2   2   9  360.16   16.20
   2   2   9  387.26   18.30
   2   2   9  355.06   17.00
  -3  -2  -9    9.90    3.70
   3   2   9    5.70    3.40
   3   2   9    9.40    3.70
   3   2   9    8.30    3.40
   3   2   9    0.50    4.90
  -4  -2  -9  211.18   10.70
  -4  -2  -9  262.47   18.80
  -4  -2  -9  218.48   12.90
   4   2   9  197.18   13.40
   4   2   9  220.48   13.30
   4   2   9  237.98   18.40
  -5  -2  -9   89.29   12.70
  -5  -2  -9   84.09    8.90
   5   2   9   51.59   10.10
   5   2   9   71.19    8.60
   5   2   9   64.59    9.30
   8  -3  -9   42.40    8.20
  -8   3   9   42.10    6.70
  -8   3   9   63.69    8.70
   7  -3  -9   68.39   11.40
  -7   3   9   71.19    8.60
  -7   3   9   80.19   11.60
   6  -3  -9   27.70    7.10
  -6   3   9   34.70    5.10
  -6   3   9   29.70    4.40
  -6   3   9   39.00    7.70
   5  -3  -9    3.80    2.40
   5  -3  -9    5.70    2.60
   5  -3  -9   -5.60    3.90
  -5   3   9    2.30    3.90
  -5   3   9    3.20    2.30
  -5   3   9    3.10    2.70
  -5   3   9    3.70    2.20
  -5   3   9    7.20    3.80
   4  -3  -9   -0.90    2.40
   4  -3  -9    6.70    3.70
  -4   3   9    0.90    1.20
  -4   3   9    6.60    2.80
  -4   3   9   -1.70    3.40
  -4   3   9    1.70    1.80
   3  -3  -9  309.67   15.30
   3  -3  -9  309.07   14.30
   3  -3  -9  310.17   16.90
  -3   3   9  304.87   14.10
  -3   3   9  287.97   12.50
  -3   3   9  299.27   14.90
   2  -3  -9  182.08   10.60
   2  -3  -9  182.28   11.70
   2  -3  -9  182.08    9.50
   2  -3  -9  183.48   11.20
  -2   3   9  193.48    9.80
  -2   3   9  182.78    8.00
  -2   3   9  182.08   11.10
   1  -3  -9   42.20    3.90
   1  -3  -9   47.20    5.50
   1  -3  -9   41.70    6.00
  -1   3   9   52.69    6.40
  -1   3   9   52.39    6.30
   0  -3  -9   -1.50    1.80
   0  -3  -9    6.10    3.40
   0  -3  -9    5.30    3.20
   0  -3  -9   -1.40    1.30
   0   3   9   -0.80    2.90
   0   3   9   -3.90    2.30
   0   3   9    1.30    1.60
   0   3   9    0.50    1.40
  -1  -3  -9   12.50    2.90
  -1  -3  -9    4.70    3.90
  -1  -3  -9    7.60    1.90
   1   3   9    7.10    3.10
   1   3   9   10.20    2.60
   1   3   9    8.00    1.90
   1   3   9    9.50    3.40
   1   3   9    2.20    5.50
  -2  -3  -9   -0.50    2.60
  -2  -3  -9   -0.10    4.10
  -2  -3  -9   -1.40    1.80
   2   3   9    3.80    3.00
   2   3   9    0.30    2.50
  -3  -3  -9  395.86   16.70
  -3  -3  -9  364.86   23.50
  -3  -3  -9  378.36   18.20
   3   3   9  358.46   18.20
   3   3   9  398.06   18.50
  -4  -3  -9   59.89    6.10
  -4  -3  -9   45.20    7.70
  -4  -3  -9   42.40   10.20
   4   3   9   59.39   11.30
   4   3   9   65.19    8.40
  -5  -3  -9   41.90   10.60
   5   3   9   66.89    7.60
   5   3   9   37.00    9.20
   5   3   9   59.99    8.80
   7  -4  -9    8.90    6.50
  -7   4   9   14.00    4.60
  -7   4   9   10.80    4.00
   6  -4  -9   17.00    9.20
  -6   4   9   34.40    7.90
  -6   4   9   32.60    4.90
  -6   4   9   31.40    4.90
   5  -4  -9   24.50    5.60
  -5   4   9   36.60    3.60
  -5   4   9   38.10    7.20
  -5   4   9   30.20    4.70
   4  -4  -9   36.70    6.20
   4  -4  -9   42.70    5.10
  -4   4   9   39.20    4.00
  -4   4   9   43.50    5.60
   3  -4  -9    3.90    2.20
   3  -4  -9    2.80    3.60
  -3   4   9    6.00    1.60
  -3   4   9    7.60    2.20
  -3   4   9   13.90    3.10
   2  -4  -9  200.18   11.80
   2  -4  -9  189.68   10.30
   2  -4  -9  200.98   12.40
  -2   4   9  222.58   10.50
  -2   4   9  207.88   12.10
  -2   4   9  195.08    8.90
   1  -4  -9  167.78    9.50
   1  -4  -9  165.08   11.60
  -1   4   9  191.28    8.90
  -1   4   9  178.98   12.30
  -1   4   9  210.38   10.50
   0  -4  -9   50.79    4.90
   0  -4  -9   46.50    4.50
   0  -4  -9   47.10    7.60
   0   4   9   46.30    4.30
   0   4   9   50.39    4.10
   0   4   9   54.69    8.00
  -1  -4  -9  235.98   11.60
  -1  -4  -9  236.58   11.90
  -1  -4  -9  225.28   16.10
   1   4   9  233.68   10.50
   1   4   9  234.38   11.20
   1   4   9  267.07   12.60
   1   4   9  219.18   15.90
  -2  -4  -9    6.40    6.10
   2   4   9   18.50    4.00
   2   4   9   13.20    6.10
  -3  -4  -9    7.70    7.00
   3   4   9    3.70    4.40
   3   4   9    1.10    6.50
   3   4   9   14.30    3.50
  -4  -4  -9    8.20    3.30
  -4  -4  -9   -7.40    7.40
   4   4   9    9.80    4.20
   4   4   9    5.30    6.80
   4   4   9   13.60    4.00
   7  -5  -9   55.59    9.40
  -7   5   9   77.69    8.10
  -7   5   9   82.09   12.70
  -7   5   9   77.89    7.40
   6  -5  -9   94.89   12.20
  -6   5   9  111.19   11.30
  -6   5   9   81.09    6.20
  -6   5   9   88.49    7.70
   5  -5  -9   54.29    9.80
   5  -5  -9   67.19    8.60
  -5   5   9   59.59    5.00
  -5   5   9   61.19    5.30
   4  -5  -9   65.69    9.10
   4  -5  -9   74.29    6.40
  -4   5   9   76.09    5.10
  -4   5   9   72.29    5.30
  -4   5   9   81.79    5.10
   3  -5  -9   23.50    4.40
   3  -5  -9   34.90    4.70
   3  -5  -9   45.10    7.60
  -3   5   9   36.60    3.40
  -3   5   9   33.60    4.60
   2  -5  -9  401.76   17.90
   2  -5  -9  406.26   20.10
   2  -5  -9  384.36   19.70
  -2   5   9  379.66   19.30
  -2   5   9  401.46   16.40
  -2   5   9  431.86   18.50
   1  -5  -9    2.00    2.20
   1  -5  -9    7.40    3.50
  -1   5   9    0.50    3.10
  -1   5   9    2.20    3.10
   0  -5  -9  503.35   21.80
   0  -5  -9  499.05   26.10
   0   5   9  520.85   25.90
   0   5   9  513.75   21.40
  -1  -5  -9    3.60    2.20
  -1  -5  -9    4.90    4.80
   1   5   9    3.30    4.90
   1   5   9    8.40    2.50
  -2  -5  -9  178.88   15.80
  -2  -5  -9  198.68   11.20
   2   5   9  218.48   10.90
   2   5   9  182.78   15.90
   2   5   9  191.28   11.00
  -3  -5  -9   38.60   10.20
   3   5   9   16.50    4.40
   3   5   9   21.60    3.90
   7  -6  -9   56.49    9.80
  -7   6   9   65.39    8.20
  -7   6   9   83.09   12.00
  -7   6   9   61.99    8.00
   6  -6  -9   72.79   12.30
  -6   6   9   88.69    7.20
   5  -6  -9  251.97   13.00
   5  -6  -9  218.58   16.30
  -5   6   9  230.08   11.00
  -5   6   9  242.08   11.50
  -4   6   9   40.70    7.70
   3  -6  -9   28.30    5.30
   3  -6  -9   31.00    5.10
  -3   6   9   24.40    4.20
  -3   6   9   41.10    6.30
  -3   6   9   28.50    3.60
   2  -6  -9   49.50    6.50
   2  -6  -9   43.30    5.20
  -2   6   9   53.79    6.40
  -2   6   9   56.39    6.70
   1  -6  -9  453.25   20.10
   1  -6  -9  464.25   23.40
  -1   6   9  438.76   21.50
  -1   6   9  451.95   22.90
   0  -6  -9   28.60    4.30
   0   6   9   37.90    4.30
   0   6   9   30.00    3.60
   0   6   9   31.50    6.50
  -1  -6  -9  435.36   19.90
  -1  -6  -9  422.86   24.80
   1   6   9  446.36   18.10
   1   6   9  423.76   24.10
   1   6   9  424.46   18.40
  -2  -6  -9    4.10    6.70
   2   6   9    1.90    5.10
   2   6   9    4.30    3.70
   2   6   9    8.10    2.60
  -3  -6  -9   47.30   10.80
  -3  -6  -9   51.49    8.50
   3   6   9   66.89    8.60
   3   6   9   69.29   10.70
   6  -7  -9  110.19   14.90
   6  -7  -9  120.49    8.90
  -6   7   9  120.89    8.00
   5  -7  -9   -4.70    5.60
   5  -7  -9    4.50    2.90
  -5   7   9    0.70    2.30
  -5   7   9   -0.90    2.10
   4  -7  -9   81.79    7.40
   4  -7  -9  108.09   11.00
  -4   7   9   83.09    7.90
  -4   7   9   85.89    6.50
   3  -7  -9   57.59    6.50
   3  -7  -9   51.39    6.30
  -3   7   9   45.90    5.60
  -3   7   9   54.89    4.60
   2  -7  -9    2.70    3.70
   2  -7  -9    1.30    3.80
   1  -7  -9    3.90    4.40
  -1   7   9    2.20    4.20
   0  -7  -9   16.00    6.00
   0  -7  -9   27.70    7.00
   0   7   9   28.80    3.80
  -1  -7  -9   76.09    8.30
  -1  -7  -9   86.49   11.50
   1   7   9   89.79   11.20
  -2  -7  -9   -0.60    7.30
   2   7   9    9.80    5.80
   5  -8  -9   47.40    6.30
  -5   8   9   42.40    5.00
  -5   8   9   41.50    7.70
   4  -8  -9  117.19   12.70
   4  -8  -9  136.49    9.60
  -4   8   9  142.19    7.90
  -4   8   9  126.49    8.50
   3  -8  -9   47.70    6.80
   3  -8  -9   57.59    8.80
   3  -8  -9   48.20    6.70
  -3   8   9   51.29    6.60
  -3   8   9   56.59    5.20
   2  -8  -9  196.58   13.80
   2  -8  -9  190.18   11.90
  -2   8   9  206.08   13.50
   1  -8  -9    8.30    5.00
   1  -8  -9    1.10    3.10
  -1   8   9    6.60    4.20
   0  -8  -9    2.40    3.30
   0  -8  -9    4.90    5.50
   0   8   9    5.50    5.20
   0   8   9    8.00    2.60
   3  -9  -9  172.28   11.60
   3  -9  -9  188.38   12.70
  -3   9   9  182.38    9.80
  -3   9   9  179.28   11.40
   2  -9  -9   13.30    4.10
   2  -9  -9    9.40    4.90
  -2   9   9   18.60    5.00
   1  11 -10  119.49   18.40
   1  11 -10  129.49   11.00
  -1 -11  10  119.09   13.10
  -1 -11  10  133.89   11.50
  -1 -11  10  102.89   12.10
   0  11 -10  369.96   18.90
   0  11 -10  313.37   27.30
   0 -11  10  334.77   19.50
   0 -11  10  412.16   20.50
   0 -11  10  377.96   22.20
   0 -11  10  355.76   19.40
  -1  11 -10  330.47   17.10
  -1  11 -10  308.17   26.60
   1 -11  10  302.27   17.50
   1 -11  10  348.27   22.00
   1 -11  10  349.27   17.50
  -2  11 -10  215.98   23.40
  -2  11 -10  187.68    9.30
  -2  11 -10  190.68   11.80
   2 -11  10  200.68   22.70
   2 -11  10  181.48   12.70
   2 -11  10  193.48   11.60
  -3  11 -10    7.20    6.10
  -3  11 -10   -0.30    1.70
  -3  11 -10    1.90    3.20
  -3  11 -10   -3.80   10.30
   3 -11  10   18.10   13.10
   3 -11  10   -0.30    4.60
  -4  11 -10   -1.30    1.90
  -4  11 -10    0.90    3.60
   4 -11  10    6.10    4.60
   4 -11  10  -10.50   21.70
   3  10 -10  -11.60   11.40
  -3 -10  10   -2.70    5.50
   2  10 -10   10.00   11.10
   2  10 -10   -2.80    4.10
  -2 -10  10    5.70    5.60
  -2 -10  10   -4.10    4.80
   1  10 -10   90.79   10.40
   1  10 -10   88.29   18.40
  -1 -10  10   95.79   10.80
  -1 -10  10  120.59   12.20
  -1 -10  10  111.39   11.20
   0  10 -10  315.87   16.80
   0  10 -10  291.07   26.80
   0 -10  10  349.96   17.90
   0 -10  10  300.27   17.20
   0 -10  10  291.77   18.60
   0 -10  10  273.37   16.80
  -1  10 -10   11.70   11.10
  -1  10 -10    1.70    3.50
   1 -10  10   -3.00    4.40
   1 -10  10    3.30    4.10
   1 -10  10    3.60    5.90
  -2  10 -10  127.09   11.40
  -2  10 -10  140.19   20.10
  -2  10 -10  132.09    6.90
   2 -10  10  163.48   18.40
   2 -10  10  146.59    9.30
   2 -10  10  113.89   10.80
  -3  10 -10  139.89   14.30
  -3  10 -10   98.39   17.60
  -3  10 -10  133.69    6.70
  -3  10 -10  127.69    9.10
   3 -10  10  197.88   26.10
   3 -10  10  152.78    7.90
   3 -10  10  128.79   10.50
  -4  10 -10   35.00    8.20
  -4  10 -10   21.20    3.30
   4 -10  10   42.00   19.00
   4 -10  10   13.70    4.80
  -5  10 -10   -1.30    2.50
  -5  10 -10   -2.20    2.70
   5 -10  10   -5.50    4.50
   5 -10  10   30.50   25.60
   4   9 -10   21.20   11.30
   4   9 -10   13.00    5.50
  -4  -9  10   22.70    7.50
   3   9 -10  149.09   25.80
   3   9 -10  153.78   13.20
  -3  -9  10  169.38   13.60
  -3  -9  10  162.18   14.40
   2   9 -10   40.60    7.40
  -2  -9  10   39.40    8.30
  -2  -9  10   56.99    7.90
   1   9 -10   24.20    5.10
   1   9 -10   24.80   10.50
  -1  -9  10   42.10    7.90
  -1  -9  10   21.20    5.50
  -1  -9  10   16.80    7.00
   0   9 -10   41.10   11.60
   0   9 -10   33.10    6.00
   0  -9  10   53.79    9.10
   0  -9  10   43.20    7.20
   0  -9  10   39.10    7.10
  -1   9 -10   33.00   10.60
  -1   9 -10   28.60    5.20
   1  -9  10   32.50    7.20
   1  -9  10   36.00    6.10
  -2   9 -10  428.66   17.00
  -2   9 -10  451.35   21.90
  -2   9 -10  408.36   19.30
   2  -9  10  442.16   26.50
   2  -9  10  438.56   21.20
   2  -9  10  419.66   18.70
  -3   9 -10   17.20    6.00
  -3   9 -10    7.40    3.20
  -3   9 -10   13.60   10.10
   3  -9  10    8.30    2.00
   3  -9  10    4.40    3.80
  -4   9 -10  266.47   11.70
   4  -9  10  246.48   40.30
   4  -9  10  269.77   15.20
  -5   9 -10   10.60    5.20
  -5   9 -10    4.70    2.50
   5  -9  10   62.59   20.10
   4   8 -10  354.66   19.20
   4   8 -10  303.77   22.40
  -4  -8  10  333.57   20.20
  -4  -8  10  349.87   20.30
   3   8 -10   23.10    9.30
   3   8 -10   26.20    5.00
   2   8 -10  234.58   20.60
   2   8 -10  283.57   15.00
  -2  -8  10  272.57   19.50
  -2  -8  10  242.08   18.50
   1   8 -10   43.80   10.70
   1   8 -10   32.30    5.10
  -1  -8  10   45.20    7.00
  -1  -8  10   42.90    6.90
   0   8 -10   82.89    7.20
   0   8 -10   71.39   13.10
   0  -8  10   95.69    9.00
   0  -8  10   98.89    9.30
   0  -8  10   86.49    8.60
  -1   8 -10  597.24   35.40
  -1   8 -10  654.23   28.50
  -1   8 -10  641.04   26.80
  -1   8 -10  594.54   25.40
   1  -8  10  663.33   28.90
   1  -8  10  640.94   29.70
   1  -8  10  623.94   27.70
   1  -8  10  636.64   26.50
  -2   8 -10    0.20    8.30
  -2   8 -10   -1.30    2.30
  -2   8 -10    1.80    2.30
  -2   8 -10    6.20    4.40
  -2   8 -10    0.20    1.10
   2  -8  10   -4.70    5.90
   2  -8  10   -4.30    3.50
   2  -8  10    0.50    1.80
  -3   8 -10  490.35   19.20
  -3   8 -10  529.55   24.90
  -3   8 -10  497.25   21.50
   3  -8  10  488.05   19.40
   3  -8  10  483.85   23.30
   3  -8  10  480.35   33.70
  -4   8 -10  214.28   13.50
  -4   8 -10  174.18   10.50
  -4   8 -10  182.18    9.00
   4  -8  10  176.58   12.30
   4  -8  10  216.08   36.30
  -5   8 -10   21.70    3.40
  -5   8 -10   13.80    3.00
   5  -8  10   29.50    5.60
   5   7 -10    1.10    8.50
   5   7 -10   13.30    5.50
   5   7 -10   18.80    6.10
  -5  -7  10   13.20    6.60
  -5  -7  10   27.20    6.50
   4   7 -10  159.28   12.20
   4   7 -10  132.29   15.50
   4   7 -10  153.58   11.10
  -4  -7  10  147.29   13.20
  -4  -7  10  136.09   12.30
   3   7 -10   36.80    9.10
   3   7 -10   39.20    6.70
  -3  -7  10   58.29    9.50
  -3  -7  10   50.09    5.40
  -3  -7  10   39.40    8.40
   2   7 -10   90.89    7.50
   2   7 -10   86.79   13.90
  -2  -7  10  109.39    9.50
  -2  -7  10   73.09    8.80
   1   7 -10   33.30    5.00
   1   7 -10   31.90    4.90
   1   7 -10   32.30   10.20
  -1  -7  10   47.00    6.90
  -1  -7  10   34.20    6.20
  -1  -7  10   42.70    6.40
   0   7 -10   23.70    4.20
   0   7 -10   22.20    3.20
   0   7 -10   25.30    4.90
   0   7 -10   25.10    8.80
   0  -7  10   31.30    5.50
   0  -7  10   29.30    5.70
   0  -7  10   19.80    4.40
  -1   7 -10  164.68   16.60
  -1   7 -10  193.58    9.30
  -1   7 -10  191.78   10.20
  -1   7 -10  157.68   11.70
   1  -7  10  188.28   11.20
   1  -7  10  202.08   12.40
   1  -7  10  196.48   10.10
   1  -7  10  182.98   13.10
  -2   7 -10    2.60    1.80
  -2   7 -10    1.60    1.70
  -2   7 -10    1.70    1.00
  -2   7 -10    3.40    3.40
   2  -7  10    0.80    3.60
   2  -7  10   -3.10    5.60
  -3   7 -10   13.90    2.50
  -3   7 -10   16.10    4.10
  -3   7 -10   25.20    6.00
  -3   7 -10   18.10    2.50
   3  -7  10   18.40    2.10
   3  -7  10   24.60   11.30
   3  -7  10   13.50    4.00
  -4   7 -10    6.90    2.10
  -4   7 -10   16.10    5.00
   4  -7  10    0.80    3.50
   4  -7  10    3.90   15.30
  -5   7 -10    7.70    3.30
  -5   7 -10    1.80    2.60
  -5   7 -10   -1.60    4.20
   5  -7  10  -21.00   13.50
   5  -7  10    1.70    4.20
  -6   7 -10  191.28   12.80
  -6   7 -10  195.98   11.00
  -6   7 -10  218.68   13.70
   6  -7  10  190.18   13.00
   6   6 -10    7.50    7.00
   6   6 -10    4.00    5.20
  -6  -6  10   -1.10    4.80
  -6  -6  10    9.50    5.40
  -6  -6  10    4.20    6.10
   5   6 -10   -1.60    4.90
   5   6 -10    0.70    4.60
   5   6 -10   11.70    7.00
  -5  -6  10    2.30    5.10
  -5  -6  10   11.30    5.30
   4   6 -10   82.09    8.50
   4   6 -10   92.69    9.60
   4   6 -10   72.19   12.00
  -4  -6  10   79.19    7.90
  -4  -6  10   62.59    7.80
  -4  -6  10   85.89   10.40
   3   6 -10  183.68   11.30
   3   6 -10  179.88   15.50
   3   6 -10  195.88   13.00
  -3  -6  10  186.08   12.80
  -3  -6  10  184.38    9.70
  -3  -6  10  212.18   14.00
   2   6 -10   82.39    6.70
   2   6 -10   66.49   11.80
  -2  -6  10   79.59    8.10
  -2  -6  10   74.59    8.00
   1   6 -10  470.55   27.20
   1   6 -10  517.95   21.80
   1   6 -10  513.25   19.80
   1   6 -10  478.35   22.00
  -1  -6  10  505.85   24.00
  -1  -6  10  484.85   23.00
  -1  -6  10  444.36   22.20
  -1  -6  10  492.45   22.70
   0   6 -10  421.96   18.20
   0   6 -10  347.67   18.90
   0   6 -10  424.56   16.50
   0  -6  10  435.86   20.00
   0  -6  10  412.76   19.30
   0  -6  10  399.36   20.40
   0  -6  10  402.36   19.20
  -1   6 -10   29.60    2.00
  -1   6 -10   25.00    3.10
  -1   6 -10   31.60    5.40
  -1   6 -10   29.30    3.70
   1  -6  10   33.10    5.90
   1  -6  10   29.90    4.60
   1  -6  10   26.20    5.50
   1  -6  10   22.10    4.70
  -2   6 -10    4.70    1.20
  -2   6 -10    7.90    2.20
  -2   6 -10    6.90    1.60
  -2   6 -10    9.80    4.20
   2  -6  10    9.50    5.60
   2  -6  10    4.20    3.20
   2  -6  10    8.30    1.70
  -3   6 -10  102.99    6.50
  -3   6 -10  109.89    7.00
  -3   6 -10  107.99    9.80
   3  -6  10  109.19   16.70
   3  -6  10  117.39    9.50
  -4   6 -10   13.80    4.70
  -4   6 -10    4.90    2.40
  -4   6 -10    9.00    2.20
   4  -6  10   -9.90    8.50
   4  -6  10   20.40    4.80
  -5   6 -10   69.19    7.10
  -5   6 -10   87.99    9.20
  -5   6 -10   76.09    6.00
   5  -6  10   74.99   20.10
   5  -6  10   74.59    8.70
  -6   6 -10    7.20    3.60
  -6   6 -10    4.40    3.40
  -6   6 -10   12.40    5.20
   6  -6  10  -18.90   15.50
   6  -6  10    3.20    4.30
   6   5 -10   23.20    5.40
   6   5 -10   29.10   11.10
  -6  -5  10   28.20    7.60
  -6  -5  10   36.80    6.40
  -6  -5  10   40.60    7.90
   5   5 -10  107.29   11.00
   5   5 -10   97.89   11.00
   5   5 -10  108.29    7.80
   5   5 -10  110.89   10.00
  -5  -5  10  116.89    9.60
  -5  -5  10  109.19   12.00
  -5  -5  10  104.79   10.70
   4   5 -10  194.18   14.00
   4   5 -10  215.28   12.50
   4   5 -10  214.88   11.40
   4   5 -10  212.18   15.20
  -4  -5  10  213.68   12.00
  -4  -5  10  209.48   13.80
  -4  -5  10  228.08   14.60
   3   5 -10   26.10    6.70
   3   5 -10   19.10    4.10
   3   5 -10   13.10    4.90
   3   5 -10   17.40    3.30
  -3  -5  10   18.60    3.20
  -3  -5  10   17.20    3.40
  -3  -5  10   18.60    4.50
  -3  -5  10   20.70    5.70
   2   5 -10  430.06   23.90
   2   5 -10  444.46   19.40
   2   5 -10  421.86   17.20
   2   5 -10  425.66   19.30
   2   5 -10  403.86   20.70
  -2  -5  10  418.56   20.10
  -2  -5  10  400.36   19.90
  -2  -5  10  436.26   21.10
   1   5 -10  434.96   18.70
   1   5 -10  420.36   19.50
   1   5 -10  425.16   16.60
   1   5 -10  418.06   24.00
  -1  -5  10  420.46   19.30
  -1  -5  10  413.36   19.60
  -1  -5  10  406.76   21.00
  -1  -5  10  419.36   20.00
   0   5 -10   45.70    3.00
   0   5 -10   43.70    4.30
   0   5 -10   38.40    5.50
   0  -5  10   53.69    6.30
   0  -5  10   46.20    5.80
   0  -5  10   49.20    5.10
   0  -5  10   35.00    6.10
  -1   5 -10   12.00    1.80
  -1   5 -10   12.40    1.20
  -1   5 -10   11.70    2.50
  -1   5 -10   11.10    3.40
   1  -5  10   10.30    4.40
   1  -5  10   10.70    3.60
   1  -5  10   10.40    3.60
   1  -5  10   19.80    3.60
  -2   5 -10   52.99    2.90
  -2   5 -10   45.90    6.70
  -2   5 -10   47.30    5.20
  -2   5 -10   50.59    6.40
  -2   5 -10   52.29    4.30
   2  -5  10   51.99    6.50
   2  -5  10   56.59   11.20
   2  -5  10   48.50    6.80
  -3   5 -10   94.79    6.20
  -3   5 -10   88.69    8.60
  -3   5 -10   84.19    4.80
  -3   5 -10   89.19    7.80
   3  -5  10   78.89    8.20
   3  -5  10  143.79   20.00
  -4   5 -10   48.10    5.20
  -4   5 -10   35.90    7.10
  -4   5 -10   35.90    3.80
   4  -5  10   17.80    9.70
   4  -5  10   32.60    6.30
  -5   5 -10  199.08   11.70
  -5   5 -10  165.98    9.50
  -5   5 -10  204.18   13.20
   5  -5  10  190.58   12.70
  -6   5 -10   48.90    6.40
  -6   5 -10   75.49    9.10
  -6   5 -10   64.89    7.90
   6  -5  10   52.29    8.10
   6  -5  10   53.19   20.40
   6   4 -10  147.29   11.40
   6   4 -10  131.59    8.70
  -6  -4  10  166.68   14.30
  -6  -4  10  149.99   11.90
  -6  -4  10  150.68   12.40
   5   4 -10   89.99    9.30
   5   4 -10   88.29    6.90
   5   4 -10   95.59    8.40
   5   4 -10   71.59    9.90
  -5  -4  10   84.69    8.40
   4   4 -10   47.80    5.00
   4   4 -10   44.20    7.20
   4   4 -10   45.70    5.60
   4   4 -10   29.50    6.00
  -4  -4  10   38.50    5.90
  -4  -4  10   49.10    8.50
  -4  -4  10   31.60    6.20
  -4  -4  10   34.80    5.30
  -4  -4  10   39.50    6.40
   3   4 -10  795.42   33.80
   3   4 -10  740.33   28.90
   3   4 -10  738.63   30.90
   3   4 -10  740.03   33.20
   3   4 -10  757.52   30.80
  -3  -4  10  809.12   33.30
  -3  -4  10  753.62   28.40
  -3  -4  10  746.03   29.90
  -3  -4  10  709.13   31.60
  -3  -4  10  705.23   29.30
  -3  -4  10  769.02   33.40
   2   4 -10   13.00    3.80
   2   4 -10   17.40    3.20
   2   4 -10   19.90    5.60
   2   4 -10   22.30    4.00
   2   4 -10   20.20    3.30
  -2  -4  10   15.10    3.80
  -2  -4  10   15.30    3.60
  -2  -4  10   15.20    3.30
  -2  -4  10   14.80    3.90
  -2  -4  10   20.10    3.30
   1   4 -10  339.77   12.90
   1   4 -10  330.67   16.30
   1   4 -10  335.77   15.10
  -1  -4  10  349.96   16.60
  -1  -4  10  321.47   15.60
  -1  -4  10  326.77   15.60
  -1  -4  10  308.57   17.30
   0   4 -10   34.70    5.30
   0   4 -10   27.90    4.70
   0   4 -10   35.30    3.80
   0  -4  10   24.90    4.40
   0  -4  10   38.10    5.80
   0  -4  10   23.40    4.60
   0  -4  10   33.70    4.50
  -1   4 -10   62.89    5.50
  -1   4 -10   61.99    4.40
  -1   4 -10   61.49    6.00
  -1   4 -10   58.79    6.60
   1  -4  10   69.99    5.20
   1  -4  10   58.69   10.50
   1  -4  10   62.49    6.00
   1  -4  10   51.89    6.80
  -2   4 -10  705.33   28.40
  -2   4 -10  730.63   28.00
  -2   4 -10  628.24   30.70
  -2   4 -10  724.03   29.30
   2  -4  10  700.03   37.70
   2  -4  10  703.43   28.70
   2  -4  10  691.33   30.80
  -3   4 -10   -1.80    3.30
  -3   4 -10   -0.40    2.70
  -3   4 -10    2.20    1.90
  -3   4 -10    2.80    1.40
   3  -4  10    4.50    6.90
   3  -4  10   -1.70    3.00
   3  -4  10    0.80    3.50
  -4   4 -10  988.10   38.90
  -4   4 -10  955.30   41.60
  -4   4 -10  940.01   36.60
   4  -4  10  933.51   40.20
   4  -4  10 1038.70   49.20
  -5   4 -10    2.80    2.40
  -5   4 -10    5.90    3.50
  -5   4 -10   10.10    4.70
   5  -4  10   31.00   13.90
   5  -4  10    7.80    4.20
  -6   4 -10   15.50    3.50
  -6   4 -10    7.80    4.50
  -6   4 -10   18.90    6.00
   6  -4  10   23.60    5.30
   7   3 -10    8.20    5.80
   7   3 -10   18.90    7.30
  -7  -3  10    9.10    5.20
  -7  -3  10   17.60    6.70
  -7  -3  10   24.20    7.80
   6   3 -10   67.79    6.50
   6   3 -10   80.69    8.40
  -6  -3  10   66.19   11.30
  -6  -3  10   68.39    9.30
  -6  -3  10   85.89    9.20
   5   3 -10    3.20    4.70
   5   3 -10    4.00    3.30
  -5  -3  10   -0.70    3.30
  -5  -3  10    1.10    3.10
   4   3 -10  967.60   41.10
   4   3 -10  948.91   38.00
  -4  -3  10  982.40   41.10
  -4  -3  10  921.31   39.10
  -4  -3  10  941.81   39.30
  -4  -3  10  958.00   36.60
  -4  -3  10  980.00   37.90
   3   3 -10  128.59    6.50
   3   3 -10  135.99    8.50
   3   3 -10  133.09   10.80
   3   3 -10  144.49    8.60
  -3  -3  10  130.79    9.00
  -3  -3  10  130.39    7.00
  -3  -3  10  130.59    7.60
  -3  -3  10  143.99    7.40
  -3  -3  10  126.89   10.00
  -3  -3  10  133.59    9.30
   2   3 -10  366.56   19.70
   2   3 -10  404.96   15.10
   2   3 -10  395.96   17.20
   2   3 -10  378.06   18.10
  -2  -3  10  362.76   17.20
  -2  -3  10  404.06   16.10
  -2  -3  10  395.96   17.60
  -2  -3  10  392.56   18.90
  -2  -3  10  405.16   18.10
   1   3 -10  639.04   22.50
   1   3 -10  596.14   25.90
   1   3 -10  637.74   24.70
   1   3 -10  643.64   27.10
  -1  -3  10  591.34   27.70
  -1  -3  10  625.94   25.70
  -1  -3  10  650.13   25.30
  -1  -3  10  622.74   26.20
  -1  -3  10  533.55   29.10
   0   3 -10   58.49    5.70
   0   3 -10   60.59    3.40
   0   3 -10   56.09    6.30
   0   3 -10   60.69    4.30
   0  -3  10   61.59    5.30
   0  -3  10   58.39    3.90
   0  -3  10   68.39    5.30
   0  -3  10   68.39    7.60
   0  -3  10   54.39    6.90
  -1   3 -10   72.99    5.80
  -1   3 -10   74.69    5.70
  -1   3 -10   72.09    4.90
  -1   3 -10   79.19    7.10
   1  -3  10   54.59    6.80
   1  -3  10   65.99    5.60
   1  -3  10   72.99    5.30
   1  -3  10   72.99   11.10
  -2   3 -10    2.70    2.10
  -2   3 -10   -2.30    2.70
  -2   3 -10    0.90    3.10
  -2   3 -10    1.70    2.10
   2  -3  10    4.80    2.50
   2  -3  10   -1.00    6.40
   2  -3  10    2.70    3.20
  -3   3 -10   55.59    3.80
  -3   3 -10   69.99    8.20
  -3   3 -10   68.59    5.20
  -3   3 -10   44.20    6.90
  -3   3 -10   59.79    4.80
   3  -3  10   54.29    5.90
   3  -3  10   87.39   14.10
   3  -3  10   54.49    7.00
  -4   3 -10  199.58   10.90
  -4   3 -10  242.68   10.90
  -4   3 -10  255.07   15.70
  -4   3 -10  257.97   12.90
   4  -3  10  257.17   14.50
   4  -3  10  237.48    9.70
   4  -3  10  242.48   23.20
   7   2 -10   24.60    7.30
  -7  -2  10   26.60    6.30
  -7  -2  10   22.90    5.70
   6   2 -10  167.58    9.80
   6   2 -10  180.18   11.70
  -6  -2  10  176.18   12.80
  -6  -2  10  193.18   14.10
  -6  -2  10  169.38   11.70
   5   2 -10   20.20    4.20
   5   2 -10   27.80    6.10
  -5  -2  10   24.40    4.80
  -5  -2  10   30.70    6.90
  -5  -2  10   26.70    4.40
   4   2 -10  132.49    8.70
   4   2 -10  151.88    9.10
   4   2 -10  131.19   11.50
  -4  -2  10  142.79    8.60
  -4  -2  10  156.18   10.40
  -4  -2  10  136.89    9.30
  -4  -2  10  139.49    8.40
  -4  -2  10  147.99    6.90
  -4  -2  10  133.69   10.50
   3   2 -10    2.00    3.30
   3   2 -10    2.10    1.10
   3   2 -10    0.10    2.30
   3   2 -10    1.90    2.00
  -3  -2  10    2.50    1.90
  -3  -2  10    1.90    2.80
  -3  -2  10    2.50    1.70
  -3  -2  10    2.70    2.10
  -3  -2  10    1.90    2.30
   2   2 -10  208.68   11.40
   2   2 -10  203.38    9.70
   2   2 -10  201.68    8.10
   2   2 -10  200.08   13.00
  -2  -2  10  209.98    9.10
  -2  -2  10  189.38   10.00
  -2  -2  10  202.38   10.10
  -2  -2  10  212.68   10.30
  -2  -2  10  203.18   11.60
  -2  -2  10  195.28    9.90
  -2  -2  10  177.98   12.70
   1   2 -10  891.61   34.90
   1   2 -10  906.91   33.70
   1   2 -10  907.01   37.00
  -1  -2  10  829.32   39.70
  -1  -2  10  885.21   34.90
  -1  -2  10  891.01   33.80
  -1  -2  10  915.01   34.30
  -1  -2  10  892.61   34.50
  -1  -2  10  886.41   37.40
  -1  -2  10  869.91   35.50
   0   2 -10  372.06   15.70
   0   2 -10  369.36   18.50
   0   2 -10  362.86   15.60
   0   2 -10  384.16   15.00
   0  -2  10  358.46   16.00
   0  -2  10  358.26   19.70
   0  -2  10  364.36   15.60
   0  -2  10  351.36   18.20
   0  -2  10  352.96   14.60
  -1   2 -10  423.66   17.10
  -1   2 -10  441.66   21.20
  -1   2 -10  429.26   17.50
   1  -2  10  405.96   20.30
   1  -2  10  414.06   24.00
   1  -2  10  416.66   17.00
   1  -2  10  434.06   17.90
  -2   2 -10    3.10    2.80
  -2   2 -10    1.30    1.70
  -2   2 -10   -1.30    3.10
   2  -2  10    2.10    5.60
   2  -2  10    1.60    3.30
   2  -2  10   -0.90    2.00
  -3   2 -10   32.30    4.40
  -3   2 -10   26.90    3.10
  -3   2 -10   33.90    7.00
  -3   2 -10   25.90    6.30
   3  -2  10   30.90    4.70
   3  -2  10   20.70    4.60
   3  -2  10   29.40    2.20
   3  -2  10   35.80    8.10
  -4   2 -10   18.20    5.20
  -4   2 -10   12.20    2.20
  -4   2 -10    2.50    5.40
   4  -2  10   32.30   11.40
   4  -2  10    9.60    3.60
   4  -2  10   15.60    2.10
  -5   2 -10  493.85   23.30
  -5   2 -10  507.45   24.80
  -5   2 -10  474.65   20.70
  -5   2 -10  503.15   28.00
   5  -2  10  481.15   23.40
  -6   2 -10    8.40    9.70
  -6   2 -10   13.50    5.10
  -6   2 -10   10.40    3.70
   6  -2  10   18.70    5.10
   7   1 -10  191.88   15.90
  -7  -1  10  219.78   14.30
  -7  -1  10  212.88   16.30
  -7  -1  10  236.38   14.20
   6   1 -10  148.49    9.40
   6   1 -10  176.68   11.80
  -6  -1  10  171.78   14.20
  -6  -1  10  167.98   11.20
  -6  -1  10  177.38   11.30
   5   1 -10  660.93   27.90
   5   1 -10  652.33   31.00
   5   1 -10  702.43   28.40
  -5  -1  10  667.63   30.80
  -5  -1  10  697.33   28.20
  -5  -1  10  664.73   28.50
  -5  -1  10  649.74   30.20
   4   1 -10  116.99    7.40
   4   1 -10  112.09    9.90
   4   1 -10  111.59    7.70
  -4  -1  10  110.59    7.20
  -4  -1  10  106.19    9.30
  -4  -1  10  129.49    7.90
  -4  -1  10  111.19    8.50
   3   1 -10    6.90    3.90
   3   1 -10    7.20    2.70
   3   1 -10    6.70    2.10
   3   1 -10    8.70    1.40
  -3  -1  10   11.20    2.30
  -3  -1  10   10.30    2.30
  -3  -1  10    9.00    2.90
  -3  -1  10    9.40    2.90
  -3  -1  10   16.00    4.00
  -3  -1  10   11.30    3.20
   2   1 -10 1164.58   46.30
   2   1 -10 1189.48   45.30
   2   1 -10 1220.68   48.20
   2   1 -10 1197.18   49.70
  -2  -1  10 1243.78   47.30
  -2  -1  10 1258.37   44.80
  -2  -1  10 1285.07   45.60
  -2  -1  10 1220.68   47.70
  -2  -1  10 1229.58   46.00
  -2  -1  10 1213.08   45.40
  -2  -1  10 1123.89   49.80
   1   1 -10   91.89    6.30
   1   1 -10   82.39    7.20
   1   1 -10   96.69    5.60
   1   1 -10   84.69    5.70
  -1  -1  10   94.69   11.30
  -1  -1  10   80.59    5.40
  -1  -1  10   93.99    4.10
  -1  -1  10   87.69    5.30
  -1  -1  10  103.59    7.50
  -1  -1  10   99.19    6.60
  -1  -1  10   85.89    8.20
  -1  -1  10   90.49    7.20
   0   1 -10 2182.68   77.69
   0   1 -10 2207.78   82.39
   0   1 -10 2222.18   78.59
   0  -1  10 2130.99   77.49
   0  -1  10 2137.79   81.39
   0  -1  10 1970.00   82.19
   0  -1  10 2066.29   78.19
   0  -1  10 2121.49   77.79
  -1   1 -10    8.70    2.00
  -1   1 -10    6.50    3.40
  -1   1 -10    4.00    2.50
   1  -1  10    2.80    3.00
   1  -1  10    3.10    1.90
   1  -1  10    5.00    1.30
   1  -1  10    6.40    1.60
  -2   1 -10  438.56   22.20
  -2   1 -10  438.76   22.90
  -2   1 -10  452.65   19.20
   2  -1  10  482.05   23.50
   2  -1  10  436.56   18.60
   2  -1  10  462.25   16.80
   2  -1  10  446.36   21.40
  -3   1 -10  122.89    8.00
  -3   1 -10  129.69   11.30
  -3   1 -10  124.79   10.90
   3  -1  10  125.29    5.80
   3  -1  10  109.69    9.60
   3  -1  10  106.49   16.90
  -4   1 -10   86.59   11.70
  -4   1 -10  129.69    8.80
  -4   1 -10  113.19    6.80
  -4   1 -10  112.89   11.40
   4  -1  10  105.19    9.90
  -5   1 -10   32.60    7.10
  -5   1 -10   17.10    3.60
   5  -1  10   15.90    4.50
  -6   1 -10  117.79    8.70
   6  -1  10  109.89   10.50
   6  -1  10  122.79   13.30
   7   0 -10    4.00    6.00
  -7   0  10   -3.60    4.20
  -7   0  10    6.70    4.60
   6   0 -10  262.47   12.80
  -6   0  10  251.77   13.90
  -6   0  10  201.98   24.80
  -6   0  10  261.07   14.10
   5   0 -10   -1.10    2.70
   5   0 -10   -1.40    2.60
   5   0 -10    0.30    4.10
  -5   0  10    2.20    4.00
  -5   0  10    2.20    2.80
  -5   0  10    0.40    2.50
  -5   0  10    0.50    5.10
   4   0 -10  143.49    8.80
   4   0 -10  141.19   11.30
  -4   0  10  137.59    9.50
  -4   0  10  136.69    6.20
  -4   0  10  136.99    8.00
  -4   0  10  148.99    8.10
  -4   0  10  140.69    5.60
  -4   0  10  138.19   10.30
   3   0 -10   92.09    5.40
   3   0 -10   95.09    5.30
   3   0 -10   83.99    6.90
   3   0 -10  102.29    9.60
   3   0 -10   86.29    4.90
  -3   0  10   93.49    5.40
  -3   0  10   81.29    7.80
  -3   0  10   96.29    5.50
  -3   0  10   82.39    8.70
  -3   0  10  104.49    7.60
   2   0 -10   36.90    6.70
   2   0 -10   23.90    4.50
  -2   0  10   27.90    5.20
  -2   0  10   41.00    4.40
  -2   0  10   31.80    6.40
  -2   0  10   38.80    6.00
  -2   0  10   31.80    2.90
   1   0 -10  388.76   14.30
   1   0 -10  385.36   15.00
   1   0 -10  363.56   16.50
   1   0 -10  363.66   18.40
  -1   0  10  348.37   15.70
  -1   0  10  380.56   14.10
  -1   0  10  365.26   18.30
  -1   0  10  369.96   18.40
   0   0 -10    3.90    1.50
   0   0 -10   -1.30    2.20
   0   0 -10    1.70    2.50
   0   0 -10    6.30    2.40
   0   0  10    1.90    1.50
   0   0  10    1.10    1.00
   0   0  10    3.10    0.60
   0   0  10    1.00    1.50
   0   0  10    3.30    3.50
   0   0  10   -1.30    2.30
   0   0  10    1.40    1.30
  -1   0 -10  640.24   24.30
  -1   0 -10  594.54   27.80
  -1   0 -10  605.54   28.50
   1   0  10  599.94   26.00
   1   0  10  629.44   24.00
   1   0  10  627.64   27.40
   1   0  10  610.94   23.00
   1   0  10  622.84   24.10
  -2   0 -10  218.78    8.80
  -2   0 -10  210.08   10.80
  -2   0 -10  233.08   14.10
  -2   0 -10  215.98   14.20
   2   0  10  223.08    9.30
   2   0  10  212.58   10.30
   2   0  10  216.58   13.20
  -3   0 -10    0.70    4.60
  -3   0 -10    1.80    3.20
  -3   0 -10    5.80    4.60
   3   0  10    6.60    2.80
   3   0  10    5.70    2.00
   3   0  10    4.00    3.30
  -4   0 -10    3.40    6.30
  -4   0 -10    9.90    5.40
   4   0  10   -1.00    4.30
   4   0  10    6.00    4.30
  -5   0 -10  181.28   15.40
  -5   0 -10  140.99   10.80
   5   0  10  143.79   11.70
   5   0  10  120.69   12.60
   7  -1 -10    4.60    6.40
  -7   1  10    3.80    4.20
  -7   1  10    9.10    6.90
  -7   1  10   -0.40    4.00
   6  -1 -10  142.19    8.50
   6  -1 -10  118.49   18.10
  -6   1  10  150.48    9.60
  -6   1  10  163.68   18.30
  -6   1  10  123.69    9.70
   5  -1 -10   48.20    8.40
   5  -1 -10   56.19    5.60
  -5   1  10   53.09    6.00
  -5   1  10   65.99    6.00
  -5   1  10   44.10    8.40
  -5   1  10   48.30    8.30
   4  -1 -10  566.34   24.50
   4  -1 -10  589.74   27.50
   4  -1 -10  596.84   22.50
  -4   1  10  585.24   25.00
  -4   1  10  487.95   21.60
  -4   1  10  556.54   25.50
  -4   1  10  563.64   21.20
  -4   1  10  570.04   23.00
  -4   1  10  578.64   22.40
   3  -1 -10  113.09    8.10
   3  -1 -10  106.69   10.20
  -3   1  10  102.89    7.50
  -3   1  10  115.49    8.10
  -3   1  10  110.79    6.10
   2  -1 -10  356.56   18.80
   2  -1 -10  372.96   18.10
   2  -1 -10  366.06   16.00
  -2   1  10  383.56   18.70
  -2   1  10  360.96   18.90
  -2   1  10  310.07   15.30
  -2   1  10  391.66   16.70
   1  -1 -10   11.70    2.10
   1  -1 -10   11.20    3.00
   1  -1 -10   10.90    3.30
  -1   1  10   10.00    4.20
  -1   1  10   10.10    2.80
  -1   1  10   16.60    4.30
  -1   1  10    7.40    2.20
  -1   1  10   10.70    1.50
   0  -1 -10  124.79    6.40
   0  -1 -10  126.79    6.60
   0  -1 -10  123.79    9.00
   0  -1 -10  131.99    5.90
   0  -1 -10  119.79    9.50
   0   1  10  117.89    6.20
   0   1  10  114.19    7.00
   0   1  10  115.09    6.20
   0   1  10  128.89    9.40
  -1  -1 -10  410.36   21.20
  -1  -1 -10  400.66   17.60
  -1  -1 -10  407.16   21.30
   1   1  10  431.56   19.90
   1   1  10  401.66   17.80
   1   1  10  402.26   16.50
   1   1  10  428.06   16.40
  -2  -1 -10   11.40    4.70
  -2  -1 -10   19.40    2.60
  -2  -1 -10   22.80    3.70
   2   1  10   18.00    3.90
   2   1  10    9.60    4.00
   2   1  10   19.70    2.80
  -3  -1 -10  152.68   13.80
  -3  -1 -10  169.08   13.50
  -3  -1 -10  191.08   10.70
  -3  -1 -10  172.78    7.90
   3   1  10  184.08   12.30
   3   1  10  174.78    9.40
   3   1  10  172.58   11.40
  -4  -1 -10   44.20   10.70
  -4  -1 -10   60.49    7.20
   4   1  10   50.29    8.60
   4   1  10   52.89    8.70
  -5  -1 -10   16.20    5.40
  -5  -1 -10   14.10    8.30
   5   1  10   13.70    7.60
   5   1  10   12.10    5.70
   5   1  10   17.80    5.20
   7  -2 -10   13.00    6.90
  -7   2  10   33.10    8.30
  -7   2  10    0.40    4.20
  -7   2  10   12.70    4.60
   6  -2 -10    6.80    2.90
   6  -2 -10    8.00    5.80
  -6   2  10    7.70    3.30
  -6   2  10    1.10    3.10
   5  -2 -10  131.99    8.40
   5  -2 -10  122.89   11.70
  -5   2  10  121.69    8.30
  -5   2  10  134.89   11.00
  -5   2  10  129.39    7.30
  -5   2  10  118.99   13.20
   4  -2 -10   41.70    7.60
   4  -2 -10   47.10    5.60
  -4   2  10   47.80    6.50
  -4   2  10   49.20    3.40
  -4   2  10   49.70    6.60
  -4   2  10   50.49    4.70
   3  -2 -10  160.38   12.10
   3  -2 -10  162.78   10.30
  -3   2  10  164.28   10.00
  -3   2  10  179.18    8.20
   2  -2 -10    0.90    1.70
   2  -2 -10    4.80    3.10
   2  -2 -10    1.20    2.90
   2  -2 -10    0.80    1.60
  -2   2  10    0.70    0.90
  -2   2  10    2.10    2.10
  -2   2  10    3.40    3.10
  -2   2  10   -0.80    3.50
   1  -2 -10   38.50    5.80
   1  -2 -10   37.30    5.10
   1  -2 -10   34.20    3.60
  -1   2  10   40.70    7.00
  -1   2  10   41.00    2.70
  -1   2  10   33.60    4.40
   0  -2 -10  144.19    7.40
   0  -2 -10  142.69   10.70
   0  -2 -10  143.49   10.60
   0   2  10  126.09    8.40
   0   2  10  138.49    6.70
   0   2  10  143.89    7.70
   0   2  10  147.79   10.20
  -1  -2 -10   -0.70    1.20
  -1  -2 -10   -3.10    3.50
   1   2  10    0.10    1.40
   1   2  10    1.30    1.80
   1   2  10   -1.00    2.30
   1   2  10   -3.00    3.10
  -2  -2 -10  501.15   19.80
  -2  -2 -10  497.05   25.30
  -2  -2 -10  508.55   21.10
  -2  -2 -10  538.35   27.00
   2   2  10  537.75   23.50
   2   2  10  500.75   21.60
   2   2  10  466.25   19.90
   2   2  10  461.55   20.40
   2   2  10  459.25   26.20
  -3  -2 -10    6.50    2.10
  -3  -2 -10   11.80    6.20
  -3  -2 -10   11.60    3.60
   3   2  10   13.40    9.20
   3   2  10    8.30    4.00
   3   2  10   12.10    3.90
  -4  -2 -10   -5.30    3.20
  -4  -2 -10   -0.30    6.80
  -4  -2 -10   -4.90    4.10
   4   2  10    2.90    4.70
   4   2  10   -1.00    4.30
  -5  -2 -10   65.79   12.00
   5   2  10   48.50    7.10
   5   2  10   77.39    9.60
   7  -3 -10   90.29   12.60
  -7   3  10   70.99    8.50
   6  -3 -10   24.20    7.20
  -6   3  10   34.60    7.50
  -6   3  10   27.50    4.10
  -6   3  10   37.50    5.30
   5  -3 -10   15.60    3.50
   5  -3 -10    7.50    5.30
  -5   3  10   16.60    3.30
   4  -3 -10   -2.10    3.80
   4  -3 -10   -1.20    2.80
  -4   3  10    3.10    3.20
  -4   3  10    2.10    1.50
  -4   3  10    0.80    1.70
   3  -3 -10  303.07   15.90
   3  -3 -10  296.47   14.50
   3  -3 -10  293.07   17.10
  -3   3  10  306.97   12.70
  -3   3  10  322.77   15.10
  -3   3  10  310.77   14.70
   2  -3 -10   18.00    3.40
   2  -3 -10   23.10    4.20
   2  -3 -10   13.60    3.90
   2  -3 -10   22.10    4.40
  -2   3  10   13.90    2.20
  -2   3  10   22.10    4.00
  -2   3  10   19.30    3.90
   1  -3 -10   14.60    4.80
   1  -3 -10   13.10    2.50
  -1   3  10   27.10    5.80
  -1   3  10   17.50    3.20
   0  -3 -10   37.50    6.30
   0  -3 -10   27.00    5.80
   0  -3 -10   26.00    3.50
   0   3  10   15.80    5.50
   0   3  10   22.00    3.90
   0   3  10   28.30    3.20
   0   3  10   30.60    3.10
  -1  -3 -10   46.60    7.70
  -1  -3 -10   43.80    4.10
  -1  -3 -10   48.50    8.10
   1   3  10   72.59   11.30
   1   3  10   51.39    4.80
   1   3  10   48.70    3.70
  -2  -3 -10   17.70    5.90
   2   3  10   11.90    3.60
   2   3  10   10.40    3.40
  -3  -3 -10    6.10    2.30
  -3  -3 -10   11.00    6.30
   3   3  10   -0.70    5.70
  -4  -3 -10  -10.70    7.70
   4   3  10   -3.30    7.20
   4   3  10    2.00    4.60
   4   3  10    9.10    4.40
   7  -4 -10   35.20    9.00
  -7   4  10   33.90    5.10
  -7   4  10   38.60    9.20
   6  -4 -10  126.89   14.10
  -6   4  10  146.39   10.20
   5  -4 -10   46.50    7.50
  -5   4  10   46.60    5.10
  -5   4  10   40.80    3.50
   4  -4 -10   14.00    3.20
   4  -4 -10   13.40    4.80
  -4   4  10   19.00    4.20
  -4   4  10   16.50    2.80
  -4   4  10   14.30    3.00
   3  -4 -10   10.00    4.30
   3  -4 -10    5.00    2.40
   3  -4 -10    6.30    2.40
  -3   4  10   -0.80    3.20
  -3   4  10    4.00    2.50
  -3   4  10    6.40    1.70
   2  -4 -10    4.30    2.70
   2  -4 -10    4.70    3.50
   2  -4 -10    3.80    2.30
  -2   4  10    4.20    1.50
  -2   4  10    4.40    3.00
   1  -4 -10    2.50    1.90
   1  -4 -10    4.90    3.10
  -1   4  10    5.30    3.90
  -1   4  10    6.30    3.10
   0  -4 -10   58.99    5.30
   0  -4 -10   64.89    7.80
   0   4  10   61.09    4.50
   0   4  10   69.39    9.10
   0   4  10   59.29    4.70
  -1  -4 -10    8.30    5.00
  -1  -4 -10   -2.70    1.80
   1   4  10   -0.30    5.00
   1   4  10    0.80    1.60
   1   4  10    0.10    2.00
  -2  -4 -10  113.39   12.20
  -2  -4 -10  122.49    7.20
   2   4  10  106.89    8.00
   2   4  10  126.49    8.70
   2   4  10   88.69   12.80
  -3  -4 -10   60.99   12.50
   3   4  10   55.79   10.70
   3   4  10   56.79    7.80
   3   4  10   71.79    8.00
   4   4  10   -7.00    6.70
   4   4  10    4.80    4.00
   7  -5 -10   54.39    9.80
  -7   5  10   66.29    7.60
   6  -5 -10   30.00    7.20
  -6   5  10   40.30    6.30
   5  -5 -10   12.30    6.30
  -5   5  10   11.50    2.70
  -5   5  10   13.50    5.20
   4  -5 -10   34.20    6.10
   4  -5 -10   28.80    5.00
  -4   5  10   34.00    3.90
  -4   5  10   37.50    4.00
   3  -5 -10  438.26   22.40
   3  -5 -10  426.06   20.20
   3  -5 -10  420.16   19.30
  -3   5  10  415.36   19.70
  -3   5  10  426.36   17.50
  -3   5  10  482.95   20.30
   2  -5 -10   55.59    7.00
   2  -5 -10   59.39    5.60
   2  -5 -10   46.30    7.70
  -2   5  10   58.09    4.20
  -2   5  10   50.89    7.00
   1  -5 -10    5.80    3.50
   1  -5 -10    1.50    2.00
  -1   5  10    2.90    2.60
  -1   5  10    9.30    4.10
   0  -5 -10   20.40    5.60
   0  -5 -10   19.70    3.30
   0   5  10   27.70    3.70
   0   5  10   34.70    7.20
  -1  -5 -10   30.70    5.00
   1   5  10   30.20    4.60
   1   5  10   44.70    5.90
   1   5  10   49.50    9.70
  -2  -5 -10  298.97   13.70
  -2  -5 -10  260.87   19.30
   2   5  10  268.37   14.00
   2   5  10  259.77   18.50
  -3  -5 -10   42.90    9.20
   3   5  10   34.40    5.50
   3   5  10   39.40    7.30
   3   5  10   38.10    9.00
   6  -6 -10   -7.20    6.40
  -6   6  10    0.80    6.30
  -6   6  10    9.90    3.70
   5  -6 -10   -6.50    7.10
   5  -6 -10    4.90    2.70
  -5   6  10   -2.80    2.60
   4  -6 -10  117.59   12.30
   4  -6 -10  114.09    8.60
  -4   6  10  119.59    6.90
  -4   6  10  119.59    7.30
   3  -6 -10  145.89   11.60
   3  -6 -10  122.99    9.90
   3  -6 -10  112.59   12.90
  -3   6  10  130.09    8.90
  -3   6  10  128.29    6.90
   2  -6 -10  149.79    9.50
  -2   6  10  148.49    7.90
  -2   6  10  155.58   10.90
   1  -6 -10   17.10    5.20
   1  -6 -10   19.20    3.90
  -1   6  10   29.60    4.90
  -1   6  10   14.00    5.60
   0  -6 -10   14.90    3.70
   0  -6 -10   19.10    6.50
   0   6  10   26.70    6.60
  -1  -6 -10  113.59    8.30
   1   6  10  113.89   11.50
   1   6  10  122.29    7.70
  -2  -6 -10   59.29    7.50
   2   6  10   52.99   10.90
   2   6  10   53.39    6.10
   6  -7 -10   -9.20    6.90
  -6   7  10   -0.20    3.00
   5  -7 -10   21.70    7.40
   5  -7 -10   17.90    4.10
   4  -7 -10   61.49    7.20
   4  -7 -10   73.09   10.70
  -4   7  10   62.49    5.70
  -4   7  10   60.99    5.40
   3  -7 -10   50.69    6.30
   3  -7 -10   41.10    6.60
  -3   7  10   38.80    6.10
  -3   7  10   41.60    4.70
   2  -7 -10  206.58   13.20
   2  -7 -10  187.38   11.10
  -2   7  10  186.18    9.50
  -2   7  10  161.08   12.10
   1  -7 -10   -3.00    2.90
   1  -7 -10    1.90    4.70
  -1   7  10    5.20    5.20
   0  -7 -10   14.60    3.80
   0  -7 -10   14.70    6.00
   0   7  10   15.70    5.80
  -1  -7 -10   21.50    7.10
  -1  -7 -10   33.50    6.00
   1   7  10   23.20    3.80
   4  -8 -10   24.20    7.10
   4  -8 -10   20.00    4.70
  -4   8  10   19.00    3.70
  -4   8  10   26.10    3.50
   3  -8 -10   34.90    6.40
   3  -8 -10   46.20    6.80
  -3   8  10   40.60    7.50
  -3   8  10   42.20    5.00
   2  -8 -10   24.40    4.50
  -2   8  10   29.90    5.80
   1  -8 -10   94.39    8.60
   1  -8 -10   95.19   11.30
  -1   8  10   91.39   10.30
   1  11 -11    2.00    4.90
   1  11 -11   -5.40   12.50
  -1 -11  11    5.20    6.00
  -1 -11  11    0.20    6.30
  -1 -11  11    6.30    4.80
  -1 -11  11   -6.00    4.70
   0  11 -11   29.70    6.00
   0  11 -11   46.80   13.70
   0 -11  11   37.70    7.10
   0 -11  11   41.30    7.80
   0 -11  11   27.80    6.00
  -1  11 -11   -2.80    4.00
  -1  11 -11  -14.00   11.00
   1 -11  11   20.10    7.30
   1 -11  11   -9.00    5.40
  -2  11 -11  170.88   11.20
  -2  11 -11  179.28    8.30
  -2  11 -11  170.08   20.60
   2 -11  11  150.48   12.80
   2 -11  11  247.38   23.30
  -3  11 -11   81.59   17.50
  -3  11 -11   91.09   16.60
  -3  11 -11   87.59    7.70
  -3  11 -11   80.29    5.00
   3 -11  11   83.99   19.20
   2  10 -11    4.60   12.80
   2  10 -11    9.80    4.30
  -2 -10  11    9.30    5.50
  -2 -10  11    8.30    5.70
   1  10 -11   18.70    5.00
  -1 -10  11   17.10    5.80
  -1 -10  11   33.20    6.90
   0  10 -11    2.40    3.90
   0  10 -11    0.70   11.60
   0 -10  11   11.30    4.50
   0 -10  11    4.00    4.90
   0 -10  11    3.60    5.90
  -1  10 -11   47.60    8.90
  -1  10 -11   85.09   17.90
  -1  10 -11   54.49    7.50
   1 -10  11   66.89    9.20
   1 -10  11   48.60    8.30
   1 -10  11   63.29    8.00
   1 -10  11   46.30    7.70
  -2  10 -11   81.09   17.00
  -2  10 -11   78.29    4.80
   2 -10  11  101.09    7.10
   2 -10  11   68.79    9.60
   2 -10  11   71.19   13.70
  -3  10 -11  251.47   13.50
  -3  10 -11  234.98   10.50
   3 -10  11  262.17   30.20
   3 -10  11  247.38   11.90
   3 -10  11  257.37   15.10
  -4  10 -11  433.36   23.40
  -4  10 -11  372.16   18.60
  -4  10 -11  382.96   16.10
   4 -10  11  383.86   20.30
   3   9 -11   15.30   12.60
   3   9 -11   25.60    6.60
  -3  -9  11   19.90    7.10
   2   9 -11   28.90    5.70
  -2  -9  11   26.00    6.40
   1   9 -11  464.75   21.80
  -1  -9  11  464.75   23.40
  -1  -9  11  425.06   23.20
  -1  -9  11  455.45   23.40
   0   9 -11    5.40   19.40
   0   9 -11   -0.40    3.10
   0  -9  11   -1.80    5.20
   0  -9  11    5.90    4.80
  -1   9 -11  118.29   17.30
  -1   9 -11  133.39   14.90
  -1   9 -11  124.49    8.80
   1  -9  11  136.19    9.40
   1  -9  11  144.19   18.00
   1  -9  11  134.49   11.10
   1  -9  11  129.19    9.80
  -2   9 -11    9.10    9.20
   2  -9  11    8.50    2.40
   2  -9  11   -7.70    7.20
   2  -9  11   10.90    4.60
  -3   9 -11   52.49    6.00
  -3   9 -11   57.69    3.80
   3  -9  11   64.59   15.90
   3  -9  11   71.89    4.20
   3  -9  11   57.19    8.30
  -4   9 -11   57.39    4.60
  -4   9 -11   53.19    6.30
   4  -9  11   29.90   19.30
   4  -9  11   74.79    9.70
  -5   9 -11   58.09    7.50
   5  -9  11   70.49    9.40
   5  -9  11  107.39   24.30
   4   8 -11   17.00   10.30
   4   8 -11    3.60    5.10
  -4  -8  11   15.70    6.70
  -4  -8  11   16.20    6.50
   3   8 -11    4.70    4.70
   3   8 -11   14.60    9.90
  -3  -8  11    9.80    5.10
  -3  -8  11    1.30    4.90
   2   8 -11  626.74   35.60
   2   8 -11  662.63   28.80
  -2  -8  11  686.83   31.00
  -2  -8  11  627.94   29.80
   1   8 -11   -2.70    3.10
   1   8 -11    2.30    9.10
  -1  -8  11    3.00    4.70
  -1  -8  11    3.80    4.20
  -1  -8  11    7.90    3.90
   0   8 -11  546.05   33.80
   0   8 -11  538.85   26.30
   0   8 -11  573.04   24.90
   0  -8  11  571.94   26.10
   0  -8  11  569.54   27.10
   0  -8  11  610.54   27.40
  -1   8 -11    8.30    2.90
  -1   8 -11   14.70    8.60
   1  -8  11    7.20    3.30
   1  -8  11    7.10    5.80
   1  -8  11   10.30    4.60
   1  -8  11   12.40    3.40
  -2   8 -11  157.18   13.20
  -2   8 -11  168.48    7.20
  -2   8 -11  166.38    9.50
   2  -8  11  170.98    8.60
   2  -8  11  176.48   18.40
   2  -8  11  168.78   12.00
  -3   8 -11  115.39   11.60
  -3   8 -11  103.09    7.30
  -3   8 -11  103.19    5.60
   3  -8  11  110.89   10.20
   3  -8  11  104.09    5.40
  -4   8 -11   97.39   11.40
  -4   8 -11   94.29    7.70
  -4   8 -11   97.49    6.10
   4  -8  11  113.89   21.90
  -5   8 -11  215.68   12.60
  -5   8 -11  239.08   15.10
   5  -8  11  209.08   14.20
   5  -8  11  200.78   35.90
   5   7 -11   26.50    6.60
   5   7 -11   29.40    6.00
   5   7 -11   17.40    9.10
  -5  -7  11   27.60    6.50
   4   7 -11   15.90    5.50
   4   7 -11    0.90    8.10
   4   7 -11   11.50    4.30
  -4  -7  11   13.50    5.60
  -4  -7  11   20.80    6.20
   3   7 -11   41.40   10.20
   3   7 -11   24.50    4.50
  -3  -7  11   27.70    5.50
  -3  -7  11   48.30    8.50
   2   7 -11   13.60    7.90
   2   7 -11   20.90    4.20
  -2  -7  11   24.30    5.80
  -2  -7  11   23.70    6.00
   1   7 -11  250.17   12.90
   1   7 -11  232.28   11.10
   1   7 -11  231.98   13.20
  -1  -7  11  225.58   14.00
  -1  -7  11  232.88   14.00
  -1  -7  11  231.18   15.00
   0   7 -11  216.28   11.50
   0   7 -11  195.28   18.90
   0   7 -11  218.48   10.10
   0   7 -11  210.38   13.00
   0  -7  11  225.28   13.90
   0  -7  11  210.98   12.80
   0  -7  11  211.18   13.90
  -1   7 -11   53.99    7.80
  -1   7 -11   62.79    4.60
  -1   7 -11   57.79    5.10
  -1   7 -11   59.39    3.30
   1  -7  11   60.99    9.60
   1  -7  11   47.30    7.60
   1  -7  11   67.19    6.50
  -2   7 -11    0.50    1.70
  -2   7 -11    1.80    2.20
  -2   7 -11    1.30    1.10
  -2   7 -11   -0.20    3.90
   2  -7  11    3.00    4.00
   2  -7  11    0.90    1.90
   2  -7  11    0.40    6.80
  -3   7 -11   10.80    5.10
  -3   7 -11   13.40    2.80
  -3   7 -11   15.70    2.20
   3  -7  11   11.70    4.40
  -4   7 -11   33.20    5.20
  -4   7 -11   47.00    8.00
  -4   7 -11   36.60    4.10
   4  -7  11   25.60    5.50
   4  -7  11   -7.40   14.80
  -5   7 -11   10.10    2.80
  -5   7 -11   11.70    5.60
  -5   7 -11    2.70    3.60
   5  -7  11    9.50    4.90
  -6   7 -11   80.89   10.40
  -6   7 -11   85.29    9.10
   6  -7  11   54.79    9.00
   6  -7  11   99.19   21.90
   5   6 -11  159.18   13.90
   5   6 -11  140.69   11.30
   5   6 -11  140.49   13.40
  -5  -6  11  137.89   15.50
  -5  -6  11  128.49   12.80
  -5  -6  11  139.99   13.00
   4   6 -11   39.90    8.60
   4   6 -11   25.30    4.80
   4   6 -11   28.00    6.00
   4   6 -11   26.20    5.00
  -4  -6  11   24.80    6.00
  -4  -6  11   37.30    5.10
   3   6 -11   49.20    8.00
   3   6 -11   23.30    4.80
   3   6 -11   32.00    5.60
   3   6 -11   36.50    8.70
  -3  -6  11   29.80    5.60
  -3  -6  11   33.30    3.10
  -3  -6  11   47.50    8.10
   2   6 -11   10.40    2.50
   2   6 -11    9.90    7.00
   2   6 -11   13.30    3.60
   2   6 -11    5.60    2.90
  -2  -6  11   10.90    4.20
  -2  -6  11   16.60    4.60
   1   6 -11  187.78   10.80
   1   6 -11  173.28    8.10
   1   6 -11  171.58    9.70
   1   6 -11  151.08   15.60
  -1  -6  11  162.18   11.00
  -1  -6  11  161.08   11.10
  -1  -6  11  140.19   10.80
  -1  -6  11  152.38   12.00
   0   6 -11   -0.70    3.00
   0   6 -11    2.40    1.50
   0   6 -11   -1.90    1.90
   0  -6  11    2.30    2.80
   0  -6  11   -2.90    3.50
   0  -6  11    1.70    3.10
   0  -6  11    1.90    4.10
  -1   6 -11  947.31   33.10
  -1   6 -11  946.31   35.90
  -1   6 -11  811.02   38.40
  -1   6 -11  967.80   33.70
   1  -6  11  869.81   37.30
   1  -6  11  936.31   37.00
   1  -6  11  909.81   39.20
   1  -6  11  898.41   40.20
  -2   6 -11  131.59    7.80
  -2   6 -11  143.19    6.00
  -2   6 -11  131.89    7.60
  -2   6 -11  129.69   11.00
   2  -6  11  136.39    6.10
   2  -6  11  150.28   16.50
   2  -6  11  134.29   10.80
  -3   6 -11  228.08   11.80
  -3   6 -11  246.98   15.60
  -3   6 -11  243.98   10.10
   3  -6  11  235.98   14.50
   3  -6  11  214.28   26.90
  -4   6 -11   99.49    6.20
  -4   6 -11   94.89    9.90
  -4   6 -11  123.89    7.90
   4  -6  11  106.09    9.80
  -5   6 -11   35.00    6.10
  -5   6 -11   30.10    4.50
   5  -6  11   25.70    5.50
   5  -6  11   58.69   17.40
  -6   6 -11    0.40    4.10
  -6   6 -11    3.40    5.80
   6  -6  11   36.60   15.70
   6  -6  11   -1.10    4.40
   6   5 -11  112.39   13.60
   6   5 -11   88.59    7.70
  -6  -5  11   92.19   10.80
  -6  -5  11   80.19   10.90
  -6  -5  11  108.79   13.20
   5   5 -11    8.10    5.70
   5   5 -11   15.30    4.50
   5   5 -11   11.50    4.60
   5   5 -11   10.20    5.80
  -5  -5  11   10.20    4.50
  -5  -5  11   11.80    5.20
   4   5 -11  588.84   25.60
   4   5 -11  568.04   27.60
   4   5 -11  606.94   28.00
   4   5 -11  577.94   24.70
  -4  -5  11  545.55   27.70
  -4  -5  11  537.15   26.60
  -4  -5  11  559.84   24.50
   3   5 -11   -0.20    2.50
   3   5 -11    0.10    4.10
   3   5 -11   -3.70    5.00
  -3  -5  11   -0.20    2.20
  -3  -5  11    1.40    3.70
  -3  -5  11    0.70    1.80
  -3  -5  11    3.70    4.90
  -3  -5  11    4.50    4.40
   2   5 -11   12.40    2.40
   2   5 -11    5.40    2.50
   2   5 -11    6.90    5.20
   2   5 -11    9.80    3.00
  -2  -5  11    7.00    3.20
  -2  -5  11    9.50    3.70
  -2  -5  11    7.70    3.80
   1   5 -11  104.69    5.00
   1   5 -11  103.09    7.80
   1   5 -11   93.79    6.70
  -1  -5  11   89.69    7.90
  -1  -5  11   90.09    7.80
  -1  -5  11   93.59    8.00
  -1  -5  11   98.09    9.30
   0   5 -11  616.54   24.70
   0   5 -11  632.64   22.10
   0  -5  11  591.04   28.00
   0  -5  11  590.84   26.90
   0  -5  11  588.14   25.60
   0  -5  11  584.14   25.80
  -1   5 -11  120.79    9.70
  -1   5 -11  123.79    7.00
   1  -5  11  112.89    9.70
   1  -5  11  125.49    8.90
   1  -5  11  128.19    7.90
   1  -5  11  110.29   12.80
  -2   5 -11  411.06   21.70
  -2   5 -11  447.16   18.80
  -2   5 -11  419.36   18.10
  -2   5 -11  419.16   19.50
   2  -5  11  395.56   19.40
   2  -5  11  432.16   21.40
   2  -5  11  435.76   29.40
  -3   5 -11   -0.80    3.60
  -3   5 -11    5.50    1.40
  -3   5 -11   10.00    4.30
  -3   5 -11   -2.70    1.90
   3  -5  11    2.10    3.70
   3  -5  11    7.60    8.30
  -4   5 -11    4.40    3.10
  -4   5 -11    3.60    4.60
   4  -5  11    1.90    3.70
   4  -5  11    5.00   11.90
  -5   5 -11   42.60    8.40
  -5   5 -11   28.80    3.60
  -5   5 -11   42.10    6.50
   5  -5  11   39.10    7.50
   5  -5  11   33.10   16.60
  -6   5 -11    9.80    6.00
   6  -5  11   21.40   20.60
   6  -5  11    8.80    4.60
   6   4 -11    6.80    6.10
   6   4 -11    1.40    3.60
   6   4 -11   11.20    4.50
  -6  -4  11   16.50    5.90
  -6  -4  11    8.50    4.90
  -6  -4  11    3.40    5.40
   5   4 -11  221.68   12.10
   5   4 -11  240.98   13.60
   5   4 -11  239.48   16.60
  -5  -4  11  207.38   14.40
  -5  -4  11  235.58   13.30
  -5  -4  11  227.98   16.50
   4   4 -11   99.99   10.90
   4   4 -11   96.99    8.10
   4   4 -11  104.29    7.90
  -4  -4  11  117.49   12.60
  -4  -4  11   96.69    9.10
  -4  -4  11   86.59    7.20
  -4  -4  11  124.99   10.50
  -4  -4  11  109.29    7.90
   3   4 -11   60.69    9.00
   3   4 -11   71.99    6.90
   3   4 -11   66.59    6.30
   3   4 -11   60.59    4.50
  -3  -4  11   59.39    7.10
  -3  -4  11   75.39    9.40
  -3  -4  11   60.19    5.30
  -3  -4  11   62.99    7.90
  -3  -4  11   61.79    5.60
  -3  -4  11   69.09    4.80
   2   4 -11  246.78   13.30
   2   4 -11  242.28   12.30
   2   4 -11  233.48   14.90
   2   4 -11  242.18    9.90
  -2  -4  11  239.68   12.80
  -2  -4  11  226.28   12.70
  -2  -4  11  233.88   13.90
   1   4 -11  299.47   13.70
   1   4 -11  302.17   15.60
   1   4 -11  299.37   11.40
  -1  -4  11  282.67   16.50
  -1  -4  11  281.97   14.20
  -1  -4  11  290.47   15.10
  -1  -4  11  285.47   14.90
   0   4 -11   43.10    6.60
   0   4 -11   48.40    4.30
   0   4 -11   41.00    5.90
   0  -4  11   55.49    5.00
   0  -4  11   38.30    6.50
   0  -4  11   43.70    6.80
   0  -4  11   43.40    5.50
  -1   4 -11  680.53   32.20
  -1   4 -11  766.12   28.40
  -1   4 -11  725.73   29.80
  -1   4 -11  730.63   29.90
   1  -4  11  726.13   29.20
   1  -4  11  737.23   27.10
   1  -4  11  761.82   36.00
   1  -4  11  738.43   29.80
   1  -4  11  706.23   32.00
  -2   4 -11   35.20    6.90
  -2   4 -11   37.30    5.10
  -2   4 -11   31.40    3.90
   2  -4  11   44.00    6.60
   2  -4  11   37.00    5.80
   2  -4  11   57.39   12.50
  -3   4 -11   17.50    3.20
  -3   4 -11    8.90    3.70
  -3   4 -11    9.80    1.50
  -3   4 -11    8.60    5.00
  -3   4 -11   15.70    3.60
   3  -4  11   13.40    4.40
   3  -4  11   15.30    4.80
   3  -4  11    6.60    9.70
  -4   4 -11   10.50    5.10
  -4   4 -11    6.10    3.10
   4  -4  11    3.40    4.20
   4  -4  11    4.40   11.30
  -5   4 -11  123.49    9.10
  -5   4 -11   92.29    6.50
  -5   4 -11  108.09   11.00
   5  -4  11   86.99    9.70
  -6   4 -11   59.09    8.10
  -6   4 -11   99.59   11.40
   6  -4  11  113.29   25.40
   6  -4  11   78.39    8.80
   7   3 -11   39.60    8.30
  -7  -3  11   26.30    5.90
  -7  -3  11   47.20    7.10
  -7  -3  11   44.00    9.90
   6   3 -11   32.30    7.40
   6   3 -11   35.40    5.90
  -6  -3  11   36.20    5.90
  -6  -3  11   51.79    8.50
   5   3 -11   11.50    5.20
  -5  -3  11    8.80    3.90
  -5  -3  11   13.10    3.70
  -5  -3  11   13.80    5.90
   4   3 -11    1.80    3.20
   4   3 -11   -4.00    4.10
   4   3 -11    3.20    2.70
  -4  -3  11    1.70    2.60
  -4  -3  11   -0.40    2.40
  -4  -3  11    3.60    4.10
  -4  -3  11    0.20    4.00
  -4  -3  11   -0.40    3.30
  -4  -3  11    0.60    2.50
   3   3 -11  563.74   22.10
   3   3 -11  583.44   27.80
   3   3 -11  561.64   25.10
   3   3 -11  607.24   24.50
  -3  -3  11  563.44   24.90
  -3  -3  11  582.14   24.90
  -3  -3  11  561.94   26.50
  -3  -3  11  566.44   23.00
  -3  -3  11  600.24   23.40
  -3  -3  11  587.94   23.40
   2   3 -11  562.44   27.40
   2   3 -11  587.84   25.90
   2   3 -11  579.64   23.90
   2   3 -11  601.94   21.70
  -2  -3  11  601.74   25.90
  -2  -3  11  562.24   25.80
  -2  -3  11  579.84   22.60
  -2  -3  11  581.24   24.40
  -2  -3  11  566.34   24.50
   1   3 -11  393.96   19.10
   1   3 -11  399.36   16.50
  -1  -3  11  395.46   17.30
  -1  -3  11  377.56   16.30
  -1  -3  11  382.96   17.70
  -1  -3  11  385.76   20.10
  -1  -3  11  387.66   18.10
   0   3 -11 1298.07   47.90
   0   3 -11 1303.47   49.99
   0   3 -11 1348.47   53.09
   0   3 -11 1357.96   48.90
   0  -3  11 1339.67   49.70
   0  -3  11 1185.08   48.00
   0  -3  11 1270.77   52.59
   0  -3  11 1289.47   49.99
   0  -3  11 1344.37   53.49
  -1   3 -11   -0.80    1.50
  -1   3 -11    1.70    2.00
  -1   3 -11    6.00    3.80
   1  -3  11    2.20    3.10
   1  -3  11   -5.50    6.90
   1  -3  11    1.60    2.30
  -2   3 -11  353.76   15.00
  -2   3 -11  340.47   17.30
  -2   3 -11  338.37   19.20
   2  -3  11  380.36   24.90
   2  -3  11  358.46   16.30
   2  -3  11  355.06   18.50
  -3   3 -11    8.00    4.80
  -3   3 -11    6.50    2.60
  -3   3 -11   11.30    2.40
   3  -3  11   35.20    9.80
   3  -3  11   12.80    4.20
   3  -3  11    5.50    4.10
  -4   3 -11    8.80    5.00
  -4   3 -11   13.20    2.50
  -4   3 -11   14.60    4.10
  -4   3 -11   15.20    6.00
   4  -3  11    2.70   11.20
   4  -3  11   11.80    4.30
  -5   3 -11   26.80    3.70
  -5   3 -11   32.90    5.60
  -5   3 -11   22.50    8.10
   5  -3  11   21.10    5.00
   5  -3  11   40.90   18.20
  -7  -2  11   60.19    8.20
  -7  -2  11   95.29   12.90
  -7  -2  11   80.99    9.80
   6   2 -11   -2.60    4.10
   6   2 -11    3.10    5.50
   6   2 -11    0.00    3.20
  -6  -2  11    1.50    3.60
  -6  -2  11   -3.30    5.40
  -6  -2  11   12.20    4.00
   5   2 -11   47.10    5.50
   5   2 -11   50.19    6.60
   5   2 -11   40.50    7.80
  -5  -2  11   62.19    7.00
  -5  -2  11   37.70    5.30
   4   2 -11  251.17   12.60
   4   2 -11  244.28   15.60
   4   2 -11  230.18   12.70
  -4  -2  11  237.68   14.90
  -4  -2  11  258.37   14.00
  -4  -2  11  237.68   12.70
  -4  -2  11  249.88   13.00
  -4  -2  11  229.98   10.20
  -4  -2  11  233.98   11.80
   3   2 -11    2.90    4.20
   3   2 -11    3.30    1.20
   3   2 -11    1.70    2.60
   3   2 -11    5.90    2.30
  -3  -2  11    6.30    3.10
  -3  -2  11    6.30    2.70
  -3  -2  11    6.10    3.00
  -3  -2  11    5.50    3.20
  -3  -2  11    5.60    3.40
  -3  -2  11    2.40    1.90
   2   2 -11  216.68   14.40
   2   2 -11  226.48    9.20
   2   2 -11  238.38   10.80
   2   2 -11  229.68   13.10
  -2  -2  11  233.38   11.20
  -2  -2  11  237.68   10.00
  -2  -2  11  247.88   12.00
  -2  -2  11  234.88   11.40
  -2  -2  11  237.08   12.80
  -2  -2  11  198.98   15.30
   1   2 -11  476.25   18.40
   1   2 -11  435.36   21.50
   1   2 -11  462.55   19.70
  -1  -2  11  444.56   18.70
  -1  -2  11  463.05   19.60
  -1  -2  11  479.55   20.60
  -1  -2  11  478.45   22.70
  -1  -2  11  480.55   19.20
  -1  -2  11  398.36   28.80
  -1  -2  11  444.16   20.10
   0   2 -11   91.99    8.60
   0   2 -11   95.19    6.20
   0   2 -11  115.79    8.80
   0   2 -11  104.19    5.60
   0  -2  11  102.89    9.00
   0  -2  11   94.09    5.30
   0  -2  11   86.39    7.00
   0  -2  11   98.99    6.40
  -1   2 -11   15.60    3.40
  -1   2 -11   18.00    2.90
  -1   2 -11   19.00    3.20
  -1   2 -11   12.40    4.00
   1  -2  11    9.90    3.90
   1  -2  11   16.60    2.80
   1  -2  11   17.90    3.10
   1  -2  11   29.80    8.40
  -2   2 -11  992.60   39.30
  -2   2 -11  986.50   42.10
  -2   2 -11  974.40   43.60
   2  -2  11 1047.70   42.50
   2  -2  11 1020.30   39.20
   2  -2  11 1071.59   46.50
  -3   2 -11    6.70    5.70
  -3   2 -11    5.00    3.10
  -3   2 -11   14.50    4.30
   3  -2  11   -1.10    7.60
   3  -2  11   10.10    3.40
   3  -2  11    6.20    1.10
   3  -2  11    4.10    3.90
  -4   2 -11  110.19   13.00
  -4   2 -11  148.49    7.50
  -4   2 -11  151.98   12.80
  -4   2 -11  136.09    9.70
   4  -2  11  144.29   18.00
  -5   2 -11   -1.30    5.90
  -5   2 -11    3.50    2.80
   5  -2  11    1.60    4.30
   6  -2  11   -6.10    4.40
   7   1 -11    3.10    7.00
  -7  -1  11   -2.00    4.70
  -7  -1  11    0.70    4.50
   6   1 -11   10.70    3.40
   6   1 -11   12.00    6.70
  -6  -1  11   18.60    5.80
  -6  -1  11    8.00    4.00
   5   1 -11   66.69    9.90
   5   1 -11   71.59    6.90
   5   1 -11   81.29    6.80
  -5  -1  11   76.99    7.60
  -5  -1  11   78.09    7.10
  -5  -1  11   83.39    9.60
   4   1 -11  589.44   29.00
   4   1 -11  622.34   25.10
   4   1 -11  608.64   26.30
  -4  -1  11  576.94   26.50
  -4  -1  11  605.34   22.80
  -4  -1  11  615.34   25.40
  -4  -1  11  625.74   24.90
  -4  -1  11  635.94   28.10
   3   1 -11  938.41   40.20
   3   1 -11  913.11   37.90
   3   1 -11  996.40   36.60
   3   1 -11  899.01   34.20
  -3  -1  11  872.61   37.20
  -3  -1  11  930.11   38.50
  -3  -1  11  925.31   37.50
  -3  -1  11  940.21   35.90
  -3  -1  11  896.21   35.40
  -3  -1  11  912.81   35.00
   2   1 -11  667.23   31.20
   2   1 -11  680.43   29.90
  -2  -1  11  758.12   31.20
  -2  -1  11  688.23   27.10
  -2  -1  11  650.13   30.60
  -2  -1  11  712.53   26.90
  -2  -1  11  680.93   26.00
  -2  -1  11  667.63   28.90
   1   1 -11  189.68    9.60
   1   1 -11  185.28   11.40
   1   1 -11  214.38   12.60
  -1  -1  11  199.58    9.20
  -1  -1  11  186.58    9.50
  -1  -1  11  209.38   10.70
  -1  -1  11  192.88   12.80
  -1  -1  11  226.68   13.00
  -1  -1  11  194.68   19.30
   0   1 -11  634.04   29.00
   0   1 -11  627.74   26.60
   0   1 -11  625.94   24.40
   0  -1  11  631.24   28.50
   0  -1  11  643.54   24.80
   0  -1  11  634.24   24.50
   0  -1  11  639.04   29.20
   0  -1  11  629.14   25.20
  -1   1 -11  742.33   33.80
  -1   1 -11  771.52   29.30
  -1   1 -11  741.63   32.30
   1  -1  11  754.92   29.30
   1  -1  11  766.92   32.90
   1  -1  11  734.53   32.80
   1  -1  11  751.82   28.50
  -2   1 -11  832.52   32.60
  -2   1 -11  805.52   37.00
  -2   1 -11  766.72   35.70
   2  -1  11  940.61   37.20
   2  -1  11  812.22   35.20
   2  -1  11  778.92   31.90
  -3   1 -11  101.19   10.70
  -3   1 -11  103.09   10.50
  -3   1 -11   99.99    7.60
   3  -1  11   96.89    8.40
   3  -1  11  105.09    9.90
   3  -1  11  100.89    5.00
  -4   1 -11  280.57   18.70
  -4   1 -11  274.07   14.90
  -4   1 -11  312.97   25.40
   4  -1  11  275.77   20.10
  -5   1 -11   57.99    8.20
  -5   1 -11   64.89   12.60
   7   0 -11   57.59    9.50
  -7   0  11   67.89   10.10
  -7   0  11   71.09    9.10
  -7   0  11   48.80    9.90
   6   0 -11   12.70    4.00
   6   0 -11    7.30    6.00
  -6   0  11   25.00    4.60
  -6   0  11   20.40    4.60
  -6   0  11   24.20    7.40
   5   0 -11  196.48   15.20
   5   0 -11  199.98   11.20
   5   0 -11  191.08   13.80
  -5   0  11  189.68   10.90
  -5   0  11  193.58   10.90
  -5   0  11  204.88   14.20
  -5   0  11  195.68   17.60
   4   0 -11  557.74   25.40
   4   0 -11  569.14   28.40
  -4   0  11  592.44   27.00
  -4   0  11  595.24   23.80
  -4   0  11  596.64   25.40
  -4   0  11  568.64   22.70
  -4   0  11  625.84   22.80
  -4   0  11  572.94   23.60
   3   0 -11  349.87   19.00
   3   0 -11  316.57   16.70
   3   0 -11  356.26   13.90
  -3   0  11  330.77   13.80
  -3   0  11  347.87   17.00
  -3   0  11  338.07   14.20
  -3   0  11  326.47   17.60
   2   0 -11  362.66   19.70
   2   0 -11  375.06   18.60
  -2   0  11  388.76   17.50
  -2   0  11  387.46   19.20
  -2   0  11  350.36   19.40
  -2   0  11  353.16   20.80
  -2   0  11  395.16   14.90
   1   0 -11  169.78    9.50
   1   0 -11  173.38   11.60
   1   0 -11  186.78    7.40
  -1   0  11  164.78    8.90
  -1   0  11  166.18   11.80
  -1   0  11  180.08    7.10
  -1   0  11  165.68   11.60
  -1   0  11  179.68    9.50
   0   0 -11    7.30    3.10
   0   0 -11    5.20    3.00
   0   0 -11    2.10    1.40
   0   0  11    3.20    1.90
   0   0  11    3.70    1.90
   0   0  11    2.90    1.60
   0   0  11    0.60    3.20
   0   0  11    2.00    0.60
   0   0  11    1.50    1.10
   0   0  11    0.70    4.10
  -1   0 -11  170.78    8.20
  -1   0 -11  162.28   11.10
  -1   0 -11  155.38   12.10
   1   0  11  144.09    7.00
   1   0  11  169.68   10.70
   1   0  11  157.88    8.00
   1   0  11  167.38   11.40
  -2   0 -11   99.99    9.80
  -2   0 -11   91.79    6.60
  -2   0 -11   89.39    9.80
   2   0  11   92.39    9.40
   2   0  11   96.19    4.90
   2   0  11   89.89    6.20
  -3   0 -11  251.07   17.80
  -3   0 -11  280.27   14.10
  -3   0 -11  266.47   17.30
   3   0  11  270.07   16.10
  -4   0 -11    0.50    5.70
  -4   0 -11    7.70    3.90
   4   0  11   -5.20    4.00
   4   0  11    0.00    4.90
   5   0  11  112.99   11.60
   5   0  11   93.89   11.70
   7  -1 -11   49.90    9.40
  -7   1  11   76.19    9.20
  -7   1  11   54.79    8.60
   6  -1 -11   78.89    7.00
   6  -1 -11   74.59   12.00
  -6   1  11   82.39   12.40
  -6   1  11   87.69    8.40
  -6   1  11   94.69    7.90
   5  -1 -11    4.80    3.30
   5  -1 -11    2.30    4.60
  -5   1  11    3.80    5.80
  -5   1  11    3.20    2.60
  -5   1  11   14.40    4.60
  -5   1  11    7.30    2.80
   4  -1 -11   20.60    4.10
   4  -1 -11   19.80    5.50
   4  -1 -11   22.80    3.70
  -4   1  11   19.20    2.90
  -4   1  11   17.80    4.40
  -4   1  11   15.90    2.70
  -4   1  11   15.00    3.80
   3  -1 -11   84.29    9.20
   3  -1 -11   71.29    7.00
  -3   1  11   79.99    5.00
  -3   1  11   92.99    7.40
  -3   1  11   65.89    7.30
  -3   1  11   90.69   11.70
   2  -1 -11  165.78   11.10
   2  -1 -11  155.08   12.00
   2  -1 -11  147.29    8.60
  -2   1  11  177.08    9.70
  -2   1  11  169.68   12.20
   1  -1 -11   73.29    6.50
   1  -1 -11   67.39    7.60
  -1   1  11   68.79    6.10
  -1   1  11   81.29    8.80
  -1   1  11   71.69    3.70
  -1   1  11   82.49    6.40
   0  -1 -11  847.82   36.50
   0  -1 -11  861.31   32.00
   0  -1 -11  859.31   32.80
   0  -1 -11  887.21   37.80
   0   1  11  852.91   32.30
   0   1  11  828.52   32.20
   0   1  11  876.41   31.40
   0   1  11  910.21   36.70
   0   1  11  807.42   33.50
  -1  -1 -11    0.10    4.30
  -1  -1 -11    9.00    1.70
  -1  -1 -11    4.40    2.30
  -1  -1 -11   -2.90    3.70
   1   1  11    4.90    1.70
   1   1  11    6.80    2.50
   1   1  11    5.60    2.00
   1   1  11    4.90    4.00
  -2  -1 -11   -3.60    4.20
  -2  -1 -11    0.30    4.50
  -2  -1 -11    5.20    2.50
   2   1  11    3.70    4.60
   2   1  11    6.30    2.30
   2   1  11    5.00    2.80
   2   1  11    2.20    2.20
  -3  -1 -11   65.99    4.20
  -3  -1 -11   59.89   10.00
  -3  -1 -11   62.69    6.80
  -3  -1 -11   80.99    9.70
   3   1  11   53.89    7.40
   3   1  11   71.99    9.60
  -4  -1 -11    2.10    7.60
   4   1  11   17.00    4.70
   4   1  11   20.20    5.40
  -5  -1 -11  223.08   19.60
   5   1  11  175.78   13.90
   5   1  11  192.88   13.80
   7  -2 -11  291.77   20.00
  -7   2  11  329.17   21.60
  -7   2  11  326.47   17.40
  -7   2  11  319.47   16.60
   6  -2 -11   77.69   12.00
   6  -2 -11   86.09    6.80
  -6   2  11   76.59    8.00
  -6   2  11   81.59    7.30
   5  -2 -11  132.39    9.00
   5  -2 -11  127.89   12.70
  -5   2  11  117.89    8.20
  -5   2  11  144.59   11.60
   4  -2 -11    2.20    3.10
   4  -2 -11    5.60    4.50
  -4   2  11    6.60    3.60
  -4   2  11    6.80    2.40
  -4   2  11    5.30    4.20
   3  -2 -11  290.57   15.80
   3  -2 -11  313.47   18.00
  -3   2  11  316.07   15.20
  -3   2  11  292.17   14.80
  -3   2  11  289.57   12.70
   2  -2 -11   58.79    6.90
   2  -2 -11   60.29    5.00
   2  -2 -11   54.39    8.20
   2  -2 -11   58.89    5.50
  -2   2  11   73.29    5.70
  -2   2  11   82.89    9.00
  -2   2  11   67.59    8.00
  -2   2  11   61.49    3.70
   1  -2 -11  718.63   32.00
   1  -2 -11  745.73   29.70
   1  -2 -11  730.73   33.20
  -1   2  11  768.12   34.00
  -1   2  11  854.71   32.80
  -1   2  11  757.92   27.90
  -1   2  11  683.93   32.90
   0  -2 -11    2.20    3.40
   0  -2 -11    0.10    1.30
   0  -2 -11    1.80    3.10
   0   2  11    2.80    2.20
   0   2  11    7.00    3.70
   0   2  11    0.30    1.60
  -1  -2 -11  145.49   12.10
  -1  -2 -11  156.88   12.20
  -1  -2 -11  147.49    7.50
   1   2  11  146.59    8.10
   1   2  11  162.98   12.10
   1   2  11  148.39    7.10
   1   2  11  144.89    8.30
  -2  -2 -11    2.90    1.50
  -2  -2 -11    7.70    5.10
  -2  -2 -11    1.50    5.00
   2   2  11   -2.40    5.60
   2   2  11    7.20    2.80
   2   2  11    8.00    4.20
  -3  -2 -11    4.10    1.80
   3   2  11   15.30    5.30
   3   2  11   -9.50    6.20
   3   2  11    5.70    4.10
  -4  -2 -11  113.69   14.10
   4   2  11  158.48   13.20
   4   2  11  133.29   10.70
   7  -3 -11   22.10    8.10
  -7   3  11   46.20    9.40
  -7   3  11   21.10    5.20
   6  -3 -11  422.36   25.70
  -6   3  11  521.45   25.00
  -6   3  11  460.55   21.00
   5  -3 -11    4.00    5.50
   5  -3 -11   -1.40    3.30
  -5   3  11   14.60    4.50
   4  -3 -11    2.00    4.50
   4  -3 -11    6.70    3.30
  -4   3  11    8.20    2.50
   3  -3 -11   56.59    5.50
   3  -3 -11   59.49    6.80
   3  -3 -11   60.49    8.70
  -3   3  11   52.69    4.10
  -3   3  11   68.09    6.40
   2  -3 -11  183.98   11.30
   2  -3 -11  201.28   13.60
   2  -3 -11  203.18   10.60
   2  -3 -11  208.38   12.80
  -2   3  11  221.68   10.80
  -2   3  11  208.28   12.70
  -2   3  11  195.18    8.70
   1  -3 -11   46.10    6.40
   1  -3 -11   49.40    4.50
   1  -3 -11   43.60    7.00
  -1   3  11   44.90    4.90
  -1   3  11   59.49    3.40
   0  -3 -11   15.70    2.50
   0  -3 -11   19.60    5.30
   0  -3 -11   17.50    4.60
   0   3  11   18.30    3.80
   0   3  11   21.80    3.00
   0   3  11    7.80    5.50
   0   3  11   18.40    2.70
  -1  -3 -11    2.80    4.60
  -1  -3 -11   10.50    4.50
   1   3  11   10.10    2.00
   1   3  11   23.80    5.40
   1   3  11    8.90    2.50
   2   3  11   46.60    8.10
  -3  -3 -11   14.70    7.70
   3   3  11    0.30    6.80
   3   3  11    7.10    4.30
  -4  -3 -11   17.40    9.30
   4   3  11   13.70    4.80
   4   3  11   10.10    8.10
   7  -4 -11   43.20    9.70
  -7   4  11   46.40    6.10
   6  -4 -11   76.49   13.00
  -6   4  11   87.29    9.10
  -5   4  11   41.60    5.30
   4  -4 -11  364.26   20.60
  -4   4  11  384.66   18.20
  -4   4  11  356.56   15.30
  -4   4  11  331.07   15.20
   3  -4 -11   80.79    6.50
   3  -4 -11   74.79    6.40
   3  -4 -11   81.09    9.30
  -3   4  11   82.49    4.80
  -3   4  11   57.89    6.50
   2  -4 -11   10.20    2.50
   2  -4 -11    7.20    4.40
   2  -4 -11   16.10    3.60
  -2   4  11   10.90    3.90
  -2   4  11   17.40    2.50
  -2   4  11   13.10    3.70
   1  -4 -11    3.80    2.30
   1  -4 -11    3.50    3.50
  -1   4  11    6.30    2.80
  -1   4  11   15.40    5.00
   0  -4 -11   64.19    5.30
   0  -4 -11   56.59    7.40
   0   4  11   63.39    4.50
   0   4  11   51.09    9.00
  -1  -4 -11   64.39    5.30
  -1  -4 -11   56.19   11.30
   1   4  11   51.69    4.80
  -2  -4 -11   42.80    9.30
   2   4  11   10.80    7.00
  -3  -4 -11   26.10    3.90
  -3  -4 -11   22.50    7.70
   3   4  11   28.60    5.50
   3   4  11   28.50    9.20
   3   4  11   44.90   10.20
   6  -5 -11    5.00    6.90
  -6   5  11   16.10    4.20
  -6   5  11   28.50    7.20
   5  -5 -11  252.77   18.20
  -5   5  11  279.57   13.00
  -4   5  11   55.69    7.80
   3  -5 -11  336.87   16.30
   3  -5 -11  356.96   17.30
   3  -5 -11  328.77   18.90
  -3   5  11  311.17   17.20
  -3   5  11  343.97   14.20
  -3   5  11  346.07   16.80
   2  -5 -11   68.49    6.20
   2  -5 -11   62.39    7.50
  -2   5  11   74.39    8.10
  -2   5  11   57.69    7.50
  -2   5  11   67.29    4.60
   1  -5 -11    8.40    4.60
   1  -5 -11   11.60    2.80
  -1   5  11   17.00    5.50
  -1   5  11   11.50    3.10
  -1   5  11   21.30    4.60
   0  -5 -11    8.30    5.10
   0   5  11    5.00    3.50
   0   5  11    7.60    6.10
  -1  -5 -11   26.90    6.80
   1   5  11   35.60    4.50
   1   5  11   26.30    7.40
  -2  -5 -11   21.20    7.70
  -2  -5 -11   20.10    3.90
   2   5  11   26.50    8.00
   2   5  11   25.40    4.60
  -6   6  11   29.20    4.40
   5  -6 -11    7.00    7.00
   5  -6 -11    6.40    3.50
  -5   6  11   22.00    7.10
  -5   6  11   12.90    3.40
   4  -6 -11   16.70    3.70
   4  -6 -11   19.70    6.50
  -4   6  11   25.40    3.40
  -4   6  11   23.00    4.20
  -3   6  11   63.09    9.10
   2  -6 -11   19.30    5.60
   2  -6 -11   32.80    6.10
  -2   6  11   36.20    3.90
   1  -6 -11   -0.90    4.20
   1  -6 -11    2.30    3.00
   0  -6 -11  208.78   12.40
   0  -6 -11  233.38   16.30
   0   6  11  228.28   11.50
   0   6  11  243.98   16.30
  -1  -6 -11   31.30    8.50
   1   6  11   32.70    7.00
   1   6  11   26.50    4.70
   4  -7 -11    9.60    3.60
  -4   7  11   10.30    2.90
  -4   7  11   11.20    2.60
   3  -7 -11   10.40    3.80
   3  -7 -11   21.00    5.10
  -3   7  11   14.60    3.90
  -3   7  11   21.00    5.70
  -3   7  11   15.00    2.70
   2  -7 -11    6.00    4.40
   2  -7 -11    4.50    3.40
  -2   7  11    5.40    4.50
   1  -7 -11   63.39    9.10
   1  -7 -11   70.69    7.50
  -1   7  11   88.19    9.50
   0  -7 -11   23.40    4.60
   0  -7 -11   16.30    5.70
   0   7  11   22.40    6.80
   0  11 -12  139.69   10.90
   0  11 -12  125.09   20.30
   0 -11  12  156.98   12.90
   0 -11  12  109.19   13.10
   0 -11  12   90.99   15.90
   0 -11  12  131.09   11.40
  -1  11 -12   78.99   10.30
  -1  11 -12   43.50   15.10
   1 -11  12   57.69   10.50
   1 -11  12   31.70    9.40
   1 -11  12   56.89    8.40
  -2  11 -12    2.00   11.70
  -2  11 -12    6.80    4.40
   2 -11  12    5.30   10.80
   2 -11  12    5.40    5.70
   2  10 -12   85.39   17.60
   2  10 -12   52.79    9.30
  -2 -10  12   80.69   10.30
  -2 -10  12   50.79    9.10
  -2 -10  12   73.79   11.60
   1  10 -12   46.00    8.30
   1  10 -12   38.70   14.10
  -1 -10  12   30.90    7.00
  -1 -10  12   29.80    7.10
  -1 -10  12   35.00    8.50
   0  10 -12  111.99   19.60
   0 -10  12  110.89   10.30
   0 -10  12  111.39   11.70
   0 -10  12  103.39   14.80
  -1  10 -12   -3.00   12.00
   1 -10  12    5.20    3.70
   1 -10  12    7.70    6.10
   1 -10  12   -7.10    7.70
   1 -10  12    2.70    3.90
  -2  10 -12   39.50   13.00
  -2  10 -12   34.10    2.90
  -2  10 -12   36.50    6.20
   2 -10  12   28.00    9.90
  -3  10 -12   50.69    6.40
  -3  10 -12   77.69   15.80
   3 -10  12   57.19   15.90
   3 -10  12   59.39    9.50
  -4  10 -12   17.90    7.10
   4 -10  12    8.30   20.40
   4 -10  12   12.50    5.30
   3   9 -12   -1.60    7.50
   3   9 -12  -14.20   12.00
  -3  -9  12   10.60    6.40
  -3  -9  12   -7.70    5.50
   2   9 -12   -4.60    4.60
   2   9 -12   10.80   11.30
  -2  -9  12    2.90    4.90
  -2  -9  12   -1.20    4.60
  -2  -9  12   11.70    6.20
   1   9 -12   49.60    7.20
   1   9 -12   46.10   13.80
  -1  -9  12   56.69   10.10
  -1  -9  12   48.20   13.20
  -1  -9  12   60.89    8.90
   0   9 -12   33.50    6.90
   0   9 -12   32.50   11.10
   0   9 -12   19.70    4.00
   0  -9  12   21.40    6.90
   0  -9  12   22.80    6.20
   0  -9  12   18.30    5.10
  -1   9 -12   17.90    7.00
  -1   9 -12   28.10    4.90
  -1   9 -12   28.80   10.80
   1  -9  12   25.10    4.20
   1  -9  12   17.30    7.60
   1  -9  12   22.50    6.50
  -2   9 -12   23.60    7.20
  -2   9 -12   14.70    3.50
  -2   9 -12   16.40    2.30
   2  -9  12    7.90   10.30
   2  -9  12   28.10    6.20
  -3   9 -12  188.28   16.70
  -3   9 -12  194.48   11.00
   3  -9  12  175.78   13.90
   3  -9  12  220.48   26.50
  -4   9 -12   19.60    7.70
   4  -9  12   25.70    5.50
   4  -9  12   29.10   21.70
   4   8 -12   14.60   10.20
   4   8 -12   17.10    6.30
  -4  -8  12   32.80    7.20
  -4  -8  12   21.20    6.40
   3   8 -12  179.28   18.90
   3   8 -12  178.78   12.50
  -3  -8  12  177.58   14.00
  -3  -8  12  197.18   14.40
   2   8 -12   54.89    7.90
   2   8 -12   78.29   15.10
   2   8 -12   77.29    7.60
  -2  -8  12   69.99    9.10
  -2  -8  12   78.69   10.40
   1   8 -12   33.40    6.40
   1   8 -12   18.40   10.50
   1   8 -12   26.20    4.80
  -1  -8  12   24.80    5.80
  -1  -8  12   30.60    6.80
  -1  -8  12   30.80    6.40
   0   8 -12  238.48   12.70
   0   8 -12  205.68   19.50
   0   8 -12  218.28   20.40
   0  -8  12  256.57   14.30
   0  -8  12  246.58   15.60
  -1   8 -12   34.90    2.70
  -1   8 -12   38.70    9.30
   1  -8  12   46.30    6.00
   1  -8  12   43.40    5.70
   1  -8  12   32.10    6.40
  -2   8 -12  459.25   20.60
  -2   8 -12  435.76   26.30
  -2   8 -12  469.95   17.90
   2  -8  12  460.65   23.50
   2  -8  12  515.05   31.30
   2  -8  12  475.35   18.90
  -3   8 -12    7.60    2.20
  -3   8 -12   -1.50   10.30
  -3   8 -12    5.80    3.00
   3  -8  12    7.70   13.30
  -4   8 -12  223.68   12.70
  -4   8 -12  235.68   23.60
   4  -8  12  304.57   34.40
   4  -8  12  244.58   15.30
  -5   8 -12   70.19    7.60
  -5   8 -12   83.99   10.30
   5  -8  12   60.89   19.60
   5  -8  12   58.09    9.40
   5   7 -12   15.30    7.80
   5   7 -12   26.40    5.60
   4   7 -12  210.18   13.10
   4   7 -12  194.28   12.20
   4   7 -12  213.18   15.30
   4   7 -12  223.88   18.50
  -4  -7  12  195.38   15.40
  -4  -7  12  217.88   16.20
   3   7 -12   81.19    8.00
   3   7 -12   92.39   14.20
   3   7 -12   76.69    7.90
  -3  -7  12   96.99   10.90
  -3  -7  12   66.89    9.90
   2   7 -12   63.69    6.90
   2   7 -12   57.09   11.00
   2   7 -12   37.80    6.60
  -2  -7  12   51.99    8.10
   1   7 -12   14.20    7.70
   1   7 -12   17.90    3.70
  -1  -7  12   17.30    4.40
  -1  -7  12   19.20    5.30
  -1  -7  12   26.20    5.50
   0   7 -12   62.39    5.80
   0   7 -12   60.69    8.30
   0   7 -12   46.50   10.50
   0  -7  12   60.49    7.20
   0  -7  12   73.79    9.40
  -1   7 -12  581.54   20.60
  -1   7 -12  573.44   23.60
  -1   7 -12  481.65   26.10
   1  -7  12  585.54   29.10
   1  -7  12  561.34   24.80
   1  -7  12  553.04   26.80
  -2   7 -12   -4.50    4.40
  -2   7 -12    5.40    2.50
  -2   7 -12   -1.50    1.20
   2  -7  12   -3.00    3.70
   2  -7  12   -0.30    1.60
   2  -7  12   -1.70    7.80
  -3   7 -12  474.15   24.40
  -3   7 -12  417.66   19.80
   3  -7  12  462.25   23.30
   3  -7  12  492.85   38.40
  -4   7 -12    1.50    5.10
  -4   7 -12    8.30    3.20
   4  -7  12   13.40    5.10
   5  -7  12   46.60   17.10
   5  -7  12   25.60    5.60
   5   6 -12   98.59    8.50
   5   6 -12   88.29    9.10
  -5  -6  12  118.69   12.40
  -5  -6  12   95.59   11.60
   4   6 -12  163.08   12.00
   4   6 -12  131.49   12.90
   4   6 -12  153.58   10.90
   4   6 -12  169.78   14.70
  -4  -6  12  141.59   12.40
  -4  -6  12  165.18   13.90
   3   6 -12   10.80    3.30
   3   6 -12    5.60    6.70
   3   6 -12    1.00    4.50
   3   6 -12    6.90    3.50
  -3  -6  12    4.60    4.20
   2   6 -12  109.89   12.90
   2   6 -12   88.99    7.40
   2   6 -12  106.59    8.60
   2   6 -12   83.09    6.90
  -2  -6  12   89.29    9.90
  -2  -6  12   97.59    9.10
  -2  -6  12   99.39    9.70
   1   6 -12  100.29    8.50
   1   6 -12   97.59    5.70
   1   6 -12   92.69    7.00
  -1  -6  12  104.29   10.30
  -1  -6  12   93.99    8.80
  -1  -6  12   97.79    9.00
  -1  -6  12   88.49    9.20
   0   6 -12    2.20    2.20
   0   6 -12    7.00    1.40
   0   6 -12   10.30    4.40
   0  -6  12   13.20    4.80
   0  -6  12   10.00    4.10
   0  -6  12   -0.10    3.70
   0  -6  12    8.30    3.30
  -1   6 -12   -0.70    3.60
  -1   6 -12   -3.60    1.90
   1  -6  12    6.00    2.60
   1  -6  12   -4.00    4.80
   1  -6  12   -3.70    5.60
   1  -6  12    6.90    3.90
  -2   6 -12   13.00    2.50
  -2   6 -12   17.30    6.10
   2  -6  12   -1.60    8.80
   2  -6  12    5.40    4.00
  -3   6 -12  278.47   15.50
  -3   6 -12  283.37   18.00
  -3   6 -12  313.57   14.60
   3  -6  12  335.87   37.60
   3  -6  12  309.77   17.60
  -4   6 -12   -1.60    5.00
  -4   6 -12    6.30    3.10
   4  -6  12   21.80   14.50
   4  -6  12    2.50    4.30
  -5   6 -12  166.48   14.10
  -5   6 -12  206.28   12.30
   5  -6  12  182.38   33.00
   5  -6  12  172.98   13.20
   6   5 -12    1.60    7.10
  -6  -5  12   -0.20    5.00
  -6  -5  12    3.20    6.80
   5   5 -12   58.89    6.80
   5   5 -12   90.39    9.00
  -5  -5  12   76.89    9.70
  -5  -5  12   77.29   11.50
   4   5 -12   30.60    6.60
   4   5 -12   26.90    5.40
   4   5 -12   26.40    4.40
  -4  -5  12   32.00    6.00
  -4  -5  12   32.00    6.30
   3   5 -12   11.40    4.10
   3   5 -12    7.40    5.00
   3   5 -12    4.30    2.90
  -3  -5  12    7.50    4.10
  -3  -5  12   12.30    4.60
   2   5 -12  522.05   24.40
   2   5 -12  558.74   20.60
   2   5 -12  538.45   23.10
  -2  -5  12  513.55   23.90
  -2  -5  12  530.25   25.30
  -2  -5  12  525.15   24.10
   1   5 -12   91.69    7.70
   1   5 -12   70.59    5.90
   1   5 -12   74.09    3.70
  -1  -5  12   76.29    8.10
  -1  -5  12   67.89    7.20
  -1  -5  12   73.39    7.40
  -1  -5  12   72.19    8.80
   0   5 -12  268.27   12.50
   0   5 -12  265.17   15.70
   0  -5  12  264.27   13.90
   0  -5  12  273.17   13.90
   0  -5  12  270.97   15.90
   0  -5  12  251.07   15.70
  -1   5 -12   54.99    4.80
  -1   5 -12   69.59    8.60
   1  -5  12   69.99    8.30
   1  -5  12   58.89    7.30
   1  -5  12   52.69    3.80
   1  -5  12   67.59   11.70
   1  -5  12   66.59    5.50
  -2   5 -12   80.49    5.90
  -2   5 -12   74.79    9.30
  -2   5 -12   87.59    9.10
  -2   5 -12   85.59    6.70
   2  -5  12   66.69   13.80
   2  -5  12   84.99    8.40
   2  -5  12   85.29    9.20
  -3   5 -12   -0.40    4.10
  -3   5 -12   -2.60    3.50
  -3   5 -12    4.00    2.40
   3  -5  12   21.40   11.80
   3  -5  12   -2.50    3.80
  -4   5 -12  752.42   34.90
  -4   5 -12  775.42   31.50
  -4   5 -12  739.83   34.10
   4  -5  12  720.43   45.90
   4  -5  12  764.92   34.10
  -5   5 -12   45.60    7.60
  -5   5 -12   51.69    9.60
   6   4 -12  184.68   11.80
   6   4 -12  201.68   17.00
  -6  -4  12  223.08   17.20
  -6  -4  12  189.28   14.60
  -6  -4  12  238.28   13.80
   5   4 -12   47.50    6.40
   5   4 -12   34.70    5.80
  -5  -4  12   38.90    7.40
  -5  -4  12   45.30    7.60
   4   4 -12    3.10    5.20
   4   4 -12   13.90    3.90
   4   4 -12    5.40    3.00
  -4  -4  12    7.10    4.50
  -4  -4  12    5.00    4.50
   3   4 -12  131.99   12.50
   3   4 -12  122.39    9.90
   3   4 -12  119.99    6.40
   3   4 -12  126.59    8.90
  -3  -4  12  130.69   10.80
  -3  -4  12  117.39    9.60
  -3  -4  12  120.99    8.80
  -3  -4  12  142.79   10.40
  -3  -4  12  132.59    9.60
  -3  -4  12  153.28    7.60
   2   4 -12  149.39    8.90
   2   4 -12  149.59    6.40
   2   4 -12  152.08   10.10
  -2  -4  12  142.69    9.90
  -2  -4  12  143.59   10.50
  -2  -4  12  131.59    9.50
   1   4 -12  587.24   23.40
   1   4 -12  600.74   26.60
  -1  -4  12  536.25   27.00
  -1  -4  12  560.44   25.20
  -1  -4  12  558.14   24.20
  -1  -4  12  562.84   25.00
   0   4 -12   26.30    3.70
   0   4 -12   31.90    6.10
   0  -4  12   22.10    3.20
   0  -4  12   17.80    3.80
   0  -4  12   18.90    5.40
   0  -4  12   33.20    4.40
   0  -4  12   29.30    5.60
  -1   4 -12    8.70    3.40
  -1   4 -12   13.10    4.70
  -1   4 -12    5.40    2.00
   1  -4  12    9.50    2.20
   1  -4  12    4.50    3.50
   1  -4  12    2.70    2.80
   1  -4  12    5.10    1.30
   1  -4  12   14.10    7.70
  -2   4 -12    3.00    3.00
  -2   4 -12    0.10    4.60
  -2   4 -12    9.70    3.20
   2  -4  12    1.50    3.50
   2  -4  12   19.30    9.90
   2  -4  12    3.40    3.70
  -3   4 -12  254.67   16.80
  -3   4 -12  266.57   13.30
  -3   4 -12  277.07   15.70
   3  -4  12  268.27   27.10
   3  -4  12  262.87   16.20
  -4   4 -12   -1.60    2.80
  -4   4 -12    5.80    5.50
  -4   4 -12    6.30    4.90
   4  -4  12   -7.70    4.20
  -5   4 -12  132.19   13.40
  -5   4 -12  112.99    9.90
   5  -4  12  108.19   10.60
   6   3 -12   71.39    7.10
   6   3 -12   80.59   12.20
  -6  -3  12   76.59   12.40
   5   3 -12   -3.00    3.10
   5   3 -12    4.50    3.70
  -5  -3  12    1.90    5.10
   4   3 -12   82.89    7.20
   4   3 -12   83.59    7.80
   4   3 -12   74.49   10.90
  -4  -3  12  105.59    6.80
  -4  -3  12   86.09    9.60
   3   3 -12   43.60    3.20
   3   3 -12   38.90    5.90
   3   3 -12   51.09    7.90
   3   3 -12   44.80    5.10
  -3  -3  12   48.60    5.40
  -3  -3  12   50.89    7.50
  -3  -3  12   38.90    6.50
  -3  -3  12   48.40    4.90
   2   3 -12   51.19    5.00
   2   3 -12   59.89    7.90
   2   3 -12   62.19    6.60
   2   3 -12   59.89    3.10
  -2  -3  12   61.29    7.50
  -2  -3  12   68.29    7.30
  -2  -3  12   62.79    6.90
  -2  -3  12   51.99    8.50
  -2  -3  12   54.79    4.20
   1   3 -12  206.48   12.70
   1   3 -12  204.58    9.70
  -1  -3  12  181.48   13.30
  -1  -3  12  191.88   11.30
  -1  -3  12  183.78    9.60
  -1  -3  12  233.08   12.20
   0   3 -12   18.40    4.50
   0   3 -12   19.50    3.10
   0   3 -12   18.90    3.60
   0   3 -12   18.50    2.50
   0  -3  12   17.50    2.70
   0  -3  12   25.20    3.90
   0  -3  12   30.10    5.90
   0  -3  12   23.80    6.70
   0  -3  12   19.20    3.60
  -1   3 -12  567.04   22.90
  -1   3 -12  573.34   22.60
  -1   3 -12  559.94   23.80
  -1   3 -12  546.25   26.80
   1  -3  12  545.15   33.00
   1  -3  12  529.05   25.90
   1  -3  12  543.45   22.40
   1  -3  12  545.75   23.20
  -2   3 -12  193.78    9.30
  -2   3 -12  227.38   11.90
  -2   3 -12  168.28   13.70
   2  -3  12  208.88   21.10
   2  -3  12  187.48   13.10
   2  -3  12  189.68   10.90
  -3   3 -12  140.79   11.60
  -3   3 -12  147.19   12.80
  -3   3 -12  158.68    9.60
   3  -3  12  147.79   12.20
  -4   3 -12  496.55   25.50
  -4   3 -12  448.56   24.80
  -4   3 -12  479.45   22.00
   4  -3  12  548.55   37.00
   4  -3  12  454.35   23.60
  -5   3 -12    6.10    7.40
  -5   3 -12    7.70    4.80
   5  -3  12    6.80    4.70
   7   2 -12   65.19   10.50
  -7  -2  12   94.99   10.50
  -7  -2  12   72.49   13.90
  -7  -2  12   80.69   10.80
   6   2 -12   56.99    9.60
   6   2 -12   49.90    6.60
  -6  -2  12   68.39    9.20
  -6  -2  12   68.19    8.50
   5   2 -12  306.87   16.90
   5   2 -12  277.07   25.70
   5   2 -12  248.18   14.20
  -5  -2  12  249.28   21.70
  -5  -2  12  280.97   15.30
  -5  -2  12  284.57   14.00
   4   2 -12  202.88   12.00
   4   2 -12  176.08   14.80
   4   2 -12  218.38   11.30
  -4  -2  12  209.08   11.80
  -4  -2  12  235.98   14.50
  -4  -2  12  201.48   12.20
  -4  -2  12  197.08    9.30
  -4  -2  12  236.88   10.70
   3   2 -12  324.87   14.50
   3   2 -12  304.77   16.30
   3   2 -12  314.47   12.70
   3   2 -12  293.17   18.30
  -3  -2  12  344.37   13.90
  -3  -2  12  307.57   17.00
  -3  -2  12  321.27   15.20
  -3  -2  12  329.77   14.90
  -3  -2  12  342.37   19.10
  -3  -2  12  302.97   15.00
   2   2 -12   19.30    3.20
   2   2 -12   14.90    5.00
   2   2 -12   20.90    4.50
  -2  -2  12   27.40    4.90
  -2  -2  12   17.90    2.80
  -2  -2  12   16.30    3.30
  -2  -2  12   21.50    3.50
  -2  -2  12   18.10    3.70
  -2  -2  12   21.30    7.50
  -2  -2  12   10.10    4.60
   1   2 -12    6.70    2.80
   1   2 -12    5.60    3.00
   1   2 -12    3.00    1.50
  -1  -2  12    2.70    2.00
  -1  -2  12    4.40    2.50
  -1  -2  12   15.00    4.80
  -1  -2  12   -0.40    3.70
  -1  -2  12    8.70    2.40
   0   2 -12  470.45   22.80
   0   2 -12  523.25   20.80
   0   2 -12  538.85   25.50
   0   2 -12  516.65   21.10
   0  -2  12  521.95   21.40
   0  -2  12  510.85   21.60
   0  -2  12  564.54   28.70
   0  -2  12  515.25   20.50
   0  -2  12  534.35   25.10
  -1   2 -12  312.07   12.70
  -1   2 -12  287.87   13.50
  -1   2 -12  305.07   15.40
  -1   2 -12  302.17   17.90
   1  -2  12  304.57   14.60
   1  -2  12  326.97   12.50
   1  -2  12  300.37   17.10
   1  -2  12  304.67   12.90
  -2   2 -12  298.47   16.40
  -2   2 -12  274.37   17.80
  -2   2 -12  287.37   14.10
   2  -2  12  338.47   20.60
   2  -2  12  298.27   14.10
   2  -2  12  280.57   16.40
  -3   2 -12  284.57   18.80
  -3   2 -12  308.67   15.30
  -3   2 -12  314.47   18.50
   3  -2  12  312.87   18.00
   3  -2  12  380.16   27.00
  -4   2 -12   31.90    7.90
  -4   2 -12   24.40    4.40
   4  -2  12   29.30    5.60
   4  -2  12    5.60   15.50
  -5   2 -12   42.40    6.00
  -5   2 -12   43.50   10.00
   5  -2  12   39.10    6.50
   7   1 -12   11.90    6.70
  -7  -1  12    5.70    5.20
  -7  -1  12   12.60    6.20
  -7  -1  12   13.90    5.10
   6   1 -12   14.80    6.90
   6   1 -12   24.20    4.70
  -6  -1  12   32.70    5.70
  -6  -1  12   24.00    5.00
  -6  -1  12   27.70    6.60
   5   1 -12   19.70    4.60
  -5  -1  12   22.50    4.60
  -5  -1  12   31.00    6.10
  -5  -1  12   18.90    3.60
   4   1 -12   35.00    5.20
   4   1 -12   25.70    6.10
  -4  -1  12   32.70    5.30
  -4  -1  12   27.00    2.80
  -4  -1  12   39.70    7.00
   3   1 -12   11.60    4.50
   3   1 -12   12.30    3.80
  -3  -1  12   10.30    4.10
  -3  -1  12   16.40    4.40
  -3  -1  12   10.40    5.10
  -3  -1  12   21.90    3.20
  -3  -1  12   14.30    3.30
  -3  -1  12   17.60    3.00
   2   1 -12   52.19    3.70
   2   1 -12   44.50    6.30
   2   1 -12   41.70    7.20
  -2  -1  12   34.30    8.40
  -2  -1  12   50.99    6.30
  -2  -1  12   52.29    4.60
  -2  -1  12   54.69    8.30
  -2  -1  12   51.39    3.60
  -2  -1  12   50.59    6.90
  -2  -1  12   56.09    6.10
   1   1 -12  207.78    9.10
   1   1 -12  187.58    9.80
   1   1 -12  204.78    9.90
   1   1 -12  195.08   13.10
  -1  -1  12  215.48    9.60
  -1  -1  12  204.98   13.80
  -1  -1  12  209.68   12.50
  -1  -1  12  223.58   14.60
  -1  -1  12  194.08   10.00
  -1  -1  12  209.28   10.90
   0   1 -12  256.47   11.20
   0   1 -12  246.28   14.90
   0   1 -12  243.18   12.50
   0  -1  12  217.58   14.50
   0  -1  12  247.98   11.10
   0  -1  12  237.98   11.40
   0  -1  12  246.68   11.10
  -1   1 -12  823.82   35.50
  -1   1 -12  831.72   37.70
  -1   1 -12  866.01   32.60
   1  -1  12  820.62   32.50
   1  -1  12  836.72   31.80
   1  -1  12  835.22   35.70
   1  -1  12  869.51   36.60
  -2   1 -12   28.30    4.50
  -2   1 -12   28.20    6.70
  -2   1 -12   18.10    5.00
   2  -1  12   22.50    3.60
   2  -1  12   27.10    5.80
  -3   1 -12   40.30    8.40
  -3   1 -12   35.10    5.90
  -3   1 -12   31.70    6.70
   3  -1  12   48.80    9.20
  -4   1 -12   10.00    7.10
  -4   1 -12   11.50    4.60
   4  -1  12   12.90    4.80
  -5   1 -12  243.98   19.60
  -5   1 -12  214.28   17.10
   5  -1  12  210.78   16.20
   5  -1  12  209.98   14.50
   7   0 -12   31.20    7.40
  -7   0  12   36.20    6.50
  -7   0  12   46.90    7.00
  -7   0  12   65.49   11.90
   6   0 -12    3.20    6.70
  -6   0  12   11.20    4.50
  -6   0  12   13.50    6.10
  -6   0  12   13.60    3.90
   5   0 -12    1.50    3.50
  -5   0  12   -2.30    2.40
  -5   0  12    2.90    3.00
  -5   0  12    4.70    4.40
   4   0 -12   79.49   10.80
   4   0 -12   73.59    7.40
  -4   0  12   72.49    5.60
  -4   0  12   95.19    9.00
  -4   0  12   79.19    5.30
  -4   0  12   73.39    5.40
  -4   0  12   95.19    5.90
  -4   0  12   87.19    8.00
   3   0 -12  230.18   14.20
   3   0 -12  272.57   16.40
  -3   0  12  266.67   14.20
  -3   0  12  266.97   11.30
   2   0 -12   74.69    7.70
   2   0 -12   80.29    8.70
  -2   0  12   96.89    7.20
  -2   0  12   85.89   10.20
  -2   0  12   72.59   12.30
  -2   0  12   73.59    9.20
   1   0 -12  606.94   25.20
   1   0 -12  604.54   28.00
  -1   0  12  566.44   24.30
  -1   0  12  605.54   24.80
  -1   0  12  633.94   28.20
  -1   0  12  546.85   27.40
  -1   0  12  619.94   22.10
   0   0 -12  485.45   23.30
   0   0 -12  539.65   26.00
   0   0 -12  530.05   20.20
   0   0  12  518.45   20.20
   0   0  12  499.35   21.00
   0   0  12  516.45   20.60
   0   0  12  533.05   24.80
  -1   0 -12  388.56   21.80
  -1   0 -12  385.26   20.40
   1   0  12  404.26   16.60
   1   0  12  415.86   20.70
  -2   0 -12   49.80    9.30
  -2   0 -12   53.89    5.40
  -2   0 -12   36.20    8.00
   2   0  12   54.19    9.80
  -3   0 -12  269.97   26.10
  -3   0 -12  253.67   18.10
   3   0  12  271.17   15.60
   3   0  12  305.17   18.60
  -4   0 -12  129.49   14.10
  -4   0 -12   96.79   14.60
   4   0  12  141.39   12.30
   4   0  12  152.68   11.70
   7  -1 -12   16.80    6.80
  -7   1  12   15.00    5.00
  -7   1  12   26.30    8.20
  -7   1  12    8.00    5.00
   6  -1 -12   47.80    6.30
   6  -1 -12   51.29    9.10
  -6   1  12   49.80    7.10
  -6   1  12   61.59    8.20
   5  -1 -12   78.39    7.70
   5  -1 -12   59.49   10.20
  -5   1  12   77.59    6.80
   4  -1 -12  120.19   12.20
   4  -1 -12  112.49    9.10
  -4   1  12  124.29    7.30
  -4   1  12  111.99    6.80
  -4   1  12  121.79   10.10
   3  -1 -12    5.60    4.70
  -3   1  12   -5.50    5.40
  -3   1  12    1.70    3.10
  -3   1  12    2.20    6.30
   2  -1 -12    1.80    1.70
   2  -1 -12   -3.80    3.80
   2  -1 -12   -4.90    2.90
  -2   1  12    4.70    2.50
  -2   1  12   -1.40    4.50
   1  -1 -12  255.37   15.60
   1  -1 -12  247.28   13.40
  -1   1  12  295.37   16.50
  -1   1  12  238.48   12.20
  -1   1  12  253.77   10.20
   0  -1 -12    7.50    4.40
   0  -1 -12    8.40    2.30
   0  -1 -12    8.20    3.60
   0   1  12    5.90    2.90
   0   1  12    7.00    2.00
   0   1  12    8.00    4.40
   0   1  12    7.50    1.90
   0   1  12    6.70    1.10
  -1  -1 -12  234.48   15.20
  -1  -1 -12  243.08   16.10
  -1  -1 -12  245.88   10.40
   1   1  12  229.78   10.30
   1   1  12  238.48   10.60
   1   1  12  257.57   15.40
   1   1  12  221.38   11.40
  -2  -1 -12   15.60    3.80
  -2  -1 -12   12.50    5.30
  -2  -1 -12   13.70    5.90
   2   1  12   21.40    6.20
   2   1  12   16.90    3.80
  -3  -1 -12   43.80    8.80
  -3  -1 -12   60.19   11.60
  -4  -1 -12   -8.20    7.30
   4   1  12   -2.90    4.60
   4   1  12    5.40    4.80
   7  -2 -12   11.30    6.90
  -7   2  12    9.20    4.80
  -7   2  12    5.70    4.20
  -7   2  12   26.80    7.40
   6  -2 -12  139.99   15.30
   6  -2 -12  135.99    9.00
  -6   2  12  129.99   10.10
   5  -2 -12   41.00    8.50
   5  -2 -12   41.80    6.60
  -5   2  12   52.69    9.30
  -5   2  12   41.30    4.90
   4  -2 -12  658.73   31.10
   4  -2 -12  612.14   27.90
  -4   2  12  665.73   28.80
  -4   2  12  611.94   25.30
  -4   2  12  628.04   25.20
   3  -2 -12  205.48   12.90
   3  -2 -12  203.68   14.30
  -3   2  12  216.18    9.50
  -3   2  12  217.28   12.20
  -3   2  12  201.78   11.90
   2  -2 -12   39.10    4.90
   2  -2 -12   38.30    6.60
   2  -2 -12   30.10    6.00
  -2   2  12   42.30    5.20
  -2   2  12   52.69    7.90
   1  -2 -12   -0.30    1.60
   1  -2 -12    3.30    3.00
   1  -2 -12    1.60    3.90
  -1   2  12   12.40    5.50
  -1   2  12    1.80    2.60
   0  -2 -12    0.20    1.50
   0  -2 -12    5.10    4.20
   0   2  12    2.70    4.50
   0   2  12   10.50    5.60
   0   2  12    1.90    2.60
  -1  -2 -12  379.16   16.30
  -1  -2 -12  378.66   21.80
  -1  -2 -12  400.46   21.80
   1   2  12  395.96   15.90
   1   2  12  386.16   23.40
   1   2  12  453.15   21.10
   1   2  12  370.76   16.50
  -2  -2 -12   33.70    7.40
  -2  -2 -12   37.40    3.80
   2   2  12   37.70    5.50
   2   2  12   20.10    8.00
  -3  -2 -12  113.89   14.50
   3   2  12  108.99    9.30
   3   2  12  112.09   14.90
  -4  -2 -12    8.20    7.80
   4   2  12    8.10    4.10
   4   2  12    5.40    5.50
   7  -3 -12    2.20    7.40
  -7   3  12   -2.60    4.00
   6  -3 -12   77.69   14.00
  -6   3  12   96.99   11.20
   5  -3 -12  128.99   14.30
   5  -3 -12  123.69    9.50
  -5   3  12  117.29    8.20
   4  -3 -12  654.53   29.00
   4  -3 -12  654.33   32.00
  -4   3  12  655.53   28.90
  -4   3  12  663.63   26.10
  -4   3  12  647.04   26.10
   3  -3 -12  138.49   12.40
   3  -3 -12  137.19   10.30
  -3   3  12  139.09    9.30
  -3   3  12  158.28    7.10
  -3   3  12  125.09    9.10
   2  -3 -12  405.86   21.20
   2  -3 -12  416.06   19.80
   2  -3 -12  411.76   18.40
  -2   3  12  417.06   21.20
  -2   3  12  399.56   18.60
  -2   3  12  443.36   16.30
  -1   3  12   14.40    5.20
  -1   3  12   24.90    2.30
   0  -3 -12   51.49    4.80
   0  -3 -12   57.29    8.10
   0  -3 -12   65.59    8.70
   0   3  12   58.69    9.80
  -1  -3 -12    8.10    4.70
  -1  -3 -12   -0.50    4.90
  -1  -3 -12    7.50    2.10
   1   3  12   -1.20    2.10
  -2  -3 -12  140.19    7.80
  -2  -3 -12  154.48   13.50
   2   3  12  138.69    9.20
  -3  -3 -12   -1.60    7.00
   3   3  12    0.70    7.50
   3   3  12   -0.80    3.90
   6  -4 -12   -3.10    6.80
  -6   4  12  -10.50    5.40
  -6   4  12   -6.70    3.30
   5  -4 -12   47.30    8.80
  -5   4  12   65.99    6.60
   4  -4 -12    6.10    5.10
  -4   4  12    3.70    2.30
   3  -4 -12  601.34   29.20
   3  -4 -12  574.74   27.30
   3  -4 -12  603.44   25.60
   3  -4 -12  611.14   26.00
  -3   4  12  567.84   26.00
  -3   4  12  579.74   26.20
  -3   4  12  623.34   23.20
   2  -4 -12   62.09    7.00
   2  -4 -12   55.19    7.80
   2  -4 -12   53.09    5.40
  -2   4  12   47.20    5.90
  -2   4  12   55.79    7.80
  -1   4  12   41.10    4.60
  -1   4  12   45.60    3.40
   0  -4 -12   79.59   10.00
   0  -4 -12   63.49    5.50
   0   4  12   76.99    9.80
  -1  -4 -12   59.79    5.10
  -1  -4 -12   49.00    9.40
   1   4  12   65.29    9.30
   1   4  12   54.69   10.30
  -2  -4 -12   21.70    8.40
  -2  -4 -12   15.20    3.10
   2   4  12   19.70    7.40
  -6   5  12   86.79    8.40
   5  -5 -12  130.59   14.70
  -5   5  12  143.59   12.30
   4  -5 -12    3.80    2.80
  -4   5  12   12.80    5.40
  -4   5  12    9.50    2.60
   3  -5 -12  234.08   14.00
   3  -5 -12  251.37   16.90
   3  -5 -12  251.87   13.90
  -3   5  12  274.97   11.00
  -3   5  12  239.38   13.70
  -3   5  12  235.48   14.10
  -2   5  12   29.90    3.10
   1  -5 -12  311.07   19.00
   1  -5 -12  331.67   16.30
  -1   5  12  316.17   19.70
  -1   5  12  367.26   16.50
  -1   5  12  401.26   18.40
   0  -5 -12    6.60    2.70
   0  -5 -12   16.30    5.30
   0   5  12   11.10    4.00
   0   5  12    2.40    6.20
  -1  -5 -12   11.90    6.60
  -1  -5 -12   19.10    3.70
   1   5  12   17.90    7.20
   5  -6 -12   18.80    8.30
  -5   6  12   29.50    7.00
   4  -6 -12   16.70    7.10
   4  -6 -12   12.60    3.50
  -4   6  12   13.60    2.90
   3  -6 -12    9.00    3.40
   3  -6 -12    5.20    5.80
   3  -6 -12    5.80    3.60
  -3   6  12    7.60    3.70
  -2   6  12  112.79    5.90
  -2   6  12   98.79    7.60
  -2   6  12   94.19    9.90
   1  -6 -12    7.40    4.90
   1  -6 -12   -2.50    2.90
  -1   6  12    3.70    5.60
   0  -6 -12   50.99    6.20
   0   6  12   48.20    9.50
   3  -7 -12    2.50    3.60
   3  -7 -12    2.10    3.60
  -3   7  12   -7.00    4.10
  -3   7  12   -9.90    5.70
   2  -7 -12   11.10    3.70
   2  -7 -12   12.40    5.00
  -2   7  12   17.00    5.30
   1  10 -13   27.10    5.60
   1  10 -13   16.90   13.40
  -1 -10  13   34.40    7.10
  -1 -10  13   15.90    5.60
  -1 -10  13   20.80    7.20
   0  10 -13   37.20   10.10
   0  10 -13   40.90   13.40
   0 -10  13   50.09    8.00
   0 -10  13   27.70    8.60
   0 -10  13   33.60    7.00
  -1  10 -13   15.90    7.90
  -1  10 -13   -2.40   11.20
  -1  10 -13    4.50    4.00
   1 -10  13   13.90    5.70
   1 -10  13   15.10    5.10
   1 -10  13   15.80    3.70
   1 -10  13    8.60    8.60
  -2  10 -13   73.09    7.40
   2 -10  13   65.39   10.60
   2 -10  13   39.60   11.70
  -3  10 -13   70.79    7.10
  -3  10 -13   87.19   14.10
   3 -10  13   52.59    8.70
   3 -10  13   77.09   18.70
   2   9 -13   -2.10   10.70
   2   9 -13   -4.80    4.30
   2   9 -13   -0.70    4.60
  -2  -9  13   -3.70    5.30
  -2  -9  13    5.70    4.80
  -2  -9  13    1.80    6.40
   1   9 -13    2.00    3.70
   1   9 -13   -1.50    4.10
   1   9 -13    5.60   10.20
  -1  -9  13   -0.90    5.60
  -1  -9  13   12.30    4.90
  -1  -9  13    4.30    4.80
   0   9 -13    4.30    3.50
   0   9 -13   15.00    5.90
   0   9 -13    9.40   10.00
   0  -9  13   11.80    5.30
   0  -9  13   14.60    5.80
   0  -9  13    4.40    4.20
  -1   9 -13   20.90    7.40
  -1   9 -13   10.60    3.30
   1  -9  13   16.30    5.10
   1  -9  13   18.00    8.20
   1  -9  13   21.40    6.00
  -2   9 -13    3.50    5.90
  -2   9 -13    4.40    2.80
   2  -9  13    1.40    5.00
   2  -9  13    4.90   10.20
  -3   9 -13   62.89   13.50
  -3   9 -13   60.49    7.60
   3  -9  13   64.59   18.90
   3  -9  13   74.19   10.30
  -4   9 -13   20.10    7.00
  -4   9 -13   11.00    4.40
   4  -9  13    5.40   19.00
   4  -9  13   15.40    5.40
   3   8 -13  -10.80    9.10
   3   8 -13   -6.40    4.00
  -3  -8  13    0.00    5.50
  -3  -8  13   -8.10    4.30
   2   8 -13   37.30   11.20
   2   8 -13   36.90    7.00
   2   8 -13   36.80    5.70
  -2  -8  13   56.39    9.00
  -2  -8  13   29.90    7.10
  -2  -8  13   41.60    7.70
   1   8 -13  164.58   11.30
   1   8 -13  131.79   17.00
   1   8 -13  135.09    9.90
  -1  -8  13  110.09   13.50
  -1  -8  13  133.29   11.30
  -1  -8  13  138.19   12.00
   0   8 -13   -0.20    3.10
   0   8 -13    1.70    5.30
   0  -8  13   10.10    4.00
   0  -8  13   10.60    5.10
   0  -8  13    3.10    5.70
  -1   8 -13   39.00    8.50
  -1   8 -13   59.09    5.90
   1  -8  13   58.49    6.70
   1  -8  13   55.29   12.40
   1  -8  13   60.89   10.70
  -2   8 -13   29.70    7.90
  -2   8 -13   14.10    3.20
   2  -8  13   15.60    5.40
   2  -8  13    9.70    9.80
  -3   8 -13   92.39    7.30
  -3   8 -13   84.39   13.70
   3  -8  13   92.59   10.30
   3  -8  13   94.49   20.00
  -4   8 -13  204.08   15.60
  -4   8 -13  161.58   11.50
   4  -8  13  199.68   14.20
   4  -8  13  195.28   29.40
   4   7 -13    0.80    3.80
   4   7 -13    7.30    4.20
   4   7 -13    2.20    7.70
  -4  -7  13   -3.50    4.60
  -4  -7  13   17.10    6.10
   3   7 -13    4.50    4.50
   3   7 -13   15.30    4.80
   3   7 -13   10.80    7.90
  -3  -7  13   12.80    5.40
  -3  -7  13    3.90    5.00
   2   7 -13  290.87   15.50
   2   7 -13  308.37   21.90
   2   7 -13  304.57   16.80
  -2  -7  13  283.87   17.10
  -2  -7  13  289.17   18.50
   1   7 -13    6.00    3.20
   1   7 -13   13.70    5.40
  -1  -7  13    5.00    5.10
  -1  -7  13   14.20    4.20
  -1  -7  13    4.90    8.00
   0   7 -13  459.05   19.70
   0  -7  13  446.46   23.10
   0  -7  13  433.36   21.10
   0  -7  13  390.56   25.60
  -1   7 -13   16.80    7.00
  -1   7 -13    2.30    2.20
   1  -7  13    6.90    3.00
  -2   7 -13   10.80    2.70
   2  -7  13   12.30    8.10
   2  -7  13   36.50   13.20
  -3   7 -13   94.79   12.80
  -3   7 -13   96.59    7.30
   3  -7  13   89.99   10.60
   3  -7  13  104.69   17.00
  -4   7 -13   18.90    6.90
  -4   7 -13   16.20    3.30
   4  -7  13   25.30    6.50
   4  -7  13   22.60   13.20
  -5   7 -13  117.29   10.10
  -5   7 -13  144.39   12.80
   5  -7  13  183.38   26.00
   5  -7  13  121.49   11.90
   5   6 -13   17.00    7.00
  -5  -6  13   29.90    6.90
  -5  -6  13   39.70    8.30
   4   6 -13   40.10    6.90
   4   6 -13   49.30    8.80
   4   6 -13   60.59    7.60
  -4  -6  13   65.69    9.20
  -4  -6  13   61.19   10.70
   3   6 -13   36.90    8.60
   3   6 -13   44.80    6.20
  -3  -6  13   34.20    6.30
  -3  -6  13   54.99    9.70
   2   6 -13   16.40    3.50
   2   6 -13   20.50    5.60
  -2  -6  13   21.40    5.50
  -2  -6  13    8.80    5.20
   1   6 -13  279.67   16.00
   1   6 -13  268.17   13.50
  -1  -6  13  266.27   16.10
  -1  -6  13  262.77   17.20
  -1  -6  13  258.87   15.40
   0   6 -13  315.77   14.40
   0   6 -13  283.77   17.40
   0  -6  13  269.17   16.50
   0  -6  13  302.17   15.70
   0  -6  13  309.07   18.50
   0  -6  13  319.77   18.10
  -1   6 -13   23.70    6.80
  -1   6 -13   27.00    4.10
   1  -6  13   33.20    4.80
   1  -6  13   21.50    8.80
   1  -6  13   34.80    6.60
  -2   6 -13   36.90    4.70
  -2   6 -13   30.60    7.10
   2  -6  13   38.50   16.60
   2  -6  13   23.60    6.20
  -3   6 -13   43.20    9.20
  -3   6 -13   38.80    5.40
   3  -6  13   32.70    6.40
   3  -6  13   -0.60   15.30
  -4   6 -13   17.20    7.60
  -4   6 -13   25.80    6.00
  -4   6 -13   20.50    4.20
   4  -6  13    6.60   15.80
   4  -6  13   25.90    6.30
  -5   6 -13    9.70    6.60
  -5   6 -13   17.80    5.20
  -5   6 -13   -1.20    6.90
   5  -6  13   13.70    5.80
   5   5 -13  279.47   19.70
  -5  -5  13  247.98   16.70
  -5  -5  13  280.37   18.50
  -5  -5  13  330.87   15.30
   4   5 -13   35.80    6.30
   4   5 -13   36.50    7.20
   4   5 -13   43.40    6.60
  -4  -5  13   49.20    8.70
  -4  -5  13   53.19    9.90
   3   5 -13   55.99    6.70
   3   5 -13   47.30    8.00
   3   5 -13   55.99    6.50
  -3  -5  13   62.09    8.80
  -3  -5  13   43.20    7.50
   2   5 -13    4.40    3.00
   2   5 -13    0.00    3.40
  -2  -5  13   -0.40    3.40
  -2  -5  13    0.40    3.60
  -2  -5  13   -3.60    4.20
   1   5 -13   83.09    6.50
   1   5 -13   92.09    8.60
  -1  -5  13   97.09    9.80
  -1  -5  13   86.49    8.00
  -1  -5  13   77.69    9.60
  -1  -5  13  105.79    9.50
   0   5 -13   93.29    9.80
   0   5 -13  106.19    6.70
   0  -5  13  113.79   13.10
   0  -5  13  100.19    7.90
   0  -5  13  101.79    8.60
   0  -5  13  101.19   10.00
  -1   5 -13  409.86   16.90
  -1   5 -13  379.36   21.10
   1  -5  13  385.16   26.60
   1  -5  13  385.56   18.50
   1  -5  13  369.26   20.40
   1  -5  13  363.36   15.10
   1  -5  13  392.36   17.50
  -2   5 -13   58.09    5.50
  -2   5 -13   56.59    9.70
  -2   5 -13   68.39    6.20
   2  -5  13   78.59   16.10
   2  -5  13   49.60    9.00
  -3   5 -13   52.59    7.80
  -3   5 -13   59.09    9.70
  -3   5 -13   52.09    5.80
   3  -5  13   59.89   16.60
   3  -5  13   35.40    6.50
  -4   5 -13   -2.30    6.00
   4  -5  13    4.50   14.90
   4  -5  13   -1.60    5.10
  -5   5 -13   25.30    7.60
  -5   5 -13   18.50    4.90
   5  -5  13   -0.10   15.90
   5  -5  13   18.60    5.90
   6   4 -13  146.39   16.20
  -6  -4  13  192.68   15.30
  -6  -4  13  199.58   12.50
  -6  -4  13  171.98   13.20
  -5  -4  13   55.29    8.00
   4   4 -13  487.55   22.60
   4   4 -13  485.05   23.20
   4   4 -13  500.25   26.80
  -4  -4  13  545.65   21.70
   3   4 -13   20.60    4.90
   3   4 -13   33.20    5.60
   3   4 -13   28.60    6.70
  -3  -4  13   26.50    5.40
   2   4 -13  233.68   14.00
   2   4 -13  245.68   12.10
  -2  -4  13  223.88   13.90
  -2  -4  13  241.38   13.00
  -2  -4  13  216.68   15.60
  -2  -4  13  243.38   13.10
   1   4 -13   21.00    4.60
   1   4 -13   25.30    3.90
  -1  -4  13   27.00    5.00
  -1  -4  13   33.40    5.70
  -1  -4  13   25.60    6.30
  -1  -4  13   17.30    4.10
   0   4 -13  195.68    9.60
   0   4 -13  177.88   13.00
   0  -4  13  218.58   18.10
   0  -4  13  182.88   10.30
   0  -4  13  169.38    8.70
   0  -4  13  167.88   13.10
   0  -4  13  189.48   10.80
  -1   4 -13  374.16   16.10
  -1   4 -13  372.56   21.00
  -1   4 -13  358.26   17.40
   1  -4  13  371.96   17.90
   1  -4  13  378.16   29.80
   1  -4  13  381.56   16.90
   1  -4  13  390.06   20.90
   1  -4  13  438.46   15.30
  -2   4 -13    6.20    5.20
  -2   4 -13    6.90    2.50
  -2   4 -13    3.80    3.40
   2  -4  13    2.90    4.20
  -3   4 -13  131.99    8.90
  -3   4 -13  124.99   11.30
  -3   4 -13  150.38   12.70
   3  -4  13  137.19   12.10
   3  -4  13  153.08   36.80
  -4   4 -13  117.59    8.70
  -4   4 -13   97.09   15.10
  -4   4 -13  104.59   11.40
   4  -4  13   91.69   10.90
  -5   4 -13   58.19    7.60
  -5   4 -13   61.39   11.20
  -5   4 -13   68.49   11.50
   5  -4  13   88.99   21.60
   6   3 -13   -6.40    4.10
   6   3 -13   -8.40    6.60
  -6  -3  13    9.60    6.60
  -6  -3  13    2.80    5.30
   5   3 -13   63.29    7.20
   5   3 -13   49.10    9.00
  -5  -3  13   76.49   11.00
  -5  -3  13   74.69    9.00
   4   3 -13   57.39   10.60
  -4  -3  13   63.99    7.50
  -4  -3  13   58.79    8.80
   3   3 -13  124.19    9.80
   3   3 -13  129.49   12.60
   3   3 -13  142.19    8.40
  -3  -3  13  128.99    8.40
  -3  -3  13  140.39    9.40
  -3  -3  13  147.29   11.10
   2   3 -13  218.98   13.60
   2   3 -13  215.48   10.70
  -2  -3  13  213.18   11.80
  -2  -3  13  206.28   14.90
  -2  -3  13  209.58   12.80
  -2  -3  13  224.48   12.20
  -2  -3  13  216.88   10.50
   1   3 -13   74.69    5.10
   1   3 -13   72.39    8.10
  -1  -3  13   70.49    6.80
  -1  -3  13   78.49    9.40
  -1  -3  13   67.29    6.40
  -1  -3  13   64.59    5.50
   0   3 -13   -0.20    1.80
   0   3 -13    0.10    1.20
   0   3 -13    3.20    2.90
   0   3 -13   -1.20    3.70
   0  -3  13    1.50    2.90
   0  -3  13    0.40    1.70
   0  -3  13   -1.40    2.10
   0  -3  13   -1.90    4.10
  -1   3 -13   48.20    5.30
  -1   3 -13   41.80    4.50
  -1   3 -13   40.10    4.60
  -1   3 -13   59.99    8.40
   1  -3  13   42.50    4.30
   1  -3  13   40.00    5.70
   1  -3  13   35.10    6.80
  -2   3 -13   14.50    4.20
  -2   3 -13   18.20    6.30
   2  -3  13    6.30    4.20
   2  -3  13   28.50   10.90
  -3   3 -13   97.99   11.50
  -3   3 -13   74.79   10.30
  -3   3 -13  101.39    7.80
   3  -3  13  117.29   11.70
  -4   3 -13    3.60    7.00
   4  -3  13    2.90   16.40
   4  -3  13    1.30    5.10
  -5   3 -13   39.60    9.20
  -5   3 -13   59.59   10.60
   5  -3  13   46.00    7.20
   6   2 -13   29.40    6.20
   6   2 -13   31.60    7.70
  -6  -2  13   30.50    7.20
  -6  -2  13   32.50    6.70
  -5  -2  13   85.29    8.50
  -5  -2  13  105.59    7.60
  -5  -2  13  100.79   11.20
   4   2 -13   16.20    5.80
   4   2 -13   10.40    4.00
   4   2 -13   10.60    3.50
  -4  -2  13   21.30    5.20
  -4  -2  13   19.60    4.00
   3   2 -13  304.07   17.00
   3   2 -13  315.57   19.30
   3   2 -13  318.67   14.60
  -3  -2  13  316.37   16.40
  -3  -2  13  334.97   15.50
  -3  -2  13  356.26   15.40
  -3  -2  13  336.47   16.40
  -3  -2  13  340.67   17.80
  -3  -2  13  336.97   14.00
   2   2 -13    0.00    1.70
   2   2 -13    2.70    3.10
  -2  -2  13   -0.40    1.40
  -2  -2  13   -0.40    2.50
  -2  -2  13   -3.10    3.30
  -2  -2  13    4.30    3.30
  -2  -2  13    0.00    3.20
   1   2 -13  747.73   33.00
  -1  -2  13  723.83   33.60
  -1  -2  13  750.62   28.80
  -1  -2  13  640.94   28.30
  -1  -2  13  758.32   33.50
  -1  -2  13  740.43   30.10
   0   2 -13    4.80    2.20
   0   2 -13    3.60    3.60
   0   2 -13    3.90    2.30
   0   2 -13    2.50    1.90
   0  -2  13    4.30    1.90
   0  -2  13    3.50    4.20
   0  -2  13    3.00    2.60
   0  -2  13    4.50    2.50
  -1   2 -13   27.70    6.60
  -1   2 -13   15.60    3.10
   1  -2  13   18.30    2.80
   1  -2  13   15.00    5.10
  -2   2 -13  211.88   12.60
  -2   2 -13  181.18   14.60
  -2   2 -13  189.08   10.60
   2  -2  13  182.68   13.70
  -3   2 -13   -3.60    6.80
  -3   2 -13    1.00    3.30
   3  -2  13   -3.20    4.60
  -4   2 -13  358.36   23.40
  -4   2 -13  448.06   23.90
   4  -2  13  387.96   21.70
   4  -2  13  493.95   34.70
   5  -2  13   72.69   10.40
   6   1 -13   12.60    7.00
   6   1 -13   25.80    5.20
  -6  -1  13   38.20    7.80
  -6  -1  13   12.50    5.20
   5   1 -13    0.20    5.90
   5   1 -13    2.00    3.70
  -5  -1  13   14.00    8.40
  -5  -1  13    3.60    3.60
   4   1 -13  304.07   19.50
   4   1 -13  302.37   16.40
  -4  -1  13  340.07   14.00
  -4  -1  13  314.67   14.50
  -4  -1  13  299.17   17.80
   3   1 -13   32.50    6.80
   3   1 -13   35.60    6.00
   3   1 -13   29.20    5.00
  -3  -1  13   39.90    6.70
  -3  -1  13   28.60    4.00
  -3  -1  13   37.20    5.30
  -3  -1  13   30.40    5.90
  -3  -1  13   29.70    7.00
   2   1 -13  417.96   22.50
   2   1 -13  434.96   16.80
   2   1 -13  405.56   21.40
  -2  -1  13  427.86   20.10
  -2  -1  13  443.66   16.50
  -2  -1  13  412.56   20.50
  -2  -1  13  412.96   22.80
  -2  -1  13  438.76   17.40
   1   1 -13    4.20    1.80
   1   1 -13    5.70    1.50
   1   1 -13    1.40    3.60
  -1  -1  13    3.80    2.00
  -1  -1  13    5.30    4.10
  -1  -1  13    4.40    4.80
  -1  -1  13    1.60    2.90
  -1  -1  13   -1.90    4.70
  -1  -1  13    4.90    2.70
   0   1 -13   73.29    6.30
   0   1 -13   79.59    8.70
   0  -1  13   67.79    5.30
   0  -1  13   70.19    5.40
   0  -1  13   72.09    9.10
   0  -1  13   73.29    5.60
   0  -1  13   64.49    9.50
  -2   1 -13   49.99    6.40
  -2   1 -13   56.89    8.40
  -2   1 -13   58.19   10.30
   2  -1  13   43.80    7.40
  -3   1 -13  141.99   13.00
  -3   1 -13  154.38   14.60
   3  -1  13  154.38   14.20
  -4   1 -13   20.90    7.70
   4  -1  13    9.40    5.10
   6   0 -13   22.30    4.90
   6   0 -13   22.90    7.30
  -6   0  13   31.60    6.60
  -6   0  13   19.90    5.30
   5   0 -13   14.80    5.90
   5   0 -13   24.30    6.10
  -5   0  13   22.30    3.90
  -5   0  13   35.40    9.10
   4   0 -13   12.30    4.20
   4   0 -13   13.70    5.50
  -4   0  13   10.30    3.20
   3   0 -13   71.79   10.30
   3   0 -13   75.39    7.90
  -3   0  13   80.49   11.10
  -3   0  13   85.69   12.90
  -3   0  13   86.39    8.10
   2   0 -13    5.20    3.80
   2   0 -13    5.00    4.30
  -2   0  13    9.80    1.90
  -2   0  13    8.50    3.20
  -2   0  13    6.10    5.30
   1   0 -13   35.20    4.50
   1   0 -13   34.90    6.80
  -1   0  13   34.40    4.70
  -1   0  13   53.59    8.20
   0   0 -13   11.20    3.20
   0   0 -13   12.20    2.90
   0   0 -13    9.80    4.40
   0   0  13    8.20    2.80
   0   0  13   14.80    5.80
   0   0  13    9.90    2.50
  -1   0 -13  573.44   24.40
  -1   0 -13  566.74   28.80
  -1   0 -13  536.35   26.70
   1   0  13  605.24   27.60
   1   0  13  580.74   23.30
  -2   0 -13   12.50    5.40
   2   0  13   15.20    5.50
  -3   0 -13  225.58   17.50
  -3   0 -13  264.27   17.90
   3   0  13  231.68   14.30
   3   0  13  243.68   18.20
  -4   0 -13  113.49   13.90
  -4   0 -13  107.89   13.50
   4   0  13  101.19   12.10
   4   0  13   78.19   10.30
   5  -1 -13  167.18   15.20
   5  -1 -13  155.28   12.80
  -5   1  13  207.98   10.50
  -5   1  13  209.08   16.60
   4  -1 -13  180.18   12.00
  -4   1  13  217.28    9.70
  -4   1  13  198.58   13.20
  -4   1  13  180.48   10.40
   3  -1 -13    3.20    3.50
   3  -1 -13    5.60    5.00
  -3   1  13   -2.30   10.60
  -3   1  13   17.20    6.90
   2  -1 -13   58.59    7.70
   2  -1 -13   60.59    5.10
  -2   1  13   91.19   11.30
  -2   1  13   48.90    6.20
   1  -1 -13  122.39   10.50
   1  -1 -13  119.59    8.80
  -1   1  13  157.08   13.60
  -1   1  13  127.29    5.80
  -1   1  13  122.09    7.90
   0  -1 -13  276.87   15.80
   0  -1 -13  282.47   17.40
   0   1  13  269.27   10.80
   0   1  13  317.47   18.50
  -1  -1 -13   16.90    5.30
   1   1  13   21.30    6.00
   1   1  13   10.60    3.00
  -2  -1 -13   76.19   11.10
  -2  -1 -13   62.79   10.70
   2   1  13   73.99    7.00
  -3  -1 -13   41.90    8.80
  -3  -1 -13   22.20    7.80
   3   1  13   50.19    7.70
   3   1  13   33.60    5.70
   6  -2 -13  131.49    9.70
   6  -2 -13  135.39   16.00
  -6   2  13  176.88   10.30
  -6   2  13  175.18   15.50
  -5   2  13   42.20    5.70
  -4   2  13   80.79    5.70
   3  -2 -13   21.90    5.20
   3  -2 -13   15.80    5.80
  -3   2  13   21.10    4.80
  -3   2  13   26.50    5.60
   2  -2 -13  247.88   13.20
   2  -2 -13  243.48   15.40
  -2   2  13  278.27   10.80
  -2   2  13  296.57   16.40
  -2   2  13  246.48   13.30
   1  -2 -13   10.80    3.40
   1  -2 -13    8.40    4.90
  -1   2  13   13.70    2.10
  -1   2  13   11.70    3.10
  -1   2  13    7.40    5.40
   0  -2 -13   73.49    8.30
   0  -2 -13   82.99    5.40
   0   2  13  111.19   11.00
   0   2  13   82.89    4.20
  -3  -2 -13   70.89   13.30
   3   2  13  118.19   15.60
   3   2  13  104.19   12.50
   6  -3 -13   70.39   12.60
  -6   3  13   93.89   13.30
  -6   3  13   83.69    7.30
   5  -3 -13    2.70    4.30
   5  -3 -13   -2.40    7.50
  -5   3  13   12.00    5.90
   4  -3 -13    6.80    5.70
   4  -3 -13   11.80    4.70
  -4   3  13   14.30    2.80
   3  -3 -13  280.57   18.20
   3  -3 -13  250.67   15.40
  -3   3  13  265.67   14.70
  -3   3  13  257.17   14.70
  -3   3  13  290.67   11.70
   2  -3 -13   65.49    6.70
   2  -3 -13   57.29    5.60
   2  -3 -13   64.79    8.60
  -2   3  13   54.99    6.40
  -2   3  13   69.29    8.70
   1  -3 -13  636.14   26.60
   1  -3 -13  669.43   29.80
  -1   3  13  641.64   24.60
  -1   3  13  666.83   31.40
  -1   3  13  648.64   26.10
   0  -3 -13  244.88   11.50
   0  -3 -13  233.58   16.20
   0  -3 -13  227.18   15.70
   0   3  13  237.88   16.80
  -1  -3 -13   27.00    4.10
   1   3  13   33.80    9.20
  -2  -3 -13   -4.60    7.00
  -6   4  13   90.49   11.80
  -6   4  13   63.89    7.50
   5  -4 -13    2.40    7.00
  -5   4  13   13.60    5.60
   4  -4 -13   -5.00    6.10
  -4   4  13    4.10    2.30
   3  -4 -13    2.70    3.50
   3  -4 -13    0.60    6.00
   3  -4 -13   -0.90    3.40
   3  -4 -13   -2.20    4.50
  -3   4  13   -4.20    4.00
  -3   4  13    1.10    3.40
   2  -4 -13   37.30    5.70
   2  -4 -13   35.50    7.30
  -2   4  13   59.39    8.80
  -2   4  13   59.09    6.00
  -2   4  13   50.89    3.80
   1  -4 -13  210.48   11.50
   1  -4 -13  213.18   19.80
  -1   4  13  225.18   15.90
  -1   4  13  221.88    9.60
   0  -4 -13   18.10    6.30
   0   4  13   25.10    7.40
   0   4  13   16.10    6.70
  -1  -4 -13  197.58   16.00
  -1  -4 -13  200.28   10.80
   1   4  13  243.98   15.20
   1   4  13  198.88   17.60
   5  -5 -13   41.80    8.50
  -5   5  13   45.50    8.30
   4  -5 -13  187.78   16.30
  -4   5  13  162.58   11.40
  -4   5  13  159.98   13.10
  -3   5  13   47.10    6.90
  -3   5  13   60.19    4.30
   2  -5 -13    0.80    2.90
   2  -5 -13    2.00    4.10
  -2   5  13    3.80    1.90
  -2   5  13   -0.90    4.80
   1  -5 -13   71.89    9.40
  -1   5  13   67.99    4.70
  -1   5  13   79.19   10.60
   0  -5 -13   85.39   10.90
   0   5  13   85.49   11.70
   4  -6 -13   16.40    7.00
   4  -6 -13   11.30    3.70
  -4   6  13   -6.40    6.90
   3  -6 -13   95.09    8.90
   3  -6 -13   90.59    8.40
  -3   6  13  124.29    6.80
  -3   6  13  104.29    9.20
   2  -6 -13   64.79    7.00
   2  -6 -13   64.59    8.50
  -2   6  13   62.19    5.20
   1  -6 -13   -0.50    5.30
   1  -6 -13    5.90    3.20
   0  10 -14   64.69   17.30
   0  10 -14   68.09    8.50
   0 -10  14   77.29    9.20
   0 -10  14   98.59   13.80
   0 -10  14   80.09   12.20
  -1  10 -14    3.40    3.80
  -1  10 -14   10.80    7.30
   1 -10  14   10.10    4.30
   1 -10  14    6.90    6.40
   1 -10  14    9.00    7.70
   2   9 -14  426.06   21.60
   2   9 -14  410.76   29.40
   2   9 -14  408.96   20.50
  -2  -9  14  391.16   21.90
  -2  -9  14  389.06   21.90
  -2  -9  14  368.56   23.20
   1   9 -14   20.20   12.10
   1   9 -14    6.60    5.20
  -1  -9  14   -3.50    5.40
  -1  -9  14    3.40    5.50
  -1  -9  14   -1.20    6.30
   0   9 -14   69.59   12.50
   0   9 -14   82.79    8.00
   0  -9  14   69.99   12.20
   0  -9  14   82.99    9.20
   0  -9  14   57.29   11.30
  -1   9 -14   34.70    6.20
  -1   9 -14   25.60    7.30
   1  -9  14   28.60    7.10
   1  -9  14   39.80    7.50
   1  -9  14   32.00   10.30
  -2   9 -14   24.40    4.30
  -2   9 -14   45.80    9.70
   2  -9  14   16.60   10.50
   2  -9  14   28.40    7.30
  -3   9 -14   37.80    9.50
  -3   9 -14   51.69    7.30
   3  -9  14   32.40    6.80
   3  -9  14   67.89   18.60
   3   8 -14  398.76   20.50
   3   8 -14  410.66   19.80
  -3  -8  14  368.86   20.80
  -3  -8  14  378.36   22.20
   2   8 -14   20.70    4.70
   2   8 -14   20.30    5.90
  -2  -8  14   22.30    5.90
  -2  -8  14   12.10    6.40
  -2  -8  14   19.00    7.10
   1   8 -14  231.88   15.20
   1   8 -14  196.78   12.40
  -1  -8  14  222.68   14.60
  -1  -8  14  215.18   16.00
  -1  -8  14  214.98   16.70
   0   8 -14   -0.60    2.80
   0   8 -14   10.50    6.20
   0  -8  14    7.30    7.20
   0  -8  14    2.10    6.80
   0  -8  14    4.30    5.40
  -1   8 -14    4.10    5.40
  -1   8 -14    1.00    2.80
   1  -8  14    4.70    5.10
   1  -8  14    3.60    9.80
   1  -8  14    4.00    3.90
  -2   8 -14   15.50    3.70
  -2   8 -14    9.20    6.10
   2  -8  14   30.50   12.00
   2  -8  14    3.40    5.40
  -3   8 -14  130.19    9.30
  -3   8 -14  148.69   14.70
   3  -8  14  134.79   12.80
   3  -8  14  194.58   32.80
   4  -8  14   31.10   18.80
   4   7 -14   12.00    4.30
  -4  -7  14    6.60    5.50
  -4  -7  14   13.30    6.70
   3   7 -14  160.58   12.00
   3   7 -14  187.58   11.40
  -3  -7  14  161.78   13.50
  -3  -7  14  141.59   12.00
   2   7 -14   78.09    7.70
  -2  -7  14   78.39   10.40
  -2  -7  14   78.99   11.50
  -2  -7  14   79.79    9.80
   1   7 -14   11.60    4.60
   1   7 -14    9.00    3.10
  -1  -7  14   12.30    5.40
  -1  -7  14    2.70    5.20
   0   7 -14   66.09    9.40
   0   7 -14   48.00    5.60
   0  -7  14   64.79    7.30
   0  -7  14   41.90    7.60
   0  -7  14   63.79   10.40
  -1   7 -14   20.60    6.80
  -1   7 -14   11.00    2.70
   1  -7  14    7.70   10.50
   1  -7  14   13.70    5.90
   1  -7  14   15.20    3.80
  -2   7 -14  274.27   19.60
  -2   7 -14  291.37   14.10
   2  -7  14  292.87   18.30
   2  -7  14  297.67   32.50
  -3   7 -14    2.10    6.30
  -3   7 -14    7.90    2.90
   3  -7  14    1.50    5.40
   3  -7  14   41.20   19.70
  -4   7 -14   43.70    7.10
  -4   7 -14   32.00    8.10
   4  -7  14   49.60   17.20
   4  -7  14   42.80    7.40
   4   6 -14  240.78   14.80
   4   6 -14  260.17   18.80
  -4  -6  14  244.18   16.30
  -4  -6  14  276.37   17.60
   3   6 -14   61.69    8.10
   3   6 -14   54.69    6.70
  -3  -6  14   47.30    8.20
  -3  -6  14   67.49   10.20
   2   6 -14    6.70    4.40
   2   6 -14    3.30    3.10
  -2  -6  14    6.20    5.20
  -2  -6  14   12.60    4.10
  -2  -6  14   -1.00    5.40
   1   6 -14    3.80    5.80
   1   6 -14    1.60    2.60
  -1  -6  14    2.20    3.40
  -1  -6  14   -6.50    8.60
   0   6 -14  101.29   17.30
   0   6 -14  140.29    8.30
   0  -6  14  126.69   19.40
   0  -6  14  133.49    9.40
  -1   6 -14  141.89   14.60
  -1   6 -14  121.79    9.80
   1  -6  14  182.18   25.20
   1  -6  14  145.19    9.20
   1  -6  14  131.49   13.70
  -2   6 -14   -1.90    5.40
  -2   6 -14    4.90    2.50
   2  -6  14   15.50   14.00
   2  -6  14    0.10    4.90
  -3   6 -14  260.27   13.20
  -3   6 -14  236.38   17.60
   3  -6  14  235.78   16.10
   3  -6  14  238.68   37.30
  -4   6 -14   -0.90    6.50
  -4   6 -14   -1.00    3.40
   4  -6  14   -4.00    5.10
   4  -6  14    9.80   15.80
   5   5 -14  171.38   17.00
   5   5 -14  167.18   12.40
  -5  -5  14  212.08   13.90
  -5  -5  14  170.28   15.50
  -5  -5  14  182.48   12.10
   4   5 -14   -3.80    6.30
   4   5 -14    7.90    4.20
  -4  -5  14    3.50    4.20
  -4  -5  14    7.80    3.20
  -4  -5  14   11.60    5.50
   3   5 -14    9.30    3.40
  -3  -5  14    1.40    4.00
  -3  -5  14   11.60    5.60
   2   5 -14  124.79    8.60
   2   5 -14  131.09   10.70
  -2  -5  14  135.89   20.90
  -2  -5  14  120.59   10.80
  -2  -5  14  147.39   10.90
   1   5 -14  279.57   16.30
   1   5 -14  265.47   12.90
  -1  -5  14  254.67   14.60
  -1  -5  14  278.77   17.10
  -1  -5  14  240.58   16.90
   0   5 -14   -0.50    4.70
   0   5 -14    5.70    2.30
   0  -5  14    7.40    3.40
   0  -5  14    6.80    8.80
   0  -5  14   -1.70    4.80
  -1   5 -14    1.90    2.40
  -1   5 -14    5.70    5.30
   1  -5  14   -5.50    7.10
   1  -5  14   -2.30    2.30
   1  -5  14   14.40   12.50
  -2   5 -14   10.00    2.50
   2  -5  14    6.70   11.70
  -3   5 -14  222.28   11.60
  -3   5 -14  189.78   16.20
  -3   5 -14  197.28   13.00
   3  -5  14  186.58   31.10
   3  -5  14  186.98   14.80
  -4   5 -14    3.70    3.40
  -4   5 -14   11.20    5.50
  -4   5 -14    4.40    6.50
   4  -5  14   36.10   13.90
   5   4 -14    8.90    6.60
  -5  -4  14   16.40    5.70
  -5  -4  14   14.70    4.60
  -5  -4  14   15.70    5.10
   4   4 -14  179.48   12.50
   4   4 -14  177.18   16.00
  -4  -4  14  205.78   15.00
  -4  -4  14  199.38   12.90
  -4  -4  14  194.48   10.60
   3   4 -14   36.40    6.60
   3   4 -14   20.60    6.40
  -3  -4  14   42.40    7.20
  -3  -4  14   35.00    6.40
   2   4 -14  702.93   32.10
   2   4 -14  709.23   28.70
  -2  -4  14  719.13   30.60
  -2  -4  14  718.83   31.40
  -2  -4  14  691.43   33.60
   1   4 -14  246.18   15.60
   1   4 -14  251.37   12.10
  -1  -4  14  282.47   17.20
  -1  -4  14  246.28   13.70
  -1  -4  14  234.48   16.60
   0   4 -14  765.52   29.40
   0   4 -14  707.83   34.10
   0  -4  14  701.73   30.40
   0  -4  14  678.83   33.70
   0  -4  14  859.51   38.20
  -1   4 -14   46.20    8.70
  -1   4 -14   62.19    4.80
   1  -4  14   61.69    9.00
   1  -4  14   57.79    5.20
  -2   4 -14   -0.40    3.20
   2  -4  14   -1.50    4.60
   2  -4  14    1.90   13.20
  -3   4 -14   36.90    8.10
  -3   4 -14   66.09   11.20
  -3   4 -14   42.10    6.10
   3  -4  14   58.79   10.20
  -4   4 -14  206.78   15.90
  -4   4 -14  237.88   17.60
  -4   4 -14  184.78   12.60
   4  -4  14  222.38   15.60
   6   3 -14  101.99    9.70
   6   3 -14  120.29   15.40
  -6  -3  14  131.79   11.70
  -6  -3  14  106.49   13.80
   5   3 -14   -2.00    5.40
  -5  -3  14    7.90    4.40
  -5  -3  14   -3.30    3.20
  -5  -3  14    0.80    5.30
   4   3 -14   45.60    9.40
   4   3 -14   38.30    7.00
  -4  -3  14   45.90    5.50
  -4  -3  14   63.09   11.60
  -4  -3  14   60.29    7.20
   3   3 -14   56.79    7.40
   3   3 -14   65.39   10.10
   3   3 -14   47.00    6.30
  -3  -3  14   72.19    8.50
  -3  -3  14   68.59    5.10
  -3  -3  14   80.09    7.30
   2   3 -14    5.00    2.40
   2   3 -14   11.10    4.60
  -2  -3  14    4.60    3.50
   1   3 -14  454.15   18.20
   1   3 -14  441.16   22.80
  -1  -3  14  442.06   20.40
  -1  -3  14  395.46   23.00
  -1  -3  14  450.85   21.00
   0   3 -14   51.79    4.70
   0   3 -14   54.09    8.30
   0   3 -14   54.09    4.00
   0  -3  14   40.70    7.60
   0  -3  14   46.70    5.00
  -1   3 -14   44.60    8.90
  -1   3 -14   47.30    5.50
  -1   3 -14   55.79    5.40
   1  -3  14   46.10    9.00
   1  -3  14   51.89    4.50
  -3   3 -14  221.58   17.70
  -3   3 -14  214.18   14.90
   3  -3  14  226.28   15.70
  -4   3 -14   24.30    8.40
  -4   3 -14   18.80    7.10
   4  -3  14   35.00    6.90
   4  -3  14  -21.80   16.80
   6   2 -14  123.49   14.60
   6   2 -14  138.59   10.40
  -6  -2  14  172.98   11.70
  -6  -2  14  168.38   15.60
  -6  -2  14  149.49   12.00
   5   2 -14   67.19    7.70
   5   2 -14   49.40    9.40
  -5  -2  14   56.49    7.00
  -5  -2  14   85.79   11.60
   4   2 -14  119.79    9.90
   4   2 -14  126.59   14.20
  -4  -2  14  132.99    9.20
  -4  -2  14  122.89    7.70
  -4  -2  14  138.69   11.70
   3   2 -14    5.10    5.30
   3   2 -14   16.00    4.30
  -3  -2  14    5.90    3.70
  -3  -2  14   10.30    2.60
  -3  -2  14   11.70    4.00
  -3  -2  14    1.40    5.90
   2   2 -14    2.00    3.40
  -2  -2  14   -1.80    2.60
  -2  -2  14    4.60    5.30
  -2  -2  14    0.10    4.80
   1   2 -14  146.59   11.30
  -1  -2  14  127.09    8.90
  -1  -2  14  161.98   17.70
  -1  -2  14  139.19    8.10
  -1  -2  14  118.79   12.30
   0   2 -14   18.50    3.40
   0   2 -14   24.80    3.70
   0   2 -14   27.50    6.30
   0  -2  14   22.30    5.80
   0  -2  14   27.60    4.20
   0  -2  14   27.60    7.80
   0  -2  14   26.10    4.50
  -1   2 -14  330.67   20.70
  -1   2 -14  332.57   17.20
   1  -2  14  334.67   19.80
   1  -2  14  413.86   22.20
  -2   2 -14   -1.10    6.30
  -2   2 -14   -1.50    4.10
   2  -2  14   -1.60    4.90
  -4   2 -14    0.80    7.80
  -4   2 -14   -5.10   12.50
   4  -2  14   -8.10    4.70
   6   1 -14  220.18   17.80
   6   1 -14  223.28   13.60
  -6  -1  14  264.27   18.00
  -6  -1  14  249.78   13.90
  -6  -1  14  219.78   14.00
   5   1 -14  392.76   20.10
   5   1 -14  413.76   24.60
  -5  -1  14  420.36   18.60
  -5  -1  14  389.66   22.50
  -5  -1  14  415.56   18.70
   4   1 -14  373.86   19.60
   4   1 -14  371.36   23.10
  -4  -1  14  400.36   20.60
  -4  -1  14  389.76   16.60
  -4  -1  14  371.56   16.70
   3   1 -14   54.59    7.60
   3   1 -14   47.40    9.90
  -3  -1  14   50.99    9.60
  -3  -1  14   64.39    4.70
  -3  -1  14   48.50    7.50
   2   1 -14   31.70    6.50
  -2  -1  14   29.00    7.00
  -2  -1  14   29.10    2.80
  -2  -1  14   33.10    5.80
   1   1 -14    6.90    2.00
   1   1 -14   11.00    4.80
  -1  -1  14    9.60    2.40
  -1  -1  14    6.20    3.00
  -1  -1  14   -4.90    4.80
   0   1 -14  376.66   18.30
   0   1 -14  410.36   22.20
   0  -1  14  397.46   17.20
   0  -1  14  400.86   16.70
   0  -1  14  362.16   19.60
   0  -1  14  441.76   22.40
  -2   1 -14  265.17   19.40
  -2   1 -14  320.37   18.00
   2  -1  14  293.47   19.00
  -3   1 -14    7.20    7.00
   3  -1  14   16.30    6.20
  -4   1 -14    9.40    7.50
  -4   1 -14   20.00    7.90
   4  -1  14   -1.20    5.20
   4  -1  14   -5.90    5.60
   6   0 -14   13.00    8.30
   6   0 -14   13.00    5.00
  -6   0  14   20.80    6.70
  -6   0  14   29.20    7.40
   5   0 -14  436.56   25.80
   5   0 -14  410.36   21.10
  -5   0  14  433.06   19.20
  -5   0  14  468.05   23.80
   4   0 -14    7.00    6.40
   4   0 -14   -2.50    3.80
  -4   0  14    4.40    2.30
   3   0 -14   61.19    7.90
  -3   0  14   68.79    7.80
  -3   0  14   70.39   11.50
  -3   0  14   62.49    4.60
   2   0 -14   44.20    6.90
  -2   0  14   40.70    6.30
  -2   0  14   49.30    9.30
  -2   0  14   40.60    3.50
   1   0 -14  160.18    8.90
   1   0 -14  140.79   12.20
  -1   0  14  142.19    8.90
  -1   0  14  149.19   15.00
   0   0 -14    6.10    5.90
   0   0  14    3.10    2.10
   0   0  14   -0.50    5.80
  -1   0 -14  172.38   12.40
  -1   0 -14  186.28   15.20
   1   0  14  197.78   15.00
  -2   0 -14   30.40    8.60
  -2   0 -14    7.60    6.70
   2   0  14   31.30    8.00
   2   0  14   18.90    4.40
  -3   0 -14   22.50    8.00
  -3   0 -14   16.90    7.00
   3   0  14    5.80    6.70
   3   0  14   17.20    5.00
   6  -1 -14    5.40    4.40
   6  -1 -14    0.40    7.10
  -6   1  14   10.70    6.60
   5  -1 -14    5.90    6.90
   5  -1 -14   -0.60    4.40
  -5   1  14    9.40    5.50
  -5   1  14    7.80    3.00
   4  -1 -14  144.49   14.40
   4  -1 -14  130.59   11.00
  -4   1  14  170.68   11.50
  -4   1  14  135.69    8.20
  -4   1  14  136.49    8.70
   3  -1 -14   52.59    8.00
  -3   1  14   56.09    4.60
  -3   1  14   62.89    8.90
  -3   1  14   36.60    7.20
   2  -1 -14   10.90    2.80
   2  -1 -14   11.90    4.70
  -2   1  14   11.50    3.50
  -2   1  14   30.60    7.60
   1  -1 -14   53.49    8.50
   1  -1 -14   49.50    6.10
  -1   1  14   56.89    3.50
  -1   1  14   60.39    5.40
   0  -1 -14  121.79   10.10
   0  -1 -14  130.29   12.30
   0   1  14  170.48   14.30
  -1  -1 -14   50.19    8.60
  -1  -1 -14   48.30    9.80
   1   1  14   43.60    4.90
  -2  -1 -14   47.80    9.30
  -2  -1 -14   69.29   11.30
   2   1  14   46.40    6.60
  -3  -1 -14    5.20    6.80
  -3  -1 -14    4.60    7.40
   3   1  14   10.40    4.70
   3   1  14   17.70    6.50
   5  -2 -14   -1.00    6.10
   5  -2 -14   10.60    5.40
  -5   2  14   11.90    6.20
  -5   2  14   12.70    3.30
   4  -2 -14  190.38   16.10
   4  -2 -14  171.08   12.20
  -4   2  14  173.18    9.60
  -4   2  14  172.78   13.10
   3  -2 -14    3.50    4.60
   3  -2 -14    8.40    5.50
  -3   2  14    9.00    3.90
  -3   2  14    2.50    2.00
  -3   2  14    1.90    4.20
   2  -2 -14  261.57   17.70
   2  -2 -14  273.57   14.00
  -2   2  14  265.87   14.00
  -2   2  14  286.87   11.50
  -2   2  14  291.57   17.20
   1  -2 -14   72.49    7.60
   1  -2 -14   57.99    9.30
  -1   2  14   81.49    6.00
   0  -2 -14    1.80    4.80
   0  -2 -14    2.90    4.20
   0   2  14   24.40    8.10
  -1  -2 -14    3.10    2.00
  -1  -2 -14    6.00    6.50
   1   2  14   20.50    9.10
  -5   3  14   82.49   11.20
   3  -3 -14   43.50    8.60
  -3   3  14   48.70    7.20
  -3   3  14   52.49    4.60
  -3   3  14   64.09    8.10
   0  -3 -14    4.20    2.30
   0  -3 -14    5.10    5.80
   0  -3 -14    2.50    4.80
  -1  -3 -14  274.87   18.80
  -1  -3 -14  268.97   13.10
   1   3  14  341.87   21.90
   5  -4 -14   23.10    8.90
  -5   4  14   27.80    7.10
  -5   4  14   25.40    4.70
   4  -4 -14   57.39   10.60
  -4   4  14   70.29    6.10
  -4   4  14   60.29    9.60
  -3   4  14   88.89    5.60
  -3   4  14   95.89    8.50
   2  -4 -14   -0.80    4.10
   2  -4 -14    5.40    4.10
  -2   4  14    6.30    5.20
  -2   4  14    9.80    5.30
   1  -4 -14   42.30    5.20
   0  -4 -14   62.79    6.40
   0  -4 -14   60.89   10.40
   0   4  14   83.19   13.00
   4  -5 -14    9.60    7.40
  -4   5  14   -6.30    7.50
  -4   5  14    0.40    2.70
   3  -5 -14   80.69    8.10
   3  -5 -14   96.49    8.40
  -3   5  14   94.09    9.40
  -3   5  14  101.79    6.00
  -3   5  14  116.89    9.10
   2  -5 -14   18.80    4.90
   2  -5 -14   15.10    4.00
  -2   5  14   15.60    6.40
   1  -5 -14   39.00    6.10
   1   9 -15  243.78   16.90
   1   9 -15  242.78   13.50
  -1  -9  15  200.98   17.30
  -1  -9  15  265.87   18.40
  -1  -9  15  262.97   16.00
   0   9 -15   66.89   12.30
   0   9 -15   60.09    6.80
   0  -9  15   50.69    9.50
   0  -9  15   53.09    9.00
  -1   9 -15   73.29   12.30
  -1   9 -15   51.79    6.90
   1  -9  15   41.70    8.00
   1  -9  15   29.70   10.30
  -2   9 -15  221.98   12.30
  -2   9 -15  218.78   18.80
   2  -9  15  235.48   28.80
   2  -9  15  188.18   16.30
   2   8 -15   73.29    7.90
  -2  -8  15   76.09   10.10
  -2  -8  15   68.39   10.80
  -2  -8  15   87.99   11.00
   1   8 -15  336.57   19.40
   1   8 -15  318.07   15.90
  -1  -8  15  317.97   19.70
  -1  -8  15  294.57   19.90
  -1  -8  15  302.07   17.70
   0   8 -15   90.29    7.70
   0   8 -15  101.29   12.20
   0  -8  15   79.89   11.80
   0  -8  15   85.09    9.40
   0  -8  15  119.29   15.30
  -1   8 -15  280.37   20.40
  -1   8 -15  338.57   15.40
   1  -8  15  311.77   16.80
   1  -8  15  303.87   28.50
   1  -8  15  316.47   19.60
  -2   8 -15   14.60    3.00
  -2   8 -15   18.90    8.10
   2  -8  15   12.20   16.10
   2  -8  15   -0.10    6.00
  -3   8 -15   90.09   12.80
   3  -8  15   62.69   11.20
   3   7 -15   16.90    5.70
  -3  -7  15   18.50    6.80
  -3  -7  15    7.20    4.80
  -3  -7  15   14.10    5.90
   2   7 -15    6.40    5.10
   2   7 -15    9.50    4.10
  -2  -7  15    3.30    4.70
  -2  -7  15   10.00    6.20
  -2  -7  15    1.10    4.80
   1   7 -15   73.29    6.70
  -1  -7  15   89.39   12.20
  -1  -7  15   48.70    9.20
   0   7 -15  182.88   10.20
   0   7 -15  153.08   14.90
   0  -7  15  176.08   11.90
   0  -7  15  190.98   18.80
   0  -7  15  173.78   14.90
  -1   7 -15   30.90    5.20
  -1   7 -15   33.80    7.80
   1  -7  15   20.40    7.20
   1  -7  15   33.60    6.10
   1  -7  15   55.69   13.40
  -2   7 -15   77.79   11.90
  -2   7 -15   83.29    6.90
   2  -7  15   65.79   11.10
   2  -7  15   77.39   17.20
  -3   7 -15   85.69   11.90
  -3   7 -15   83.99    7.10
   3  -7  15   59.69   19.00
   3  -7  15   57.49   10.90
   4   6 -15    8.00    5.10
  -4  -6  15    2.50    6.10
  -4  -6  15   -2.30    4.80
   3   6 -15  119.29   10.60
  -3  -6  15   80.39   12.60
  -3  -6  15   95.59   10.60
  -3  -6  15  119.79   12.40
   2   6 -15  175.38   13.10
   2   6 -15  163.48   10.40
  -2  -6  15  174.98   15.40
  -2  -6  15  181.68   14.10
   1   6 -15   -1.20    4.50
   1   6 -15   -0.40    2.90
  -1  -6  15   -8.70    5.20
  -1  -6  15    9.60    3.70
  -1  -6  15   -5.90    7.00
   0   6 -15  237.88   16.90
   0   6 -15  255.57   12.30
   0  -6  15  212.28   16.40
   0  -6  15  244.88   24.00
   0  -6  15  250.27   14.10
  -1   6 -15    6.10    5.80
   1  -6  15   -5.50    4.60
   1  -6  15    7.50    3.30
   1  -6  15   -3.80   12.80
  -2   6 -15   27.00    4.00
  -2   6 -15   27.10    7.20
   2  -6  15    4.20   17.80
   2  -6  15   16.70    6.00
  -3   6 -15   13.80    7.80
  -3   6 -15   16.70    3.60
   3  -6  15   41.80   18.30
   3  -6  15   12.00    5.90
   4   5 -15   69.69    8.80
   4   5 -15   73.99   12.30
  -4  -5  15  107.39   11.90
  -4  -5  15   86.69    9.80
   3   5 -15   65.39    8.70
  -3  -5  15   90.89    9.60
  -3  -5  15   50.89    9.50
  -3  -5  15   86.49   10.30
   2   5 -15   88.59    9.70
  -2  -5  15   93.39    9.20
   1   5 -15  267.57   16.70
   1   5 -15  245.48   12.60
  -1  -5  15  204.68   16.50
  -1  -5  15  253.67   14.40
  -1  -5  15  272.17   23.10
   0   5 -15   88.69   10.90
   0  -5  15   85.09    7.60
   0  -5  15   66.19   10.90
  -1   5 -15   10.80    6.10
   1  -5  15   24.90   15.50
   1  -5  15    5.90    3.00
   1  -5  15   15.20    5.80
  -2   5 -15   25.90    4.00
  -2   5 -15   21.30    7.00
   2  -5  15   -8.70   15.10
   2  -5  15   21.90    5.80
  -3   5 -15   79.39   12.00
   3  -5  15   78.49   19.00
   3  -5  15   61.19   10.80
   4  -5  15   26.50   15.50
   5   4 -15  191.98   17.60
   5   4 -15  183.88   13.40
  -5  -4  15  196.78   13.70
  -5  -4  15  206.88   16.40
   4   4 -15    1.90    5.90
   4   4 -15   10.40    5.10
  -4  -4  15   11.40    4.70
  -4  -4  15   17.30    5.90
   3   4 -15   58.99    8.80
  -3  -4  15   58.69    9.30
  -3  -4  15   73.29    9.60
   2   4 -15   24.30    7.00
  -2  -4  15    6.80    6.10
  -2  -4  15   18.80    4.60
   1   4 -15   18.30    3.40
   1   4 -15   22.90    6.10
  -1  -4  15   30.30    5.20
  -1  -4  15   33.90    7.60
   0   4 -15   27.20    4.50
   0   4 -15   34.50    7.60
   0  -4  15   30.90    5.10
   0  -4  15   25.40    6.50
  -1   4 -15  262.17   18.10
   1  -4  15  260.97   12.30
   1  -4  15  248.68   17.10
  -2   4 -15   89.69   12.20
  -2   4 -15   85.89    7.80
   2  -4  15  109.79   11.90
  -3   4 -15   79.89   12.10
  -3   4 -15   58.09    9.20
   3  -4  15   74.69   11.50
   5   3 -15    8.00    6.40
   5   3 -15    5.60    6.40
  -5  -3  15   17.60    6.20
  -5  -3  15    9.30    4.90
   4   3 -15  152.88   15.50
  -4  -3  15  173.28   14.00
   3   3 -15   18.70    6.60
   3   3 -15   21.00    6.70
  -3  -3  15   18.30    7.50
  -3  -3  15   28.60    5.70
  -3  -3  15   26.90    6.10
   2   3 -15   26.70    6.50
  -2  -3  15   38.30    8.70
  -2  -3  15   42.10    7.70
  -2  -3  15   43.50    7.00
  -1  -3  15   90.19    8.10
  -1  -3  15  141.39   20.40
   0   3 -15  101.09    7.50
   0   3 -15  124.09   12.80
   0  -3  15  112.59    7.50
   0  -3  15   95.69   17.60
  -1   3 -15  179.08   10.20
  -1   3 -15  180.08   15.10
   1  -3  15  183.48   14.80
  -3   3 -15  379.96   24.90
  -3   3 -15  447.96   22.60
   3  -3  15  443.36   23.40
   5   2 -15  139.49   11.50
   5   2 -15  147.59   15.80
  -5  -2  15  167.08   14.50
  -5  -2  15  155.78   11.20
   4   2 -15   97.19    9.50
   4   2 -15   95.69   13.80
  -4  -2  15   90.79    8.90
  -4  -2  15   88.39   17.90
   3   2 -15   43.80    7.90
   3   2 -15   41.90    7.70
  -3  -2  15   51.89    8.90
  -3  -2  15   52.09    9.80
   2   2 -15  186.98   13.70
  -2  -2  15  134.29   16.00
  -2  -2  15  192.68   11.80
  -1  -2  15    6.80    6.20
  -1  -2  15    5.80    3.10
  -1  -2  15    5.60    7.30
   0   2 -15    4.40    5.00
   0   2 -15    0.80    2.30
   0  -2  15    6.80    2.50
   0  -2  15    4.10    7.40
  -1   2 -15   74.59    7.50
  -1   2 -15   92.39   11.50
   1  -2  15  120.09   16.20
   1  -2  15   87.69   12.00
  -3   2 -15  168.88   13.60
  -3   2 -15  147.29   15.60
   3  -2  15  144.49   14.60
   5   1 -15   63.49   11.80
  -5  -1  15   62.19   10.60
  -5  -1  15   47.30    7.10
   4   1 -15    1.60    4.50
   4   1 -15    9.20    6.50
  -4  -1  15    2.30    5.20
   3   1 -15  570.34   28.50
   3   1 -15  636.34   31.70
  -3  -1  15  605.54   39.90
  -3  -1  15  640.94   28.40
   2   1 -15  137.59   12.50
  -2  -1  15  134.19   15.60
  -2  -1  15  130.99   10.10
   1   1 -15  259.57   22.70
   1   1 -15  274.07   13.90
  -1  -1  15  274.47   19.90
  -1  -1  15  262.07   13.40
   0   1 -15    0.60    5.40
   0   1 -15    0.50    2.80
   0  -1  15   -2.50    4.10
   0  -1  15   -0.30    7.10
  -1   1 -15    1.30    6.00
  -1   1 -15   -0.80    3.90
   1  -1  15   -4.40    6.00
  -2   1 -15  131.19   12.00
  -2   1 -15  139.29   14.70
   2  -1  15  138.09   14.50
  -3   1 -15   47.10   10.10
  -3   1 -15   28.70    9.10
   3  -1  15   39.00    8.20
  -5   0  15   75.59    6.30
  -5   0  15   61.89   10.80
   4   0 -15  136.79   15.50
   4   0 -15  128.99   11.00
  -4   0  15  160.08   22.00
  -4   0  15  158.08   12.60
   3   0 -15  248.68   15.60
   3   0 -15  235.08   18.10
  -3   0  15  221.18   14.00
  -3   0  15  203.28   27.70
  -2   0  15  269.87   14.40
  -2   0  15  277.67   21.90
   1   0 -15  287.17   18.30
   1   0 -15  297.17   14.60
  -1   0  15  319.67   20.70
  -1   0  15  281.57   13.90
   0   0 -15   10.50    5.20
   0   0 -15    4.80    3.50
   0   0  15    8.10    7.50
  -1   0 -15    5.60    6.70
  -1   0 -15    9.70    4.70
   1   0  15    3.10    3.20
   1   0  15    1.60    6.50
  -2   0 -15   -1.60    6.90
  -2   0 -15   -3.20    5.30
   2   0  15   10.00    7.80
   2   0  15    3.70    3.90
   5  -1 -15   -0.80    5.00
   5  -1 -15    4.90    7.00
  -5   1  15   18.60    6.40
   3  -1 -15   -4.00    5.20
  -3   1  15   -1.80    3.80
   2  -1 -15   55.49    9.20
   2  -1 -15   59.89    5.60
  -2   1  15   72.59    6.90
   1  -1 -15   11.30    6.10
   1  -1 -15   17.00    3.80
  -1   1  15   15.70    4.30
   0  -1 -15  172.88   14.80
   0  -1 -15  168.88   11.40
  -1  -1 -15  100.59   10.10
  -1  -1 -15   88.99   12.40
   5  -2 -15  258.67   16.60
   5  -2 -15  259.87   21.20
  -5   2  15  273.37   18.40
  -5   2  15  316.27   13.70
   4  -2 -15   -0.80    6.40
  -4   2  15   -7.50    4.50
   3  -2 -15   12.30    5.70
  -3   2  15   17.60    4.80
  -3   2  15   19.20    5.00
   2  -2 -15    8.50    5.40
  -2   2  15   19.90    3.50
   1  -2 -15  157.78   11.10
   1  -2 -15  159.48   13.70
  -1   2  15  162.08   16.90
   0  -2 -15  158.08   13.30
   0  -2 -15  181.18   14.70
  -1  -2 -15    5.60    5.80
  -1  -2 -15   12.40    6.70
   3  -3 -15   37.60    7.60
  -3   3  15   36.90    7.20
   1  -3 -15   62.09    8.30
   1  -3 -15   51.79   10.30
  -1   3  15   68.79   11.80
   0   3  15   73.09   12.80
  -3   4  15   11.00    4.70
   2  -4 -15    0.90    3.90
   1   8 -16   67.69   10.20
  -1  -8  16   49.99   10.10
  -1  -8  16   51.39    9.00
   0   8 -16    4.20    6.50
   0   8 -16   -3.40    5.50
   0  -8  16   27.10    8.70
   0  -8  16    1.80    4.40
   0  -8  16    9.00    6.90
  -1   8 -16   61.59    7.60
  -1   8 -16   72.59   11.90
   1  -8  16   97.69   15.90
   1  -8  16   61.49    8.70
   2   7 -16   59.79    9.90
  -2  -7  16   50.19    8.40
  -2  -7  16   71.49   10.50
  -2  -7  16   47.40    9.00
   1   7 -16  209.98   15.80
  -1  -7  16  191.58   13.40
  -1  -7  16  199.28   18.70
  -1  -7  16  178.28   15.70
   0   7 -16   39.20    9.10
   0  -7  16   43.80   11.60
   0  -7  16   36.30    6.10
   0  -7  16   40.30    8.30
  -1   7 -16   21.00    7.60
   1  -7  16   19.40    4.60
   1  -7  16   26.50   14.30
  -2   7 -16  101.09   14.10
   2  -7  16   91.89   12.30
   2  -7  16  111.99   21.00
  -3  -6  16    7.70    6.80
  -3  -6  16   20.90    6.10
  -3  -6  16    9.90    5.60
   2   6 -16   67.89    9.30
  -2  -6  16   61.59    9.40
   1   6 -16  157.08   12.80
  -1  -6  16  117.29   10.50
  -1  -6  16  125.99   13.30
   0   6 -16   -2.90    6.20
   0  -6  16   -8.00    5.20
   0  -6  16    1.20    3.50
  -1   6 -16   31.40    7.70
   1  -6  16   30.50   17.30
   1  -6  16   15.70    6.20
  -2   6 -16  255.37   19.20
   2  -6  16  282.37   18.40
   4   5 -16    2.80    5.10
  -4  -5  16   22.60    6.40
  -4  -5  16    6.90    4.90
   3   5 -16   45.70    9.10
  -3  -5  16   38.00    9.30
   2   5 -16   70.99   10.20
  -2  -5  16   68.09    9.20
  -2  -5  16   61.29   10.40
   1   5 -16    5.50    5.30
  -1  -5  16   -6.60    5.60
  -1  -5  16    3.80    4.20
   0   5 -16  212.68   16.70
   0  -5  16  211.68   12.40
   0  -5  16  215.18   16.50
  -1   5 -16   72.99   11.30
   1  -5  16   83.69    6.40
   1  -5  16   65.49   11.20
  -2   5 -16   12.80    7.20
   2  -5  16    6.80    6.00
  -3   5 -16   48.70   10.30
   3  -5  16   38.40    6.90
   4   4 -16   83.49   13.70
   4   4 -16   76.49    9.80
  -4  -4  16   95.79   11.50
  -4  -4  16   81.19   10.10
   3   4 -16   48.00    8.80
  -3  -4  16   78.99    9.50
  -3  -4  16   65.99   12.80
  -3  -4  16   69.59   11.00
   2   4 -16   -6.80    4.80
  -2  -4  16   -4.10    4.10
  -2  -4  16    0.30    6.20
   1   4 -16  308.97   19.10
  -1  -4  16  291.37   19.90
  -1  -4  16  317.47   16.50
  -1  -4  16  332.07   30.80
  -1   4 -16   73.39   11.20
  -2   4 -16   13.70    7.20
   2  -4  16    5.30    6.10
   4   3 -16   17.70    7.60
   4   3 -16   22.80    5.80
  -4  -3  16   16.60    6.00
  -4  -3  16   22.30    6.20
   3   3 -16  138.49   11.50
  -3  -3  16  113.09   14.50
  -3  -3  16  120.59   11.50
  -3  -3  16  125.39   14.70
   2   3 -16  276.77   17.70
  -2  -3  16  245.68   22.60
  -2  -3  16  276.77   15.90
  -2  -3  16  269.47   18.90
  -1  -3  16   33.70   15.30
  -1  -3  16   14.50    6.40
  -1  -3  16   17.40    4.50
   0   3 -16   78.99   11.20
   0  -3  16   80.99   11.90
   0  -3  16  107.19    6.80
   0  -3  16   79.09   15.60
  -1   3 -16  138.39   14.50
   1  -3  16  129.29   13.50
  -3   3 -16   28.50    8.30
   3  -3  16   11.60    6.50
   5   2 -16    6.20    7.20
   5   2 -16    7.40    5.20
  -5  -2  16    5.20    4.30
  -5  -2  16   13.00    5.80
   4   2 -16   97.99   10.20
   4   2 -16  102.69   14.10
  -4  -2  16  112.89   11.10
  -4  -2  16   74.99   12.60
  -4  -2  16   85.39    8.70
   3   2 -16   98.19   10.90
  -3  -2  16  109.29   10.90
  -3  -2  16   79.99   13.60
  -3  -2  16  140.69   16.20
   2   2 -16   14.70    6.00
  -2  -2  16   20.10    7.90
  -2  -2  16   20.10    5.30
  -2  -2  16   15.60    9.60
   1   2 -16  327.77   20.20
  -1  -2  16  328.97   15.80
  -1  -2  16  324.37   22.00
  -1  -2  16  330.77   21.50
   0   2 -16   17.50    7.20
   0   2 -16   18.80    4.10
   0  -2  16   16.30    6.80
   0  -2  16   18.00    7.40
  -1   2 -16   28.20    5.60
  -1   2 -16   16.90    7.60
   1  -2  16   15.90   11.60
   1  -2  16   17.20    6.20
   5   1 -16   76.69   10.40
   5   1 -16   92.99   13.60
  -5  -1  16  109.19   12.80
   4   1 -16   84.09   14.50
   4   1 -16  111.49   10.80
  -4  -1  16  101.59   11.60
  -4  -1  16  103.69   14.50
   3   1 -16   22.50    6.40
  -3  -1  16   18.90    5.30
  -3  -1  16   21.70    9.10
   2   1 -16   41.30    7.90
  -2  -1  16   40.60   10.00
  -2  -1  16   55.19    7.20
   1   1 -16  263.77   18.00
   1   1 -16  282.87   13.10
  -1  -1  16  303.57   21.60
  -1  -1  16  286.37   13.80
   0   1 -16    6.20    6.20
   0   1 -16    1.60    3.10
   0  -1  16  -10.50    6.90
  -1   1 -16  316.87   21.70
  -1   1 -16  315.97   17.30
   1  -1  16  344.87   20.70
  -2   1 -16   12.60    7.90
   2  -1  16   -6.70    6.60
   5   0 -16  390.16   21.00
   5   0 -16  373.36   24.00
  -5   0  16  397.76   22.30
   4   0 -16   52.99    9.50
   4   0 -16   42.60    9.10
  -4   0  16   60.59   14.30
   3   0 -16  183.58   14.10
  -3   0  16  189.08   13.00
  -2   0  16   65.69    7.10
  -2   0  16   85.19   13.20
   1   0 -16   60.39   11.20
   1   0 -16   70.39    6.20
   0   0 -16  746.33   37.30
   0   0 -16  741.53   33.20
   0   0  16  875.91   37.80
  -1   0 -16   95.79   13.20
  -1   0 -16   95.09    9.90
   1   0  16  124.79   15.90
   1   0  16   78.69    6.80
   3  -1 -16  104.99   11.40
  -3   1  16  127.19   10.20
   2  -1 -16    7.90    5.50
  -2   1  16   19.30    7.60
  -2   1  16   14.80    3.70
  -1   1  16   34.50    8.50
   0  -1 -16   15.50    7.10
   0  -1 -16    5.30    4.60
  -1  -1 -16   37.10    8.90
  -1  -1 -16   27.40    6.50
   3  -2 -16  165.68   14.20
  -3   2  16  203.58   12.70
  -3   2  16  197.78   12.90
   2  -2 -16    9.00    6.00
   2  -2 -16   15.30    3.60
   1  -2 -16  178.78   15.00
  -1   2  16  210.98   17.40
   0  -2 -16    4.90    6.70
   0   2  16   32.40   10.20
   2  -3 -16  221.78   16.40
   1   7 -17  279.67   18.10
  -1  -7  17  252.17   18.20
  -1  -7  17  228.38   15.30
   0   7 -17  172.78   16.60
   0  -7  17  200.48   16.30
   0  -7  17  186.18   16.10
   2   6 -17  197.68   15.10
  -2  -6  17  183.88   14.20
  -2  -6  17  171.38   16.10
   0   6 -17  283.77   19.60
   0  -6  17  274.87   15.00
   0  -6  17  272.67   19.10
  -1   6 -17    1.90    6.60
   1  -6  17    1.70    6.40
   3   5 -17   44.10    9.30
  -3  -5  17   57.79   10.00
  -3  -5  17   58.49   10.80
  -3  -5  17   71.19   10.10
   2   5 -17   -0.30    5.40
  -2  -5  17   -7.90    5.70
  -2  -5  17   13.50    9.30
  -2  -5  17   -2.60    4.80
  -1   5 -17   12.60    6.50
   1  -5  17   -7.90    5.70
   3   4 -17   89.99   10.70
  -3  -4  17  103.49   17.50
  -3  -4  17   92.69   11.90
  -3  -4  17   84.79   11.70
   2   4 -17  175.68   13.90
  -2  -4  17  147.89   15.50
  -2  -4  17  178.68   13.00
   1   4 -17    4.70    5.90
  -1  -4  17   10.30    6.30
  -1  -4  17    2.20   19.10
  -1  -4  17    3.20    3.80
   0   4 -17   33.80    7.60
   0  -4  17   11.00    6.20
   0  -4  17   20.10    4.00
  -2   4 -17    6.30    7.90
   2  -4  17   -9.00    5.80
   4   3 -17   43.80    8.90
   3   3 -17  157.98   13.20
  -3  -3  17  143.59   15.80
  -3  -3  17  139.99   22.60
  -3  -3  17  135.49   16.70
   2   3 -17   88.79   11.30
  -2  -3  17  115.79   14.20
  -2  -3  17   91.09   17.20
  -2  -3  17  102.39   10.00
   1   3 -17   19.30    6.70
  -1  -3  17   38.00    8.10
  -1  -3  17   32.20    6.10
  -1  -3  17   -4.00   13.30
   0   3 -17   57.39   11.00
   0  -3  17   32.00    7.90
  -1   3 -17    3.10    6.70
   1  -3  17   -1.00    6.00
   1  -3  17   -6.90   12.00
   4   2 -17    6.80    6.60
  -4  -2  17   -0.10    5.60
  -4  -2  17    7.00   10.10
   3   2 -17   81.59   11.20
  -3  -2  17   82.59   14.10
  -3  -2  17   78.69   10.40
   2   2 -17   81.09   10.90
  -2  -2  17   89.09   12.20
  -2  -2  17   85.29    8.90
   1   2 -17    9.60    6.80
  -1  -2  17   11.80    5.70
  -1  -2  17   13.80    7.60
   0   2 -17  151.48   14.50
   0  -2  17  120.89   15.90
   0  -2  17  150.88   14.30
  -1   2 -17   96.19   13.70
   1  -2  17   77.29   10.90
   4   1 -17   17.20    8.40
   4   1 -17   23.10    7.60
  -4  -1  17   23.90   11.30
  -4  -1  17   31.80    7.00
   3   1 -17   -0.90    5.70
  -3  -1  17   14.00    9.10
  -3  -1  17    4.20    5.30
   2   1 -17  178.38   14.50
  -2  -1  17  197.18   11.90
  -2  -1  17  166.78   21.50
   1   1 -17   99.59   12.90
  -1  -1  17   90.49   16.50
   0   1 -17    1.40    3.50
   0   1 -17   10.00    7.00
   0  -1  17    1.90    7.40
  -1   1 -17    0.50    4.00
  -1   1 -17   -2.20    7.10
   1  -1  17   -4.30    6.60
   3   0 -17  289.97   18.10
  -3   0  17  288.77   16.30
   1   0 -17  159.98    9.20
   1   0 -17  147.59   14.50
   0   0 -17    8.40    4.00
   0   0 -17   15.80    7.40
   0   0  17   27.60    8.00
   2  -1 -17  221.68   16.30
   1  -1 -17  105.59    8.50
   1  -1 -17  110.59   13.10
   1   4 -18   15.00    6.50
  -1  -4  18   10.80    4.50
  -1  -4  18    6.40    6.50
  -1  -4  18   -4.60   21.30
   0   4 -18  234.88   18.20
  -2  -3  18   12.30    4.80
  -2  -3  18   -4.40    6.90
  -2  -3  18    7.50   15.30
   1   3 -18  444.16   25.90
  -1  -3  18  452.25   26.70
  -1  -3  18  563.44   36.20
   2   2 -18   31.70    7.70
  -2  -2  18   37.00    7.60
  -2  -2  18   40.10    9.80
   1   2 -18    6.70    6.70
   0   0   0    0.00    0.00
_computing_structure_solution     'SHELXT 2014/5 (Sheldrick, 2014)'
;
_shelx_hkl_checksum              10201
loop_
_space_group_symop_operation_xyz
'x, y, z'
'-x, -y, -z'
loop_
_atom_site_label
_atom_site_type_symbol
_atom_site_fract_x
_atom_site_fract_y
_atom_site_fract_z
_atom_site_U_iso_or_equiv
_atom_site_adp_type
_atom_site_occupancy
_atom_site_site_symmetry_order
_atom_site_calc_flag
_atom_site_refinement_flags_posn
_atom_site_refinement_flags_adp
_atom_site_refinement_flags_occupancy
_atom_site_disorder_assembly
_atom_site_disorder_group
Cr1 Cr 0.64121(5) 0.71945(4) 0.87713(2) 0.02337(12) Uani 1 1 d . . . . .
S1 S 0.77413(9) 0.51713(6) 0.55672(4) 0.02555(15) Uani 1 1 d . . . . .
S2 S 0.81602(9) 0.63075(7) 0.36897(4) 0.02936(16) Uani 1 1 d . . . . .
S3 S 0.80902(9) 0.92142(7) 0.31141(4) 0.03269(17) Uani 1 1 d . . . . .
O1 O 0.3131(3) 0.4653(2) 0.90091(15) 0.0494(5) Uani 1 1 d . . . . .
O2 O 1.0182(3) 0.68424(19) 0.99840(13) 0.0394(4) Uani 1 1 d . . . . .
O3 O 0.5460(3) 0.8923(2) 1.06690(13) 0.0489(5) Uani 1 1 d . . . . .
O4 O 0.9430(3) 1.00042(19) 0.87023(13) 0.0419(4) Uani 1 1 d . . . . .
O5 O 0.2762(3) 0.7705(2) 0.75941(14) 0.0476(5) Uani 1 1 d . . . . .
O6 O 0.7341(3) 0.46537(17) 0.73194(11) 0.0294(4) Uani 1 1 d . . . . .
C1 C 0.4433(4) 0.5560(3) 0.89115(18) 0.0314(5) Uani 1 1 d . . . . .
C2 C 0.8731(4) 0.6921(2) 0.95333(17) 0.0271(5) Uani 1 1 d . . . . .
C3 C 0.5849(4) 0.8291(3) 0.99536(18) 0.0330(6) Uani 1 1 d . . . . .
C4 C 0.8284(4) 0.8939(3) 0.86980(16) 0.0288(5) Uani 1 1 d . . . . .
C5 C 0.4172(4) 0.7531(3) 0.80206(17) 0.0307(5) Uani 1 1 d . . . . .
C6 C 0.7012(3) 0.5970(2) 0.74935(16) 0.0244(5) Uani 1 1 d . . . . .
C7 C 0.7249(6) 0.3818(3) 0.80421(19) 0.0489(8) Uani 1 1 d . . . . .
H7A H 0.590018 0.367909 0.824878 0.059 Uiso 1 1 calc R U . . .
H7B H 0.834229 0.435342 0.864267 0.059 Uiso 1 1 calc R U . . .
C8 C 0.7538(4) 0.2376(3) 0.75733(19) 0.0341(6) Uani 1 1 d . . . . .
H8A H 0.646653 0.186178 0.697241 0.051 Uiso 1 1 calc R U . . .
H8B H 0.744342 0.178812 0.804603 0.051 Uiso 1 1 calc R U . . .
H8C H 0.889441 0.252211 0.739087 0.051 Uiso 1 1 calc R U . . .
C9 C 0.7189(3) 0.6393(2) 0.65763(16) 0.0224(5) Uani 1 1 d . . . . .
C10 C 0.7015(3) 0.7658(2) 0.63492(16) 0.0232(5) Uani 1 1 d . . . . .
H10 H 0.671444 0.843923 0.679853 0.028 Uiso 1 1 calc R U . . .
C11 C 0.7332(3) 0.7667(2) 0.53779(16) 0.0222(5) Uani 1 1 d . . . . .
C12 C 0.7726(3) 0.6386(2) 0.48832(16) 0.0242(5) Uani 1 1 d . . . . .
C13 C 0.7415(3) 0.8662(2) 0.47682(16) 0.0239(5) Uani 1 1 d . . . . .
C14 C 0.7823(3) 0.8047(3) 0.38533(16) 0.0261(5) Uani 1 1 d . . . . .
C15 C 0.7319(3) 1.0131(3) 0.48695(17) 0.0262(5) Uani 1 1 d . . . . .
H15 H 0.706653 1.074031 0.544995 0.031 Uiso 1 1 calc R U . . .
C16 C 0.7629(3) 1.0550(3) 0.40429(18) 0.0313(5) Uani 1 1 d . . . . .
H16 H 0.759805 1.148689 0.397768 0.038 Uiso 1 1 calc R U . . .
loop_
_atom_site_aniso_label
_atom_site_aniso_U_11
_atom_site_aniso_U_22
_atom_site_aniso_U_33
_atom_site_aniso_U_23
_atom_site_aniso_U_13
_atom_site_aniso_U_12
Cr1 0.0288(2) 0.0273(2) 0.0172(2) 0.01003(15) 0.00604(15) 0.00940(15)
S1 0.0299(3) 0.0292(3) 0.0207(3) 0.0098(2) 0.0080(2) 0.0100(2)
S2 0.0343(3) 0.0382(3) 0.0195(3) 0.0114(2) 0.0098(2) 0.0121(3)
S3 0.0322(3) 0.0456(4) 0.0249(3) 0.0204(3) 0.0073(2) 0.0084(3)
O1 0.0389(11) 0.0556(12) 0.0598(13) 0.0357(11) 0.0120(9) 0.0045(9)
O2 0.0373(10) 0.0393(10) 0.0389(10) 0.0108(8) -0.0035(8) 0.0124(8)
O3 0.0653(13) 0.0635(13) 0.0267(10) 0.0101(9) 0.0182(9) 0.0323(11)
O4 0.0555(12) 0.0310(10) 0.0346(10) 0.0127(8) 0.0068(9) 0.0022(9)
O5 0.0416(11) 0.0685(14) 0.0467(12) 0.0348(10) 0.0071(9) 0.0238(10)
O6 0.0449(10) 0.0280(9) 0.0219(8) 0.0128(7) 0.0107(7) 0.0151(7)
C1 0.0348(13) 0.0388(14) 0.0264(13) 0.0162(11) 0.0055(10) 0.0143(12)
C2 0.0342(13) 0.0243(12) 0.0217(12) 0.0063(9) 0.0063(10) 0.0063(10)
C3 0.0391(14) 0.0405(14) 0.0250(13) 0.0148(11) 0.0072(11) 0.0157(11)
C4 0.0404(14) 0.0309(13) 0.0164(11) 0.0065(10) 0.0038(10) 0.0136(11)
C5 0.0360(14) 0.0358(13) 0.0247(12) 0.0144(11) 0.0103(11) 0.0106(11)
C6 0.0224(11) 0.0285(12) 0.0231(12) 0.0113(9) 0.0029(9) 0.0057(9)
C7 0.100(2) 0.0334(14) 0.0243(13) 0.0174(11) 0.0160(14) 0.0285(15)
C8 0.0439(14) 0.0315(13) 0.0364(14) 0.0163(11) 0.0175(12) 0.0162(11)
C9 0.0207(11) 0.0277(12) 0.0183(11) 0.0067(9) 0.0047(9) 0.0053(9)
C10 0.0190(11) 0.0296(12) 0.0212(11) 0.0102(9) 0.0031(9) 0.0049(9)
C11 0.0177(10) 0.0299(12) 0.0193(11) 0.0100(9) 0.0028(8) 0.0049(9)
C12 0.0214(11) 0.0335(12) 0.0181(11) 0.0108(9) 0.0049(9) 0.0047(9)
C13 0.0165(10) 0.0336(12) 0.0220(12) 0.0124(10) 0.0023(9) 0.0042(9)
C14 0.0225(11) 0.0380(13) 0.0205(11) 0.0140(10) 0.0040(9) 0.0080(10)
C15 0.0188(11) 0.0348(13) 0.0258(12) 0.0124(10) 0.0026(9) 0.0063(9)
C16 0.0248(12) 0.0371(13) 0.0343(14) 0.0189(11) 0.0015(10) 0.0065(10)
loop_
_atom_type_symbol
_atom_type_description
_atom_type_scat_dispersion_real
_atom_type_scat_dispersion_imag
_atom_type_scat_source
C C 0.0033 0.0016 'International Tables Vol C Tables 4.2.6.8 and 6.1.1.4'
H H 0.0000 0.0000 'International Tables Vol C Tables 4.2.6.8 and 6.1.1.4'
O O 0.0106 0.0060 'International Tables Vol C Tables 4.2.6.8 and 6.1.1.4'
S S 0.1246 0.1234 'International Tables Vol C Tables 4.2.6.8 and 6.1.1.4'
W W -0.8490 6.8722 'International Tables Vol C Tables 4.2.6.8 and 6.1.1.4'
Cr Cr 0.3209 0.6236 'International Tables Vol C Tables 4.2.6.8 and 6.1.1.4'
loop_
_geom_angle_atom_site_label_1
_geom_angle_atom_site_label_2
_geom_angle_atom_site_label_3
_geom_angle
_geom_angle_site_symmetry_1
_geom_angle_site_symmetry_3
C3 Cr1 C5 89.47(10) . .
C3 Cr1 C1 86.35(11) . .
C5 Cr1 C1 85.71(10) . .
C3 Cr1 C4 89.14(10) . .
C5 Cr1 C4 92.31(10) . .
C1 Cr1 C4 175.08(10) . .
C3 Cr1 C2 90.15(10) . .
C5 Cr1 C2 178.04(10) . .
C1 Cr1 C2 96.18(10) . .
C4 Cr1 C2 85.76(10) . .
C3 Cr1 C6 179.02(10) . .
C5 Cr1 C6 90.95(9) . .
C1 Cr1 C6 92.80(10) . .
C4 Cr1 C6 91.73(9) . .
C2 Cr1 C6 89.46(9) . .
C12 S1 C9 90.05(10) . .
C12 S2 C14 88.73(11) . .
C14 S3 C16 90.09(11) . .
C6 O6 C7 123.18(18) . .
O1 C1 Cr1 174.0(2) . .
O2 C2 Cr1 175.6(2) . .
O3 C3 Cr1 178.0(2) . .
O4 C4 Cr1 176.8(2) . .
O5 C5 Cr1 176.8(2) . .
O6 C6 C9 105.45(18) . .
O6 C6 Cr1 128.44(15) . .
C9 C6 Cr1 126.11(16) . .
O6 C7 C8 108.5(2) . .
O6 C7 H7A 110.0 . .
C8 C7 H7A 110.0 . .
O6 C7 H7B 110.0 . .
C8 C7 H7B 110.0 . .
H7A C7 H7B 108.4 . .
C7 C8 H8A 109.5 . .
C7 C8 H8B 109.5 . .
H8A C8 H8B 109.5 . .
C7 C8 H8C 109.5 . .
H8A C8 H8C 109.5 . .
H8B C8 H8C 109.5 . .
C10 C9 C6 130.0(2) . .
C10 C9 S1 111.46(16) . .
C6 C9 S1 118.49(16) . .
C9 C10 C11 112.9(2) . .
C9 C10 H10 123.5 . .
C11 C10 H10 123.5 . .
C12 C11 C10 111.34(19) . .
C12 C11 C13 111.13(19) . .
C10 C11 C13 137.5(2) . .
C11 C12 S1 114.22(16) . .
C11 C12 S2 114.57(16) . .
S1 C12 S2 131.20(14) . .
C14 C13 C15 111.4(2) . .
C14 C13 C11 110.5(2) . .
C15 C13 C11 137.9(2) . .
C13 C14 S3 113.00(18) . .
C13 C14 S2 115.05(17) . .
S3 C14 S2 131.75(14) . .
C16 C15 C13 112.1(2) . .
C16 C15 H15 124.0 . .
C13 C15 H15 124.0 . .
C15 C16 S3 113.40(19) . .
C15 C16 H16 123.3 . .
S3 C16 H16 123.3 . .
loop_
_geom_bond_atom_site_label_1
_geom_bond_atom_site_label_2
_geom_bond_distance
_geom_bond_site_symmetry_2
Cr1 C3 1.889(3) .
Cr1 C5 1.893(3) .
Cr1 C1 1.896(3) .
Cr1 C4 1.903(3) .
Cr1 C2 1.913(3) .
Cr1 C6 2.055(2) .
S1 C12 1.706(2) .
S1 C9 1.767(2) .
S2 C12 1.731(2) .
S2 C14 1.740(2) .
S3 C14 1.720(2) .
S3 C16 1.731(3) .
O1 C1 1.142(3) .
O2 C2 1.138(3) .
O3 C3 1.147(3) .
O4 C4 1.139(3) .
O5 C5 1.142(3) .
O6 C6 1.333(3) .
O6 C7 1.453(3) .
C6 C9 1.461(3) .
C7 C8 1.479(3) .
C7 H7A 0.9900 .
C7 H7B 0.9900 .
C8 H8A 0.9800 .
C8 H8B 0.9800 .
C8 H8C 0.9800 .
C9 C10 1.383(3) .
C10 C11 1.414(3) .
C10 H10 0.9500 .
C11 C12 1.387(3) .
C11 C13 1.445(3) .
C13 C14 1.377(3) .
C13 C15 1.432(3) .
C15 C16 1.351(3) .
C15 H15 0.9500 .
C16 H16 0.9500 .
loop_
_geom_torsion_atom_site_label_1
_geom_torsion_atom_site_label_2
_geom_torsion_atom_site_label_3
_geom_torsion_atom_site_label_4
_geom_torsion
_geom_torsion_site_symmetry_1
_geom_torsion_site_symmetry_2
_geom_torsion_site_symmetry_3
_geom_torsion_site_symmetry_4
C7 O6 C6 C9 -178.3(2) . . . .
C7 O6 C6 Cr1 2.3(3) . . . .
C6 O6 C7 C8 175.8(2) . . . .
O6 C6 C9 C10 -179.1(2) . . . .
Cr1 C6 C9 C10 0.3(3) . . . .
O6 C6 C9 S1 0.0(2) . . . .
Cr1 C6 C9 S1 179.35(11) . . . .
C12 S1 C9 C10 0.10(17) . . . .
C12 S1 C9 C6 -179.12(18) . . . .
C6 C9 C10 C11 178.7(2) . . . .
S1 C9 C10 C11 -0.4(2) . . . .
C9 C10 C11 C12 0.5(3) . . . .
C9 C10 C11 C13 -177.3(2) . . . .
C10 C11 C12 S1 -0.4(2) . . . .
C13 C11 C12 S1 177.98(15) . . . .
C10 C11 C12 S2 -179.39(15) . . . .
C13 C11 C12 S2 -1.0(2) . . . .
C9 S1 C12 C11 0.19(17) . . . .
C9 S1 C12 S2 178.93(17) . . . .
C14 S2 C12 C11 0.37(17) . . . .
C14 S2 C12 S1 -178.36(18) . . . .
C12 C11 C13 C14 1.2(3) . . . .
C10 C11 C13 C14 179.0(2) . . . .
C12 C11 C13 C15 -173.8(2) . . . .
C10 C11 C13 C15 4.0(5) . . . .
C15 C13 C14 S3 -0.1(2) . . . .
C11 C13 C14 S3 -176.49(15) . . . .
C15 C13 C14 S2 175.47(15) . . . .
C11 C13 C14 S2 -1.0(2) . . . .
C16 S3 C14 C13 -0.39(18) . . . .
C16 S3 C14 S2 -174.95(18) . . . .
C12 S2 C14 C13 0.37(18) . . . .
C12 S2 C14 S3 174.84(18) . . . .
C14 C13 C15 C16 0.6(3) . . . .
C11 C13 C15 C16 175.7(2) . . . .
C13 C15 C16 S3 -0.9(2) . . . .
C14 S3 C16 C15 0.77(18) . . . .
