#------------------------------------------------------------------------------
#$Date: 2020-07-04 04:53:44 +0300 (Sat, 04 Jul 2020) $
#$Revision: 253733 $
#$URL: file:///home/coder/svn-repositories/cod/cif/4/03/85/4038506.cif $
#------------------------------------------------------------------------------
#
# This file is available in the Crystallography Open Database (COD),
# http://www.crystallography.net/
#
# All data on this site have been placed in the public domain by the
# contributors.
#
data_4038506
loop_
_publ_author_name
'Ghosh, Koushik'
'Ghosh, Arghadip'
'Mukherjee, Kallol'
'Rit, Raja K.'
'Sahoo, Akhila K.'
_publ_section_title
;
 Sulfoximine-Assisted Unsymmetrical Twofold C-H Functionalization of
 Arenes.
;
_journal_issue                   13
_journal_name_full               'The Journal of organic chemistry'
_journal_page_first              8618
_journal_page_last               8626
_journal_paper_doi               10.1021/acs.joc.0c01010
_journal_volume                  85
_journal_year                    2020
_chemical_formula_moiety         'C18 H15 N O3'
_chemical_formula_sum            'C18 H15 N O3'
_chemical_formula_weight         293.31
_space_group_crystal_system      triclinic
_space_group_IT_number           2
_space_group_name_Hall           '-P 1'
_space_group_name_H-M_alt        'P -1'
_atom_sites_solution_hydrogens   geom
_audit_creation_date             2019-11-16
_audit_creation_method
;
Olex2 1.3-ac4
(compiled 2018.12.18 svn.r3554 for Rigaku Oxford Diffraction, GUI svn.r1)
;
_cell_angle_alpha                70.157(2)
_cell_angle_beta                 73.487(2)
_cell_angle_gamma                68.453(2)
_cell_formula_units_Z            2
_cell_length_a                   8.8161(4)
_cell_length_b                   9.5583(5)
_cell_length_c                   9.7852(4)
_cell_measurement_reflns_used    9981
_cell_measurement_temperature    298(2)
_cell_measurement_theta_max      26.37
_cell_measurement_theta_min      2.25
_cell_volume                     709.31(6)
_computing_cell_refinement       'SAINT v8.37A (Bruker, 2015)'
_computing_data_reduction        'SAINT v8.37A (Bruker, 2015)'
_computing_molecular_graphics    'Olex2 (Dolomanov et al., 2009)'
_computing_publication_material  'Olex2 (Dolomanov et al., 2009)'
_computing_structure_refinement  'ShelXL (Sheldrick, 2015)'
_computing_structure_solution    'SHELXT 2014/5 (Sheldrick, 2014)'
_diffrn_ambient_temperature      298.51
_diffrn_measured_fraction_theta_full 0.995
_diffrn_measured_fraction_theta_max 0.995
_diffrn_measurement_device_type  'Bruker APEX-II CCD'
_diffrn_measurement_method       '\f and \w scans'
_diffrn_radiation_type           MoK\a
_diffrn_radiation_wavelength     0.71073
_diffrn_reflns_av_R_equivalents  0.0273
_diffrn_reflns_av_unetI/netI     0.0133
_diffrn_reflns_Laue_measured_fraction_full 0.995
_diffrn_reflns_Laue_measured_fraction_max 0.995
_diffrn_reflns_limit_h_max       10
_diffrn_reflns_limit_h_min       -10
_diffrn_reflns_limit_k_max       11
_diffrn_reflns_limit_k_min       -11
_diffrn_reflns_limit_l_max       11
_diffrn_reflns_limit_l_min       -11
_diffrn_reflns_number            22175
_diffrn_reflns_point_group_measured_fraction_full 0.995
_diffrn_reflns_point_group_measured_fraction_max 0.995
_diffrn_reflns_theta_full        25.023
_diffrn_reflns_theta_max         25.023
_diffrn_reflns_theta_min         2.250
_diffrn_standards_number         0
_exptl_absorpt_coefficient_mu    0.094
_exptl_absorpt_correction_T_max  0.7454
_exptl_absorpt_correction_T_min  0.7172
_exptl_absorpt_correction_type   multi-scan
_exptl_absorpt_process_details
'SADABS-2014/5 (Bruker,2014/5) was used for absorption correction. wR2(int) was 0.1161 before and 0.0451 after correction. The Ratio of minimum to maximum transmission is 0.9622. The \l/2 correction factor is 0.00150.'
_exptl_crystal_colour            colourless
_exptl_crystal_colour_primary    colourless
_exptl_crystal_density_diffrn    1.373
_exptl_crystal_description       block
_exptl_crystal_F_000             308
_exptl_crystal_size_max          0.2
_exptl_crystal_size_mid          0.15
_exptl_crystal_size_min          0.1
_refine_diff_density_max         0.220
_refine_diff_density_min         -0.185
_refine_diff_density_rms         0.037
_refine_ls_extinction_method     none
_refine_ls_goodness_of_fit_ref   1.040
_refine_ls_hydrogen_treatment    constr
_refine_ls_matrix_type           full
_refine_ls_number_parameters     201
_refine_ls_number_reflns         2506
_refine_ls_number_restraints     0
_refine_ls_restrained_S_all      1.040
_refine_ls_R_factor_all          0.0443
_refine_ls_R_factor_gt           0.0406
_refine_ls_shift/su_max          0.000
_refine_ls_shift/su_mean         0.000
_refine_ls_structure_factor_coef Fsqd
_refine_ls_weighting_details
'w=1/[\s^2^(Fo^2^)+(0.0628P)^2^+0.2266P] where P=(Fo^2^+2Fc^2^)/3'
_refine_ls_weighting_scheme      calc
_refine_ls_wR_factor_gt          0.1110
_refine_ls_wR_factor_ref         0.1140
_reflns_Friedel_coverage         0.000
_reflns_number_gt                2283
_reflns_number_total             2506
_reflns_threshold_expression     'I > 2\s(I)'
_cod_data_source_file            jo0c01010_si_002.cif
_cod_data_source_block           aks112a_0m_a
_cod_depositor_comments
'Adding full bibliography for 4038505--4038506.cif.'
_cod_database_code               4038506
_shelx_shelxl_version_number     2018/3
_shelx_space_group_comment
;
The symmetry employed for this shelxl refinement is uniquely defined
by the following loop, which should always be used as a source of
symmetry information in preference to the above space-group names.
They are only intended as comments.
;
_shelx_estimated_absorpt_t_max   0.991
_shelx_estimated_absorpt_t_min   0.981
_olex2_refinement_description
;
1. Fixed Uiso
 At 1.2 times of:
  All C(H) groups, All C(H,H) groups
 At 1.5 times of:
  All C(H,H,H) groups
2.a Ternary CH refined with riding coordinates:
 C00H(H00H)
2.b Secondary CH2 refined with riding coordinates:
 C00L(H00K,H00L)
2.c Aromatic/amide H refined with riding coordinates:
 C00A(H00A), C00C(H00C), C00D(H00D), C00E(H00E), C00I(H00I), C00J(H00J)
2.d Idealised Me refined as rotating group:
 C00K(H00B,H00F,H00G), C00M(H00M,H00N,H00O)
;
_shelx_res_file
;
TITL AKS112A_0m_a.res in P-1
    aks112a_0m_a.res
    created by SHELXL-2018/3 at 12:51:01 on 16-Nov-2019
REM Old TITL AKS112A_0m in P-1
REM SHELXT solution in P-1
REM R1 0.141, Rweak 0.012, Alpha 0.055, Orientation as input
REM Formula found by SHELXT: C18 N2 O2
CELL 0.71073 8.8161 9.5583 9.7852 70.157 73.487 68.453
ZERR 2 0.0004 0.0005 0.0004 0.002 0.002 0.002
LATT 1
SFAC C H N O
UNIT 36 30 2 6

L.S. 40
PLAN  5
SIZE 0.2 0.15 0.1
TEMP 25.36
BOND $H
fmap 2
acta
SHEL 999 0.84
REM <olex2.extras>
REM <HklSrc "%.\\AKS112A_0m_a.hkl">
REM </olex2.extras>

WGHT    0.062800    0.226600
FVAR       2.22829
O001  4    0.573515    0.635747    0.615701    11.00000    0.04066    0.04877 =
         0.04792   -0.02259   -0.01825    0.00327
O002  4    0.975791    0.284221    0.879085    11.00000    0.05515    0.04679 =
         0.05511   -0.01537   -0.02491    0.00827
O003  4    0.401450    0.863152    1.091029    11.00000    0.05558    0.06213 =
         0.04856   -0.03382   -0.00343   -0.00524
N004  3    0.789037    0.435794    0.719802    11.00000    0.03346    0.03394 =
         0.03773   -0.01466   -0.00862   -0.00312
C005  1    0.854568    0.354735    0.606817    11.00000    0.03250    0.02979 =
         0.03596   -0.01074   -0.00551   -0.00463
C006  1    0.628026    0.615885    0.852937    11.00000    0.03282    0.03319 =
         0.03335   -0.00979   -0.00459   -0.01060
C007  1    0.651395    0.570988    0.714979    11.00000    0.02941    0.03428 =
         0.03817   -0.01416   -0.00566   -0.00672
C008  1    0.510971    0.735600    0.907815    11.00000    0.03386    0.03770 =
         0.03666   -0.01399   -0.00289   -0.01216
C009  1    0.985174    0.196365    0.385576    11.00000    0.04131    0.03337 =
         0.03351   -0.00937   -0.00472   -0.00318
C00A  1    1.087552    0.222146    0.452551    11.00000    0.03069    0.03820 =
         0.04565   -0.01377   -0.00067   -0.00326
AFIX  43
H00A  2    1.201876    0.184608    0.424044    11.00000   -1.20000
AFIX   0
C00B  1    0.752320    0.511000    0.930684    11.00000    0.03961    0.03462 =
         0.03558   -0.00850   -0.00755   -0.01054
C00C  1    1.025013    0.302086    0.560658    11.00000    0.03267    0.03671 =
         0.04801   -0.01454   -0.00854   -0.00645
AFIX  43
H00C  2    1.096457    0.320381    0.602014    11.00000   -1.20000
AFIX   0
C00D  1    0.749600    0.328161    0.543130    11.00000    0.02883    0.04741 =
         0.04307   -0.01986   -0.00479   -0.00475
AFIX  43
H00D  2    0.635399    0.362169    0.574378    11.00000   -1.20000
AFIX   0
C00E  1    0.814762    0.251059    0.433110    11.00000    0.03790    0.05002 =
         0.04270   -0.02047   -0.01114   -0.00536
AFIX  43
H00E  2    0.743182    0.235341    0.389831    11.00000   -1.20000
AFIX   0
C00F  1    0.522895    0.743796    1.044220    11.00000    0.04359    0.04378 =
         0.03880   -0.01918    0.00062   -0.01525
C00G  1    0.856950    0.394700    0.847721    11.00000    0.03802    0.03484 =
         0.03943   -0.00889   -0.01107   -0.00684
C00H  1    0.366533    0.868732    0.852627    11.00000    0.03431    0.04871 =
         0.05225   -0.02710   -0.00795   -0.00253
AFIX  13
H00H  2    0.286966    0.828183    0.837656    11.00000   -1.20000
AFIX   0
C00I  1    0.763678    0.522333    1.064544    11.00000    0.05147    0.04566 =
         0.03764   -0.00823   -0.01516   -0.01176
AFIX  43
H00I  2    0.848539    0.451900    1.114334    11.00000   -1.20000
AFIX   0
C00J  1    0.645951    0.640858    1.123015    11.00000    0.05933    0.05488 =
         0.03426   -0.01652   -0.00897   -0.01726
AFIX  43
H00J  2    0.649675    0.650888    1.213180    11.00000   -1.20000
AFIX   0
C00K  1    1.056366    0.112160    0.265683    11.00000    0.05452    0.05152 =
         0.04286   -0.02164   -0.00556   -0.00063
AFIX 137
H00B  2    1.047219    0.186518    0.171127    11.00000   -1.50000
H00F  2    0.996227    0.040899    0.280281    11.00000   -1.50000
H00G  2    1.171018    0.055404    0.269238    11.00000   -1.50000
AFIX   0
C00L  1    0.291075    0.941847    0.984834    11.00000    0.04335    0.05128 =
         0.05543   -0.02831   -0.00196   -0.00704
AFIX  23
H00K  2    0.279836    1.052432    0.951922    11.00000   -1.20000
H00L  2    0.182089    0.929000    1.029539    11.00000   -1.20000
AFIX   0
C00M  1    0.418233    0.983092    0.711511    11.00000    0.07030    0.05475 =
         0.05031   -0.01376   -0.01467    0.01469
AFIX 137
H00M  2    0.498718    1.019943    0.725921    11.00000   -1.50000
H00N  2    0.322918    1.069685    0.685998    11.00000   -1.50000
H00O  2    0.465840    0.932154    0.633148    11.00000   -1.50000
AFIX   0
HKLF 4




REM  AKS112A_0m_a.res in P-1
REM wR2 = 0.1140, GooF = S = 1.040, Restrained GooF = 1.040 for all data
REM R1 = 0.0406 for 2283 Fo > 4sig(Fo) and 0.0443 for all 2506 data
REM 201 parameters refined using 0 restraints

END

WGHT      0.0628      0.2266

REM Highest difference peak  0.220,  deepest hole -0.185,  1-sigma level  0.037
Q1    1   1.1119 -0.0036  0.3065  11.00000  0.05    0.22
Q2    1   0.9757  0.1379  0.1894  11.00000  0.05    0.21
Q3    1   1.1595  0.1583  0.1935  11.00000  0.05    0.18
Q4    1   0.6391  0.6104  0.7764  11.00000  0.05    0.17
Q5    1   0.7821  0.4436  0.9186  11.00000  0.05    0.15
;
_shelx_res_checksum              33688
_shelx_hkl_file
;
  -1   0   0  353.96    8.90
  -1   0   0  330.97    9.00
  -1   0   0  362.76    9.30
  -1   0   0  355.86    9.10
   1   0   0  361.26    9.00
   1   0   0  360.96    9.00
   1   0   0  360.66    9.30
   1   0   0  354.56    8.90
  -2   0   0  488.55   13.00
  -2   0   0  510.45   12.80
  -2   0   0  507.85   12.90
  -2   0   0  486.65   13.10
  -2   0   0  497.65   13.50
   2   0   0  477.05   12.70
   2   0   0  484.05   13.00
   2   0   0  495.65   12.90
   2   0   0  510.05   12.90
   2   0   0  475.25   13.30
  -3   0   0  877.21   22.50
  -3   0   0  842.52   22.80
  -3   0   0  822.12   22.10
  -3   0   0  863.41   21.70
  -3   0   0  859.11   23.00
   3   0   0  813.52   22.60
   3   0   0  848.82   21.90
   3   0   0  871.71   22.10
   3   0   0  889.81   22.10
   3   0   0  863.21   22.20
  -4   0   0  165.48    6.70
  -4   0   0  150.98    6.20
  -4   0   0  163.68    6.10
  -4   0   0  165.08    7.60
  -4   0   0  168.98    7.00
   4   0   0  158.38    6.50
   4   0   0  169.88    6.40
   4   0   0  171.28    6.60
   4   0   0  173.98    6.50
   4   0   0  152.08   10.10
  -5   0   0 1955.40   50.49
  -5   0   0 2076.89   52.09
  -5   0   0 1996.50   50.79
  -5   0   0 2030.80   49.50
  -5   0   0 1954.50   49.70
   5   0   0 1973.10   47.00
   5   0   0 2004.50   49.99
   5   0   0 1946.11   50.09
   5   0   0 1961.40   51.19
   5   0   0 2009.10   49.99
   5   0   0 2080.19   50.29
  -6   0   0   12.50    2.70
  -6   0   0   11.90    2.90
  -6   0   0    7.90    3.20
  -6   0   0   15.00    4.60
  -6   0   0   13.80    3.30
   6   0   0   11.50    2.90
   6   0   0   11.70    2.90
   6   0   0   10.90    3.40
   6   0   0   13.60    3.00
   6   0   0   10.50    2.90
  -7   0   0   55.89    6.90
  -7   0   0   64.89    8.00
  -7   0   0   52.59    6.00
  -7   0   0   58.49    5.90
  -7   0   0   54.39    6.40
  -7   0   0   60.69    5.60
   7   0   0   55.29    6.30
   7   0   0   49.20    6.30
   7   0   0   50.89    5.60
   7   0   0   56.89    5.90
  -8   0   0  336.57   12.80
  -8   0   0  344.87   14.50
  -8   0   0  348.87   15.30
  -8   0   0  341.27   13.70
  -8   0   0  346.27   17.60
   8   0   0  360.06   14.80
   8   0   0  337.57   16.00
   8   0   0  332.67   13.90
   8   0   0  347.37   14.50
   8   0   0  345.47   13.80
  -9   0   0    8.50    5.80
  -9   0   0   12.00    6.30
  -9   0   0    1.30    4.60
  -9   0   0   10.50    9.30
   9   0   0    4.20    5.00
   9   0   0   18.70    7.20
   9   0   0   -0.50    4.40
   9   0   0    3.10    4.00
   9   0   0   -0.50    4.60
 -10   0   0   17.30    6.00
 -10   0   0   29.80   13.70
 -10   0   0   16.20    8.50
 -10   0   0   32.90    6.70
  10   0   0   10.20    7.70
  10   0   0   25.00    8.00
  10   0   0   17.90    6.60
  10   0   0   26.00    9.60
   9  -1   0  111.09   12.10
   9  -1   0  126.49    9.80
   9  -1   0  154.48   11.80
   9  -1   0  140.19   14.00
   9  -1   0  117.29   10.50
  -9   1   0  156.88   18.60
  -9   1   0  118.19   10.30
  -9   1   0  112.39   11.00
  -9   1   0  137.59   12.40
   8  -1   0  870.61   26.20
   8  -1   0  832.62   26.90
   8  -1   0  894.91   29.60
   8  -1   0  885.81   26.40
   8  -1   0  868.61   26.80
  -8   1   0  855.41   26.80
  -8   1   0  861.11   26.40
  -8   1   0  870.01   31.40
  -8   1   0  743.23   27.10
  -8   1   0  887.31   27.90
   7  -1   0  145.19    8.80
   7  -1   0  148.29   10.60
   7  -1   0  138.39    8.90
   7  -1   0  141.89    8.40
   7  -1   0  144.99    8.50
  -7   1   0  132.19    9.10
  -7   1   0  136.59   11.80
  -7   1   0  141.39    8.20
  -7   1   0  128.89    8.60
   6  -1   0  159.28    7.90
   6  -1   0  155.28    9.60
   6  -1   0  147.79    7.50
   6  -1   0  160.28    8.10
   6  -1   0  150.48    8.00
  -6   1   0  148.19    7.80
  -6   1   0  141.29    8.00
  -6   1   0  143.99    7.30
  -6   1   0  156.68   10.50
   5  -1   0    5.20    2.80
   5  -1   0    2.20    2.20
   5  -1   0    1.90    2.00
   5  -1   0    0.60    1.60
   5  -1   0    2.40    2.10
  -5   1   0    1.50    2.10
  -5   1   0    2.00    1.90
  -5   1   0    7.00    3.60
  -5   1   0    6.20    2.20
   4  -1   0  173.58    6.90
   4  -1   0  176.88    7.00
   4  -1   0  170.68    6.80
   4  -1   0  183.28    7.10
   4  -1   0  162.68    8.00
  -4   1   0  169.58    7.00
  -4   1   0  167.48    8.50
  -4   1   0  175.08    6.90
  -4   1   0  173.48    7.30
   3  -1   0 4910.21  121.69
   3  -1   0 5053.39  121.69
   3  -1   0 5306.57  121.79
   3  -1   0 5133.29  124.69
   3  -1   0 5208.58  121.79
  -3   1   0 5138.29  122.09
  -3   1   0 5283.07  123.49
  -3   1   0 5071.29  121.79
  -3   1   0 5222.78  121.59
   2  -1   0  871.81   22.40
   2  -1   0  883.11   23.60
   2  -1   0  898.21   22.60
   2  -1   0  897.91   22.70
   2  -1   0  932.41   22.70
  -2   1   0  872.81   21.20
  -2   1   0  944.71   22.70
  -2   1   0  874.11   23.70
   1  -1   0 2888.71   69.49
  -1   1   0 2954.70   69.59
  -1   1   0 2899.31   68.69
  -1  -1   0  889.71   21.70
  -1  -1   0  927.31   22.20
  -1  -1   0  929.71   21.80
  -1  -1   0  932.01   21.90
  -1  -1   0  953.00   22.00
  -1  -1   0  816.32   22.40
  -1  -1   0  922.11   22.10
   1   1   0  967.80   22.20
   1   1   0  900.31   21.90
   1   1   0  945.31   21.90
   1   1   0 1002.70   22.00
   1   1   0  920.51   22.10
   1   1   0  885.01   22.10
  -3  -1   0  526.65   13.40
  -3  -1   0  531.65   14.40
  -3  -1   0  514.25   13.50
  -3  -1   0  503.05   14.00
  -3  -1   0  517.95   14.50
   3   1   0  506.85   13.90
   3   1   0  527.05   13.90
   3   1   0  509.85   14.10
   3   1   0  512.45   13.60
   3   1   0  476.95   14.10
  -4  -1   0  899.11   23.40
  -4  -1   0  895.51   24.10
  -4  -1   0  936.81   24.90
  -4  -1   0  923.91   23.30
  -4  -1   0  910.71   24.70
   4   1   0  904.41   23.60
   4   1   0  908.31   24.20
   4   1   0  886.81   24.40
   4   1   0  946.21   24.00
   4   1   0  938.81   24.00
  -5  -1   0 1038.00   26.40
  -5  -1   0  987.30   28.00
  -5  -1   0 1007.40   27.50
  -5  -1   0 1025.90   28.40
  -5  -1   0 1025.10   26.50
   5   1   0 1035.80   29.60
   5   1   0 1003.40   27.40
   5   1   0 1012.20   26.90
   5   1   0 1027.60   27.10
   5   1   0 1046.00   27.30
  -6  -1   0   10.90    3.20
  -6  -1   0   20.20    5.10
  -6  -1   0   17.90    4.20
  -6  -1   0   17.90    2.70
  -6  -1   0   14.80    2.80
  -6  -1   0   11.00    2.40
   6   1   0   16.80    3.00
   6   1   0    8.10    2.50
   6   1   0   19.30    3.70
   6   1   0   10.70    2.70
  -7  -1   0   33.10    5.80
  -7  -1   0   29.70    4.70
  -7  -1   0   31.20    4.10
  -7  -1   0   38.00    4.00
  -7  -1   0   31.40    5.20
  -7  -1   0   30.70    3.90
   7   1   0   35.20    4.70
   7   1   0   24.40    4.60
   7   1   0   32.20    4.30
   7   1   0   26.10    6.60
   7   1   0   33.70    4.40
  -8  -1   0   47.70    9.10
  -8  -1   0   25.00    5.60
  -8  -1   0   35.90    4.30
  -8  -1   0   33.30    4.60
  -8  -1   0   46.90    7.80
  -8  -1   0   25.70    5.50
   8   1   0   33.20    5.60
   8   1   0   32.00    5.10
   8   1   0   33.00    5.10
   8   1   0   32.40    5.00
   8   1   0   26.00    5.60
  -9  -1   0   64.59    8.10
  -9  -1   0   87.59   10.90
  -9  -1   0   60.09    7.10
  -9  -1   0   71.29    6.90
  -9  -1   0   70.79    8.00
  -9  -1   0   68.69   10.50
   9   1   0   71.99    8.70
   9   1   0   70.29    7.70
   9   1   0   75.79    8.20
   9   1   0   72.19    8.60
   9   1   0   58.79    7.30
 -10  -1   0  238.68   11.30
 -10  -1   0  237.08   12.00
 -10  -1   0  245.38   15.50
 -10  -1   0  212.08   21.90
  10   1   0  238.38   14.20
  10   1   0  237.08   16.30
  10   1   0  237.18   15.20
  10   1   0  213.18   16.70
  10   1   0  241.18   13.90
   9  -2   0   14.30    7.20
   9  -2   0   20.90    9.40
   9  -2   0   16.20    5.40
   9  -2   0    8.40    6.70
  -9   2   0   15.30   13.80
  -9   2   0   -2.40    5.90
  -9   2   0    8.00    6.10
  -9   2   0    8.90    7.20
   8  -2   0   13.30    7.50
   8  -2   0   12.20    4.90
   8  -2   0    9.10    4.40
   8  -2   0    3.60    4.50
   8  -2   0    7.60    5.30
  -8   2   0    5.50    4.90
  -8   2   0    5.90    5.90
  -8   2   0    3.70    4.90
  -8   2   0    8.50    9.50
   7  -2   0   14.50    4.00
   7  -2   0   24.30    6.30
   7  -2   0   11.30    3.90
   7  -2   0   17.50    4.80
   7  -2   0   24.10    4.30
  -7   2   0   18.40    4.80
  -7   2   0   15.70    4.60
  -7   2   0   17.00    7.10
  -7   2   0   17.50    4.40
   6  -2   0 1096.29   33.40
   6  -2   0 1063.79   31.20
   6  -2   0 1117.99   31.70
   6  -2   0 1100.49   30.40
   6  -2   0 1106.99   30.80
  -6   2   0 1105.39   31.20
  -6   2   0 1127.19   32.10
  -6   2   0 1115.79   34.70
  -6   2   0 1140.79   30.60
   5  -2   0   77.19    6.90
   5  -2   0   84.69    5.40
   5  -2   0   86.29    5.80
   5  -2   0   87.99    7.10
   5  -2   0   82.49    5.70
  -5   2   0   84.29    8.30
  -5   2   0   85.89    6.30
  -5   2   0   90.99    5.70
  -5   2   0   79.19    6.00
   4  -2   0  307.77   10.20
   4  -2   0  306.57   10.70
   4  -2   0  313.87   10.60
   4  -2   0  306.57   12.10
   4  -2   0  303.77   10.50
  -4   2   0  294.07   10.90
  -4   2   0  306.37   10.40
  -4   2   0  306.37   12.50
  -4   2   0  309.07   10.70
   3  -2   0 2403.46   57.59
   3  -2   0 2316.57   57.89
   3  -2   0 2279.17   57.19
   3  -2   0 2398.16   57.79
   3  -2   0 2386.06   59.79
  -3   2   0 2284.17   55.59
  -3   2   0 2356.76   57.89
  -3   2   0 2427.06   57.69
  -3   2   0 2420.26   60.09
   2  -2   0 2019.10   48.90
   2  -2   0 1998.50   48.40
   2  -2   0 2024.00   48.80
   2  -2   0 1980.20   49.00
   2  -2   0 2063.69   50.69
  -2   2   0 1961.30   47.60
  -2   2   0 2048.90   50.89
  -2   2   0 2049.29   48.90
  -2   2   0 1981.80   48.90
  -2   2   0 1960.90   49.10
   1  -2   0 5928.61  142.09
  -1   2   0 6082.09  142.19
   0  -2   0 2141.89   52.29
   0  -2   0 2253.67   52.29
   0  -2   0 2181.48   52.09
   0  -2   0 2220.38   53.39
   0   2   0 2251.67   53.29
   0   2   0 2257.77   52.39
   0   2   0 2139.99   52.19
  -1  -2   0  399.16   11.40
  -1  -2   0  455.75   10.80
  -1  -2   0  432.46   10.90
  -1  -2   0  433.06   11.10
  -1  -2   0  423.66   10.90
   1   2   0  442.96   11.50
   1   2   0  467.95   10.90
   1   2   0  418.16   10.90
   1   2   0  427.16   11.00
   1   2   0  424.06   11.00
  -3  -2   0 3292.07   77.89
  -3  -2   0 3258.37   77.99
  -3  -2   0 3362.76   78.99
  -3  -2   0 3317.17   77.89
  -3  -2   0 3386.76   79.49
  -3  -2   0 3322.97   78.99
   3   2   0 3436.66   78.59
   3   2   0 3269.27   78.79
   3   2   0 3267.37   78.29
   3   2   0 3346.67   78.89
   3   2   0 3196.68   78.89
  -4  -2   0  447.76   13.40
  -4  -2   0  465.15   13.80
  -4  -2   0  455.25   12.50
  -4  -2   0  448.16   12.30
  -4  -2   0  452.45   12.90
  -4  -2   0  447.66   14.00
   4   2   0  452.25   13.40
   4   2   0  470.05   13.20
   4   2   0  484.85   13.40
   4   2   0  456.05   13.40
   4   2   0  449.76   12.80
  -5  -2   0   34.30    2.90
  -5  -2   0   34.10    4.30
  -5  -2   0   30.30    3.30
  -5  -2   0   33.00    4.10
  -5  -2   0   34.20    2.90
  -5  -2   0   31.60    2.60
   5   2   0   34.70    3.60
   5   2   0   31.90    3.40
   5   2   0   37.10    3.70
   5   2   0   34.60    3.20
   5   2   0   39.80    3.50
  -6  -2   0   64.19    4.10
  -6  -2   0   60.69    5.20
  -6  -2   0   65.49    3.90
  -6  -2   0   68.29    6.00
  -6  -2   0   55.89    5.80
  -6  -2   0   58.39    4.40
   6   2   0   59.19    4.80
   6   2   0   58.99    4.90
   6   2   0   49.40    4.80
   6   2   0   60.29    5.10
   6   2   0   57.19    4.50
  -7  -2   0   20.90    4.90
  -7  -2   0   23.50    3.70
  -7  -2   0   17.50    3.80
  -7  -2   0   22.10    3.00
  -7  -2   0   24.10    5.00
  -7  -2   0   22.10    3.00
   7   2   0   25.20    4.00
   7   2   0   18.60    3.60
   7   2   0   28.70    4.10
   7   2   0   26.10    4.30
   7   2   0   26.30    4.40
  -8  -2   0   28.70    4.50
  -8  -2   0   26.00    3.50
  -8  -2   0   20.40    6.10
  -8  -2   0   18.00    3.20
  -8  -2   0   21.90    4.90
  -8  -2   0   29.90    6.10
   8   2   0   21.90    5.00
   8   2   0   24.30    4.50
   8   2   0   24.60    4.90
   8   2   0   18.40    4.10
   8   2   0   27.00    4.50
  -9  -2   0   47.30    4.90
  -9  -2   0   41.80    7.60
  -9  -2   0   64.99    7.70
  -9  -2   0   43.00    9.10
  -9  -2   0   55.49    6.80
  -9  -2   0   47.70    5.80
   9   2   0   48.80    6.10
   9   2   0   46.40    6.60
   9   2   0   49.10    7.40
   9   2   0   33.00    5.20
   9   2   0   39.20    6.20
 -10  -2   0   91.09    8.50
 -10  -2   0  118.89   13.80
 -10  -2   0   94.99    7.70
 -10  -2   0   85.09   11.20
 -10  -2   0   95.69   12.00
  10   2   0  102.39   13.20
  10   2   0  107.39   10.80
  10   2   0   88.59   11.30
  10   2   0   94.19   10.30
   8  -3   0    5.20    5.70
   8  -3   0    2.80    4.60
   8  -3   0    1.70    8.50
   8  -3   0    2.30    5.50
   8  -3   0   -3.40    6.50
  -8   3   0    0.00    5.10
  -8   3   0  -15.10   10.60
  -8   3   0    6.00    5.30
   7  -3   0  448.86   16.90
   7  -3   0  459.15   16.70
   7  -3   0  416.26   19.60
   7  -3   0  452.95   16.00
   7  -3   0  438.06   17.50
  -7   3   0  459.35   17.80
  -7   3   0  423.66   17.80
  -7   3   0  462.25   16.90
  -7   3   0  505.75   23.70
   6  -3   0  709.43   25.30
   6  -3   0  713.93   22.80
   6  -3   0  697.13   21.20
   6  -3   0  703.93   21.80
   6  -3   0  712.03   22.10
  -6   3   0  705.73   26.70
  -6   3   0  701.63   23.30
  -6   3   0  691.73   22.50
  -6   3   0  726.83   22.00
   5  -3   0    2.20    4.30
   5  -3   0    2.50    2.70
   5  -3   0    2.50    2.90
   5  -3   0    0.70    3.00
   5  -3   0    2.10    2.30
  -5   3   0   -1.50    2.70
  -5   3   0   -6.00    4.20
  -5   3   0    2.90    3.00
  -5   3   0    7.10    3.40
   4  -3   0   60.09    4.70
   4  -3   0   58.39    6.10
   4  -3   0   63.79    5.20
   4  -3   0   66.99    4.50
   4  -3   0   66.79    4.80
  -4   3   0   62.19    4.90
  -4   3   0   67.49    5.40
  -4   3   0   68.09    5.40
  -4   3   0   61.69    7.50
  -4   3   0   63.89    2.80
   3  -3   0   52.79    3.90
   3  -3   0   41.10    5.40
   3  -3   0   46.50    3.70
   3  -3   0   45.90    3.30
   3  -3   0   49.70    4.10
  -3   3   0   50.49    2.60
  -3   3   0   42.60    5.60
  -3   3   0   48.30    3.90
  -3   3   0   50.79    4.00
  -3   3   0   47.00    4.10
   2  -3   0   41.80    3.10
   2  -3   0   39.10    3.00
   2  -3   0   40.80    4.40
   2  -3   0   39.50    3.30
  -2   3   0   34.80    4.60
  -2   3   0   42.80    3.30
  -2   3   0   39.80    3.10
  -2   3   0   35.30    3.00
   1  -3   0  734.43   18.60
   1  -3   0  730.43   20.90
   1  -3   0  731.03   18.90
   1  -3   0  705.93   19.00
  -1   3   0  701.93   18.90
  -1   3   0  710.23   18.80
  -1   3   0  703.53   19.00
   0  -3   0 1398.56   36.10
   0  -3   0 1415.56   34.60
   0  -3   0 1449.65   34.20
   0  -3   0 1434.16   34.50
   0   3   0 1407.56   34.30
   0   3   0 1375.26   34.40
   0   3   0 1405.56   34.60
   0   3   0 1394.76   35.90
  -1  -3   0  241.68    7.30
  -1  -3   0  259.27    6.90
  -1  -3   0  244.68    8.30
  -1  -3   0  260.37    7.20
  -1  -3   0  248.38    7.40
   1   3   0  244.28    7.30
   1   3   0  253.17    7.30
   1   3   0  250.57    7.20
   1   3   0  273.27    6.90
   1   3   0  251.17    8.20
  -2  -3   0 3388.56   81.49
  -2  -3   0 3392.06   81.79
  -2  -3   0 3415.56   81.49
  -2  -3   0 3362.26   80.89
  -2  -3   0 3508.05   80.99
   2   3   0 3428.76   81.79
   2   3   0 3456.35   81.09
   2   3   0 3332.37   80.99
   2   3   0 3671.63   81.19
  -3  -3   0    8.80    1.80
  -3  -3   0    8.70    1.80
  -3  -3   0   11.60    1.40
  -3  -3   0   10.10    1.80
  -3  -3   0   14.00    1.70
   3   3   0   16.50    2.30
   3   3   0   12.90    1.70
   3   3   0   13.40    1.90
   3   3   0    7.90    1.50
  -4  -3   0 1252.07   30.90
  -4  -3   0 1276.47   33.10
  -4  -3   0 1267.97   32.50
  -4  -3   0 1246.28   30.70
  -4  -3   0 1278.37   31.00
  -4  -3   0 1251.77   32.30
   4   3   0 1254.87   31.90
   4   3   0 1302.77   31.90
   4   3   0 1294.87   32.30
   4   3   0 1228.18   31.50
  -5  -3   0    5.00    2.40
  -5  -3   0    8.50    1.70
  -5  -3   0    8.30    1.70
  -5  -3   0    7.10    1.40
  -5  -3   0    5.10    2.10
  -5  -3   0    7.90    2.70
   5   3   0   10.60    2.40
   5   3   0    8.80    2.10
   5   3   0    5.70    1.70
   5   3   0    7.20    2.10
   5   3   0    9.10    2.10
  -6  -3   0  153.88    5.70
  -6  -3   0  158.68    6.00
  -6  -3   0  155.58    8.50
  -6  -3   0  163.98    8.20
  -6  -3   0  160.48    7.70
  -6  -3   0  150.88    6.40
   6   3   0  164.98    7.50
   6   3   0  160.08    7.50
   6   3   0  155.38    7.30
   6   3   0  158.78    6.90
   6   3   0  127.29    8.50
  -7  -3   0  247.98   10.80
  -7  -3   0  237.78   16.60
  -7  -3   0  263.97    8.70
  -7  -3   0  247.98    9.40
  -7  -3   0  256.17   11.70
   7   3   0  245.08   10.00
   7   3   0  247.28   10.40
   7   3   0  239.98   10.50
   7   3   0  253.47   10.30
   7   3   0  241.68   10.30
  -8  -3   0    0.40    2.30
  -8  -3   0    6.50    4.10
  -8  -3   0   10.60    5.20
  -8  -3   0   -1.40    2.90
  -8  -3   0   -0.10    4.60
   8   3   0    1.10    3.10
   8   3   0    2.30    5.10
   8   3   0    3.50    2.90
   8   3   0   -3.00    3.60
   8   3   0    4.70    3.70
  -9  -3   0   29.20    5.10
  -9  -3   0   31.70    7.50
  -9  -3   0   31.50    4.00
  -9  -3   0   34.20    3.90
  -9  -3   0   42.60    7.80
  -9  -3   0   30.60    5.70
   9   3   0   25.90    5.20
   9   3   0   33.00    6.00
   9   3   0   23.50    6.00
 -10  -3   0   56.29    8.00
 -10  -3   0   46.40   10.20
 -10  -3   0   48.50   10.50
 -10  -3   0   60.39    6.30
 -10  -3   0   48.50    6.20
  10   3   0   43.10    7.00
  10   3   0   60.09    8.40
  10   3   0   49.00    8.20
  10   3   0   45.80    7.00
   8  -4   0    0.60    6.00
   8  -4   0    0.10    6.50
   8  -4   0    4.60    5.20
   8  -4   0   13.00    9.80
  -8   4   0  -13.70   13.00
  -8   4   0   -5.30    7.40
  -8   4   0    1.60    6.40
   7  -4   0   19.50    6.00
   7  -4   0   15.80    5.00
   7  -4   0    8.00    5.10
   7  -4   0   14.40    4.50
   7  -4   0   19.30    7.70
  -7   4   0   21.80    5.90
  -7   4   0    8.40    6.00
  -7   4   0   18.40    5.20
  -7   4   0   22.80   11.30
   6  -4   0   90.59   10.60
   6  -4   0   88.89    7.90
   6  -4   0   83.79    7.00
   6  -4   0   92.49    7.70
   6  -4   0   83.39    8.50
  -6   4   0   88.39   10.90
  -6   4   0   82.39    8.80
  -6   4   0   98.49    8.60
  -6   4   0   82.79    8.40
   5  -4   0  106.39    8.30
   5  -4   0  113.89   10.90
   5  -4   0  122.79    6.80
   5  -4   0  115.49    7.60
  -5   4   0  118.99    4.10
  -5   4   0  123.39    8.20
  -5   4   0  133.09    8.80
  -5   4   0  109.49    8.40
  -5   4   0  129.79   12.60
   4  -4   0 1592.44   41.00
   4  -4   0 1674.33   42.20
   4  -4   0 1622.14   41.90
   4  -4   0 1595.04   42.70
   4  -4   0 1564.64   45.40
  -4   4   0 1663.03   46.40
  -4   4   0 1628.04   42.20
  -4   4   0 1617.54   42.70
  -4   4   0 1577.44   39.40
   3  -4   0  145.49    7.40
   3  -4   0  151.58    9.60
   3  -4   0  160.78    7.10
   3  -4   0  162.48    7.20
   3  -4   0  146.39    6.30
  -3   4   0  166.78    7.60
  -3   4   0  155.08    7.40
  -3   4   0  161.18    5.80
  -3   4   0  157.28    7.70
  -3   4   0  164.78    9.70
   2  -4   0  221.48    8.70
   2  -4   0  242.88    8.30
   2  -4   0  246.68    8.70
   2  -4   0  226.18   10.70
  -2   4   0  235.68   10.70
  -2   4   0  230.78    8.90
  -2   4   0  240.08    8.80
  -2   4   0  236.08    8.70
   1  -4   0  155.28    6.10
   1  -4   0  152.08    8.10
   1  -4   0  150.38    5.80
   1  -4   0  151.98    6.30
  -1   4   0  163.28    6.40
  -1   4   0  154.78    6.10
  -1   4   0  153.28    7.90
  -1   4   0  155.68    6.30
   0  -4   0  199.58    8.80
   0  -4   0  222.98    7.40
   0  -4   0  221.58    7.20
   0  -4   0  223.78    6.90
   0   4   0  203.28    7.10
   0   4   0  214.58    7.40
   0   4   0  217.88    8.80
   0   4   0  204.78    7.00
  -1  -4   0 2133.39   52.79
  -1  -4   0 2187.98   52.79
  -1  -4   0 2240.78   52.49
  -1  -4   0 2192.78   54.59
   1   4   0 2231.68   54.19
   1   4   0 2118.39   52.69
   1   4   0 2171.88   52.49
   1   4   0 2239.18   52.89
  -2  -4   0   -0.20    1.10
  -2  -4   0   -0.10    0.90
  -2  -4   0    1.10    1.40
  -2  -4   0    0.30    1.10
  -2  -4   0    0.30    0.90
  -2  -4   0    1.80    1.00
   2   4   0   -0.80    1.30
   2   4   0    1.20    0.90
   2   4   0    1.00    1.00
   2   4   0    0.30    0.90
   2   4   0    0.40    1.20
  -3  -4   0 2765.82   65.49
  -3  -4   0 2724.23   65.79
  -3  -4   0 2690.83   64.39
  -3  -4   0 2763.82   65.79
  -3  -4   0 2711.53   64.39
  -3  -4   0 2679.63   64.59
   3   4   0 2675.53   64.79
   3   4   0 2792.02   64.89
   3   4   0 2637.54   64.59
   3   4   0 2757.92   65.69
   3   4   0 2596.84   63.49
  -4  -4   0 9297.37  227.08
  -4  -4   0 9550.44  226.48
   4   4   0 9750.12  226.58
   4   4   0 9999.00  225.98
  -5  -4   0  519.95   16.90
  -5  -4   0  523.45   14.10
  -5  -4   0  521.45   15.80
  -5  -4   0  524.45   14.00
  -5  -4   0  527.35   13.80
  -5  -4   0  536.15   16.20
   5   4   0  517.25   15.00
   5   4   0  543.65   15.90
   5   4   0  500.35   15.10
   5   4   0  528.95   15.50
  -6  -4   0   43.50    3.60
  -6  -4   0   43.60    5.50
  -6  -4   0   49.99    3.40
  -6  -4   0   50.29    3.00
  -6  -4   0   60.99    5.70
  -6  -4   0   39.80    5.00
   6   4   0   48.20    4.40
   6   4   0   55.29    4.90
   6   4   0   44.40    4.20
   6   4   0   55.79    5.10
  -7  -4   0  413.86   14.70
  -7  -4   0  403.16   12.80
  -7  -4   0  415.16   16.40
  -7  -4   0  401.96   15.10
  -7  -4   0  406.56   11.90
  -7  -4   0  406.36   11.50
   7   4   0  402.06   13.60
   7   4   0  387.36   14.10
   7   4   0  420.96   14.30
   7   4   0  438.46   14.70
  -8  -4   0   45.80    3.80
  -8  -4   0   41.70    5.20
  -8  -4   0   42.80    6.70
  -8  -4   0   39.20    4.00
  -8  -4   0   44.40    6.70
  -8  -4   0   37.70    5.70
   8   4   0   44.90    5.20
   8   4   0   38.60    5.00
   8   4   0   50.89    6.40
  -9  -4   0   17.40    4.40
  -9  -4   0   15.40    5.00
  -9  -4   0   28.20    7.30
  -9  -4   0   14.10    2.70
  -9  -4   0   14.00    2.90
  -9  -4   0   18.20    6.80
   9   4   0   12.00    5.40
   9   4   0   17.00    5.10
   9   4   0   23.30    4.90
   9   4   0   16.60    4.90
 -10  -4   0   23.40    3.00
 -10  -4   0   12.30    8.10
 -10  -4   0   21.00    3.10
 -10  -4   0   40.40   10.90
  10   4   0   14.60    6.30
  10   4   0   28.50    7.60
  10   4   0   42.80    6.30
  10   4   0   25.70    6.10
   7  -5   0   32.10    9.90
   7  -5   0   29.20    5.80
   7  -5   0   29.80    6.80
   7  -5   0   19.80    6.80
  -7   5   0   30.50    7.10
  -7   5   0   36.60   13.80
  -7   5   0   18.40    8.30
   6  -5   0    6.90    5.10
   6  -5   0   18.00    8.20
   6  -5   0   15.30    4.10
   6  -5   0   10.70    4.30
   6  -5   0   15.40    5.80
  -6   5   0    2.30    4.80
  -6   5   0   13.20    5.10
  -6   5   0    7.90    4.90
  -6   5   0    3.10   10.00
   5  -5   0   16.70    4.20
   5  -5   0   27.20    7.10
   5  -5   0   20.90    4.30
   5  -5   0   32.50    5.50
   5  -5   0   18.00    3.70
  -5   5   0   13.50    4.40
  -5   5   0   18.10    5.20
  -5   5   0   15.50    7.50
  -5   5   0   15.70    4.60
   4  -5   0  605.84   23.00
   4  -5   0  620.74   20.30
   4  -5   0  622.34   18.20
   4  -5   0  633.74   19.70
   4  -5   0  623.44   19.30
  -4   5   0  614.24   17.20
  -4   5   0  629.94   20.40
  -4   5   0  623.84   19.80
  -4   5   0  628.84   34.30
   3  -5   0   47.10    5.00
   3  -5   0   55.59    5.70
   3  -5   0   48.50    5.10
   3  -5   0   48.30    4.20
   3  -5   0   68.89    8.20
  -3   5   0   55.19    6.70
  -3   5   0   48.80    5.40
  -3   5   0   54.39    5.50
  -3   5   0   48.20    4.00
  -3   5   0   48.50    7.10
   2  -5   0    0.60    1.80
   2  -5   0    0.90    2.20
   2  -5   0   -2.30    1.70
   2  -5   0    2.90    3.70
  -2   5   0    0.70    1.90
  -2   5   0    5.70    2.30
  -2   5   0    3.00    2.20
  -2   5   0    8.00    4.10
   1  -5   0  145.09    8.70
   1  -5   0  167.48    6.50
   1  -5   0  163.68    7.20
   1  -5   0  163.08    6.80
  -1   5   0  166.38    9.20
  -1   5   0  164.28    7.10
  -1   5   0  159.58    6.90
  -1   5   0  155.48    7.00
   0  -5   0   21.90    4.00
   0  -5   0   23.80    2.80
   0  -5   0   23.60    3.00
   0  -5   0   23.40    2.60
   0   5   0   27.60    3.20
   0   5   0   27.10    2.90
   0   5   0   22.80    2.70
   0   5   0   22.80    4.10
  -1  -5   0  240.18    7.70
  -1  -5   0  238.18    8.10
  -1  -5   0  235.08    7.00
  -1  -5   0  227.58   10.00
  -1  -5   0  241.68    8.20
   1   5   0  254.57    8.40
   1   5   0  256.67    9.60
   1   5   0  218.48    7.90
   1   5   0  240.08    7.90
  -2  -5   0    1.80    1.20
  -2  -5   0   -0.20    1.10
  -2  -5   0    1.50    1.30
  -2  -5   0    1.40    1.60
  -2  -5   0    1.80    2.10
   2   5   0    0.30    1.00
   2   5   0    0.80    1.00
   2   5   0    0.10    1.80
   2   5   0    0.70    1.40
   2   5   0    4.50    1.80
  -3  -5   0  250.07    8.90
  -3  -5   0  249.68    7.80
  -3  -5   0  234.38    9.30
  -3  -5   0  243.18    7.70
  -3  -5   0  258.67    7.70
  -3  -5   0  252.57    8.80
   3   5   0  243.08    8.10
   3   5   0  244.08    9.10
   3   5   0  254.17    8.30
   3   5   0  243.28    6.90
   3   5   0  245.68    8.00
  -4  -5   0 2284.07   57.39
  -4  -5   0 2372.76   57.69
  -4  -5   0 2520.75   59.59
  -4  -5   0 2472.55   60.09
  -4  -5   0 2349.36   59.59
   4   5   0 2499.55   59.69
   4   5   0 2331.37   58.29
   4   5   0 2453.15   58.69
   4   5   0 2360.76   58.19
  -5  -5   0   62.89    3.20
   5   5   0   76.69    4.50
  -6  -5   0  440.76   16.20
  -6  -5   0  443.76   15.20
  -6  -5   0  444.56   12.20
  -6  -5   0  425.86   11.90
  -6  -5   0  447.66   14.80
   6   5   0  438.96   13.80
   6   5   0  448.36   14.80
   6   5   0  442.56   14.40
   6   5   0  435.96   13.70
  -7  -5   0  176.78    9.90
  -7  -5   0  173.38    9.00
  -7  -5   0  155.08    5.50
  -7  -5   0  170.18   10.40
  -7  -5   0  168.98    6.10
  -7  -5   0  161.58    6.70
   7   5   0  152.48    7.90
   7   5   0  182.98    9.20
  -8  -5   0    6.10    4.10
  -8  -5   0   -2.80    4.70
  -8  -5   0    4.90    2.00
  -8  -5   0    3.90    2.40
  -8  -5   0   -2.90    2.70
  -8  -5   0   12.80    5.10
   8   5   0    4.50    4.80
   8   5   0    8.00    3.40
   8   5   0    2.40    3.30
   8   5   0    2.80    3.80
  -9  -5   0  133.39    9.70
  -9  -5   0  133.09   12.60
  -9  -5   0  137.39    8.30
  -9  -5   0  134.09   12.80
   9   5   0  125.29    9.50
   9   5   0  139.89    9.50
   9   5   0  151.68   12.20
   9   5   0  132.99    9.90
 -10  -5   0   49.20    6.40
 -10  -5   0   41.00   10.00
 -10  -5   0   57.49   11.10
  10   5   0   51.29    8.30
  10   5   0   38.60    7.60
  10   5   0   40.10    7.00
  10   5   0   43.90    6.70
   6  -6   0    4.80    9.40
   6  -6   0   19.20    5.00
   6  -6   0   22.40    6.40
   6  -6   0   18.40    6.30
  -6   6   0   15.40    6.40
  -6   6   0    6.80    7.90
  -6   6   0   27.80   12.40
   5  -6   0   22.30    5.10
   5  -6   0   30.30    4.40
   5  -6   0   28.30    5.50
   5  -6   0   32.00    8.90
   5  -6   0   27.70    5.40
  -5   6   0   31.80    6.20
  -5   6   0   22.60    5.20
  -5   6   0   34.10   10.70
  -5   6   0   24.80    3.60
  -5   6   0   18.20    5.40
   4  -6   0    2.30    3.90
   4  -6   0   11.10    6.80
   4  -6   0   12.20    3.20
   4  -6   0   11.80    4.00
   4  -6   0   14.40    4.10
  -4   6   0   13.90    4.30
  -4   6   0   12.10    3.00
  -4   6   0    5.20    4.10
  -4   6   0   13.50    4.50
  -4   6   0    3.80    7.00
   3  -6   0  581.14   23.00
   3  -6   0  604.24   17.80
   3  -6   0  626.84   20.40
   3  -6   0  639.14   19.10
  -3   6   0  609.84   18.20
  -3   6   0  633.14   20.00
  -3   6   0  613.54   20.50
  -3   6   0  613.44   20.20
  -3   6   0  647.84   24.50
   2  -6   0  790.32   26.90
   2  -6   0  760.62   23.30
   2  -6   0  824.82   23.10
   2  -6   0  805.82   22.30
  -2   6   0  718.43   24.50
  -2   6   0  797.42   26.80
  -2   6   0  795.42   24.90
  -2   6   0  791.12   23.30
   1  -6   0   19.70    5.30
   1  -6   0   30.30    3.70
   1  -6   0   19.90    2.80
   1  -6   0   17.20    3.60
  -1   6   0   20.60    5.10
  -1   6   0   21.40    3.20
  -1   6   0   25.70    3.60
  -1   6   0   27.70    3.90
   0  -6   0   30.20    5.00
   0  -6   0   39.80    3.50
   0  -6   0   40.00    4.30
   0  -6   0   36.20    3.80
   0  -6   0   34.90    2.80
   0   6   0   33.90    5.00
   0   6   0   37.90    4.10
   0   6   0   41.20    3.90
   0   6   0   37.90    3.90
  -1  -6   0   25.10    4.60
  -1  -6   0   24.90    2.40
  -1  -6   0   29.50    3.40
  -1  -6   0   23.10    3.20
  -1  -6   0   25.20    3.00
   1   6   0   23.60    4.10
   1   6   0   26.50    3.10
   1   6   0   33.40    3.90
   1   6   0   23.90    3.10
  -2  -6   0  406.96   12.50
  -2  -6   0  378.66   14.30
  -2  -6   0  382.36   11.90
  -2  -6   0  395.76   10.80
  -2  -6   0  390.96   11.60
   2   6   0  385.36   11.90
   2   6   0  407.56   13.60
   2   6   0  381.26   11.80
   2   6   0  388.06   12.30
  -3  -6   0    6.30    3.00
  -3  -6   0   10.10    2.00
  -3  -6   0    6.80    2.40
  -3  -6   0   11.00    1.80
  -3  -6   0    7.10    1.90
  -3  -6   0   10.10    2.50
   3   6   0   11.60    2.30
   3   6   0   10.10    2.10
   3   6   0    8.90    1.90
   3   6   0    4.00    2.40
  -4  -6   0  117.29    6.30
  -4  -6   0  111.39    6.70
  -4  -6   0  118.39    5.00
  -4  -6   0  108.89    7.00
  -4  -6   0  105.49    4.70
   4   6   0  115.59    5.40
   4   6   0  116.89    6.80
   4   6   0  115.89    5.80
   4   6   0  108.79    3.50
   4   6   0  105.99    5.20
  -5  -6   0  504.75   16.80
  -5  -6   0  488.85   16.00
  -5  -6   0  486.15   16.20
  -5  -6   0  475.85   13.40
  -5  -6   0  493.95   13.60
   5   6   0  519.35   16.20
   5   6   0  477.35   14.60
   5   6   0  515.85   15.40
   5   6   0  475.25   14.50
  -6  -6   0 1511.25   37.70
  -6  -6   0 1535.75   37.90
  -6  -6   0 1590.94   41.50
  -6  -6   0 1537.45   42.80
  -6  -6   0 1566.64   41.20
   6   6   0 1532.15   39.60
   6   6   0 1610.94   40.70
   6   6   0 1568.54   41.10
   6   6   0 1547.65   39.80
  -7  -6   0  713.43   18.90
  -7  -6   0  755.92   24.80
  -7  -6   0  701.63   22.40
  -7  -6   0  751.12   23.20
  -7  -6   0  717.13   18.40
   7   6   0  756.22   22.60
   7   6   0  750.42   22.30
   7   6   0  680.53   21.20
  -8  -6   0  305.07   13.30
  -8  -6   0  287.57   15.40
  -8  -6   0  303.47   14.30
   8   6   0  287.37   11.90
   8   6   0  294.57   11.60
   8   6   0  302.77   13.00
   8   6   0  288.27   13.50
  -9  -6   0  135.29   10.70
  -9  -6   0  157.18   13.80
  -9  -6   0  155.48   14.10
   9   6   0  163.88    9.70
   9   6   0  156.88   10.20
   9   6   0  165.58   11.80
   9   6   0  180.88   11.10
 -10  -6   0   -3.60    9.80
 -10  -6   0    2.80   12.20
  10   6   0   -9.20    5.20
  10   6   0    1.30    7.30
  10   6   0    7.80    6.00
   5  -7   0    5.00    5.80
   5  -7   0    4.10    4.00
   5  -7   0    7.60    9.50
   5  -7   0  -10.20    5.00
  -5   7   0    2.10    6.50
  -5   7   0    1.00    6.10
  -5   7   0   -4.80   11.60
  -5   7   0   -2.30    3.90
   4  -7   0   -1.70    4.00
   4  -7   0   -4.60    6.60
   4  -7   0   -0.60    3.20
   4  -7   0    8.40    5.30
  -4   7   0   -2.30    3.40
  -4   7   0   -2.10    4.20
  -4   7   0   -1.30    7.60
  -4   7   0   -6.00    4.50
   3  -7   0    7.60    3.50
   3  -7   0    4.70    4.00
   3  -7   0    9.20    3.00
   3  -7   0    4.80    4.50
   3  -7   0    7.30    6.20
  -3   7   0    4.90    6.90
  -3   7   0    4.70    4.10
  -3   7   0    0.50    4.10
  -3   7   0    8.30    3.60
  -3   7   0    4.30    4.20
   2  -7   0  590.74   20.60
   2  -7   0  579.14   19.70
   2  -7   0  571.14   23.50
   2  -7   0  592.04   18.30
  -2   7   0  608.44   19.70
  -2   7   0  571.54   19.50
  -2   7   0  577.34   19.90
  -2   7   0  653.43   24.00
   1  -7   0   19.30    6.00
   1  -7   0   21.00    3.50
   1  -7   0   20.20    3.90
   1  -7   0   16.00    3.70
  -1   7   0   13.40    3.50
  -1   7   0   20.40    4.40
  -1   7   0   18.80    4.20
  -1   7   0   17.10    5.80
   0  -7   0   -0.50    4.20
   0  -7   0    4.20    2.70
   0  -7   0    1.10    2.60
   0  -7   0    2.60    2.10
   0  -7   0    3.30    1.80
   0   7   0    0.00    2.50
   0   7   0   10.80    2.70
   0   7   0    4.00    2.50
  -1  -7   0   14.00    3.00
  -1  -7   0    9.00    4.50
  -1  -7   0   14.20    2.60
  -1  -7   0   18.00    3.20
  -1  -7   0   16.60    2.10
   1   7   0   16.80    3.10
   1   7   0   25.80    4.90
   1   7   0   13.30    3.10
   1   7   0   20.40    3.30
  -2  -7   0    8.20    2.20
  -2  -7   0    8.10    3.90
  -2  -7   0    5.20    2.60
  -2  -7   0    9.80    2.40
  -2  -7   0    7.30    1.90
  -2  -7   0    5.00    2.20
   2   7   0    6.60    2.30
   2   7   0   10.50    2.50
   2   7   0    6.90    3.30
   2   7   0    9.10    2.80
  -3  -7   0  257.07    8.00
  -3  -7   0  278.87   10.40
  -3  -7   0  251.77   11.90
  -3  -7   0  252.77    9.90
  -3  -7   0  261.67    9.00
  -3  -7   0  244.48    9.00
   3   7   0  259.57    9.90
   3   7   0  288.97   11.30
   3   7   0  249.58    9.10
   3   7   0  251.27    9.20
  -4  -7   0   70.09    6.20
  -4  -7   0   70.49    6.90
  -4  -7   0   66.89    4.30
  -4  -7   0   65.59    4.40
  -4  -7   0   79.09    6.30
   4   7   0   68.39    6.40
   4   7   0   64.69    2.90
   4   7   0   74.49    5.30
   4   7   0   72.59    4.80
   4   7   0   76.59    4.60
  -5  -7   0  437.36   12.80
  -5  -7   0  479.95   16.00
  -5  -7   0  445.16   12.90
  -5  -7   0  436.46   16.30
  -5  -7   0  478.15   16.60
   5   7   0  452.85   14.20
   5   7   0  445.16   14.00
   5   7   0  465.55   16.40
  -6  -7   0   81.49    4.40
  -6  -7   0   90.99    8.60
  -6  -7   0   76.09    7.90
  -6  -7   0   81.49    7.60
  -6  -7   0   84.29    4.00
   6   7   0   87.49    7.20
   6   7   0   81.49    5.70
   6   7   0   93.49    7.70
   6   7   0   77.09    6.10
  -7  -7   0  173.48   10.60
  -7  -7   0  185.68   11.10
  -7  -7   0  179.38   11.80
   7   7   0  219.28   16.10
   7   7   0  179.08    9.00
   7   7   0  178.98    8.60
   7   7   0  196.18   10.60
  -8  -7   0   55.19    6.80
  -8  -7   0   48.80    7.30
  -8  -7   0   50.09    7.50
   8   7   0   42.60    5.40
   8   7   0   41.30    6.20
   8   7   0   43.70    5.10
   8   7   0   39.00    6.50
  -9  -7   0    2.00    7.00
  -9  -7   0    2.40    7.00
  -9  -7   0   -0.80    5.80
   9   7   0    6.90    4.40
   9   7   0    9.10    5.90
   9   7   0    0.40    4.40
   9   7   0   -3.70    5.60
   4  -8   0  163.28   11.50
   4  -8   0  188.58   13.00
   4  -8   0  175.48    9.10
  -4   8   0  174.88   10.70
  -4   8   0  189.98   13.80
  -4   8   0  169.08   20.60
   3  -8   0  341.37   14.10
   3  -8   0  377.46   15.80
   3  -8   0  342.67   12.20
   3  -8   0  347.47   16.00
   3  -8   0  315.17   20.10
  -3   8   0  342.47   16.20
  -3   8   0  347.37   14.20
  -3   8   0  342.37   15.50
  -3   8   0  372.16   21.40
  -3   8   0  345.57   15.90
   2  -8   0   23.70    6.00
   2  -8   0   24.40    5.40
   2  -8   0   11.10    6.40
   2  -8   0   26.70    4.90
  -2   8   0   24.00    8.00
  -2   8   0   16.90    5.10
  -2   8   0   28.30    5.40
  -2   8   0   29.50    5.40
   1  -8   0  788.12   22.70
   1  -8   0  748.53   23.90
   1  -8   0  741.53   28.40
   1  -8   0  762.02   20.80
  -1   8   0  814.12   27.80
  -1   8   0  756.82   23.90
  -1   8   0  779.52   23.90
  -1   8   0  733.63   24.00
   0  -8   0  355.16   13.30
   0  -8   0  355.26   12.50
   0  -8   0  337.97   17.30
   0  -8   0  341.87   10.50
   0  -8   0  326.97   13.20
   0   8   0  371.86   16.60
   0   8   0  346.87   13.60
   0   8   0  319.17   13.10
   0   8   0  329.77   15.30
  -1  -8   0  122.99    6.70
  -1  -8   0  120.99    5.00
  -1  -8   0  123.39    7.70
  -1  -8   0   96.89   10.50
  -1  -8   0  106.19    7.40
   1   8   0  109.09    6.90
   1   8   0  129.39    7.70
   1   8   0  101.39    9.50
   1   8   0  117.19    7.10
  -2  -8   0   59.49    5.10
  -2  -8   0   56.19    5.10
  -2  -8   0   66.49    3.60
  -2  -8   0   60.79    5.70
  -2  -8   0   63.59    8.40
  -2  -8   0   75.29    6.30
   2   8   0   63.39    5.40
   2   8   0   60.09    6.00
   2   8   0   63.99    7.40
   2   8   0   59.99    5.40
  -3  -8   0   81.39    5.70
  -3  -8   0   84.99    4.10
  -3  -8   0   78.99    6.30
  -3  -8   0   93.69    9.20
  -3  -8   0   98.79    7.00
  -3  -8   0   89.59    5.60
   3   8   0   87.99    8.00
   3   8   0   83.29    5.70
   3   8   0   85.89    7.40
   3   8   0   77.09    5.60
  -4  -8   0  200.48    7.70
  -4  -8   0  177.88    7.50
  -4  -8   0  189.88    9.90
  -4  -8   0  189.28    9.30
  -4  -8   0  171.08   11.40
   4   8   0  186.78   10.10
   4   8   0  179.98    6.00
   4   8   0  184.98    8.00
   4   8   0  191.98    9.30
   4   8   0  176.68    8.10
  -5  -8   0   16.80    2.70
  -5  -8   0   25.70    4.80
  -5  -8   0   18.70    4.90
  -5  -8   0   19.20    5.20
  -5  -8   0   13.60    2.80
   5   8   0   22.10    3.50
   5   8   0   20.80    4.80
   5   8   0   19.20    3.30
  -6  -8   0    3.10    4.70
  -6  -8   0    2.50    2.10
  -6  -8   0   -4.40    4.20
  -6  -8   0   -2.00    4.60
  -6  -8   0   -1.40    1.80
   6   8   0   -2.10    3.90
   6   8   0   -3.50    4.10
   6   8   0   -0.90    2.70
   6   8   0   -0.30    2.50
  -7  -8   0  127.19   10.40
  -7  -8   0  139.29   11.00
  -7  -8   0  146.89   12.00
   7   8   0  129.49    7.40
   7   8   0  123.29    8.20
   7   8   0  138.39   10.00
   7   8   0  146.59   10.60
  -8  -8   0   22.60    7.20
  -8  -8   0   19.90    6.20
  -8  -8   0   25.10    7.50
   8   8   0   40.70    6.40
   8   8   0   28.00    6.50
   8   8   0   33.90    5.40
   8   8   0   23.20    4.50
  -9  -8   0  183.88   17.90
  -9  -8   0  140.99   20.00
   9   8   0  170.78   11.00
   9   8   0  179.58   12.70
   9   8   0  180.18   14.90
   3  -9   0   35.50    6.90
   3  -9   0   30.80    7.90
  -3   9   0   39.80   13.70
  -3   9   0   28.70    7.40
  -3   9   0   26.60    6.70
  -3   9   0   45.40    9.20
   2  -9   0    9.20   11.20
   2  -9   0   16.80    6.60
   2  -9   0    2.20    5.60
   2  -9   0   11.20    5.30
  -2   9   0   -2.90    8.70
  -2   9   0    1.10    5.40
  -2   9   0    8.60    5.50
  -2   9   0   16.90    6.70
   1  -9   0   31.00    5.90
   1  -9   0   21.80    3.60
   1  -9   0   25.90    5.00
   1  -9   0   19.70    5.90
   1  -9   0   17.20    8.30
  -1   9   0   21.40    5.90
  -1   9   0    8.90    8.20
  -1   9   0   16.40    4.90
  -1   9   0   29.00    5.20
   0  -9   0    9.50    4.00
   0  -9   0    9.90    4.70
   0  -9   0    7.20    6.60
   0  -9   0   14.20    5.00
   0  -9   0    7.40    2.90
   0   9   0    8.40    4.50
   0   9   0   13.50    4.30
   0   9   0    9.60    4.60
   0   9   0   15.80    6.80
  -1  -9   0    8.80    4.60
  -1  -9   0    9.60    2.80
  -1  -9   0   14.20    2.30
  -1  -9   0    9.60    6.60
  -1  -9   0    9.40    4.20
   1   9   0    6.80    4.20
   1   9   0    8.00    6.00
   1   9   0    7.20    4.90
   1   9   0    9.50    3.90
  -2  -9   0    4.00    4.10
  -2  -9   0    7.30    3.40
  -2  -9   0    2.50    3.60
  -2  -9   0    6.80    6.30
  -2  -9   0    7.20    3.10
  -2  -9   0    5.10    2.00
   2   9   0    3.40    4.80
   2   9   0    7.00    3.30
   2   9   0    4.80    3.60
   2   9   0   -0.20    3.80
  -3  -9   0   53.99    3.50
  -3  -9   0   54.99    5.70
  -3  -9   0   49.70    8.10
  -3  -9   0   53.99    6.30
  -3  -9   0   53.09    6.80
  -3  -9   0   42.50    7.20
   3   9   0   49.50    5.70
   3   9   0   60.49    6.20
   3   9   0   57.09    7.00
   3   9   0   49.40    5.60
  -4  -9   0   11.10    3.40
  -4  -9   0   17.10    6.60
  -4  -9   0   17.30    5.10
  -4  -9   0   17.00    3.60
  -4  -9   0   14.60    4.60
   4   9   0   14.80    3.30
   4   9   0   15.00    3.80
   4   9   0   19.50    4.60
   4   9   0   16.50    5.50
   4   9   0   12.70    2.20
  -5  -9   0  136.99    9.60
  -5  -9   0  123.39    6.50
  -5  -9   0  136.59   11.60
  -5  -9   0  126.19    6.50
  -5  -9   0  130.99   10.60
   5   9   0  141.29    9.40
   5   9   0  129.09   10.40
   5   9   0  116.39    7.60
   5   9   0  141.29    7.70
  -6  -9   0   10.50    5.70
  -6  -9   0   10.80    2.40
  -6  -9   0   14.60    6.20
  -6  -9   0   17.50    6.00
  -6  -9   0   14.20    2.60
   6   9   0   13.30    5.30
   6   9   0   15.50    4.00
   6   9   0   10.50    5.20
   6   9   0    6.20    3.50
  -7  -9   0   16.70    7.10
  -7  -9   0   18.50    6.90
  -7  -9   0    8.50    6.50
   7   9   0    0.50    6.10
   7   9   0    5.00    4.00
   7   9   0   12.60    4.00
   7   9   0    4.20    5.60
  -8  -9   0   10.80   11.80
  -8  -9   0    3.80    8.40
  -8  -9   0   -4.90    7.90
   8   9   0    5.00    6.60
   8   9   0    9.60    7.20
   8   9   0    5.30    4.40
   1 -10   0   15.70    7.00
   1 -10   0   31.40    6.70
   1 -10   0   36.90    7.60
  -1  10   0   25.40    7.30
  -1  10   0   13.10   11.90
  -1  10   0   24.00    7.80
   0 -10   0   11.80    5.00
   0 -10   0    6.30    3.60
   0 -10   0   13.20    6.50
   0 -10   0    7.40    5.40
   0  10   0   16.10    6.50
   0  10   0    2.50    6.00
   0  10   0   -7.20    8.40
  -1 -10   0  474.95   27.00
  -1 -10   0  466.65   15.50
  -1 -10   0  467.85   17.90
  -1 -10   0  495.85   19.00
  -1 -10   0  502.95   17.10
   1  10   0  496.05   21.70
   1  10   0  451.15   18.20
   1  10   0  449.86   17.80
   1  10   0  482.55   18.70
  -2 -10   0   41.30    6.10
  -2 -10   0   32.30    5.50
  -2 -10   0   23.10    6.10
  -2 -10   0   33.60    9.20
  -2 -10   0   27.20    4.80
   2  10   0   27.10    5.60
   2  10   0   36.50    8.10
   2  10   0   36.40    5.50
   2  10   0   24.80    5.40
  -3 -10   0   15.80    4.30
  -3 -10   0   16.80    8.70
  -3 -10   0   17.50    5.30
  -3 -10   0   27.40    5.10
  -3 -10   0   36.00    6.40
   3  10   0   29.20    7.40
   3  10   0   23.50    5.00
   3  10   0   21.00    5.70
   3  10   0   17.50    4.30
  -4 -10   0   52.59    7.60
  -4 -10   0   53.29    9.60
  -4 -10   0   60.99    6.70
  -4 -10   0   52.89    7.00
  -4 -10   0   50.79    6.50
   4  10   0   67.09    7.10
   4  10   0   56.49    6.70
   4  10   0   43.10    5.70
   4  10   0   65.79    8.00
  -5 -10   0   78.59   11.00
  -5 -10   0   94.59    6.80
  -5 -10   0  105.69   11.90
  -5 -10   0  100.79    6.80
  -5 -10   0   84.39   10.40
   5  10   0  104.79    8.00
   5  10   0   80.09    7.80
   5  10   0   97.69   11.10
   5  10   0  104.19    9.80
  -6 -10   0    8.00    7.10
  -6 -10   0   -0.20    2.70
  -6 -10   0    5.30    7.70
  -6 -10   0    1.60    8.90
   6  10   0    2.00    3.80
   6  10   0   -1.30    3.90
   6  10   0    2.20    6.30
  -7 -10   0    2.70    8.60
  -7 -10   0   28.80    8.80
   7  10   0    1.20    6.50
   7  10   0    5.20    7.40
   7  10   0    2.40    4.40
  -1 -11   0  102.69   13.30
  -1 -11   0   90.49   11.50
  -1 -11   0   91.59   11.20
  -2 -11   0    4.80    5.40
  -2 -11   0   -6.50    7.80
  -2 -11   0   18.90    6.40
  -2 -11   0   14.30    7.70
   2  11   0    8.30    6.40
   2  11   0    1.00    9.20
   2  11   0    2.20    6.80
  -3 -11   0    4.50    5.80
  -3 -11   0    8.40    7.30
  -3 -11   0    7.40    5.90
   3  11   0    8.10    6.80
   3  11   0   11.80    6.30
   3  11   0    7.10    8.90
  -4 -11   0    9.80    5.50
  -4 -11   0    6.10    4.90
  -4 -11   0    3.10    6.70
  -4 -11   0    5.50    7.10
   4  11   0    2.90    6.00
   4  11   0    7.90    6.80
   4  11   0    3.10    8.50
  -5 -11   0   11.50    8.30
  -5 -11   0   16.10    8.20
   5  11   0    3.90    8.70
   5  11   0   10.70    6.10
   5  11   0   16.80    7.10
   6  10  -1    2.10    4.00
   6  10  -1   14.30    7.10
  -6 -10   1   -1.30    8.20
   5  10  -1    4.90    6.80
   5  10  -1   10.90    5.60
   5  10  -1    6.00    4.00
   5  10  -1    8.80    4.00
  -5 -10   1    5.00    6.60
  -5 -10   1    1.90    9.00
  -5 -10   1   11.80    7.50
   4  10  -1   48.40    6.70
   4  10  -1   39.80    5.40
   4  10  -1   48.80    5.50
   4  10  -1   38.20    7.00
   4  10  -1   47.50    5.70
  -4 -10   1   36.20   10.20
  -4 -10   1   61.79    7.90
  -4 -10   1   44.80    5.40
  -4 -10   1   48.10    5.10
  -4 -10   1   43.20    7.20
   3  10  -1    3.80    4.50
   3  10  -1    6.90    6.80
   3  10  -1    6.90    4.20
   3  10  -1   -3.20    4.90
  -3 -10   1   12.20    5.50
  -3 -10   1    6.10    3.80
  -3 -10   1    0.70    3.10
  -3 -10   1   -1.10    8.80
  -3 -10   1    6.20    4.20
   2  10  -1   70.29    9.00
   2  10  -1   89.69    9.70
   2  10  -1   89.19   11.70
   2  10  -1  102.69   10.00
  -2 -10   1   76.29    6.20
  -2 -10   1   99.49    7.70
  -2 -10   1   99.39    8.90
  -2 -10   1   85.89   10.30
  -2 -10   1   81.39    8.50
   1  10  -1  107.19   11.60
   1  10  -1  119.89   10.60
   1  10  -1  102.69   11.10
   1  10  -1  103.99   10.40
  -1 -10   1  112.09    9.20
  -1 -10   1  127.39   10.40
  -1 -10   1  119.89    8.20
  -1 -10   1  130.89    7.10
  -1 -10   1  105.69   15.90
   0  10  -1   -4.00    6.40
   0  10  -1    5.40    6.40
   0  10  -1    9.50   10.10
   0 -10   1    5.10    4.10
   0 -10   1    1.40    5.80
   0 -10   1   -1.70    4.80
   0 -10   1    7.10    3.80
   0 -10   1   -6.20    6.50
  -1  10  -1    9.50    7.60
  -1  10  -1  -12.00    7.40
  -1  10  -1    7.30    7.20
   1 -10   1  -11.70    6.80
   1 -10   1    2.40    6.90
   1 -10   1   -0.80    4.40
   1 -10   1    1.10    5.20
   7   9  -1   -1.30    4.80
   7   9  -1   -4.60    5.80
   7   9  -1   -0.10    6.00
   7   9  -1    3.80    4.30
  -7  -9   1    4.70    7.80
  -7  -9   1    1.00    6.40
  -7  -9   1   -3.50    7.00
   6   9  -1    3.40    5.20
   6   9  -1   -3.60    3.40
   6   9  -1   -4.80    3.40
  -6  -9   1   18.00    7.30
  -6  -9   1   -0.60    5.30
  -6  -9   1   18.40    6.40
   5   9  -1   86.19    6.70
   5   9  -1   91.29    7.20
   5   9  -1  105.49    8.70
   5   9  -1   87.69    9.20
  -5  -9   1  101.69    9.70
  -5  -9   1  101.69   11.00
  -5  -9   1   91.89   11.30
   4   9  -1    0.40    2.40
   4   9  -1    1.30    4.60
   4   9  -1   -0.30    3.10
   4   9  -1   -4.20    2.90
   4   9  -1    3.80    4.10
  -4  -9   1   -0.20    5.70
  -4  -9   1   -1.90    4.90
  -4  -9   1    7.50    2.50
  -4  -9   1   -1.00    4.30
  -4  -9   1   -2.30    2.60
  -4  -9   1    2.80    2.30
   3   9  -1    9.30    4.30
   3   9  -1    6.90    3.50
   3   9  -1    9.00    3.50
   3   9  -1   -2.60    5.00
  -3  -9   1   10.20    4.50
  -3  -9   1   11.50    3.20
  -3  -9   1    4.10    4.60
  -3  -9   1    9.50    6.00
  -3  -9   1   13.20    3.00
  -3  -9   1    6.70    2.90
   2   9  -1    5.90    3.40
   2   9  -1    8.60    4.40
   2   9  -1    1.80    3.50
   2   9  -1    1.30    5.20
  -2  -9   1    0.20    3.70
  -2  -9   1    2.60    3.10
  -2  -9   1    4.60    4.10
  -2  -9   1    4.40    2.70
  -2  -9   1   -1.70    5.90
  -2  -9   1    0.30    3.10
   1   9  -1  165.58   12.30
   1   9  -1  132.59    9.00
   1   9  -1  123.69    9.00
   1   9  -1  148.59    9.80
  -1  -9   1  133.59    9.30
  -1  -9   1  133.29    9.20
  -1  -9   1  135.39    7.40
  -1  -9   1  141.29    6.90
  -1  -9   1  143.29    8.00
  -1  -9   1  143.19   13.60
   0   9  -1  257.27   12.50
   0   9  -1  246.88   13.10
   0   9  -1  281.67   13.70
   0   9  -1  266.97   16.80
   0  -9   1  283.97   13.10
   0  -9   1  280.17   10.30
   0  -9   1  267.77   12.80
   0  -9   1  266.47    9.80
   0  -9   1  255.37   17.00
   0  -9   1  276.57   11.50
  -1   9  -1   11.50    5.60
  -1   9  -1    5.50    4.90
  -1   9  -1   -1.70    7.80
  -1   9  -1    4.20    5.10
  -1   9  -1   -2.70    5.30
   1  -9   1    5.90    2.70
   1  -9   1   -0.50    4.40
   1  -9   1   11.50    8.30
   1  -9   1    2.60    3.80
   1  -9   1   12.30    5.30
   1  -9   1    8.60    5.30
  -2   9  -1   19.90    7.20
  -2   9  -1   29.30   10.70
  -2   9  -1   20.10    6.80
  -2   9  -1   32.00    7.20
   2  -9   1   36.30    6.20
   2  -9   1   24.50    4.80
   2  -9   1   32.60    7.50
   2  -9   1   21.50    6.30
  -3   9  -1   16.80    7.20
   3  -9   1    6.30    6.40
   3  -9   1   -4.80    7.00
   8   8  -1  887.41   27.90
   8   8  -1  813.72   24.90
   8   8  -1  867.51   26.10
   8   8  -1  846.12   25.30
  -8  -8   1  863.31   27.80
  -8  -8   1  834.62   27.30
  -8  -8   1  854.61   31.20
   7   8  -1  239.68   12.10
   7   8  -1  233.58   12.60
   7   8  -1  214.28    9.10
   7   8  -1  204.88   10.20
  -7  -8   1  228.68   12.70
  -7  -8   1  238.88   12.90
  -7  -8   1  221.38   15.30
   6   8  -1   18.50    3.30
   6   8  -1   14.00    4.50
   6   8  -1   24.30    3.80
   6   8  -1   19.10    4.90
  -6  -8   1   17.30    5.20
  -6  -8   1   19.20    5.60
  -6  -8   1   18.10    6.60
   5   8  -1   42.70    5.20
   5   8  -1   47.20    3.00
   5   8  -1   50.19    6.30
   5   8  -1   46.10    5.90
   5   8  -1   45.20    4.70
  -5  -8   1   48.40    5.80
  -5  -8   1   45.60    6.50
  -5  -8   1   41.50    6.60
   4   8  -1   50.19    3.90
   4   8  -1   42.40    4.90
   4   8  -1   42.90    4.50
   4   8  -1   42.60    5.90
   4   8  -1   46.40    5.10
  -4  -8   1   37.50    6.70
  -4  -8   1   46.40    3.50
  -4  -8   1   44.80    4.40
  -4  -8   1   49.60    3.60
  -4  -8   1   37.10    5.00
  -4  -8   1   48.50    6.00
   3   8  -1   64.89    8.90
   3   8  -1   47.50    4.90
   3   8  -1   52.59    5.00
   3   8  -1   51.39    6.10
  -3  -8   1   53.69    6.30
  -3  -8   1   56.49    4.40
  -3  -8   1   57.39    6.20
  -3  -8   1   48.30    7.40
  -3  -8   1   53.79    4.60
  -3  -8   1   49.40    4.40
   2   8  -1   40.50    5.10
   2   8  -1   20.50    5.40
   2   8  -1   36.40    4.80
   2   8  -1   37.10    4.70
  -2  -8   1   29.20    4.40
  -2  -8   1   35.00    4.30
  -2  -8   1   38.80    4.90
  -2  -8   1   25.60    6.60
  -2  -8   1   35.30    4.30
  -2  -8   1   31.40    3.70
   1   8  -1   73.29    6.50
   1   8  -1   78.69    6.60
   1   8  -1   67.69    8.40
   1   8  -1   88.39    7.10
  -1  -8   1   84.19   10.00
  -1  -8   1   79.79    5.00
  -1  -8   1   77.89    5.30
  -1  -8   1   80.59    6.80
  -1  -8   1   90.09    5.70
  -1  -8   1   71.99    9.50
   0   8  -1  226.58   11.10
   0   8  -1  228.48   13.10
   0   8  -1  228.98   10.70
   0   8  -1  229.48   10.80
   0  -8   1  224.58    8.70
   0  -8   1  230.28   10.60
   0  -8   1  220.48    8.00
   0  -8   1  209.48   14.00
   0  -8   1  221.78    9.30
   0  -8   1  220.18   10.50
  -1   8  -1  502.15   17.30
  -1   8  -1  466.25   20.40
  -1   8  -1  448.96   16.90
  -1   8  -1  472.45   17.50
   1  -8   1  443.96   20.60
   1  -8   1  467.75   15.60
   1  -8   1  454.85   12.90
   1  -8   1  473.95   17.10
   1  -8   1  465.95   16.40
   1  -8   1  459.65   14.60
  -2   8  -1   68.79   10.20
  -2   8  -1   77.99    9.20
  -2   8  -1   61.69    6.80
  -2   8  -1   86.99    8.90
  -2   8  -1   90.49    9.20
   2  -8   1   64.49    9.10
   2  -8   1   94.49    8.00
   2  -8   1   74.99    9.20
   2  -8   1   84.39    8.60
  -3   8  -1   18.00    8.50
  -3   8  -1    9.80    6.30
  -3   8  -1    1.40    4.90
  -3   8  -1    8.30    5.40
  -3   8  -1    5.90    5.80
   3  -8   1   19.90    5.90
   3  -8   1   19.70    6.10
   3  -8   1    6.70    8.60
   3  -8   1   11.90    4.40
  -4   8  -1   -5.80    6.50
  -4   8  -1    3.80    5.70
  -4   8  -1   -5.30    6.40
  -4   8  -1   -2.90   11.20
   4  -8   1   -3.90    6.50
   4  -8   1   11.50    5.60
   9   7  -1    6.10    5.40
   9   7  -1   -2.00    4.90
   9   7  -1    2.90    6.80
  -9  -7   1    1.30    5.90
  -9  -7   1   -2.10    9.20
   8   7  -1   45.30    5.50
   8   7  -1   38.30    5.80
   8   7  -1   51.19    7.20
   8   7  -1   50.49    5.70
  -8  -7   1   52.69    6.70
  -8  -7   1   41.60    8.10
  -8  -7   1   57.29    7.70
   7   7  -1  871.51   24.10
   7   7  -1  915.91   28.50
   7   7  -1  899.91   26.10
   7   7  -1  854.71   24.90
  -7  -7   1  910.01   27.00
  -7  -7   1  887.21   26.90
  -7  -7   1  881.41   29.60
   6   7  -1  107.89    7.90
   6   7  -1  107.39    7.10
   6   7  -1  102.99    7.50
   6   7  -1   93.79    5.50
  -6  -7   1   97.99    8.00
  -6  -7   1  103.09    9.80
  -6  -7   1   90.29    8.40
   5   7  -1   67.99    5.60
   5   7  -1   61.89    3.30
   5   7  -1   62.19    4.40
   5   7  -1   59.69    6.90
   5   7  -1   61.49    4.90
  -5  -7   1   58.49    6.30
  -5  -7   1   65.79    4.90
  -5  -7   1   60.69    7.10
   4   7  -1   34.10    3.90
   4   7  -1   36.60    4.10
   4   7  -1   32.40    3.50
   4   7  -1   35.60    4.90
  -4  -7   1   28.80    2.60
  -4  -7   1   31.80    2.80
  -4  -7   1   29.40    4.90
  -4  -7   1   41.80    5.40
  -4  -7   1   33.00    4.40
  -4  -7   1   34.00    3.80
   3   7  -1  121.99    6.00
   3   7  -1  114.89    5.90
   3   7  -1  131.69    6.60
   3   7  -1  130.59    7.70
  -3  -7   1  121.59    5.30
  -3  -7   1  120.49    9.00
  -3  -7   1  130.09    5.90
  -3  -7   1  116.39    7.30
  -3  -7   1  119.09    6.90
  -3  -7   1  115.79    5.30
   2   7  -1  305.07   10.80
   2   7  -1  275.17   10.10
   2   7  -1  293.27   10.20
   2   7  -1  298.57   12.00
  -2  -7   1  301.67    9.60
  -2  -7   1  289.37    9.90
  -2  -7   1  285.27   10.40
  -2  -7   1  293.97   10.80
  -2  -7   1  293.57   13.50
  -2  -7   1  284.27    9.50
   1   7  -1    4.00    2.30
   1   7  -1   -0.20    2.50
   1   7  -1    2.40    2.10
  -1  -7   1    6.10    2.00
  -1  -7   1    5.60    2.50
  -1  -7   1    1.60    2.10
  -1  -7   1    6.40    2.10
  -1  -7   1    6.50    4.20
  -1  -7   1    2.70    2.40
   0   7  -1   11.20    3.40
   0   7  -1   19.80    3.60
   0   7  -1   20.90    4.50
   0   7  -1   21.60    5.20
   0  -7   1   14.00    3.30
   0  -7   1    8.70    4.80
   0  -7   1   13.60    3.40
   0  -7   1   18.10    2.90
   0  -7   1   13.10    2.80
   0  -7   1   14.70    2.30
  -1   7  -1   52.79    7.90
  -1   7  -1   47.80    6.10
  -1   7  -1   36.60    4.80
  -1   7  -1   31.90    4.40
   1  -7   1   46.00    5.00
   1  -7   1   40.30    7.40
   1  -7   1   40.60    5.00
   1  -7   1   43.00    4.40
   1  -7   1   41.80    5.50
  -2   7  -1  458.55   16.80
  -2   7  -1  445.66   16.00
  -2   7  -1  476.45   16.80
  -2   7  -1  468.85   17.20
  -2   7  -1  455.65   20.50
   2  -7   1  459.45   16.60
   2  -7   1  465.05   15.20
   2  -7   1  433.26   20.10
   2  -7   1  455.35   16.20
  -3   7  -1   10.00    4.30
  -3   7  -1   10.80    4.30
  -3   7  -1   11.50    5.20
  -3   7  -1    5.00    7.10
  -3   7  -1   22.20    5.00
   3  -7   1    2.80    3.90
   3  -7   1   17.50    4.80
   3  -7   1   16.50    2.40
   3  -7   1   26.10    7.90
   3  -7   1   14.20    4.00
  -4   7  -1  120.39   10.70
  -4   7  -1  133.09   16.40
  -4   7  -1  144.59   11.00
  -4   7  -1  126.09   10.50
   4  -7   1  132.39    5.80
   4  -7   1  119.69   10.70
   4  -7   1  136.79   10.70
   4  -7   1  139.69    9.40
   4  -7   1  129.19   15.10
  -5   7  -1   11.70    7.00
  -5   7  -1   27.90   12.30
  -5   7  -1    8.40    5.10
  -5   7  -1   11.50    6.90
   5  -7   1   18.00    6.50
   5  -7   1   11.80    6.80
   5  -7   1    4.80   14.80
   9   6  -1   22.00    6.30
   9   6  -1    5.20    4.80
   9   6  -1    8.40    4.70
   9   6  -1   12.20    4.00
  -9  -6   1   18.30    7.30
  -9  -6   1   24.10    8.40
  -9  -6   1    4.40    5.40
   8   6  -1   77.29    6.10
   8   6  -1   83.89    7.00
   8   6  -1   82.89    8.00
   8   6  -1   82.79    9.00
  -8  -6   1   99.69   11.80
  -8  -6   1   74.79    7.80
  -8  -6   1   80.89    8.10
   7   6  -1  161.48    8.50
   7   6  -1  160.28    7.30
   7   6  -1  176.28    9.50
   7   6  -1  164.08    8.90
  -7  -6   1  181.68   10.10
  -7  -6   1  188.08   12.00
  -7  -6   1  171.08    9.40
   6   6  -1 1966.00   49.99
   6   6  -1 2072.59   51.29
   6   6  -1 2059.79   51.39
   6   6  -1 1995.90   50.49
  -6  -6   1 1987.00   51.79
  -6  -6   1 2046.40   54.29
  -6  -6   1 2055.39   51.99
   5   6  -1 1948.51   48.70
   5   6  -1 1914.21   48.90
   5   6  -1 1920.41   47.60
   5   6  -1 2088.69   50.39
  -5  -6   1 2053.49   50.49
  -5  -6   1 1958.20   50.69
  -5  -6   1 1987.20   52.19
  -5  -6   1 1989.30   49.70
   4   6  -1  112.79    6.50
   4   6  -1  104.99    5.10
   4   6  -1  108.69    5.60
   4   6  -1  103.69    4.90
   4   6  -1  101.39    4.50
  -4  -6   1  109.09    3.70
  -4  -6   1  111.19    7.00
  -4  -6   1  105.89    5.40
  -4  -6   1  110.09    6.30
  -4  -6   1  113.79    7.10
  -4  -6   1   98.89    3.60
   3   6  -1  122.89    5.40
   3   6  -1  131.09    6.00
   3   6  -1  127.29    6.90
   3   6  -1  134.09    5.60
  -3  -6   1  143.39    6.60
  -3  -6   1  130.59    7.80
  -3  -6   1  130.99    5.00
  -3  -6   1  133.39    5.80
  -3  -6   1  133.69    5.00
  -3  -6   1  139.69    6.90
   2   6  -1   21.90    2.60
   2   6  -1   14.80    3.20
   2   6  -1   21.50    3.00
  -2  -6   1   21.20    4.20
  -2  -6   1   24.50    2.70
  -2  -6   1   15.30    2.50
  -2  -6   1   19.20    2.40
  -2  -6   1   19.80    2.50
  -2  -6   1   19.50    2.80
   1   6  -1   15.60    3.70
   1   6  -1   15.20    2.50
   1   6  -1   19.10    2.70
   1   6  -1   13.30    2.60
  -1  -6   1   17.60    2.20
  -1  -6   1   11.10    2.40
  -1  -6   1   21.90    2.70
  -1  -6   1   16.10    2.60
  -1  -6   1   20.30    4.20
  -1  -6   1   17.30    2.40
   0   6  -1    6.00    2.30
   0   6  -1    6.40    2.50
   0   6  -1    6.00    3.30
   0   6  -1    5.30    2.00
   0  -6   1    5.10    3.60
   0  -6   1    4.50    2.00
   0  -6   1    8.60    2.40
   0  -6   1    5.20    1.90
   0  -6   1    5.20    1.80
  -1   6  -1  154.48    7.80
  -1   6  -1  173.08   10.40
  -1   6  -1  161.48    8.00
  -1   6  -1  158.08    8.10
   1  -6   1  157.88   10.30
   1  -6   1  166.58    7.00
   1  -6   1  170.78    7.70
   1  -6   1  154.28    7.90
  -2   6  -1  285.07   12.10
  -2   6  -1  274.67   14.90
  -2   6  -1  310.77   12.30
  -2   6  -1  308.37   11.40
  -2   6  -1  295.67   11.80
   2  -6   1  280.77   14.60
   2  -6   1  286.17   11.70
   2  -6   1  285.97   11.20
   2  -6   1  297.97   10.60
  -3   6  -1  708.83   23.40
  -3   6  -1  718.03   23.00
  -3   6  -1  778.42   23.20
  -3   6  -1  733.13   21.60
  -3   6  -1  767.72   27.40
   3  -6   1  724.53   23.00
   3  -6   1  762.42   21.80
   3  -6   1  758.72   22.60
   3  -6   1  684.23   26.00
   3  -6   1  714.13   19.20
  -4   6  -1  157.88   10.40
  -4   6  -1  160.58    8.30
  -4   6  -1  166.48   10.10
  -4   6  -1  175.08   10.90
  -4   6  -1  167.88   14.70
   4  -6   1  173.38   10.50
   4  -6   1  162.58    9.60
   4  -6   1  173.18    6.80
   4  -6   1  140.19   13.70
   4  -6   1  168.28   10.00
  -5   6  -1   86.49    9.20
  -5   6  -1   80.79    9.10
  -5   6  -1   90.29    6.70
  -5   6  -1   74.69    8.10
  -5   6  -1   75.69   12.00
   5  -6   1   80.99   11.30
   5  -6   1   80.59    5.10
   5  -6   1   80.59    8.70
   5  -6   1   65.89    7.60
   5  -6   1   72.19    9.30
  -6   6  -1   70.49    6.00
  -6   6  -1   51.39    7.70
  -6   6  -1   51.29    9.70
  -6   6  -1   92.39   14.50
   6  -6   1   61.89   11.70
   6  -6   1   78.69    8.70
   6  -6   1   73.79    6.00
   6  -6   1   80.29    9.50
  10   5  -1   45.30    6.80
  10   5  -1   51.19    6.80
  10   5  -1   29.80    8.50
 -10  -5   1   44.40    7.20
   9   5  -1    4.50    4.80
   9   5  -1    0.20    5.20
   9   5  -1   -0.50    4.40
   9   5  -1    1.70    3.50
  -9  -5   1    0.30    4.10
  -9  -5   1    2.60    6.90
  -9  -5   1    9.70    5.00
  -9  -5   1  -14.20    6.80
   8   5  -1    4.90    3.00
   8   5  -1    1.10    3.60
   8   5  -1    1.00    3.70
   8   5  -1    5.80    4.80
  -8  -5   1    1.80    3.30
  -8  -5   1   11.50    4.10
  -8  -5   1    9.00    5.00
  -8  -5   1   -3.20    5.10
   7   5  -1    7.50    3.40
   7   5  -1    1.20    2.50
   7   5  -1   -2.60    3.10
   7   5  -1   -3.00    2.20
  -7  -5   1    0.00    3.50
  -7  -5   1   -1.60    2.90
  -7  -5   1   -5.90    3.80
   6   5  -1  148.59    6.50
   6   5  -1  164.28    7.70
   6   5  -1  165.68    7.60
   6   5  -1  156.68    6.90
  -6  -5   1  160.48    8.60
  -6  -5   1  156.38    7.60
  -6  -5   1  120.59   10.70
   5   5  -1 1861.51   46.90
   5   5  -1 1965.70   47.80
   5   5  -1 1941.11   47.40
   5   5  -1 1843.32   46.60
  -5  -5   1 1858.51   47.90
  -5  -5   1 1926.71   48.10
  -5  -5   1 1938.01   50.09
   4   5  -1   18.80    2.30
   4   5  -1   16.10    2.90
   4   5  -1   13.40    1.90
   4   5  -1   18.50    2.40
   4   5  -1   17.30    2.40
  -4  -5   1   16.80    2.80
  -4  -5   1   24.80    3.10
  -4  -5   1   18.30    3.00
  -4  -5   1   13.40    3.20
   3   5  -1   47.10    3.00
   3   5  -1   49.70    3.50
   3   5  -1   48.40    3.10
   3   5  -1   48.10    3.00
   3   5  -1   52.69    4.20
  -3  -5   1   44.10    2.50
  -3  -5   1   48.60    4.40
  -3  -5   1   52.39    3.70
  -3  -5   1   47.70    2.60
  -3  -5   1   43.90    3.70
  -3  -5   1   38.20    4.30
   2   5  -1    3.80    1.30
   2   5  -1    6.20    2.10
   2   5  -1    6.60    1.70
   2   5  -1    3.90    1.30
  -2  -5   1    3.80    1.50
  -2  -5   1    5.30    2.60
  -2  -5   1    5.70    1.80
  -2  -5   1    8.40    1.50
  -2  -5   1    6.20    1.40
  -2  -5   1    5.40    1.90
   1   5  -1   53.99    3.80
   1   5  -1   49.80    3.40
   1   5  -1   51.59    4.60
   1   5  -1   53.09    3.30
  -1  -5   1   50.19    3.40
  -1  -5   1   49.99    5.00
  -1  -5   1   51.79    3.10
  -1  -5   1   51.99    3.40
  -1  -5   1   56.99    3.50
  -1  -5   1   52.59    3.20
   0   5  -1  733.13   22.10
   0   5  -1  746.53   20.20
   0   5  -1  725.63   19.80
   0   5  -1  700.43   20.00
   0  -5   1  728.73   22.50
   0  -5   1  722.83   19.80
   0  -5   1  712.73   19.90
   0  -5   1  729.83   19.20
   0  -5   1  743.33   19.40
  -1   5  -1  275.67   10.10
  -1   5  -1  311.07   12.60
  -1   5  -1  279.57   10.20
  -1   5  -1  283.07   10.00
   1  -5   1  267.97    9.10
   1  -5   1  272.27   10.00
   1  -5   1  272.57   12.40
   1  -5   1  295.17    9.90
  -2   5  -1  371.06   12.60
  -2   5  -1  361.56   11.90
  -2   5  -1  351.46   15.20
  -2   5  -1  349.47   12.50
   2  -5   1  308.97   17.00
   2  -5   1  360.46   12.50
   2  -5   1  364.36   12.20
   2  -5   1  371.36   11.70
  -3   5  -1   10.80    3.60
  -3   5  -1    9.50    2.80
  -3   5  -1   10.60    5.20
  -3   5  -1   13.20    3.60
  -3   5  -1   13.30    2.80
   3  -5   1   10.60    3.40
   3  -5   1   15.50    3.20
   3  -5   1   12.70    2.00
   3  -5   1   10.40    4.90
   3  -5   1    8.40    3.00
  -4   5  -1 1293.57   39.90
  -4   5  -1 1250.47   36.00
  -4   5  -1 1248.98   33.00
  -4   5  -1 1292.37   35.30
  -4   5  -1 1294.57   35.80
   4  -5   1 1269.17   39.00
   4  -5   1 1233.78   35.30
   4  -5   1 1235.18   31.80
   4  -5   1 1292.27   34.30
  -5   5  -1  142.69   10.40
  -5   5  -1  170.38   10.10
  -5   5  -1  149.59   10.60
  -5   5  -1  168.38    7.20
  -5   5  -1  170.08   15.80
   5  -5   1  156.88    6.80
   5  -5   1  161.58   12.60
   5  -5   1  173.88    9.40
   5  -5   1  166.08   10.40
   5  -5   1  163.58   10.10
  -6   5  -1  194.88   17.20
  -6   5  -1  170.98   11.90
  -6   5  -1  176.58   11.60
  -6   5  -1  172.38   12.10
   6  -5   1  187.38   10.90
   6  -5   1  160.28   15.40
   6  -5   1  185.48   11.40
   6  -5   1  166.98   11.70
   6  -5   1  174.78    8.00
  -7   5  -1   79.39   15.50
  -7   5  -1   47.80    7.60
   7  -5   1   44.60   11.60
   7  -5   1   65.49    6.80
   7  -5   1   77.39    9.40
   7  -5   1   59.39    8.20
  10   4  -1    5.40    5.80
  10   4  -1   18.20    5.20
  10   4  -1   18.00    7.20
  10   4  -1   13.10    5.90
 -10  -4   1    8.70    9.70
 -10  -4   1   27.60    6.90
   9   4  -1   -3.60    4.10
   9   4  -1    5.40    5.60
   9   4  -1    2.50    4.50
  -9  -4   1    3.20    6.70
  -9  -4   1    3.70    4.70
  -9  -4   1   -1.50    4.20
  -9  -4   1    3.00    6.90
   8   4  -1    1.90    3.30
   8   4  -1    5.40    3.30
   8   4  -1   11.10    4.60
   8   4  -1    0.70    3.00
   8   4  -1    0.50    2.90
  -8  -4   1   -3.60    3.70
  -8  -4   1    3.80    5.30
  -8  -4   1    7.00    5.10
  -8  -4   1    0.60    3.30
   7   4  -1  177.48    9.20
   7   4  -1  182.08    8.60
   7   4  -1  177.98    8.00
   7   4  -1  194.98    9.10
   7   4  -1  172.78    8.10
  -7  -4   1  187.68   11.30
  -7  -4   1  193.68   10.10
  -7  -4   1  183.18    8.30
  -7  -4   1  179.58    8.80
   6   4  -1   39.70    4.70
   6   4  -1   34.90    3.70
   6   4  -1   37.70    3.90
   6   4  -1   43.30    4.70
   6   4  -1   44.00    4.30
  -6  -4   1   40.00    5.50
  -6  -4   1   41.80    5.10
  -6  -4   1   44.10    5.30
  -6  -4   1   45.60    4.20
   5   4  -1    1.20    1.90
   5   4  -1    0.10    1.80
   5   4  -1    2.20    1.40
   5   4  -1    0.80    1.40
   5   4  -1    2.00    1.90
  -5  -4   1    0.10    2.20
  -5  -4   1    1.90    2.20
  -5  -4   1    2.30    1.90
   4   4  -1 6767.12  156.08
   4   4  -1 6464.65  155.28
  -4  -4   1 6489.05  156.18
  -4  -4   1 6512.95  155.98
  -4  -4   1 6773.02  157.88
  -4  -4   1 6700.23  156.18
   3   4  -1 8542.04  198.28
  -3  -4   1 8352.86  199.28
  -3  -4   1 8469.65  198.58
   2   4  -1   98.69    4.70
   2   4  -1   90.29    3.70
   2   4  -1  100.49    4.10
   2   4  -1   92.99    3.80
  -2  -4   1   96.89    3.50
  -2  -4   1   96.59    5.10
  -2  -4   1   99.59    4.20
  -2  -4   1   93.79    4.60
  -2  -4   1   97.99    3.60
  -2  -4   1   96.29    4.30
   1   4  -1 2757.02   67.69
   1   4  -1 2870.21   69.09
   1   4  -1 2893.41   67.89
   1   4  -1 2837.72   67.49
  -1  -4   1 2831.22   67.59
  -1  -4   1 2868.81   67.79
  -1  -4   1 2784.92   68.49
  -1  -4   1 2819.02   69.69
  -1  -4   1 2841.22   67.79
  -1  -4   1 2875.71   67.19
   0   4  -1   33.80    2.90
   0   4  -1   28.40    2.50
   0   4  -1   32.90    2.60
   0   4  -1   29.00    3.80
   0  -4   1   30.40    2.70
   0  -4   1   30.50    2.70
   0  -4   1   33.80    2.40
   0  -4   1   35.60    4.00
   0  -4   1   29.50    2.60
  -1   4  -1   16.00    2.20
  -1   4  -1   15.50    3.30
  -1   4  -1   14.80    2.20
  -1   4  -1   21.70    2.80
   1  -4   1   24.00    2.90
   1  -4   1   23.00    3.80
   1  -4   1   22.00    2.40
   1  -4   1   19.20    2.30
  -2   4  -1   86.69    5.10
  -2   4  -1   85.19    5.30
  -2   4  -1   90.59    5.40
  -2   4  -1   86.79    4.60
  -2   4  -1   82.39    7.10
   2  -4   1   91.29    7.00
   2  -4   1   91.19    5.30
   2  -4   1   89.19    4.70
   2  -4   1   90.99    5.00
  -3   4  -1  451.45   17.50
  -3   4  -1  443.46   14.60
  -3   4  -1  433.76   14.50
  -3   4  -1  438.16   13.20
  -3   4  -1  442.86   14.80
   3  -4   1  427.56   12.20
   3  -4   1  466.95   14.00
   3  -4   1  443.86   14.50
   3  -4   1  455.45   17.10
   3  -4   1  445.46   14.20
  -4   4  -1   52.89    5.80
  -4   4  -1   47.00    3.90
  -4   4  -1   54.49    5.90
  -4   4  -1   48.60    7.10
  -4   4  -1   55.09    5.80
   4  -4   1   46.80    5.20
   4  -4   1   45.70    5.60
   4  -4   1   42.40    6.30
   4  -4   1   50.59    3.50
   4  -4   1   50.99    5.00
  -5   4  -1  259.77   16.80
  -5   4  -1  261.27    8.70
  -5   4  -1  281.17   12.50
  -5   4  -1  290.97   12.20
  -5   4  -1  270.17   12.40
   5  -4   1  267.57    9.40
   5  -4   1  274.37   12.10
   5  -4   1  268.37   11.50
   5  -4   1  276.77   15.00
   5  -4   1  266.17   11.40
  -6   4  -1  452.35   18.00
  -6   4  -1  480.55   17.70
  -6   4  -1  459.25   18.30
  -6   4  -1  499.95   23.40
   6  -4   1  473.45   14.80
   6  -4   1  457.05   17.80
   6  -4   1  486.95   17.00
   6  -4   1  501.25   17.60
   6  -4   1  468.25   20.60
  -7   4  -1   31.80    6.70
  -7   4  -1   35.90   11.20
  -7   4  -1   31.40    6.30
  -7   4  -1   25.30    6.70
   7  -4   1   22.10    5.50
   7  -4   1   22.40    6.10
   7  -4   1   23.00    4.30
   7  -4   1   29.10    5.70
   7  -4   1   21.00    7.60
  -8   4  -1   19.20    7.70
  -8   4  -1   15.60   13.60
   8  -4   1    6.90    7.00
   8  -4   1    6.20    4.60
   8  -4   1   14.50    7.30
   8  -4   1    6.40   10.00
  10   3  -1   10.10    6.50
  10   3  -1    7.00    5.50
  10   3  -1   20.40    6.10
 -10  -3   1   -8.50    9.60
 -10  -3   1   13.90    7.20
 -10  -3   1   10.30    8.30
   9   3  -1   20.40    5.70
   9   3  -1   16.70    5.30
   9   3  -1   26.60    5.00
   9   3  -1   19.80    5.40
   9   3  -1   19.20    5.20
   9   3  -1   19.40    3.80
  -9  -3   1   23.50    7.80
  -9  -3   1   23.40    6.50
  -9  -3   1   30.20    5.80
  -9  -3   1   18.70    5.20
   8   3  -1    4.10    3.80
   8   3  -1   -0.20    3.20
   8   3  -1   -0.60    4.00
   8   3  -1   -0.10    3.20
   8   3  -1    3.40    5.90
  -8  -3   1    8.10    4.20
  -8  -3   1   -0.10    3.50
  -8  -3   1   11.00    5.20
  -8  -3   1    0.60    4.70
   7   3  -1    0.80    2.70
   7   3  -1   -3.50    2.40
   7   3  -1    3.20    2.80
   7   3  -1    1.00    2.80
   7   3  -1    6.80    2.60
  -7  -3   1    0.20    0.90
  -7  -3   1    1.70    1.10
  -7  -3   1    8.30    4.00
  -7  -3   1    5.20    3.80
  -7  -3   1    0.40    2.50
  -7  -3   1    1.00    3.00
   6   3  -1    1.10    2.30
   6   3  -1    1.10    2.00
   6   3  -1    3.00    2.00
   6   3  -1    0.90    1.90
   6   3  -1   -2.10    2.10
  -6  -3   1    1.00    2.00
  -6  -3   1   -1.60    2.20
  -6  -3   1   -2.50    2.90
  -6  -3   1    2.40    2.70
   5   3  -1  622.04   17.10
   5   3  -1  587.44   16.60
   5   3  -1  582.24   16.80
   5   3  -1  628.24   17.20
   5   3  -1  597.14   18.20
  -5  -3   1  615.04   17.00
  -5  -3   1  633.54   17.90
  -5  -3   1  597.64   17.30
  -5  -3   1  621.04   19.30
   4   3  -1 1985.50   54.29
   4   3  -1 2282.87   53.09
   4   3  -1 2181.58   54.09
   4   3  -1 2073.99   53.19
   4   3  -1 2266.57   52.69
   4   3  -1 2129.39   52.59
  -4  -3   1 2161.38   52.79
  -4  -3   1 2256.17   53.39
  -4  -3   1 2206.48   53.09
  -4  -3   1 2185.68   53.59
  -4  -3   1 2270.17   55.09
   3   3  -1 4197.38  100.79
   3   3  -1 4206.88   99.49
   3   3  -1 4263.07   99.49
   3   3  -1 4204.38   99.49
   3   3  -1 4301.47  100.09
  -3  -3   1 4211.78  100.09
  -3  -3   1 4258.07  101.49
  -3  -3   1 4145.39  100.09
  -3  -3   1 4333.17  100.59
   2   3  -1 2436.66   58.39
   2   3  -1 2415.76   57.99
   2   3  -1 2399.06   57.59
   2   3  -1 2469.15   57.69
   2   3  -1 2385.56   57.59
   2   3  -1 2463.35   58.29
  -2  -3   1 2381.66   56.99
  -2  -3   1 2439.76   58.49
  -2  -3   1 2498.15   57.99
  -2  -3   1 2499.15   58.99
  -2  -3   1 2402.16   58.49
  -2  -3   1 2456.55   56.99
   1   3  -1  661.93   16.60
   1   3  -1  615.64   16.00
   1   3  -1  608.74   15.90
   1   3  -1  640.14   16.20
   1   3  -1  639.84   17.00
  -1  -3   1  645.54   16.50
  -1  -3   1  627.54   15.70
  -1  -3   1  636.24   16.40
  -1  -3   1  643.34   16.20
  -1  -3   1  631.54   17.30
  -1  -3   1  608.14   15.90
   0   3  -1 1329.77   32.40
   0   3  -1 1266.67   32.20
   0   3  -1 1294.97   32.10
   0   3  -1 1363.26   33.80
   0  -3   1 1378.36   32.20
   0  -3   1 1373.16   31.80
   0  -3   1 1295.27   31.30
   0  -3   1 1311.97   32.20
   0  -3   1 1237.28   32.80
   0  -3   1 1286.57   33.80
  -1   3  -1   29.60    2.70
  -1   3  -1   24.40    2.30
  -1   3  -1   25.30    3.50
  -1   3  -1   27.10    3.00
   1  -3   1   26.60    2.30
   1  -3   1   27.50    2.20
   1  -3   1   28.90    3.50
   1  -3   1   24.50    2.40
  -2   3  -1 4044.20   95.09
  -2   3  -1 3913.51   94.19
  -2   3  -1 4129.69   97.59
  -2   3  -1 3856.81   95.09
  -2   3  -1 3952.20   94.89
   2  -3   1 3977.90   94.39
   2  -3   1 3927.01   94.99
   2  -3   1 4004.50   94.79
   2  -3   1 3930.31   92.99
   2  -3   1 3950.90   97.09
  -3   3  -1 2855.51   71.59
  -3   3  -1 3073.29   74.69
  -3   3  -1 2876.91   69.99
  -3   3  -1 2901.01   71.89
  -3   3  -1 2977.60   71.59
   3  -3   1 2859.71   71.49
   3  -3   1 2984.10   71.09
   3  -3   1 2944.11   71.39
   3  -3   1 2827.82   69.49
   3  -3   1 2942.51   73.99
  -4   3  -1  202.38    9.10
  -4   3  -1  196.58   11.00
  -4   3  -1  221.88    9.10
   4  -3   1  224.28    8.90
   4  -3   1  205.08    7.20
   4  -3   1  203.98    9.00
   4  -3   1  202.68   10.90
   4  -3   1  204.98    8.50
  -5   3  -1    3.00    2.80
  -5   3  -1    5.00    3.30
  -5   3  -1    8.80    4.80
  -5   3  -1    4.80    3.10
   5  -3   1    9.30    2.20
   5  -3   1    1.30    2.90
   5  -3   1    7.10    3.00
   5  -3   1    2.30    7.90
   5  -3   1    4.60    3.00
  -6   3  -1  937.21   28.60
  -6   3  -1  855.91   43.30
  -6   3  -1  960.70   27.90
  -6   3  -1  956.60   29.30
   6  -3   1  933.81   30.90
   6  -3   1  966.00   27.80
   6  -3   1  957.00   25.80
   6  -3   1  935.21   28.40
   6  -3   1  999.00   28.10
  -7   3  -1  220.78   18.10
  -7   3  -1  229.78   12.70
  -7   3  -1  218.08   12.50
  -7   3  -1  226.88   12.10
   7  -3   1  226.08   12.00
   7  -3   1  196.98   14.80
   7  -3   1  223.38   11.90
   7  -3   1  207.78    9.50
   7  -3   1  217.78   11.10
  -8   3  -1  121.79   16.30
  -8   3  -1  101.79   11.20
  -8   3  -1   68.69   11.20
  -8   3  -1   70.79    8.90
   8  -3   1  113.39   11.00
   8  -3   1   99.69   10.20
   8  -3   1   98.39   12.30
   8  -3   1   90.79    7.80
  10   2  -1  154.78   11.40
  10   2  -1  148.39   13.30
  10   2  -1  117.69   12.50
 -10  -2   1  147.09   15.30
 -10  -2   1  166.58   13.80
   9   2  -1   73.29    9.10
   9   2  -1   85.59    9.70
   9   2  -1   80.89    8.90
   9   2  -1   94.29    9.60
   9   2  -1   85.79    8.20
  -9  -2   1   99.39   13.10
  -9  -2   1   90.29   10.10
  -9  -2   1   78.99    4.80
  -9  -2   1   92.39    9.60
  -9  -2   1   88.49    5.00
  -9  -2   1   64.49    8.80
   8   2  -1   53.99    4.10
   8   2  -1   46.20    5.90
   8   2  -1   57.49    7.10
   8   2  -1   58.89    6.70
   8   2  -1   55.99    6.90
   8   2  -1   70.49    6.70
  -8  -2   1   66.49    8.40
  -8  -2   1   80.99    9.60
  -8  -2   1   55.59    3.90
  -8  -2   1   58.99    7.50
  -8  -2   1   59.59    7.20
   7   2  -1   12.50    3.20
   7   2  -1   10.10    3.20
   7   2  -1   10.80    3.10
   7   2  -1    8.50    3.10
  -7  -2   1    7.40    4.30
  -7  -2   1    9.30    1.80
  -7  -2   1   12.30    3.30
  -7  -2   1    9.30    4.60
  -7  -2   1    4.40    3.30
   6   2  -1   73.09    5.80
   6   2  -1   71.39    5.30
   6   2  -1   63.49    5.00
   6   2  -1   66.69    4.70
   6   2  -1   62.89    4.60
  -6  -2   1   61.89    5.00
  -6  -2   1   72.09    6.20
  -6  -2   1   60.19    6.50
  -6  -2   1   63.89    3.30
  -6  -2   1   60.79    5.10
   5   2  -1  176.68    6.70
   5   2  -1  169.18    6.90
   5   2  -1  164.18    7.70
   5   2  -1  175.08    6.60
   5   2  -1  176.78    7.10
  -5  -2   1  179.48    7.20
  -5  -2   1  168.08    5.20
  -5  -2   1  173.58    5.40
  -5  -2   1  178.08    7.00
  -5  -2   1  171.98    8.50
  -5  -2   1  188.98    7.90
   4   2  -1  623.14   18.20
   4   2  -1  654.93   17.10
   4   2  -1  628.64   17.10
   4   2  -1  653.73   17.10
  -4  -2   1  629.64   15.40
  -4  -2   1  622.74   17.20
  -4  -2   1  643.04   15.50
  -4  -2   1  632.74   17.60
  -4  -2   1  645.44   18.90
  -4  -2   1  639.94   17.20
   3   2  -1  818.72   21.80
   3   2  -1  829.12   20.70
   3   2  -1  804.62   20.20
   3   2  -1  808.52   20.50
   3   2  -1  826.62   20.60
   3   2  -1  831.32   20.30
  -3  -2   1  815.22   20.80
  -3  -2   1  804.32   20.70
  -3  -2   1  798.82   22.10
  -3  -2   1  823.32   21.30
  -1   2  -1 3409.56   81.19
  -1   2  -1 3399.76   80.99
  -1   2  -1 3460.65   81.29
  -1   2  -1 3533.75   82.69
   1  -2   1 3415.06   80.99
   1  -2   1 3362.36   80.69
   1  -2   1 3425.76   82.49
   1  -2   1 3387.96   81.29
  -2   2  -1 2892.51   69.49
  -2   2  -1 2923.71   70.39
  -2   2  -1 2925.61   72.09
  -2   2  -1 2951.50   70.29
   2  -2   1 2870.51   70.29
   2  -2   1 2960.40   70.29
   2  -2   1 2977.30   71.99
   2  -2   1 2844.22   68.79
   2  -2   1 3000.50   70.09
  -3   2  -1 1218.48   32.10
  -3   2  -1 1153.28   31.70
  -3   2  -1 1228.18   30.30
  -3   2  -1 1285.97   31.90
  -3   2  -1 1267.67   34.00
   3  -2   1 1178.08   31.60
   3  -2   1 1239.18   33.50
   3  -2   1 1263.87   31.80
   3  -2   1 1228.88   30.30
   3  -2   1 1258.77   31.50
  -4   2  -1  237.48    9.50
  -4   2  -1  241.38   11.50
  -4   2  -1  268.77    9.50
  -4   2  -1  242.18    7.30
  -4   2  -1  253.27    9.50
   4  -2   1  245.48    9.40
   4  -2   1  240.38    9.10
   4  -2   1  245.08    8.10
   4  -2   1  258.27    9.40
   4  -2   1  240.68   10.70
  -5   2  -1  932.61   25.20
  -5   2  -1  882.71   28.00
  -5   2  -1  736.93   28.80
   5  -2   1  913.21   25.10
   5  -2   1  833.62   25.60
   5  -2   1  891.51   23.60
   5  -2   1  910.01   25.10
   5  -2   1  944.91   27.80
  -6   2  -1  418.16   14.80
  -6   2  -1  406.46   15.10
  -6   2  -1  424.36   18.10
  -6   2  -1  388.06   15.20
   6  -2   1  409.56   15.00
   6  -2   1  397.26   19.80
   6  -2   1  398.26   14.60
   6  -2   1  406.46   13.20
   6  -2   1  405.46   14.70
  -7   2  -1  161.68   10.10
  -7   2  -1  186.68   16.70
  -7   2  -1  178.68   10.70
  -7   2  -1  191.18   11.30
   7  -2   1  175.18   12.80
   7  -2   1  172.88   10.50
   7  -2   1  177.48   10.20
   7  -2   1  187.58    8.70
   7  -2   1  193.98    9.90
  -8   2  -1  168.28   12.30
  -8   2  -1  148.09   11.10
  -8   2  -1  185.78   11.90
  -8   2  -1  180.58   18.40
   8  -2   1  160.98   10.80
   8  -2   1  170.98   14.90
   8  -2   1  186.58   11.60
   8  -2   1  193.58    9.50
   8  -2   1  149.09   11.50
  -9   2  -1   16.70   12.90
  -9   2  -1   10.00    6.60
  -9   2  -1    8.40    6.90
   9  -2   1   13.10    5.10
   9  -2   1    9.30    7.30
   9  -2   1   23.40    7.00
   9  -2   1   39.80   10.10
  10   1  -1   71.29    9.30
  10   1  -1   71.39    9.20
  10   1  -1   94.69   10.20
 -10  -1   1   61.99   10.00
 -10  -1   1   81.69   14.90
   9   1  -1  363.36   15.90
   9   1  -1  363.06   16.00
   9   1  -1  363.36   14.70
   9   1  -1  381.16   16.50
   9   1  -1  375.66   17.10
  -9  -1   1  367.26   12.60
  -9  -1   1  412.06   20.70
  -9  -1   1  384.96   16.90
  -9  -1   1  378.66   16.60
  -9  -1   1  376.66   12.20
   8   1  -1   -0.50    3.70
   8   1  -1    4.20    3.60
   8   1  -1    8.40    4.50
   8   1  -1    1.30    3.50
   8   1  -1   -1.50    3.50
  -8  -1   1    4.40    2.40
  -8  -1   1    3.20    4.60
  -8  -1   1    3.10    4.40
  -8  -1   1   -1.10    2.40
  -8  -1   1    0.60    4.30
  -8  -1   1   -1.00    5.80
   7   1  -1    3.80    1.40
   7   1  -1    4.30    3.40
   7   1  -1    4.20    2.80
   7   1  -1    5.50    3.10
   7   1  -1    1.40    3.30
   7   1  -1   -0.20    5.00
  -7  -1   1    3.90    3.20
  -7  -1   1   -1.90    3.00
  -7  -1   1    6.50    3.40
  -7  -1   1    5.90    2.30
  -7  -1   1    4.40    2.10
  -7  -1   1    4.80    4.50
   6   1  -1    2.10    2.10
   6   1  -1    1.60    2.20
   6   1  -1    0.60    2.20
   6   1  -1   -1.30    2.00
  -6  -1   1    0.50    1.50
  -6  -1   1    2.30    2.60
  -6  -1   1    2.50    1.70
  -6  -1   1    2.60    2.60
  -6  -1   1    3.80    3.50
   5   1  -1  272.47   10.40
   5   1  -1  264.67    9.30
   5   1  -1  280.87   10.10
   5   1  -1  281.77    9.40
   5   1  -1  291.27    9.80
  -5  -1   1  281.07    9.90
  -5  -1   1  294.67    8.50
  -5  -1   1  277.37    9.80
  -5  -1   1  278.87    8.50
  -5  -1   1  290.27   10.80
  -5  -1   1  285.27   11.20
   4   1  -1  824.82   23.00
   4   1  -1  856.01   21.70
   4   1  -1  833.62   22.20
   4   1  -1  838.22   21.60
   4   1  -1  844.82   21.90
  -4  -1   1  819.72   22.00
  -4  -1   1  807.42   20.80
  -4  -1   1  825.72   22.00
  -4  -1   1  853.51   22.70
  -4  -1   1  823.52   23.30
  -4  -1   1  856.51   20.70
   3   1  -1 3970.50   91.59
   3   1  -1 3915.71   93.09
   3   1  -1 3743.23   91.89
  -3  -1   1 3929.81   92.09
  -3  -1   1 3877.81   92.19
  -3  -1   1 3972.30   92.29
  -3  -1   1 3799.82   91.79
   2   1  -1 2846.72   65.29
   2   1  -1 2809.62   66.79
   2   1  -1 2814.22   65.49
   2   1  -1 2690.03   65.89
  -2  -1   1 2716.13   66.29
  -2  -1   1 2825.32   66.99
  -2  -1   1 2816.42   66.09
   0   1  -1  414.76   10.60
   0   1  -1  419.96   10.70
   0   1  -1  434.86   11.20
   0   1  -1  397.86   11.10
   0   1  -1  422.46   10.50
   0   1  -1  422.76   10.70
   0  -1   1  400.96   10.70
   0  -1   1  435.16   10.40
   0  -1   1  460.15   11.20
   0  -1   1  430.96   10.60
   0  -1   1  418.06   10.50
   0  -1   1  425.46   11.20
  -1   1  -1  768.92   19.50
  -1   1  -1  824.62   20.50
  -1   1  -1  751.12   19.60
  -1   1  -1  771.72   19.40
  -1   1  -1  771.52   19.40
   1  -1   1  768.22   19.40
   1  -1   1  793.92   19.60
   1  -1   1  790.62   19.30
   1  -1   1  795.52   19.40
   1  -1   1  779.82   20.30
  -2   1  -1   47.50    2.70
  -2   1  -1   43.50    2.60
  -2   1  -1   44.70    2.60
  -2   1  -1   43.90    2.10
  -2   1  -1   43.90    3.30
  -2   1  -1   41.80    2.00
   2  -1   1   46.90    2.80
   2  -1   1   44.20    3.80
   2  -1   1   43.90    1.90
   2  -1   1   42.80    2.60
   2  -1   1   37.30    2.50
   2  -1   1   45.00    2.10
  -3   1  -1  854.01   22.60
  -3   1  -1  800.92   20.60
  -3   1  -1  884.71   23.90
  -3   1  -1  829.22   22.10
  -3   1  -1  845.62   21.50
  -3   1  -1  846.52   22.30
   3  -1   1  822.12   21.10
   3  -1   1  844.32   20.70
   3  -1   1  852.81   22.30
   3  -1   1  849.22   23.60
   3  -1   1  856.11   22.20
   3  -1   1  805.32   22.10
  -4   1  -1 4313.67  103.49
  -4   1  -1 4329.57  101.19
  -4   1  -1 4230.08  101.89
  -4   1  -1 4155.78  101.39
  -4   1  -1 4234.58  100.59
   4  -1   1 4096.89  100.09
   4  -1   1 4335.17  101.29
   4  -1   1 4186.58  102.89
   4  -1   1 4245.68  101.29
   4  -1   1 4202.68   98.89
   4  -1   1 4096.59  101.09
  -5   1  -1  520.15   15.60
  -5   1  -1  519.45   17.90
  -5   1  -1  477.75   15.70
  -5   1  -1  486.75   15.20
  -5   1  -1  516.95   16.40
   5  -1   1  494.35   14.60
   5  -1   1  482.85   15.50
   5  -1   1  452.05   16.80
   5  -1   1  499.45   15.70
   5  -1   1  518.35   15.90
  -6   1  -1   42.30    6.30
  -6   1  -1   46.40    5.80
  -6   1  -1   55.69    5.40
  -6   1  -1   45.70    4.90
  -6   1  -1   52.09    5.60
   6  -1   1   53.39    5.50
   6  -1   1   47.30    6.30
   6  -1   1   44.30    5.40
   6  -1   1   35.40    4.20
   6  -1   1   52.19    5.60
  -7   1  -1    3.60    3.50
  -7   1  -1    4.80    3.60
  -7   1  -1    0.50    3.50
  -7   1  -1   12.70    6.90
   7  -1   1    3.30    3.70
   7  -1   1    3.40    3.50
   7  -1   1    7.70    3.20
   7  -1   1    8.80    3.60
   7  -1   1   14.70    6.60
  -8   1  -1  428.16   17.00
  -8   1  -1  433.56   16.10
  -8   1  -1  422.86   17.70
   8  -1   1  428.86   19.40
   8  -1   1  443.86   17.00
   8  -1   1  406.56   16.70
   8  -1   1  429.26   16.40
   8  -1   1  403.16   14.90
  -9   1  -1   63.99    7.70
  -9   1  -1   69.39    8.00
  -9   1  -1   48.80   13.20
   9  -1   1   61.19    6.70
   9  -1   1   78.59    9.10
   9  -1   1   76.49    9.40
   9  -1   1   60.99    7.60
   9  -1   1   77.49   11.10
   9   0  -1   30.00    6.00
   9   0  -1   22.30    5.90
   9   0  -1   33.10    5.70
   9   0  -1   18.50    7.50
   9   0  -1   25.20    6.40
  -9   0   1   21.10    6.90
  -9   0   1   31.70    4.30
  -9   0   1   27.60    5.00
  -9   0   1   22.30    7.30
  -9   0   1   34.00   10.30
   8   0  -1  182.48   10.70
   8   0  -1  153.28   11.60
   8   0  -1  175.28   10.60
   8   0  -1  189.28    9.70
   8   0  -1  171.08   10.90
  -8   0   1  181.68    9.10
  -8   0   1  177.98   11.40
  -8   0   1  189.88   11.20
  -8   0   1  184.88   13.90
  -8   0   1  176.58    8.20
   7   0  -1  146.29    9.00
   7   0  -1  160.28    9.10
   7   0  -1  159.08    8.70
   7   0  -1  149.19    7.80
   7   0  -1  137.09    9.40
  -7   0   1  139.99   10.80
  -7   0   1  158.88    9.40
  -7   0   1  158.58    7.60
  -7   0   1  154.58    7.00
  -7   0   1  138.89   10.40
   6   0  -1  193.58   11.10
   6   0  -1  220.18    9.30
   6   0  -1  205.18   10.10
   6   0  -1  230.88    9.40
   6   0  -1  236.28    9.10
  -6   0   1  236.78   11.50
  -6   0   1  210.58    9.60
  -6   0   1  225.78    8.10
  -6   0   1  231.98    9.60
  -6   0   1  217.78    8.40
  -6   0   1  218.28   10.50
   5   0  -1   91.59    5.90
   5   0  -1  104.29    5.50
   5   0  -1   87.79    5.00
   5   0  -1   84.09    5.00
  -5   0   1   92.99    4.80
  -5   0   1   92.59    5.30
  -5   0   1   95.49    4.50
  -5   0   1   99.29    6.50
  -5   0   1   96.99    5.50
  -5   0   1  101.79    6.50
   4   0  -1   14.90    2.20
   4   0  -1   14.60    2.60
   4   0  -1   14.00    1.20
   4   0  -1   13.00    2.20
   4   0  -1   15.30    2.60
   4   0  -1   13.30    2.00
  -4   0   1    9.50    1.90
  -4   0   1   14.00    2.30
  -4   0   1   15.90    2.10
  -4   0   1   13.60    2.00
  -4   0   1   19.40    3.10
  -4   0   1    9.40    2.50
   3   0  -1 1803.32   43.00
   3   0  -1 1797.62   43.10
   3   0  -1 1700.63   41.80
   3   0  -1 1789.92   43.80
   3   0  -1 1739.13   42.90
   3   0  -1 1763.92   44.10
  -3   0   1 1792.12   42.50
  -3   0   1 1806.32   43.50
  -3   0   1 1736.63   43.20
  -3   0   1 1737.13   44.20
  -3   0   1 1776.12   42.70
  -3   0   1 1835.52   44.20
   2   0  -1  370.96   11.10
   2   0  -1  369.46    9.70
   2   0  -1  378.96   10.10
   2   0  -1  378.96   10.60
   2   0  -1  392.96   10.20
   2   0  -1  384.16   10.00
  -2   0   1  392.66   11.20
  -2   0   1  385.86    9.70
  -2   0   1  376.26    9.90
  -2   0   1  393.56   10.70
  -2   0   1  406.66   10.60
  -2   0   1  380.96   10.80
  -2   0   1  370.36   10.20
   1   0  -1 1659.93   40.10
   1   0  -1 1686.43   40.40
   1   0  -1 1762.32   40.10
   1   0  -1 1664.93   39.70
   1   0  -1 1701.83   39.70
  -1   0   1 1653.33   40.10
  -1   0   1 1642.84   40.50
   0   0  -1 1696.53   40.50
  -2   0  -1 3151.98   73.39
  -2   0  -1 3133.49   73.69
  -2   0  -1 3212.18   74.29
  -2   0  -1 2957.60   73.39
   2   0   1 3142.09   73.49
   2   0   1 3083.89   74.09
   2   0   1 3112.39   72.69
   2   0   1 3101.79   72.69
   2   0   1 2983.00   73.29
  -3   0  -1   65.29    3.30
  -3   0  -1   61.29    4.00
  -3   0  -1   62.99    3.50
  -3   0  -1   71.89    3.50
  -3   0  -1   64.89    3.70
   3   0   1   67.99    2.60
   3   0   1   63.29    3.30
   3   0   1   69.99    3.60
   3   0   1   63.49    4.20
   3   0   1   65.89    3.00
   3   0   1   66.79    3.70
  -4   0  -1  477.25   14.30
  -4   0  -1  470.75   14.60
  -4   0  -1  495.35   14.20
  -4   0  -1  482.55   15.60
  -4   0  -1  483.35   14.10
   4   0   1  461.65   15.10
   4   0   1  497.55   14.50
   4   0   1  485.55   14.10
   4   0   1  485.15   12.50
   4   0   1  508.35   14.40
   4   0   1  487.35   13.60
  -5   0  -1  379.86   12.20
  -5   0  -1  385.06   14.30
  -5   0  -1  372.26   12.40
  -5   0  -1  373.96   13.00
  -5   0  -1  380.76   12.60
   5   0   1  376.86   11.80
   5   0   1  381.16   12.60
   5   0   1  382.86   13.80
   5   0   1  391.66   12.70
   5   0   1  388.06   10.30
   5   0   1  359.96   12.30
  -6   0  -1    4.90    2.80
  -6   0  -1    2.70    2.50
  -6   0  -1    1.20    2.50
  -6   0  -1    2.80    3.90
  -6   0  -1    4.10    2.50
   6   0   1    2.20    2.50
   6   0   1   -0.20    2.50
   6   0   1    2.60    1.20
   6   0   1    2.10    2.80
   6   0   1    2.40    1.80
   6   0   1    0.50    3.10
  -7   0  -1   91.39    7.20
  -7   0  -1   96.39    7.60
  -7   0  -1   89.59    7.70
  -7   0  -1   97.99    9.90
  -7   0  -1   98.39    6.90
   7   0   1   85.29    6.90
   7   0   1  101.59    7.50
   7   0   1   95.59    7.30
   7   0   1   81.49    7.70
  -8   0  -1  273.57   13.70
  -8   0  -1  287.47   13.90
  -8   0  -1  293.57   16.60
  -8   0  -1  274.37   12.70
   8   0   1  289.37   13.20
   8   0   1  269.07   11.40
   8   0   1  270.87   13.00
   8   0   1  278.47   12.60
  -9   0  -1  114.69   11.40
  -9   0  -1  132.69   10.60
  -9   0  -1  136.79   10.60
  -9   0  -1  127.89   14.40
   9   0   1  136.59   13.30
   9   0   1  143.09   11.20
   9   0   1  155.78   11.50
   9   0   1  132.79   10.60
 -10   0  -1    3.80    7.00
 -10   0  -1    5.70    6.10
 -10   0  -1   -1.70   13.70
 -10   0  -1   -5.90    5.70
  10   0   1  -17.80    8.70
  10   0   1    0.10    6.80
  10   0   1    0.60    6.80
   9  -1  -1    1.90    5.10
   9  -1  -1    5.50    5.70
   9  -1  -1    7.60    6.50
   9  -1  -1    3.80    8.00
   9  -1  -1    3.10    5.10
  -9   1   1   18.50   11.40
  -9   1   1    6.20    5.30
  -9   1   1   -2.10    6.50
   8  -1  -1  106.99    8.00
   8  -1  -1   89.59    9.40
   8  -1  -1  102.39    9.20
   8  -1  -1   78.59    8.90
   8  -1  -1   96.79   10.80
  -8   1   1   77.19    9.80
  -8   1   1   79.09    8.00
  -8   1   1  102.89    7.40
  -8   1   1   93.79    9.70
  -8   1   1  117.99   13.80
   7  -1  -1  589.04   18.40
   7  -1  -1  543.85   20.50
   7  -1  -1  585.04   19.40
   7  -1  -1  571.34   18.80
   7  -1  -1  567.34   19.10
  -7   1   1  567.04   19.50
  -7   1   1  589.54   22.80
  -7   1   1  542.45   19.50
  -7   1   1  569.94   17.30
   6  -1  -1   37.80    5.90
   6  -1  -1   50.09    6.10
   6  -1  -1   48.70    5.50
   6  -1  -1   54.09    5.00
   6  -1  -1   46.60    5.20
  -6   1   1   45.60    5.40
  -6   1   1   39.40    5.10
  -6   1   1   43.60    4.90
  -6   1   1   45.70    4.50
  -6   1   1   39.80    6.40
   5  -1  -1   32.10    3.50
   5  -1  -1   32.10    4.60
   5  -1  -1   31.90    4.30
   5  -1  -1   32.50    4.00
   5  -1  -1   36.40    4.00
  -5   1   1   32.60    5.20
  -5   1   1   32.10    3.70
  -5   1   1   35.70    3.50
  -5   1   1   36.50    4.20
  -5   1   1   22.80    3.40
   4  -1  -1   97.39    5.50
   4  -1  -1  103.49    4.90
   4  -1  -1   99.29    6.00
   4  -1  -1   99.49    5.10
   4  -1  -1  102.29    5.10
  -4   1   1  102.29    5.00
  -4   1   1  101.89    6.40
  -4   1   1  103.99    4.60
  -4   1   1  106.69    5.30
  -4   1   1   95.49    5.10
   3  -1  -1 2686.83   66.09
   3  -1  -1 2748.82   66.89
   3  -1  -1 2780.42   67.39
   3  -1  -1 2784.32   66.09
   3  -1  -1 2758.22   65.89
  -3   1   1 2761.62   65.69
  -3   1   1 2646.24   65.89
  -3   1   1 2897.61   67.89
  -3   1   1 2673.03   66.19
   2  -1  -1  646.24   16.40
   2  -1  -1  640.14   17.10
   2  -1  -1  628.04   17.40
   2  -1  -1  648.44   16.40
   2  -1  -1  619.94   16.30
  -2   1   1  654.93   16.20
  -2   1   1  634.64   17.60
  -2   1   1  596.24   16.50
  -2   1   1  630.84   16.30
  -2   1   1  659.53   16.70
   1  -1  -1 3245.38   71.19
   1  -1  -1 2987.00   72.09
  -1   1   1 2950.50   71.49
  -1   1   1 2963.30   71.09
  -1   1   1 2958.80   71.99
   0  -1  -1  108.39    3.10
   0  -1  -1  122.29    3.40
   0  -1  -1  113.69    3.10
   0  -1  -1  106.09    3.60
   0  -1  -1  102.99    3.10
   0  -1  -1  103.89    3.20
   0   1   1  105.79    3.50
   0   1   1  113.99    3.10
   0   1   1  105.59    3.20
   0   1   1  104.59    3.10
   0   1   1  107.69    3.10
   0   1   1  106.09    3.30
  -2  -1  -1 2761.42   64.99
  -2  -1  -1 2762.52   65.09
  -2  -1  -1 2898.81   65.69
  -2  -1  -1 2763.82   65.39
   2   1   1 2656.43   64.89
   2   1   1 2700.93   65.19
   2   1   1 2759.82   65.39
   2   1   1 2685.43   65.49
  -3  -1  -1 4114.99  100.79
  -3  -1  -1 4250.27  100.29
  -3  -1  -1 4294.27  100.69
  -3  -1  -1 4122.09   99.59
   3   1   1 4253.57  100.49
   3   1   1 4109.89   99.79
   3   1   1 4263.57   99.99
   3   1   1 4367.16  100.29
  -4  -1  -1  129.29    6.20
  -4  -1  -1  131.69    5.40
  -4  -1  -1  133.89    5.60
  -4  -1  -1  125.79    5.80
  -4  -1  -1  133.79    5.70
   4   1   1  131.89    6.20
   4   1   1  131.39    5.40
   4   1   1  122.79    5.10
   4   1   1  140.59    5.80
   4   1   1  142.69    6.00
  -5  -1  -1   21.60    2.70
  -5  -1  -1   29.70    3.70
  -5  -1  -1   22.40    2.90
  -5  -1  -1   28.10    3.60
  -5  -1  -1   29.20    4.30
   5   1   1   25.80    3.30
   5   1   1   27.80    3.60
   5   1   1   20.80    3.10
   5   1   1   25.20    2.90
   5   1   1   17.60    2.70
  -6  -1  -1  245.88   11.30
  -6  -1  -1  233.38   10.50
  -6  -1  -1  247.18    9.40
  -6  -1  -1  230.38    9.90
  -6  -1  -1  240.18    9.10
   6   1   1  221.88   10.30
   6   1   1  218.48    8.70
   6   1   1  238.28    9.60
   6   1   1  240.68    9.50
   6   1   1  238.78    9.70
  -7  -1  -1  206.58    9.30
  -7  -1  -1  220.28   12.00
  -7  -1  -1  196.78   10.10
  -7  -1  -1  200.98   10.40
  -7  -1  -1  210.48    9.10
   7   1   1  196.58   10.60
   7   1   1  209.38    9.90
   7   1   1  198.38    9.50
   7   1   1  185.68    8.60
   7   1   1  199.38    6.70
  -8  -1  -1    4.10    3.30
  -8  -1  -1    8.90    4.10
  -8  -1  -1    9.10    4.40
  -8  -1  -1    6.50    6.30
  -8  -1  -1    9.60    3.80
   8   1   1    8.20    1.90
   8   1   1    8.70    4.10
   8   1   1   12.60    5.00
   8   1   1    2.40    3.70
   8   1   1    5.10    3.70
   8   1   1    2.40    2.80
  -9  -1  -1   36.40    6.90
  -9  -1  -1   30.90    5.20
  -9  -1  -1   40.00    6.30
  -9  -1  -1   18.00    6.00
  -9  -1  -1   20.20    6.10
  -9  -1  -1   43.40   10.00
   9   1   1   22.40    5.60
   9   1   1   20.70    6.60
   9   1   1   26.90    5.40
   9   1   1   25.40    5.60
 -10  -1  -1   94.19   10.30
 -10  -1  -1  105.99   12.50
 -10  -1  -1  110.19   13.40
 -10  -1  -1   96.99   14.00
 -10  -1  -1   94.29   10.80
  10   1   1  108.29   12.70
  10   1   1   82.79   11.10
  10   1   1  109.09   11.70
   9  -2  -1    9.20    9.90
   9  -2  -1    1.90    6.40
   9  -2  -1    1.70    6.40
   9  -2  -1   11.30    6.10
  -9   2   1   -0.20    6.20
  -9   2   1   24.10    8.60
  -9   2   1    8.00    5.50
  -9   2   1   10.40   12.30
   8  -2  -1    5.30    7.30
   8  -2  -1   15.20    5.60
   8  -2  -1   17.20    4.60
   8  -2  -1   15.90    4.90
   8  -2  -1    5.00    4.70
  -8   2   1   14.90    5.90
  -8   2   1    7.40    5.60
  -8   2   1   14.60    4.90
  -8   2   1   10.40    5.10
  -8   2   1   24.60    9.30
   7  -2  -1  556.34   21.60
   7  -2  -1  588.64   19.30
   7  -2  -1  577.14   18.40
   7  -2  -1  547.05   19.30
   7  -2  -1  538.95   19.40
  -7   2   1  556.14   17.80
  -7   2   1  555.24   23.40
  -7   2   1  576.04   19.90
  -7   2   1  545.15   18.60
  -7   2   1  548.95   19.90
   6  -2  -1  431.66   16.10
   6  -2  -1  436.66   14.90
   6  -2  -1  459.15   20.30
   6  -2  -1  440.46   15.60
   6  -2  -1  436.86   17.50
  -6   2   1  448.56   15.80
  -6   2   1  449.86   14.50
  -6   2   1  437.96   18.70
  -6   2   1  436.16   16.00
   5  -2  -1   76.09    5.80
   5  -2  -1   66.99    6.90
   5  -2  -1   63.79    5.40
   5  -2  -1   70.99    5.30
   5  -2  -1   74.49    5.30
  -5   2   1   78.89    5.10
  -5   2   1   71.29    5.50
  -5   2   1   78.89    7.90
  -5   2   1   67.29    5.60
   4  -2  -1   77.39    5.00
   4  -2  -1   75.39    5.00
   4  -2  -1   74.49    4.60
   4  -2  -1   76.59    4.80
   4  -2  -1   73.99    6.00
  -4   2   1   75.29    6.80
  -4   2   1   76.49    4.90
  -4   2   1   66.89    4.60
  -4   2   1   83.29    4.70
   3  -2  -1    5.50    1.80
   3  -2  -1    3.50    1.50
   3  -2  -1    2.20    1.30
   3  -2  -1    2.30    2.20
   3  -2  -1    2.70    1.40
  -3   2   1    5.00    1.60
  -3   2   1    3.20    1.50
  -3   2   1    2.60    2.20
  -3   2   1    2.60    1.30
   2  -2  -1  520.45   14.00
   2  -2  -1  499.35   15.50
   2  -2  -1  512.75   14.00
   2  -2  -1  530.35   14.30
  -2   2   1  491.35   15.50
  -2   2   1  497.65   14.10
  -2   2   1  514.25   14.10
  -2   2   1  550.84   14.10
   1  -2  -1 3666.33   89.29
   1  -2  -1 3793.32   90.89
   1  -2  -1 3848.81   89.59
  -1   2   1 3965.10   91.09
  -1   2   1 3702.03   89.39
  -1   2   1 3672.73   89.59
  -1   2   1 3904.71   89.49
   0  -2  -1   11.20    1.20
   0  -2  -1   11.80    1.20
   0  -2  -1   11.60    0.80
   0  -2  -1   10.80    1.70
   0  -2  -1    9.80    1.10
   0   2   1    9.10    1.00
   0   2   1    9.70    1.00
   0   2   1   10.10    1.20
   0   2   1    6.80    1.40
  -1  -2  -1 1655.73   40.00
  -1  -2  -1 1681.13   39.70
  -1  -2  -1 1663.53   39.70
   1   2   1 1721.13   39.80
   1   2   1 1663.33   40.30
   1   2   1 1637.54   39.90
   1   2   1 1635.44   39.60
  -3  -2  -1  684.63   19.10
  -3  -2  -1  730.73   19.40
  -3  -2  -1  723.53   18.50
  -3  -2  -1  752.22   19.50
  -3  -2  -1  723.53   18.90
   3   2   1  701.13   19.20
   3   2   1  703.93   19.10
   3   2   1  736.63   18.90
   3   2   1  736.03   19.30
  -4  -2  -1   16.20    2.40
  -4  -2  -1   12.90    1.80
  -4  -2  -1   10.50    2.00
  -4  -2  -1   14.60    2.70
  -4  -2  -1   11.10    1.80
   4   2   1   10.70    2.00
   4   2   1   14.30    2.00
   4   2   1   16.30    2.40
   4   2   1   22.10    2.70
  -5  -2  -1   72.89    4.20
  -5  -2  -1   75.89    5.10
  -5  -2  -1   80.29    5.00
  -5  -2  -1   77.09    5.50
  -5  -2  -1   73.19    4.20
   5   2   1   77.59    5.00
   5   2   1   77.49    4.50
   5   2   1   72.19    4.90
   5   2   1   80.69    5.10
  -6  -2  -1 1361.86   37.50
  -6  -2  -1 1424.16   36.10
  -6  -2  -1 1373.46   37.70
  -6  -2  -1 1441.86   38.60
  -6  -2  -1 1376.46   36.20
   6   2   1 1405.96   37.80
   6   2   1 1449.95   37.30
   6   2   1 1405.56   36.70
   6   2   1 1419.56   36.50
   6   2   1 1447.46   37.30
  -7  -2  -1  171.88    9.20
  -7  -2  -1  176.38    7.90
  -7  -2  -1  167.78    7.90
  -7  -2  -1  188.88   10.60
  -7  -2  -1  181.68    9.80
   7   2   1  189.48    9.30
   7   2   1  182.58    9.10
   7   2   1  186.88    8.90
   7   2   1  167.18    9.30
  -8  -2  -1    8.40    4.20
  -8  -2  -1   15.80    3.40
  -8  -2  -1   12.20    5.50
  -8  -2  -1   17.60    6.60
  -8  -2  -1   22.80    4.20
  -8  -2  -1   12.50    4.30
   8   2   1   15.10    4.30
   8   2   1   19.50    5.20
   8   2   1   13.90    3.80
   8   2   1   14.80    4.20
  -9  -2  -1   18.10    4.40
  -9  -2  -1   27.50    5.60
  -9  -2  -1   18.90    4.50
  -9  -2  -1   40.50    8.90
  -9  -2  -1   24.90    5.70
  -9  -2  -1   31.20    6.80
   9   2   1   25.70    3.20
   9   2   1   24.00    5.70
   9   2   1   12.50    5.10
   9   2   1   21.10    6.30
   9   2   1   21.60    5.30
 -10  -2  -1   89.69   10.90
 -10  -2  -1  101.49   13.30
 -10  -2  -1   81.49   11.70
 -10  -2  -1  104.09   10.40
 -10  -2  -1  126.29   16.80
  10   2   1  103.89   12.90
  10   2   1   95.19   12.00
  10   2   1   90.19   10.40
  10   2   1   96.19   11.30
   8  -3  -1    4.30    6.60
   8  -3  -1    8.50    5.30
   8  -3  -1   25.50    6.10
   8  -3  -1   -3.10    7.90
   8  -3  -1    8.80    5.20
  -8   3   1    4.20    5.40
  -8   3   1    8.70    6.50
  -8   3   1   12.70    5.90
  -8   3   1    2.90   10.70
   7  -3  -1   64.09    9.20
   7  -3  -1   99.89    7.90
   7  -3  -1   95.09    8.80
   7  -3  -1   83.89    8.50
   7  -3  -1   83.29    8.20
  -7   3   1  105.59   12.60
  -7   3   1   82.29    8.90
  -7   3   1   91.59    8.20
  -7   3   1   75.49    8.30
  -7   3   1   83.99    9.40
   6  -3  -1  732.93   25.90
   6  -3  -1  713.33   23.20
   6  -3  -1  742.93   22.90
   6  -3  -1  755.32   22.40
   6  -3  -1  744.53   22.60
  -6   3   1  712.13   26.50
  -6   3   1  771.12   22.20
  -6   3   1  709.03   22.70
  -6   3   1  727.63   23.70
   5  -3  -1  340.07   12.80
   5  -3  -1  342.37   12.60
   5  -3  -1  336.77   13.80
   5  -3  -1  330.77   15.00
   5  -3  -1  328.07   12.90
  -5   3   1  360.96   16.20
  -5   3   1  369.36   12.50
  -5   3   1  348.27   13.00
  -5   3   1  363.86   13.50
   4  -3  -1  578.24   17.90
   4  -3  -1  599.64   17.40
   4  -3  -1  598.54   17.60
   4  -3  -1  563.14   17.60
   4  -3  -1  565.54   19.80
  -4   3   1  600.74   20.80
  -4   3   1  636.84   17.60
  -4   3   1  565.44   17.70
   3  -3  -1  853.21   24.00
   3  -3  -1  864.01   23.50
   3  -3  -1  888.41   26.20
   3  -3  -1  886.81   24.00
   3  -3  -1  923.71   23.70
  -3   3   1  892.61   23.60
  -3   3   1  907.71   26.60
  -3   3   1  852.81   24.10
  -3   3   1  860.51   23.80
   2  -3  -1  527.85   14.40
   2  -3  -1  483.35   16.30
   2  -3  -1  493.75   14.70
   2  -3  -1  506.55   14.40
  -2   3   1  523.55   16.80
  -2   3   1  486.75   14.40
  -2   3   1  515.35   14.70
  -2   3   1  543.65   14.60
   1  -3  -1  296.37   10.70
   1  -3  -1  300.07    9.30
   1  -3  -1  307.37    9.10
   1  -3  -1  310.47    9.00
  -1   3   1  294.67   10.60
  -1   3   1  306.87    9.20
  -1   3   1  308.07    9.20
  -1   3   1  298.77    9.10
   0  -3  -1 3372.06   81.99
   0  -3  -1 3562.24   82.29
   0  -3  -1 3475.85   82.39
   0  -3  -1 3472.05   84.09
   0   3   1 3658.63   83.79
   0   3   1 3422.66   83.09
   0   3   1 3376.86   82.09
   0   3   1 3452.05   82.29
  -1  -3  -1 4064.69   92.89
  -1  -3  -1 3888.51   94.69
   1   3   1 3982.60   93.09
   1   3   1 3706.33   92.09
  -2  -3  -1 2279.67   55.99
  -2  -3  -1 2368.26   55.99
  -2  -3  -1 2360.16   56.49
  -2  -3  -1 2323.37   56.79
   2   3   1 2367.26   56.19
   2   3   1 2423.46   56.89
   2   3   1 2342.37   56.29
   2   3   1 2163.98   57.79
   2   3   1 2501.95   55.29
  -3  -3  -1 1757.72   42.40
  -3  -3  -1 1696.63   41.80
  -3  -3  -1 1736.03   42.80
  -3  -3  -1 1750.72   42.80
  -3  -3  -1 1752.62   42.00
   3   3   1 1719.73   42.40
   3   3   1 1681.43   41.90
   3   3   1 1733.73   42.30
   3   3   1 1738.23   42.90
  -4  -3  -1  483.45   12.20
  -4  -3  -1  488.75   14.30
  -4  -3  -1  449.16   14.10
  -4  -3  -1  471.15   14.40
  -4  -3  -1  473.75   13.30
   4   3   1  484.35   14.30
   4   3   1  469.85   13.40
   4   3   1  480.25   14.10
   4   3   1  495.75   14.00
  -5  -3  -1  404.76   12.10
  -5  -3  -1  417.66   11.50
  -5  -3  -1  422.06   12.40
  -5  -3  -1  429.56   13.90
  -5  -3  -1  429.06   13.70
  -5  -3  -1  414.76   13.50
   5   3   1  402.16   13.30
   5   3   1  430.96   13.30
   5   3   1  415.46   12.60
   5   3   1  413.76   13.40
  -6  -3  -1  415.06   14.30
  -6  -3  -1  412.86   12.70
  -6  -3  -1  440.36   14.80
  -6  -3  -1  418.46   12.90
  -6  -3  -1  422.46   15.00
  -6  -3  -1  434.86   12.40
   6   3   1  428.86   14.20
   6   3   1  426.06   14.30
   6   3   1  418.06   14.00
   6   3   1  391.66   13.20
  -7  -3  -1   14.50    3.00
  -7  -3  -1   21.60    3.20
  -7  -3  -1   19.70    4.70
  -7  -3  -1   15.00    3.90
  -7  -3  -1   18.10    2.80
  -7  -3  -1   22.00    4.90
   7   3   1   16.50    4.10
   7   3   1   24.40    4.30
   7   3   1   19.20    3.80
  -8  -3  -1  135.99   10.60
  -8  -3  -1  128.49    7.20
  -8  -3  -1  135.39    7.50
  -8  -3  -1  129.69    7.00
  -8  -3  -1  131.89    9.80
  -8  -3  -1  127.49    9.10
   8   3   1  143.79    9.20
   8   3   1  122.99    8.10
   8   3   1  132.79    9.20
   8   3   1  118.39    8.30
  -9  -3  -1   69.19    6.90
  -9  -3  -1   53.59    6.80
  -9  -3  -1   62.89    6.40
  -9  -3  -1   56.89    6.90
  -9  -3  -1   50.09    7.30
  -9  -3  -1   61.59    9.40
   9   3   1   63.99    8.30
   9   3   1   77.49    8.50
   9   3   1   65.09    7.80
   9   3   1   74.69    9.10
 -10  -3  -1  135.49    8.90
 -10  -3  -1  154.28   14.20
 -10  -3  -1  152.88   11.00
 -10  -3  -1  137.59    9.20
 -10  -3  -1  126.59   14.10
  10   3   1  124.49   13.10
  10   3   1  122.79   12.20
  10   3   1  141.89   11.50
  10   3   1  132.69   11.30
   8  -4  -1   25.60    6.60
   8  -4  -1   24.30    6.90
   8  -4  -1   17.00    6.80
   8  -4  -1   10.90   10.10
  -8   4   1    3.20   12.90
  -8   4   1   34.40    9.20
  -8   4   1   13.70    6.90
  -8   4   1   17.60    6.50
   7  -4  -1    1.40    7.80
   7  -4  -1    3.80    4.00
   7  -4  -1    0.80    4.80
   7  -4  -1    3.20    5.10
   7  -4  -1    3.70    5.10
  -7   4   1   -2.00    5.10
  -7   4   1   18.50    6.10
  -7   4   1    6.20   10.00
  -7   4   1    2.00    4.80
  -7   4   1    1.60    5.70
   6  -4  -1    1.20    5.80
   6  -4  -1    7.40    4.70
   6  -4  -1    1.80    3.50
   6  -4  -1    7.60    3.80
   6  -4  -1    1.10    3.70
  -6   4   1    4.90    4.30
  -6   4   1    7.30    4.40
  -6   4   1    2.50    3.80
   5  -4  -1  665.13   21.20
   5  -4  -1  677.83   20.40
   5  -4  -1  629.04   20.20
   5  -4  -1  635.34   20.20
  -5   4   1  653.43   21.90
  -5   4   1  681.13   25.00
  -5   4   1  637.74   21.40
  -5   4   1  630.74   20.70
   4  -4  -1 1774.62   48.80
   4  -4  -1 1860.61   51.79
   4  -4  -1 1881.61   48.20
   4  -4  -1 1847.12   48.30
   4  -4  -1 1945.01   48.40
  -4   4   1 1840.72   45.00
  -4   4   1 1895.51   49.30
  -4   4   1 1950.60   52.69
  -4   4   1 1996.50   48.40
  -4   4   1 1908.81   48.90
   3  -4  -1   34.70    4.30
   3  -4  -1   30.90    4.90
   3  -4  -1   30.20    3.70
   3  -4  -1   34.90    3.80
  -3   4   1   27.90    3.50
  -3   4   1   37.20    5.90
  -3   4   1   29.50    4.00
  -3   4   1   34.10    3.80
   2  -4  -1  419.06   12.90
   2  -4  -1  435.56   13.60
   2  -4  -1  435.26   12.80
   2  -4  -1  419.46   15.60
  -2   4   1  437.46   13.50
  -2   4   1  409.86   13.10
  -2   4   1  411.96   15.40
  -2   4   1  440.96   13.20
   1  -4  -1  426.36   14.90
   1  -4  -1  426.46   12.20
   1  -4  -1  455.75   12.70
   1  -4  -1  411.76   12.70
  -1   4   1  435.46   12.70
  -1   4   1  421.46   14.70
  -1   4   1  414.26   12.60
  -1   4   1  409.66   12.50
   0  -4  -1  833.12   24.50
   0  -4  -1  848.32   22.60
   0  -4  -1  886.51   22.20
   0  -4  -1  871.71   22.60
   0   4   1  867.41   22.30
   0   4   1  892.71   22.60
   0   4   1  856.01   22.50
   0   4   1  879.81   24.30
  -1  -4  -1 1211.98   29.80
  -1  -4  -1 1167.88   29.50
  -1  -4  -1 1173.08   29.20
  -1  -4  -1 1170.68   31.20
   1   4   1 1183.68   29.50
   1   4   1 1216.38   30.90
   1   4   1 1164.78   29.20
   1   4   1 1148.29   29.50
  -2  -4  -1  784.12   21.80
  -2  -4  -1  777.02   20.40
  -2  -4  -1  786.52   20.50
  -2  -4  -1  798.52   21.10
   2   4   1  777.92   20.40
   2   4   1  789.42   20.70
   2   4   1  816.12   20.80
   2   4   1  849.02   19.50
   2   4   1  811.82   21.60
  -3  -4  -1 1332.87   34.70
  -3  -4  -1 1355.46   33.60
  -3  -4  -1 1363.56   34.50
  -3  -4  -1 1321.37   33.40
   3   4   1 1394.56   34.80
   3   4   1 1418.36   33.20
   3   4   1 1361.76   34.00
   3   4   1 1323.07   33.60
  -4  -4  -1 1746.53   44.10
  -4  -4  -1 1740.53   42.70
  -4  -4  -1 1776.92   43.00
  -4  -4  -1 1768.12   44.30
  -4  -4  -1 1783.42   44.00
   4   4   1 1799.22   44.30
   4   4   1 1663.63   43.40
   4   4   1 1727.23   43.10
  -5  -4  -1   19.20    3.00
  -5  -4  -1    8.50    1.40
  -5  -4  -1    8.80    2.60
  -5  -4  -1    7.60    1.70
  -5  -4  -1    9.00    2.80
  -5  -4  -1    7.10    1.80
   5   4   1    9.60    2.20
   5   4   1    6.80    2.10
   5   4   1    6.10    2.00
   5   4   1    5.90    2.30
  -6  -4  -1  331.87   13.70
  -6  -4  -1  352.16   13.10
  -6  -4  -1  345.77   11.00
  -6  -4  -1  330.57   12.80
  -6  -4  -1  342.37   10.60
  -6  -4  -1  342.97   10.00
   6   4   1  349.17   12.30
   6   4   1  342.27   12.10
   6   4   1  344.77   11.60
   6   4   1  337.17   12.40
  -7  -4  -1  305.07   10.40
  -7  -4  -1  310.97   13.00
  -7  -4  -1  281.07    9.80
  -7  -4  -1  298.47   12.30
  -7  -4  -1  310.57   10.10
   7   4   1  307.07   11.90
   7   4   1  261.07   13.10
   7   4   1  302.57   12.20
   7   4   1  301.47   12.00
  -8  -4  -1 1229.18   36.70
  -8  -4  -1 1257.97   36.90
  -8  -4  -1 1227.98   32.80
  -8  -4  -1 1226.68   35.50
  -8  -4  -1 1229.68   32.50
  -8  -4  -1 1256.47   32.90
   8   4   1 1275.27   34.40
   8   4   1 1230.88   35.10
   8   4   1 1319.67   35.50
   8   4   1 1278.17   35.60
  -9  -4  -1    8.40    4.90
  -9  -4  -1    7.40    3.20
  -9  -4  -1    2.40    6.10
  -9  -4  -1    1.80    3.20
  -9  -4  -1    0.50    3.10
  -9  -4  -1   10.80    6.00
   9   4   1   -6.20    4.70
   9   4   1   11.40    4.80
   9   4   1    2.30    4.90
   9   4   1    3.30    4.10
 -10  -4  -1   -3.50    8.50
 -10  -4  -1    0.70    4.60
 -10  -4  -1   18.20    8.10
 -10  -4  -1   -9.70   10.80
 -10  -4  -1    6.50    3.90
  10   4   1    6.40    6.10
  10   4   1    7.40    6.40
  10   4   1    6.70    6.40
  10   4   1    8.40    5.40
   7  -5  -1    1.50    6.00
   7  -5  -1    4.60    5.50
   7  -5  -1   -0.10    5.40
   7  -5  -1  -14.90    8.50
  -7   5   1    9.30   12.80
  -7   5   1    4.20    5.40
  -7   5   1   -7.30    6.40
  -7   5   1    1.90    6.70
   6  -5  -1   19.40    5.00
   6  -5  -1   19.40    4.90
   6  -5  -1   12.20    5.30
   6  -5  -1   17.00    4.70
   6  -5  -1   23.40    9.00
  -6   5   1    6.20    5.10
  -6   5   1   16.60    5.40
  -6   5   1   18.90    5.20
  -6   5   1   31.10   10.70
   5  -5  -1   23.90    5.20
   5  -5  -1   11.10    6.70
   5  -5  -1   13.20    4.10
   5  -5  -1   13.10    4.00
   5  -5  -1   10.40    4.40
  -5   5   1   34.90    9.10
  -5   5   1   15.20    4.30
  -5   5   1   18.00    4.60
  -5   5   1   16.00    4.60
   4  -5  -1  768.92   22.80
   4  -5  -1  734.03   23.60
   4  -5  -1  725.73   26.30
   4  -5  -1  747.63   22.40
   4  -5  -1  748.53   22.40
  -4   5   1  803.62   27.30
  -4   5   1  782.72   23.60
  -4   5   1  767.82   23.80
  -4   5   1  775.52   23.00
   3  -5  -1   43.00    4.80
   3  -5  -1   54.19    7.20
   3  -5  -1   45.40    5.40
   3  -5  -1   46.50    4.50
  -3   5   1   53.49    5.30
  -3   5   1   42.90    5.30
  -3   5   1   30.10    5.90
  -3   5   1   34.40    4.40
   2  -5  -1  475.35   14.40
   2  -5  -1  449.06   13.90
   2  -5  -1  447.76   14.80
   2  -5  -1  427.06   17.20
  -2   5   1  455.85   14.50
  -2   5   1  458.45   14.50
  -2   5   1  444.66   14.60
  -2   5   1  487.65   17.80
   1  -5  -1  688.03   19.10
   1  -5  -1  678.23   19.40
   1  -5  -1  685.33   18.70
   1  -5  -1  647.44   21.70
  -1   5   1  666.03   19.10
  -1   5   1  680.73   19.10
  -1   5   1  662.83   19.10
  -1   5   1  682.13   21.60
   0  -5  -1 1666.13   41.10
   0  -5  -1 1722.03   41.80
   0  -5  -1 1603.24   44.30
   0  -5  -1 1640.24   41.80
   0   5   1 1627.84   41.60
   0   5   1 1670.23   41.40
   0   5   1 1730.93   41.80
   0   5   1 1634.14   43.70
  -1  -5  -1   52.29    3.30
  -1  -5  -1   56.09    3.60
  -1  -5  -1   51.59    3.70
  -1  -5  -1   43.80    4.70
   1   5   1   51.99    3.30
   1   5   1   54.49    3.70
   1   5   1   54.89    3.30
   1   5   1   53.79    4.70
  -2  -5  -1  376.66   10.90
  -2  -5  -1  363.96   11.00
  -2  -5  -1  361.56   12.60
  -2  -5  -1  366.76   11.50
   2   5   1  362.36   10.80
   2   5   1  357.96   11.00
   2   5   1  374.56   12.30
   2   5   1  371.36   11.20
  -3  -5  -1   86.69    4.80
  -3  -5  -1   80.59    5.20
  -3  -5  -1   77.99    4.00
  -3  -5  -1   92.59    4.40
   3   5   1   86.49    4.30
   3   5   1   86.19    4.00
   3   5   1   88.89    4.20
   3   5   1   90.09    4.50
   3   5   1   90.99    5.40
  -4  -5  -1 2545.25   61.79
  -4  -5  -1 2564.34   62.89
  -4  -5  -1 2648.33   63.39
  -4  -5  -1 2549.65   63.29
  -4  -5  -1 2443.26   61.39
   4   5   1 2638.74   63.49
   4   5   1 2519.25   61.99
   4   5   1 2527.85   62.29
   4   5   1 2565.14   62.49
  -5  -5  -1  318.37   10.10
  -5  -5  -1  324.37   11.60
  -5  -5  -1  333.87   11.90
  -5  -5  -1  320.77    9.90
  -5  -5  -1  335.17   12.00
   5   5   1  319.17   11.70
   5   5   1  322.27   11.20
   5   5   1  299.77   10.40
   5   5   1  321.07   10.80
  -6  -5  -1   31.50    3.70
  -6  -5  -1   33.30    4.80
  -6  -5  -1   30.80    2.30
  -6  -5  -1   31.20    4.60
  -6  -5  -1   28.60    3.10
  -6  -5  -1   21.40    3.80
   6   5   1   31.70    3.70
   6   5   1   31.40    4.40
   6   5   1   30.60    3.80
   6   5   1   30.00    3.70
  -7  -5  -1   -0.30    1.70
  -7  -5  -1   -0.80    2.30
  -7  -5  -1    3.50    3.20
  -7  -5  -1   -1.20    3.70
  -7  -5  -1    2.70    2.00
  -7  -5  -1   -3.50    3.60
   7   5   1   -1.20    2.80
   7   5   1    1.80    3.50
   7   5   1    0.30    2.80
  -8  -5  -1   32.50    4.00
  -8  -5  -1   32.00    3.60
  -8  -5  -1   23.30    5.90
  -8  -5  -1   36.20    6.00
  -8  -5  -1   33.80    5.40
  -8  -5  -1   29.30    3.60
   8   5   1   26.00    4.40
   8   5   1   27.30    4.90
   8   5   1   31.10    5.30
   8   5   1   30.90    5.40
  -9  -5  -1    8.40    6.40
  -9  -5  -1    1.00    2.90
  -9  -5  -1    3.40    3.00
  -9  -5  -1   -0.20    3.20
  -9  -5  -1    3.30    5.30
  -9  -5  -1   -3.10    4.10
   9   5   1    2.40    4.20
   9   5   1   -2.50    4.30
   9   5   1    1.00    5.70
   9   5   1   -2.80    4.50
 -10  -5  -1    3.50    4.30
 -10  -5  -1   12.40    7.50
 -10  -5  -1    1.60    3.90
 -10  -5  -1   -4.50    3.50
 -10  -5  -1   -4.30    8.90
  10   5   1   11.10    6.80
  10   5   1    1.30    5.20
  10   5   1   -2.10    5.60
  10   5   1   -9.30    5.30
   6  -6  -1   32.60    6.90
   6  -6  -1   41.80    7.00
   6  -6  -1   40.90   10.20
   6  -6  -1   40.70    6.30
  -6   6   1   37.10    7.80
  -6   6   1   29.70   12.20
  -6   6   1   37.80    6.60
   5  -6  -1  218.78   16.80
   5  -6  -1  218.58   11.40
   5  -6  -1  211.28   11.20
   5  -6  -1  202.88   10.90
   5  -6  -1  216.88   12.40
  -5   6   1  195.18    6.90
  -5   6   1  210.28   11.80
  -5   6   1  184.08   11.10
  -5   6   1  220.98   18.90
  -5   6   1  210.38   12.20
   4  -6  -1  272.37   11.80
   4  -6  -1  280.87   16.00
   4  -6  -1  295.37   11.60
   4  -6  -1  287.67   11.90
   4  -6  -1  278.67   13.10
  -4   6   1  276.97   13.10
  -4   6   1  295.67   17.10
  -4   6   1  296.17   12.80
  -4   6   1  273.27    9.50
  -4   6   1  264.77   12.90
   3  -6  -1   15.80    3.50
   3  -6  -1   21.60    3.90
   3  -6  -1   18.60    6.30
   3  -6  -1   22.70    4.60
  -3   6   1   24.20    4.70
  -3   6   1   17.40    4.30
  -3   6   1   20.00    4.10
   2  -6  -1  989.50   28.20
   2  -6  -1  974.30   31.50
   2  -6  -1 1006.70   26.90
  -2   6   1 1011.10   31.40
  -2   6   1  957.00   27.60
  -2   6   1  973.00   28.00
  -2   6   1  977.90   27.60
   1  -6  -1   79.39    5.00
   1  -6  -1   77.49    5.30
   1  -6  -1   72.69    9.10
   1  -6  -1   86.49    9.70
  -1   6   1   78.99    8.00
  -1   6   1   81.79    5.70
  -1   6   1   90.79    5.80
  -1   6   1   83.69    5.50
   0  -6  -1  880.21   24.60
   0  -6  -1  898.11   23.90
   0  -6  -1  919.81   24.60
   0  -6  -1  879.01   27.70
   0   6   1  884.51   24.20
   0   6   1  888.21   24.50
   0   6   1  895.21   24.60
   0   6   1  881.71   26.80
  -1  -6  -1  467.55   14.70
  -1  -6  -1  503.95   14.20
  -1  -6  -1  486.75   14.90
  -1  -6  -1  492.35   17.40
   1   6   1  474.15   16.30
   1   6   1  504.75   14.90
   1   6   1  491.95   14.40
   1   6   1  471.85   14.50
  -2  -6  -1  938.31   25.10
  -2  -6  -1  972.50   25.80
  -2  -6  -1  941.61   24.80
  -2  -6  -1  929.51   27.60
   2   6   1  946.21   24.90
   2   6   1  978.10   25.40
   2   6   1  933.81   25.10
   2   6   1  937.31   26.70
  -3  -6  -1  182.18    8.80
  -3  -6  -1  185.48    7.80
  -3  -6  -1  187.68    7.10
  -3  -6  -1  176.98    6.90
   3   6   1  179.98    6.30
   3   6   1  177.68    8.30
   3   6   1  179.38    7.40
   3   6   1  182.08    6.90
   3   6   1  183.08    7.10
  -4  -6  -1  885.91   24.40
  -4  -6  -1  896.91   23.40
  -4  -6  -1  901.51   24.90
  -4  -6  -1  850.41   25.30
  -4  -6  -1  855.21   23.00
   4   6   1  864.11   23.70
   4   6   1  882.91   23.50
   4   6   1  874.71   24.00
   4   6   1  901.91   25.00
  -5  -6  -1   -2.90    2.40
  -5  -6  -1    0.00    1.80
  -5  -6  -1    0.80    1.50
  -5  -6  -1    0.70    2.60
  -5  -6  -1   -0.40    2.50
   5   6   1   -0.90    1.70
   5   6   1    0.70    1.90
   5   6   1   -2.30    2.00
   5   6   1    0.70    2.40
  -6  -6  -1   80.79    7.20
  -6  -6  -1   82.89    6.70
  -6  -6  -1   86.69    4.60
  -6  -6  -1   79.99    8.00
  -6  -6  -1   91.99    5.20
   6   6   1   83.09    6.60
   6   6   1   88.49    5.60
   6   6   1   79.39    5.50
   6   6   1   75.09    6.60
  -7  -6  -1  293.87   13.40
  -7  -6  -1  291.57   13.60
  -7  -6  -1  295.07   12.60
  -7  -6  -1  297.27   10.30
  -7  -6  -1  294.67    9.70
   7   6   1  298.37   12.70
   7   6   1  309.27   12.80
   7   6   1  303.37   11.50
   7   6   1  296.17   11.40
  -8  -6  -1  402.06   12.30
  -8  -6  -1  412.46   17.00
  -8  -6  -1  408.56   12.80
  -8  -6  -1  386.26   15.90
  -8  -6  -1  400.96   17.20
   8   6   1  406.56   14.80
   8   6   1  406.76   14.60
   8   6   1  407.16   16.10
   8   6   1  405.36   15.70
  -9  -6  -1   32.70    3.90
  -9  -6  -1   27.00    7.30
  -9  -6  -1   31.30    6.20
  -9  -6  -1   34.60    3.70
  -9  -6  -1   37.30    7.70
  -9  -6  -1   36.30    4.30
   9   6   1   25.20    5.10
   9   6   1   22.90    6.10
   9   6   1   34.60    6.20
   9   6   1   33.90    5.60
 -10  -6  -1   68.99    7.10
 -10  -6  -1   75.59   11.30
 -10  -6  -1   70.19    6.30
 -10  -6  -1   60.59   11.60
 -10  -6  -1   58.59    5.40
  10   6   1   55.19    7.20
  10   6   1   55.59    9.00
  10   6   1   59.89    8.50
  10   6   1   59.39    7.70
   5  -7  -1   33.40    6.80
   5  -7  -1   33.00   10.70
   5  -7  -1   34.50    6.80
   5  -7  -1   36.90    6.60
  -5   7   1   35.90    7.80
  -5   7   1   29.70    8.90
  -5   7   1   35.90    6.90
  -5   7   1   33.90    4.10
  -5   7   1   42.60   12.90
   4  -7  -1    3.70    5.00
   4  -7  -1    5.30    4.30
   4  -7  -1   -1.90    4.40
   4  -7  -1   -5.00    7.70
   4  -7  -1    2.10    3.90
  -4   7   1   -0.80    7.80
  -4   7   1    4.00    5.00
  -4   7   1   -0.60    4.00
  -4   7   1    5.50    3.20
  -4   7   1   -4.60    4.10
   3  -7  -1  130.59    9.60
   3  -7  -1  146.49    9.30
   3  -7  -1  128.59   13.30
   3  -7  -1  142.09    8.40
  -3   7   1  139.09    9.70
  -3   7   1  130.39    9.90
  -3   7   1  124.09   14.00
  -3   7   1  140.09    9.10
   2  -7  -1  497.35   17.10
   2  -7  -1  508.45   21.60
   2  -7  -1  545.55   16.70
   2  -7  -1  473.35   17.50
  -2   7   1  499.95   17.70
  -2   7   1  545.05   21.60
  -2   7   1  523.25   17.50
  -2   7   1  492.75   17.40
   1  -7  -1  133.49    7.40
   1  -7  -1  135.29    8.10
   1  -7  -1  120.79    7.00
   1  -7  -1  129.39   11.30
  -1   7   1  117.29   10.60
  -1   7   1  122.29    7.50
  -1   7   1  133.69    7.90
  -1   7   1  120.89    7.60
   0  -7  -1  599.64   17.70
   0  -7  -1  619.54   18.60
   0  -7  -1  581.34   21.90
   0  -7  -1  625.74   15.60
   0  -7  -1  586.94   18.70
   0   7   1  610.44   18.60
   0   7   1  608.74   18.30
   0   7   1  572.24   18.30
   0   7   1  611.94   21.10
  -1  -7  -1  221.78    9.30
  -1  -7  -1  235.78    8.80
  -1  -7  -1  214.88   11.70
  -1  -7  -1  225.58    9.50
   1   7   1  231.38    9.20
   1   7   1  232.68   11.60
   1   7   1  238.68    9.10
   1   7   1  236.28    9.60
  -2  -7  -1  480.65   14.30
  -2  -7  -1  471.25   14.70
  -2  -7  -1  455.75   17.50
  -2  -7  -1  472.75   15.20
   2   7   1  480.55   14.60
   2   7   1  466.65   15.70
   2   7   1  461.25   16.50
   2   7   1  470.85   15.00
  -3  -7  -1   42.60    4.90
  -3  -7  -1   48.70    4.30
  -3  -7  -1   49.40    4.40
  -3  -7  -1   35.20    5.10
   3   7   1   43.80    4.00
   3   7   1   47.70    5.60
   3   7   1   46.80    4.60
   3   7   1   58.39    4.30
  -4  -7  -1  277.07    9.60
  -4  -7  -1  268.67    9.70
  -4  -7  -1  288.07   12.30
  -4  -7  -1  289.37   11.30
  -4  -7  -1  284.87   10.80
   4   7   1  275.37   10.00
   4   7   1  281.47   11.70
   4   7   1  284.47   10.70
   4   7   1  281.67    9.90
  -5  -7  -1    0.20    1.90
  -5  -7  -1   -2.20    2.10
  -5  -7  -1    4.20    3.60
  -5  -7  -1    2.10    3.10
  -5  -7  -1    3.50    3.10
   5   7   1    3.00    3.30
   5   7   1    2.70    2.20
   5   7   1    4.10    2.90
  -6  -7  -1  195.48   10.20
  -6  -7  -1  195.48   10.60
  -6  -7  -1  205.08    7.90
  -6  -7  -1  183.88    7.40
  -6  -7  -1  181.18   10.60
   6   7   1  184.38    8.50
   6   7   1  182.48    8.50
   6   7   1  185.58    9.60
   6   7   1  195.08   10.20
  -7  -7  -1   -2.10    4.50
  -7  -7  -1    1.90    4.60
  -7  -7  -1    1.40    4.20
  -7  -7  -1    0.10    2.60
  -7  -7  -1    1.70    2.20
   7   7   1    2.10    4.10
   7   7   1   -1.70    2.90
   7   7   1   -0.80    2.90
   7   7   1   -3.40    4.10
  -8  -7  -1   26.30    6.10
  -8  -7  -1   32.00    3.80
  -8  -7  -1   27.20    6.60
  -8  -7  -1   28.50    5.80
  -8  -7  -1   27.60    3.20
   8   7   1   34.70    5.90
   8   7   1   34.20    5.10
   8   7   1   33.40    4.90
   8   7   1   31.20    5.80
  -9  -7  -1   48.60    8.90
  -9  -7  -1   33.10    3.80
  -9  -7  -1   19.50    7.00
  -9  -7  -1   27.70    3.30
  -9  -7  -1   28.90    6.60
   9   7   1   36.50    6.60
   9   7   1   35.40    5.90
   9   7   1   20.50    5.10
   9   7   1   35.10    7.10
 -10  -7  -1   38.90   10.40
 -10  -7  -1   12.40   10.10
  10   7   1   24.80    8.50
  10   7   1   13.40    5.80
  10   7   1   24.20    7.80
   4  -8  -1  188.68   12.40
   4  -8  -1  182.28   10.90
   4  -8  -1  166.48   19.30
   4  -8  -1  157.18   11.40
  -4   8   1  173.38   10.00
  -4   8   1  188.98   13.30
  -4   8   1  160.18   14.20
  -4   8   1  181.58   18.60
   3  -8  -1  466.85   17.80
   3  -8  -1  452.65   22.80
   3  -8  -1  429.66   18.00
   3  -8  -1  465.85   16.70
  -3   8   1  430.86   17.30
  -3   8   1  437.56   17.70
  -3   8   1  449.36   23.10
  -3   8   1  404.66   17.70
   2  -8  -1  195.18   15.40
   2  -8  -1  217.58   11.60
   2  -8  -1  229.38   10.50
   2  -8  -1  209.58   11.70
  -2   8   1  214.18   11.20
  -2   8   1  207.78   11.50
  -2   8   1  223.18   16.20
  -2   8   1  226.88   11.60
   1  -8  -1   38.10    8.70
   1  -8  -1   54.89    7.30
   1  -8  -1   36.50    5.30
   1  -8  -1   47.80    5.40
  -1   8   1   52.99    6.30
  -1   8   1   53.19    6.70
  -1   8   1   50.99    6.40
  -1   8   1   56.39    8.40
   0  -8  -1  437.06   15.40
   0  -8  -1  416.36   19.30
   0  -8  -1  417.76   14.30
   0  -8  -1  423.56   15.30
   0  -8  -1  432.96   11.40
   0   8   1  417.56   15.30
   0   8   1  423.46   18.30
   0   8   1  397.96   14.80
   0   8   1  416.66   15.10
  -1  -8  -1  705.53   21.00
  -1  -8  -1  638.44   24.40
  -1  -8  -1  676.03   20.60
  -1  -8  -1  670.03   19.70
   1   8   1  643.94   20.30
   1   8   1  664.73   20.10
   1   8   1  682.73   23.10
   1   8   1  666.33   20.60
  -2  -8  -1  198.08    8.60
  -2  -8  -1  197.58    9.10
  -2  -8  -1  206.38    9.60
  -2  -8  -1  202.68   11.90
   2   8   1  200.08    8.90
   2   8   1  195.78    9.60
   2   8   1  207.88   11.30
   2   8   1  203.78    8.70
  -3  -8  -1  187.98    9.60
  -3  -8  -1  209.68    8.90
  -3  -8  -1  189.98   11.70
  -3  -8  -1  216.28    8.60
   3   8   1  196.78    8.40
   3   8   1  190.78    8.50
   3   8   1  206.88   10.50
  -4  -8  -1  250.27   12.70
  -4  -8  -1  234.98   10.80
  -4  -8  -1  232.98    9.30
  -4  -8  -1  244.28    9.50
  -4  -8  -1  251.07   10.60
   4   8   1  241.48   14.40
   4   8   1  233.48    9.50
   4   8   1  253.47   11.50
   4   8   1  252.07    9.60
  -5  -8  -1    0.00    3.90
  -5  -8  -1    0.00    4.20
  -5  -8  -1    0.90    2.40
  -5  -8  -1    3.80    2.60
  -5  -8  -1    3.30    3.90
   5   8   1   -0.30    2.50
   5   8   1    2.10    2.30
   5   8   1    6.00    4.00
  -6  -8  -1   87.59    9.20
  -6  -8  -1  109.69    9.00
  -6  -8  -1  106.49    6.20
  -6  -8  -1   92.39    5.80
  -6  -8  -1  110.39    9.70
   6   8   1   92.59    8.80
   6   8   1   92.19    8.00
   6   8   1  113.89    6.90
   6   8   1   97.79    6.70
  -7  -8  -1   16.30    5.40
  -7  -8  -1   10.10    2.90
  -7  -8  -1    9.10    5.10
  -7  -8  -1   15.60    3.40
  -7  -8  -1    3.30    4.70
   7   8   1    9.20    3.50
   7   8   1    2.30    3.20
   7   8   1    4.50    4.90
   7   8   1    4.60    5.20
  -8  -8  -1   64.29    8.90
  -8  -8  -1   72.09    9.30
  -8  -8  -1   59.09    7.90
  -8  -8  -1   79.89    6.00
  -8  -8  -1   69.29    5.20
   8   8   1   65.59    7.90
   8   8   1   68.49    7.30
   8   8   1   77.69    8.10
   8   8   1   80.69    8.60
  -9  -8  -1   63.29    4.80
  -9  -8  -1   81.39   10.80
  -9  -8  -1   47.20    9.70
  -9  -8  -1   70.79    5.10
   9   8   1   62.19    7.20
   9   8   1   67.59    8.60
   9   8   1   72.29    8.50
   9   8   1   69.09    9.30
   3  -9  -1    9.20    6.70
   3  -9  -1    8.50    6.20
   3  -9  -1   11.90    5.70
  -3   9   1   20.70    6.00
  -3   9   1   11.10   12.30
  -3   9   1   -1.30    6.60
  -3   9   1    9.90    7.10
   2  -9  -1  175.08   11.80
   2  -9  -1  178.68   10.90
   2  -9  -1  196.38   18.20
   2  -9  -1  185.68   13.00
  -2   9   1  169.88   11.90
  -2   9   1  179.68   12.60
  -2   9   1  199.08   13.60
  -2   9   1  207.98   17.90
   1  -9  -1   75.99    8.70
   1  -9  -1   66.59    5.00
   1  -9  -1   82.19   10.80
   1  -9  -1   79.69    9.30
   1  -9  -1   64.39    6.60
  -1   9   1   71.89   11.20
  -1   9   1   72.39    8.70
  -1   9   1   72.99    8.90
  -1   9   1   71.89    8.50
   0  -9  -1  695.23   23.10
   0  -9  -1  686.43   27.50
   0  -9  -1  712.93   21.80
   0  -9  -1  722.33   23.20
   0   9   1  718.13   26.50
   0   9   1  726.13   23.20
   0   9   1  688.33   22.40
   0   9   1  717.93   23.10
  -1  -9  -1  139.19    9.20
  -1  -9  -1  146.19    8.30
  -1  -9  -1  145.39    9.80
  -1  -9  -1  129.29   12.80
   1   9   1  152.58   11.80
   1   9   1  124.09    8.60
   1   9   1  133.69    8.80
   1   9   1  144.59    9.30
  -2  -9  -1   88.99   11.60
  -2  -9  -1   90.89    7.70
  -2  -9  -1  113.39    8.30
  -2  -9  -1   96.99    7.40
   2   9   1   97.59    7.30
   2   9   1  100.99    7.90
   2   9   1  112.49    8.70
   2   9   1  112.19   10.00
  -3  -9  -1  263.27   15.20
  -3  -9  -1  286.97   11.30
  -3  -9  -1  275.07   11.00
  -3  -9  -1  289.87   12.80
  -3  -9  -1  262.37   11.20
   3   9   1  270.87   12.00
   3   9   1  266.37   11.10
   3   9   1  263.57   10.90
   3   9   1  255.07   13.30
  -4  -9  -1  114.49   11.00
  -4  -9  -1  110.99    7.30
  -4  -9  -1  124.09    8.70
  -4  -9  -1  114.39    7.40
  -4  -9  -1  126.49    9.10
   4   9   1  104.89    7.30
   4   9   1  118.29    8.60
   4   9   1  108.19    7.30
   4   9   1  105.09    9.30
  -5  -9  -1    6.70    5.50
  -5  -9  -1    7.20    4.50
  -5  -9  -1    0.70    3.00
  -5  -9  -1   -0.80    4.40
  -5  -9  -1    2.10    3.00
   5   9   1   -0.40    3.10
   5   9   1    5.10    4.30
   5   9   1    2.30    3.10
   5   9   1    1.60    4.40
  -6  -9  -1   40.60    6.70
  -6  -9  -1   33.00    4.20
  -6  -9  -1   44.40    7.00
  -6  -9  -1   31.00    4.00
  -6  -9  -1   38.50    6.70
   6   9   1   31.10    6.70
   6   9   1   33.50    4.60
   6   9   1   30.60    4.60
   6   9   1   33.50    5.90
  -7  -9  -1   19.80    3.70
  -7  -9  -1   37.00    4.30
  -7  -9  -1   31.50    6.90
  -7  -9  -1   41.00    7.60
  -7  -9  -1   18.10    6.90
   7   9   1   45.80    7.50
   7   9   1   21.80    4.90
   7   9   1   34.20    5.00
   7   9   1   27.50    6.20
  -8  -9  -1    0.40    3.20
  -8  -9  -1    3.10    7.80
  -8  -9  -1  -13.20    7.20
  -8  -9  -1    3.80    2.90
  -8  -9  -1    9.30    7.70
   8   9   1    9.60    4.40
   8   9   1   15.80    6.70
   8   9   1  -10.30    6.10
   8   9   1    2.60    4.00
  -9  -9  -1    4.40   10.70
   9   9   1    8.50    7.70
   9   9   1    0.80    5.10
   9   9   1    0.40    7.20
   2 -10  -1  118.99   14.10
   2 -10  -1   95.89   12.20
  -2  10   1   74.59   21.80
  -2  10   1   79.19   10.60
   1 -10  -1    6.80    5.60
   1 -10  -1    7.50    6.50
   1 -10  -1   20.90    7.50
  -1  10   1   -2.80    6.40
  -1  10   1   12.00   11.00
  -1  10   1   12.50    6.00
   0 -10  -1   28.00    7.20
   0 -10  -1   13.80   15.40
   0 -10  -1    4.40    5.30
   0 -10  -1   13.60    5.30
   0  10   1   13.40    6.70
   0  10   1   12.00    6.10
   0  10   1   18.90    6.00
   0  10   1   15.80    9.70
  -1 -10  -1   31.90    7.00
  -1 -10  -1   21.30    5.20
  -1 -10  -1   25.30    9.60
  -1 -10  -1   15.20    5.60
   1  10   1   17.90    5.50
   1  10   1   22.60    5.90
   1  10   1   21.30    5.20
   1  10   1   11.30    7.40
  -2 -10  -1  204.78   11.40
  -2 -10  -1  234.28   11.40
  -2 -10  -1  185.68   15.60
  -2 -10  -1  219.48   13.10
   2  10   1  241.78   12.30
   2  10   1  247.38   14.40
   2  10   1  194.98   11.10
   2  10   1  187.98   10.40
  -3 -10  -1  108.89   12.90
  -3 -10  -1   99.89    8.50
  -3 -10  -1   96.29    9.20
  -3 -10  -1  106.29   10.00
  -3 -10  -1   92.19    8.30
   3  10   1   94.79    8.20
   3  10   1  105.59   10.90
   3  10   1  104.99    6.00
   3  10   1   85.29    8.70
   3  10   1   94.89    7.40
  -4 -10  -1   15.10    4.40
  -4 -10  -1   12.40    4.30
  -4 -10  -1    5.30    7.30
  -4 -10  -1   13.00    5.30
  -4 -10  -1    9.50    5.50
   4  10   1   10.00    4.20
   4  10   1   14.40    5.10
   4  10   1    9.70    3.80
   4  10   1   13.90    2.40
   4  10   1   11.70    5.80
  -5 -10  -1   69.89    7.40
  -5 -10  -1   70.49    7.20
  -5 -10  -1   70.49    7.90
  -5 -10  -1   56.39    9.20
  -5 -10  -1   65.69    8.30
   5  10   1   77.99    7.20
   5  10   1   94.79   10.80
   5  10   1   70.09    8.90
   5  10   1   68.69    7.30
  -6 -10  -1   14.40    4.10
  -6 -10  -1    3.00    6.30
  -6 -10  -1    9.40    7.90
  -6 -10  -1   21.30    4.40
  -6 -10  -1   18.80    7.00
   6  10   1   14.10    5.80
   6  10   1   10.20    3.90
   6  10   1   20.70    6.70
   6  10   1   18.00    4.70
  -7 -10  -1   11.00    7.70
  -7 -10  -1    8.20    3.70
  -7 -10  -1    9.00    7.60
  -7 -10  -1    4.90    4.00
   7  10   1    8.80    4.60
   7  10   1   10.20    6.80
   7  10   1    6.20    4.50
   7  10   1  -10.80    6.60
  -8 -10  -1   27.70   10.10
  -8 -10  -1   21.50   10.80
   8  10   1   29.40    9.00
   8  10   1   12.30    7.90
   8  10   1   21.10    6.10
  -1 -11  -1  -12.50    5.80
  -1 -11  -1   10.70    7.90
  -1 -11  -1    1.60    5.70
   1  11   1   10.60    6.60
   1  11   1    6.00    5.30
   1  11   1   -0.50   10.40
   1  11   1   11.60    7.00
  -2 -11  -1  134.69   11.30
  -2 -11  -1  107.39   10.60
  -2 -11  -1  122.69    9.50
  -2 -11  -1  126.19   13.90
   2  11   1  113.99   13.00
   2  11   1  135.49   16.00
   2  11   1  124.09    8.80
   2  11   1  106.09   11.00
  -3 -11  -1   -3.10    7.10
  -3 -11  -1   15.50    5.70
  -3 -11  -1    8.80    5.40
  -3 -11  -1   13.30    5.50
   3  11   1   28.90    9.10
   3  11   1   23.40    6.00
   3  11   1   14.10    6.60
   3  11   1   18.60    4.10
  -4 -11  -1    2.50    5.00
  -4 -11  -1    2.40    6.80
  -4 -11  -1    2.10    6.10
  -4 -11  -1   -3.00    4.90
   4  11   1   -4.50    4.90
   4  11   1    5.70    7.90
   4  11   1   11.30    6.30
   4  11   1    1.20    4.90
  -5 -11  -1   80.69   10.20
  -5 -11  -1  111.49   12.90
  -5 -11  -1   88.59    9.10
  -5 -11  -1   75.99    9.20
   5  11   1   77.79    8.40
   5  11   1   92.69   11.50
   5  11   1   90.39    9.50
   5  11   1   84.69   10.80
  -6 -11  -1   11.60    8.90
  -6 -11  -1   -0.80    7.90
  -6 -11  -1    9.20    5.10
   6  11   1    4.60    9.00
   6  11   1    6.10    7.40
   6  11   1   -1.30    6.80
   5  10  -2   34.90    7.20
   5  10  -2   35.30    5.30
   5  10  -2   42.50    8.00
  -5 -10   2   40.10    9.70
  -5 -10   2   34.90    5.50
   4  10  -2   38.70    5.50
   4  10  -2   55.69    8.40
   4  10  -2   37.60    7.10
  -4 -10   2   47.50    8.90
  -4 -10   2   37.70    7.10
  -4 -10   2   48.80    6.50
   3  10  -2   44.20    7.10
   3  10  -2   35.50    7.50
   3  10  -2   19.20    5.20
   3  10  -2   31.10    6.10
  -3 -10   2   22.30   12.80
  -3 -10   2   41.60    5.20
  -3 -10   2   32.20    7.20
   2  10  -2   -0.60    7.60
   2  10  -2   26.50    5.90
   2  10  -2   20.60    6.00
   2  10  -2   24.50    6.40
  -2 -10   2   21.30    4.50
  -2 -10   2   21.30    4.50
  -2 -10   2   20.40    6.50
  -2 -10   2   20.90    4.30
  -2 -10   2   21.00    5.70
   1  10  -2  235.78   14.50
   1  10  -2  277.77   15.10
   1  10  -2  221.08   16.50
   1  10  -2  262.37   18.30
  -1 -10   2  245.18   14.20
  -1 -10   2  265.57   11.00
  -1 -10   2  242.68   12.20
  -1 -10   2  252.17   11.20
  -1 -10   2  252.87   11.30
   0  10  -2   12.20   12.20
   0  10  -2    2.00    7.30
   0  10  -2   -2.00    7.30
   0 -10   2  -10.40    6.60
   0 -10   2   11.40    6.10
   0 -10   2    3.40    4.50
   0 -10   2   12.80    4.80
   7   9  -2   52.39    8.20
   7   9  -2   42.60    6.00
   7   9  -2   57.99    7.50
  -7  -9   2   51.49    9.30
  -7  -9   2   60.39   12.40
   6   9  -2    6.50    5.90
   6   9  -2    3.50    3.90
  -6  -9   2   11.70    8.70
  -6  -9   2   11.30    6.20
  -6  -9   2   14.20    7.20
   5   9  -2   19.70    6.10
   5   9  -2   24.10    5.40
   5   9  -2   23.90    3.40
   5   9  -2   22.60    3.90
   5   9  -2   16.80    4.30
  -5  -9   2   26.00    7.80
  -5  -9   2   27.90    5.80
  -5  -9   2   23.90    7.20
  -5  -9   2   17.80    4.30
   4   9  -2   71.09    7.00
   4   9  -2   72.99    8.50
   4   9  -2   87.19    9.40
   4   9  -2   74.09    6.30
  -4  -9   2   73.69    6.50
  -4  -9   2   80.29   10.50
  -4  -9   2   67.39    8.40
  -4  -9   2   59.59    8.40
   3   9  -2    8.00    4.70
   3   9  -2   12.50    4.40
   3   9  -2   15.70    4.30
   3   9  -2   18.80    5.70
  -3  -9   2   19.30    6.60
  -3  -9   2   19.20    3.70
  -3  -9   2    9.40    4.90
  -3  -9   2   13.60    5.30
   2   9  -2   57.89    6.30
   2   9  -2   47.00    6.20
   2   9  -2   57.59    7.10
   2   9  -2   44.90    7.00
  -2  -9   2   62.99    7.30
  -2  -9   2   55.39    5.80
  -2  -9   2   48.40    5.30
  -2  -9   2   46.40    5.50
  -2  -9   2   60.49    9.20
  -2  -9   2   48.00    4.70
   1   9  -2   22.60    6.80
   1   9  -2   16.50    5.10
   1   9  -2   14.80    5.50
   1   9  -2   18.30    4.80
  -1  -9   2   20.00    4.10
  -1  -9   2   23.10    3.70
  -1  -9   2   10.40    4.60
  -1  -9   2   15.70    4.00
  -1  -9   2   10.20    7.50
   0   9  -2   60.59    9.00
   0   9  -2   50.89    6.90
   0   9  -2   52.39    7.80
   0   9  -2   51.69    8.60
   0   9  -2   50.19    6.50
   0  -9   2   38.70    9.30
   0  -9   2   51.19    5.20
   0  -9   2   43.00    4.30
   0  -9   2   38.50    6.50
   0  -9   2   44.40    5.50
   0  -9   2   43.80    6.10
  -1   9  -2  378.36   17.40
  -1   9  -2  416.16   17.80
  -1   9  -2  405.66   18.00
  -1   9  -2  389.76   17.60
  -1   9  -2  405.26   21.90
   1  -9   2  399.76   15.10
   1  -9   2  405.36   14.80
   1  -9   2  408.76   16.80
   1  -9   2  409.16   16.90
  -2   9  -2   -2.30   10.60
  -2   9  -2    4.10    6.60
  -2   9  -2    6.90    7.30
   2  -9   2   -6.00    5.70
   2  -9   2    2.60    5.90
   2  -9   2    3.90    5.20
   2  -9   2    1.50    4.40
   8   8  -2   18.30    5.80
   8   8  -2   29.70    7.80
   8   8  -2   36.80    5.80
  -8  -8   2   22.60   10.30
  -8  -8   2   31.60    7.00
   7   8  -2  535.95   19.00
   7   8  -2  492.55   16.60
   7   8  -2  486.95   15.00
   7   8  -2  509.85   17.40
  -7  -8   2  485.45   19.10
  -7  -8   2  566.54   24.00
  -7  -8   2  524.75   18.90
   6   8  -2   11.90    3.50
   6   8  -2   14.30    3.00
   6   8  -2   10.70    2.40
   6   8  -2   15.40    5.00
  -6  -8   2   13.70    5.10
  -6  -8   2    7.60    5.70
  -6  -8   2   14.70    7.20
   5   8  -2    5.70    3.00
   5   8  -2    1.00    2.40
   5   8  -2    3.80    2.50
   5   8  -2    7.40    4.30
   5   8  -2    4.70    4.40
  -5  -8   2    1.30    4.50
  -5  -8   2    5.30    3.20
  -5  -8   2    9.60    5.70
  -5  -8   2    2.80    5.50
   4   8  -2   11.60    4.00
   4   8  -2    7.60    2.80
   4   8  -2    8.10    2.80
   4   8  -2    8.00    4.10
   4   8  -2    8.80    2.70
  -4  -8   2    1.90    4.90
  -4  -8   2    6.80    5.70
  -4  -8   2    6.80    4.20
  -4  -8   2   11.60    3.30
   3   8  -2  169.88    8.10
   3   8  -2  173.58    8.80
   3   8  -2  162.48   10.00
  -3  -8   2  182.88   10.00
  -3  -8   2  180.78    9.20
  -3  -8   2  172.78   12.00
  -3  -8   2  174.38    8.00
   2   8  -2   10.20    3.30
   2   8  -2   15.60    3.90
   2   8  -2    5.70    4.50
   2   8  -2    5.20    3.10
  -2  -8   2    8.30    3.00
  -2  -8   2   11.90    2.50
  -2  -8   2   13.20    3.80
  -2  -8   2   11.90    2.80
  -2  -8   2   16.50    6.20
  -2  -8   2   10.10    3.60
   1   8  -2   38.80    6.50
   1   8  -2   28.70    4.70
   1   8  -2   31.20    5.30
   1   8  -2   53.29    6.10
  -1  -8   2   34.10    4.30
  -1  -8   2   37.60    4.50
  -1  -8   2   38.90    3.90
  -1  -8   2   34.10    4.10
  -1  -8   2   32.60    7.30
  -1  -8   2   35.40    4.80
   0   8  -2   13.60    5.10
   0   8  -2   22.60    4.90
   0   8  -2   19.20    4.20
   0   8  -2   20.30    5.80
   0   8  -2    9.60    4.50
   0  -8   2   17.40    4.40
   0  -8   2   17.10    3.40
   0  -8   2    9.20    5.80
   0  -8   2   13.40    3.60
   0  -8   2   16.20    4.30
   0  -8   2   15.20    2.80
  -1   8  -2  332.27   17.10
  -1   8  -2  329.97   15.00
  -1   8  -2  317.57   14.70
  -1   8  -2  309.87   13.80
  -1   8  -2  323.87   14.50
   1  -8   2  330.17   13.60
   1  -8   2  312.27   17.00
   1  -8   2  317.47   12.10
   1  -8   2  338.67   13.50
  -2   8  -2    6.30    5.30
  -2   8  -2   -5.10    5.00
  -2   8  -2    2.10    4.70
  -2   8  -2    5.80    4.70
  -2   8  -2  -15.60    7.40
   2  -8   2    5.10    3.50
   2  -8   2   -0.20    7.10
   2  -8   2   -2.40    3.90
   2  -8   2   -2.90    4.70
   2  -8   2    4.10    5.20
  -3   8  -2    9.00    5.90
  -3   8  -2   16.70    6.10
  -3   8  -2    8.90   10.70
  -3   8  -2    3.00    6.70
   3  -8   2   13.30    5.10
   3  -8   2    1.60    5.70
   3  -8   2   13.80    5.50
  -4   8  -2    8.10    9.20
  -4   8  -2   29.60   13.80
  -4   8  -2    6.30    6.50
  -4   8  -2    3.90    7.80
   4  -8   2   15.30    7.40
   4  -8   2   16.00    6.20
   8   7  -2    8.50    4.20
   8   7  -2    6.70    4.40
   8   7  -2   -4.90    5.60
  -8  -7   2   -0.30    5.60
  -8  -7   2   -2.80    8.60
  -8  -7   2   -1.70    4.90
   7   7  -2  127.19    9.30
   7   7  -2  131.99    8.30
   7   7  -2  124.29    6.20
   7   7  -2  122.29    7.90
  -7  -7   2  130.29    9.70
  -7  -7   2  150.18   14.10
  -7  -7   2  130.59    9.80
   6   7  -2  139.09    7.20
   6   7  -2  146.09    8.50
   6   7  -2  139.49    8.20
   6   7  -2  133.19    5.80
   6   7  -2  134.19    6.10
  -6  -7   2  145.49    9.10
  -6  -7   2  137.19   12.10
  -6  -7   2  130.99    9.60
   5   7  -2   -0.20    3.50
   5   7  -2   -3.80    2.10
   5   7  -2    0.50    2.10
   5   7  -2    2.20    1.90
   5   7  -2    0.90    2.60
  -5  -7   2   -1.80    4.00
  -5  -7   2    2.20    2.60
  -5  -7   2   -3.50    3.00
  -5  -7   2    3.00    4.90
   4   7  -2    2.20    2.00
   4   7  -2    6.80    2.50
   4   7  -2    5.00    3.30
   4   7  -2    3.80    2.10
   4   7  -2    4.60    2.90
  -4  -7   2    0.70    4.00
  -4  -7   2    4.00    3.10
  -4  -7   2   -0.50    3.60
  -4  -7   2    4.10    2.80
   3   7  -2    9.00    2.40
   3   7  -2   13.80    3.10
   3   7  -2   13.40    2.60
   3   7  -2    8.80    3.60
  -3  -7   2   12.80    3.10
  -3  -7   2   14.20    3.10
  -3  -7   2   12.40    3.50
  -3  -7   2    6.60    4.50
   2   7  -2   90.89    5.70
   2   7  -2  114.69    6.60
   2   7  -2   94.79    5.50
  -2  -7   2   89.69    5.50
  -2  -7   2   96.89    6.10
  -2  -7   2  101.69    6.40
  -2  -7   2   95.49    4.70
  -2  -7   2   92.29    8.80
  -2  -7   2   94.29    4.50
   1   7  -2   99.99    8.30
   1   7  -2  125.79    7.40
   1   7  -2  104.29    6.60
   1   7  -2  109.89    6.50
  -1  -7   2  107.69    6.30
  -1  -7   2  105.49    5.80
  -1  -7   2   99.49    6.00
  -1  -7   2  112.99    5.40
  -1  -7   2  107.69    5.80
  -1  -7   2  109.69    9.60
   0   7  -2  213.98    9.50
   0   7  -2  217.78   11.90
   0   7  -2  218.88    9.70
   0   7  -2  195.18   11.10
   0  -7   2  218.48    7.50
   0  -7   2  231.08    9.40
   0  -7   2  217.08    8.20
   0  -7   2  203.28    9.10
   0  -7   2  201.48   12.50
   0  -7   2  219.28    8.90
  -1   7  -2   27.00    4.80
  -1   7  -2   17.70    5.80
  -1   7  -2   20.40    4.90
  -1   7  -2   22.50    4.40
  -1   7  -2   23.80    4.90
   1  -7   2   22.50    2.60
   1  -7   2   28.10    4.40
   1  -7   2   22.60    3.90
   1  -7   2   31.30    3.90
   1  -7   2   17.20    5.80
   1  -7   2   28.40    4.40
  -2   7  -2   38.20    6.30
  -2   7  -2   62.59    9.20
  -2   7  -2   40.40    5.70
  -2   7  -2   35.10    6.10
  -2   7  -2   37.30    5.90
   2  -7   2   38.90    4.60
   2  -7   2   39.70    8.00
   2  -7   2   46.00    5.90
   2  -7   2   41.50    5.70
  -3   7  -2  344.17   19.30
  -3   7  -2  342.47   15.00
  -3   7  -2  344.87   15.70
  -3   7  -2  369.16   14.70
  -3   7  -2  366.36   15.30
   3  -7   2  360.36   19.00
   3  -7   2  366.16   15.30
   3  -7   2  364.36   14.80
   3  -7   2  372.86   13.80
  -4   7  -2    3.30    6.10
  -4   7  -2    1.10    4.90
  -4   7  -2   -0.60    9.10
  -4   7  -2   16.40    7.00
  -4   7  -2   15.80    5.50
   4  -7   2   17.30    5.90
   4  -7   2    5.30    4.60
   4  -7   2    3.90    5.30
   4  -7   2   -6.40    8.40
  -5   7  -2   11.00    7.90
  -5   7  -2   18.50    6.10
  -5   7  -2   14.70   11.70
  -5   7  -2   10.10    7.50
   5  -7   2   21.60    7.50
   5  -7   2    8.00    5.90
   9   6  -2    0.10    5.10
   9   6  -2    7.60    6.90
  -9  -6   2   -6.00    5.20
  -9  -6   2    4.10    9.30
   8   6  -2   15.20    8.80
   8   6  -2    9.50    3.90
   8   6  -2   13.00    4.00
   8   6  -2   15.00    3.20
  -8  -6   2   15.20    5.50
  -8  -6   2    8.90    6.50
  -8  -6   2    7.30    4.80
   7   6  -2    0.90    4.10
   7   6  -2    2.40    2.80
   7   6  -2    1.00    2.10
  -7  -6   2    0.90    3.80
  -7  -6   2   -3.70    4.20
  -7  -6   2   -1.70    5.50
   6   6  -2   13.60    2.30
   6   6  -2   15.40    3.00
   6   6  -2   15.90    3.80
   6   6  -2    8.30    3.10
  -6  -6   2   15.20    3.80
  -6  -6   2   19.20    4.10
  -6  -6   2   15.80    5.80
   5   6  -2  549.85   16.10
   5   6  -2  521.75   15.20
   5   6  -2  552.94   15.90
   5   6  -2  514.85   14.60
   5   6  -2  527.05   15.30
  -5  -6   2  548.95   16.50
  -5  -6   2  526.05   17.00
  -5  -6   2  527.95   20.10
  -5  -6   2  534.95   16.80
   4   6  -2   -1.70    1.80
   4   6  -2   -2.60    2.20
   4   6  -2    1.90    1.60
   4   6  -2    0.50    1.60
   4   6  -2    2.10    2.10
  -4  -6   2   -0.40    2.30
  -4  -6   2    3.40    2.60
  -4  -6   2    2.10    3.20
   3   6  -2   39.00    3.10
   3   6  -2   39.60    4.50
   3   6  -2   41.80    3.30
   3   6  -2   42.60    3.90
  -3  -6   2   39.80    5.20
  -3  -6   2   39.30    3.90
  -3  -6   2   34.70    3.90
  -3  -6   2   44.00    5.40
   2   6  -2  853.61   22.90
   2   6  -2  889.91   24.40
   2   6  -2  832.62   22.60
   2   6  -2  888.01   23.30
  -2  -6   2  825.52   21.50
  -2  -6   2  854.41   23.10
  -2  -6   2  852.31   21.30
  -2  -6   2  867.61   23.70
  -2  -6   2  861.31   23.50
   1   6  -2   40.60    4.40
   1   6  -2   45.70    3.90
   1   6  -2   38.20    4.80
   1   6  -2   32.60    3.90
  -1  -6   2   44.70    3.30
  -1  -6   2   38.50    4.00
  -1  -6   2   41.20    3.70
  -1  -6   2   42.30    3.80
  -1  -6   2   30.70    3.70
  -1  -6   2   34.30    5.40
   0   6  -2    0.90    2.00
   0   6  -2    3.70    2.30
   0   6  -2    4.60    3.50
   0   6  -2    1.70    2.30
   0  -6   2    2.40    1.60
   0  -6   2    4.80    2.30
   0  -6   2    7.30    2.30
   0  -6   2    2.40    1.60
   0  -6   2    3.40    2.00
   0  -6   2    5.30    4.00
  -1   6  -2  229.98    9.80
  -1   6  -2  219.78   10.20
  -1   6  -2  226.58    9.90
  -1   6  -2  221.78    9.60
   1  -6   2  235.18    9.00
   1  -6   2  225.78    9.30
   1  -6   2  233.18    8.50
   1  -6   2  212.38   12.00
   1  -6   2  237.98    9.60
   1  -6   2  228.08    6.60
  -2   6  -2  171.78    9.70
  -2   6  -2  195.18   12.50
  -2   6  -2  192.28    9.60
  -2   6  -2  196.58    9.80
  -2   6  -2  207.08    9.70
   2  -6   2  187.48    9.40
   2  -6   2  203.08    9.10
   2  -6   2  180.48   12.20
   2  -6   2  194.88    8.30
  -3   6  -2  525.85   18.00
  -3   6  -2  516.55   18.40
  -3   6  -2  482.35   21.10
  -3   6  -2  522.35   18.30
   3  -6   2  499.05   21.40
   3  -6   2  515.75   17.80
   3  -6   2  511.95   17.20
   3  -6   2  496.45   16.30
  -4   6  -2   -2.60    7.30
  -4   6  -2   -3.40    3.70
  -4   6  -2    5.80    4.40
  -4   6  -2    5.60    4.70
  -4   6  -2    2.30    4.50
   4  -6   2    4.40    4.50
   4  -6   2    4.10    4.00
   4  -6   2    0.20    5.80
   4  -6   2    3.20    4.50
  -5   6  -2    5.60    5.60
  -5   6  -2    9.70    5.80
  -5   6  -2    6.30    4.20
  -5   6  -2   -7.10    5.50
  -5   6  -2   13.50    9.30
   5  -6   2    7.60    4.40
   5  -6   2    5.90    6.90
   5  -6   2    2.10    5.40
   5  -6   2    2.60    5.50
  -6   6  -2   32.70    5.50
  -6   6  -2   28.80    8.70
  -6   6  -2   31.80   13.70
  -6   6  -2   36.50    8.10
   6  -6   2   46.40    8.30
   6  -6   2   37.50    7.20
   9   5  -2   -2.10    4.30
   9   5  -2   -3.60    5.30
   9   5  -2    4.40    5.00
   9   5  -2    0.10    4.00
   9   5  -2  -14.30    5.40
  -9  -5   2    6.30    8.50
  -9  -5   2    3.20    6.50
  -9  -5   2   -0.30    4.70
   8   5  -2   14.70    4.00
   8   5  -2   14.80    3.40
   8   5  -2   16.70    5.00
  -8  -5   2    9.30    6.30
  -8  -5   2   10.30    5.60
  -8  -5   2   17.80    4.50
   7   5  -2    7.20    2.40
   7   5  -2   14.30    3.30
   7   5  -2   17.60    3.80
   7   5  -2    7.90    2.90
  -7  -5   2   10.00    5.30
  -7  -5   2   16.40    3.70
  -7  -5   2    6.60    3.90
   6   5  -2   59.29    5.90
   6   5  -2   83.99    5.20
   6   5  -2   64.19    5.40
   6   5  -2   60.79    4.00
   6   5  -2   66.49    4.70
  -6  -5   2   64.99    6.50
  -6  -5   2   47.20    6.70
  -6  -5   2   71.19    5.60
   5   5  -2 1270.77   32.10
   5   5  -2 1245.08   31.10
   5   5  -2 1247.78   31.90
   5   5  -2 1220.28   31.70
   5   5  -2 1274.97   32.10
  -5  -5   2 1219.38   35.50
  -5  -5   2 1299.07   32.80
  -5  -5   2 1266.57   33.60
   4   5  -2    1.30    1.30
   4   5  -2    1.10    1.40
   4   5  -2    0.30    1.50
   4   5  -2   -1.70    1.80
   4   5  -2   -0.20    1.20
  -4  -5   2   -1.10    2.10
  -4  -5   2   -3.30    2.60
  -4  -5   2   -2.80    1.70
  -4  -5   2    0.60    2.20
   3   5  -2   13.80    1.90
   3   5  -2   16.00    2.60
   3   5  -2   16.10    2.40
   3   5  -2   15.80    2.20
   3   5  -2   13.90    1.80
  -3  -5   2   17.70    3.10
  -3  -5   2   13.00    2.90
  -3  -5   2   13.30    2.70
  -3  -5   2   13.60    2.30
   2   5  -2  217.18    7.30
   2   5  -2  235.18    7.90
   2   5  -2  224.38    7.40
   2   5  -2  230.38    8.50
  -2  -5   2  226.28    8.40
  -2  -5   2  230.28    6.10
  -2  -5   2  231.28    7.80
  -2  -5   2  225.28    6.10
  -2  -5   2  233.98    8.70
  -2  -5   2  224.98    9.60
   1   5  -2  396.76   12.30
   1   5  -2  416.46   13.50
   1   5  -2  400.96   11.80
   1   5  -2  401.46   12.10
  -1  -5   2  409.06   12.00
  -1  -5   2  404.56   12.00
  -1  -5   2  397.26   14.10
  -1  -5   2  413.96   11.10
  -1  -5   2  392.76   11.30
  -1  -5   2  405.46   12.50
   0   5  -2 1132.79   29.80
   0   5  -2 1113.89   29.40
   0   5  -2 1137.29   29.90
   0   5  -2 1136.09   31.70
   0  -5   2 1134.39   28.20
   0  -5   2 1167.58   28.60
   0  -5   2 1166.08   29.40
   0  -5   2 1131.89   29.20
   0  -5   2 1128.69   29.70
   0  -5   2 1118.49   32.10
  -1   5  -2    6.70    2.20
  -1   5  -2    0.60    3.40
  -1   5  -2    4.30    2.00
  -1   5  -2    5.40    2.50
  -1   5  -2    3.60    2.00
   1  -5   2    2.70    2.20
   1  -5   2    1.90    1.50
   1  -5   2    3.20    1.00
   1  -5   2    1.70    2.00
  -2   5  -2  749.03   22.10
  -2   5  -2  758.72   22.60
  -2   5  -2  771.52   25.40
  -2   5  -2  769.12   22.50
  -2   5  -2  751.02   22.30
   2  -5   2  763.22   21.00
   2  -5   2  816.82   22.10
   2  -5   2  768.22   25.10
   2  -5   2  741.73   22.00
  -3   5  -2   29.30    4.60
  -3   5  -2   26.80    3.90
  -3   5  -2   24.70    5.00
  -3   5  -2   22.20    4.10
  -3   5  -2   14.30    6.20
   3  -5   2   24.90    4.40
   3  -5   2   19.60    5.40
   3  -5   2   35.40    4.50
   3  -5   2   34.30    4.00
  -4   5  -2   94.39    8.10
  -4   5  -2   90.79    6.50
  -4   5  -2   82.49    8.10
  -4   5  -2   93.89    8.30
  -4   5  -2   99.39   12.10
   4  -5   2   91.69    7.80
   4  -5   2   93.89   10.50
   4  -5   2   74.79    7.80
   4  -5   2  102.29    7.00
  -5   5  -2  202.98   11.90
  -5   5  -2  216.58   11.80
  -5   5  -2  247.58   17.40
  -5   5  -2  203.68   11.90
  -5   5  -2  219.78    9.40
   5  -5   2  221.48   12.10
   5  -5   2  234.48   11.90
   5  -5   2  200.68   14.80
   5  -5   2  216.18   10.80
  -6   5  -2   17.20    3.70
  -6   5  -2   13.30    5.90
  -6   5  -2   12.50    9.60
  -6   5  -2    1.50    5.50
  -6   5  -2   14.40    6.00
   6  -5   2   10.80    6.00
   6  -5   2   22.80    8.20
   6  -5   2   13.70    5.60
   6  -5   2    7.60    4.70
  -7   5  -2   -5.90   13.70
  -7   5  -2   -6.30    6.80
   7  -5   2    7.70   17.60
   7  -5   2    7.60    6.40
   7  -5   2   10.00    7.40
   9   4  -2   -3.80    4.20
   9   4  -2    7.40    4.20
   9   4  -2   10.10    5.10
   9   4  -2   15.60    5.60
   9   4  -2    2.20    3.60
  -9  -4   2    7.70    7.90
  -9  -4   2   10.90    7.00
  -9  -4   2    8.80    4.70
   8   4  -2   76.39    7.80
   8   4  -2   59.19    6.00
   8   4  -2   77.79    7.70
   8   4  -2   55.79    5.70
   8   4  -2   56.09    6.90
  -8  -4   2   73.79    7.30
  -8  -4   2   73.29    7.70
  -8  -4   2   88.99   10.80
  -8  -4   2   74.89    7.80
   7   4  -2   37.50    4.70
   7   4  -2   37.10    4.30
   7   4  -2   36.90    4.60
   7   4  -2   33.70    5.20
   7   4  -2   41.20    4.20
  -7  -4   2   42.60    5.50
  -7  -4   2   37.30    6.70
  -7  -4   2   38.70    4.90
  -7  -4   2   46.70    5.60
   6   4  -2   78.79    4.70
   6   4  -2   78.59    4.70
   6   4  -2   60.69    6.10
   6   4  -2   76.29    4.30
   6   4  -2   71.69    5.40
  -6  -4   2   71.29    7.90
  -6  -4   2   64.09    5.10
  -6  -4   2   66.69    5.60
  -6  -4   2   77.19    5.90
   5   4  -2   20.80    2.70
   5   4  -2   13.20    1.80
   5   4  -2   15.70    2.10
   5   4  -2   10.50    2.70
   5   4  -2   15.00    2.40
   5   4  -2   14.10    2.20
  -5  -4   2   11.10    2.40
  -5  -4   2   13.20    2.70
  -5  -4   2   15.40    3.20
  -5  -4   2    9.90    3.80
   4   4  -2  105.39    6.00
   4   4  -2  110.49    4.80
   4   4  -2  104.49    5.00
   4   4  -2  108.19    4.90
   4   4  -2  107.39    4.00
   4   4  -2  107.89    4.40
  -4  -4   2  112.99    5.80
  -4  -4   2  110.39    5.10
  -4  -4   2  107.29    6.90
   3   4  -2  902.91   24.40
   3   4  -2  983.40   24.10
   3   4  -2  961.20   23.50
   3   4  -2  931.81   24.90
   3   4  -2  930.41   23.40
   3   4  -2  931.61   23.20
  -3  -4   2  923.31   23.90
  -3  -4   2  951.60   25.20
  -3  -4   2  924.21   24.50
  -3  -4   2  958.30   26.00
   2   4  -2  263.37    7.90
   2   4  -2  272.67    8.10
   2   4  -2  275.67    8.70
  -2  -4   2  265.07    8.20
  -2  -4   2  279.07    9.50
  -2  -4   2  277.27    9.40
  -2  -4   2  274.77    9.30
   1   4  -2 4980.30  116.99
   1   4  -2 4954.60  115.89
   1   4  -2 4825.32  115.79
   1   4  -2 4914.91  115.39
  -1  -4   2 4822.42  115.59
  -1  -4   2 4994.30  117.69
  -1  -4   2 4878.91  116.09
  -1  -4   2 4993.50  116.69
  -1  -4   2 4827.42  114.89
   0   4  -2 2688.93   64.79
   0   4  -2 2576.14   62.99
   0   4  -2 2633.14   62.99
   0   4  -2 2560.74   62.59
   0  -4   2 2609.14   64.99
   0  -4   2 2623.04   63.19
   0  -4   2 2560.34   61.79
   0  -4   2 2580.04   62.59
   0  -4   2 2612.04   61.89
   0  -4   2 2574.34   62.39
  -1   4  -2  286.87    9.80
  -1   4  -2  281.37   11.60
  -1   4  -2  276.27    9.40
  -1   4  -2  271.87    9.60
  -1   4  -2  274.37    9.90
   1  -4   2  272.47    9.30
   1  -4   2  289.57   11.40
   1  -4   2  285.37    8.70
   1  -4   2  290.87    9.40
  -2   4  -2  168.28    7.60
  -2   4  -2  167.98    7.40
  -2   4  -2  172.38    7.40
  -2   4  -2  167.38    9.60
   2  -4   2  152.28    8.80
   2  -4   2  173.68    7.40
   2  -4   2  172.18    7.20
   2  -4   2  179.08    6.70
  -3   4  -2  109.79    6.60
  -3   4  -2  117.19    6.10
  -3   4  -2  103.89    7.80
  -3   4  -2  114.39    6.90
  -3   4  -2  112.59    8.70
   3  -4   2  122.99    6.10
   3  -4   2  114.59    6.70
   3  -4   2  108.99    8.40
   3  -4   2  127.99    6.70
  -4   4  -2  281.37   10.10
  -4   4  -2  267.67   14.90
   4  -4   2  265.07   10.60
   4  -4   2  263.17   13.30
   4  -4   2  281.67   11.20
   4  -4   2  272.07   11.40
  -5   4  -2  696.63   22.90
  -5   4  -2  673.13   23.20
  -5   4  -2  715.43   22.60
  -5   4  -2  725.53   27.20
  -5   4  -2  699.53   19.80
   5  -4   2  703.33   25.40
   5  -4   2  718.83   22.70
   5  -4   2  710.53   22.10
   5  -4   2  704.63   21.70
  -6   4  -2   40.80    6.90
  -6   4  -2   48.10   10.30
  -6   4  -2   36.00    5.50
  -6   4  -2   41.90    6.50
   6  -4   2   50.99    8.90
   6  -4   2   59.49    7.10
   6  -4   2   39.10    6.10
   6  -4   2   53.69    6.30
  -7   4  -2   95.49   11.20
  -7   4  -2   66.09   12.80
  -7   4  -2  113.19   11.50
  -7   4  -2  103.29   10.90
   7  -4   2   78.19   11.40
   7  -4   2   87.39   10.80
   7  -4   2  103.69   10.20
   7  -4   2  106.29    9.70
  -8   4  -2   29.80    8.70
  -8   4  -2   25.60   13.50
   8  -4   2   16.20   12.30
   8  -4   2   22.20    7.10
   8  -4   2   33.00    8.50
   9   3  -2    5.70    3.70
   9   3  -2    6.40    5.10
   9   3  -2    3.80    4.80
   9   3  -2    8.10    4.10
   9   3  -2    7.30    4.40
  -9  -3   2    6.90    5.70
  -9  -3   2   -0.60    7.10
  -9  -3   2    8.50    5.00
  -9  -3   2    6.40    7.20
   8   3  -2   58.39    7.10
   8   3  -2   62.29    6.10
   8   3  -2   79.09    6.30
   8   3  -2   64.09    5.90
   8   3  -2   64.29    7.80
   8   3  -2   72.19    7.90
  -8  -3   2   71.49    7.60
  -8  -3   2   90.49   10.70
  -8  -3   2   78.69    8.20
  -8  -3   2   72.99    7.90
   7   3  -2   24.70    4.10
   7   3  -2   23.90    3.40
   7   3  -2   17.20    4.50
   7   3  -2   19.80    3.70
   7   3  -2   21.00    3.30
   7   3  -2   25.80    3.80
  -7  -3   2   23.60    4.20
  -7  -3   2   18.20    4.70
  -7  -3   2   21.90    5.00
  -7  -3   2   20.90    3.80
   6   3  -2  219.28    8.20
   6   3  -2  218.58    8.00
   6   3  -2  211.68   10.20
   6   3  -2  215.58    8.70
  -6  -3   2  217.08    8.60
  -6  -3   2  223.48    9.50
  -6  -3   2  228.28    9.40
   5   3  -2   26.90    2.70
   5   3  -2   28.90    2.80
   5   3  -2   27.30    2.80
   5   3  -2   27.50    3.10
  -5  -3   2   29.30    3.20
  -5  -3   2   30.40    4.60
  -5  -3   2   24.50    3.90
  -5  -3   2   23.40    3.30
  -5  -3   2   28.20    3.60
   4   3  -2 3367.36   77.59
   4   3  -2 3314.37   80.19
   4   3  -2 3231.38   78.59
   4   3  -2 3214.98   77.49
   4   3  -2 3246.78   77.49
   4   3  -2 3232.28   77.19
  -4  -3   2 3232.78   79.49
  -4  -3   2 3269.67   77.89
  -4  -3   2 3336.37   81.09
  -4  -3   2 3313.07   78.99
   3   3  -2 2316.97   54.59
   3   3  -2 2368.06   54.89
   3   3  -2 2335.47   54.49
   3   3  -2 2108.89   54.69
   3   3  -2 2381.16   56.89
   3   3  -2 2272.47   55.89
  -3  -3   2 2262.27   56.49
  -3  -3   2 2327.67   55.09
  -3  -3   2 2379.86   57.59
   2   3  -2   65.49    2.70
   2   3  -2   61.49    3.60
   2   3  -2   66.59    3.60
   2   3  -2   64.49    2.50
   2   3  -2   64.89    2.50
   2   3  -2   65.89    3.00
  -2  -3   2   71.79    4.20
  -2  -3   2   63.59    3.50
  -2  -3   2   65.89    3.90
   1   3  -2 1539.45   38.50
   1   3  -2 1629.64   39.40
   1   3  -2 1619.14   38.70
   1   3  -2 1594.34   38.30
   1   3  -2 1579.44   38.80
  -1  -3   2 1590.24   39.30
  -1  -3   2 1575.54   38.40
  -1  -3   2 1638.04   39.80
  -1  -3   2 1649.83   39.90
   0   3  -2  199.48    7.40
   0   3  -2  204.78    6.70
   0   3  -2  208.48    7.90
   0   3  -2  195.38    6.60
   0   3  -2  200.38    6.30
   0  -3   2  206.68    7.10
   0  -3   2  199.78    6.20
   0  -3   2  198.88    6.00
   0  -3   2  204.78    6.50
   0  -3   2  204.28    5.90
   0  -3   2  201.48    7.80
  -1   3  -2 3600.04   85.99
  -1   3  -2 3678.03   86.29
  -1   3  -2 3713.33   88.19
  -1   3  -2 3521.75   86.29
  -1   3  -2 3629.64   86.59
   1  -3   2 3611.34   87.89
   1  -3   2 3556.84   85.29
   1  -3   2 3502.35   85.89
   1  -3   2 3659.63   85.99
  -2   3  -2   54.19    3.90
  -2   3  -2   56.19    5.70
  -2   3  -2   50.59    3.90
  -2   3  -2   52.09    3.70
  -2   3  -2   47.40    3.70
   2  -3   2   46.20    3.60
   2  -3   2   54.59    3.60
   2  -3   2   47.40    4.70
   2  -3   2   49.30    3.40
  -3   3  -2   11.00    2.40
  -3   3  -2   12.20    2.70
  -3   3  -2   12.40    3.80
  -3   3  -2    9.30    2.20
  -3   3  -2   13.50    2.80
   3  -3   2   10.00    2.30
   3  -3   2    8.00    2.00
   3  -3   2   10.80    3.30
   3  -3   2   12.20    2.70
  -4   3  -2  639.74   19.00
  -4   3  -2  630.74   17.40
  -4   3  -2  571.84   19.10
  -4   3  -2  613.44   21.80
   4  -3   2  643.94   18.90
   4  -3   2  610.14   15.60
   4  -3   2  594.44   21.10
   4  -3   2  616.94   18.30
  -5   3  -2   28.70    4.80
  -5   3  -2   21.40    4.10
  -5   3  -2   25.00    2.90
  -5   3  -2   17.80    5.90
   5  -3   2   25.20    6.60
   5  -3   2   26.30    2.60
   5  -3   2   23.80    4.00
   5  -3   2   21.40    5.30
   5  -3   2   29.40    4.80
  -6   3  -2  100.89   11.40
  -6   3  -2   75.09    8.30
  -6   3  -2   94.89    8.20
  -6   3  -2   86.69    8.50
   6  -3   2   98.29   11.00
   6  -3   2  104.69    7.90
   6  -3   2   89.99    7.90
   6  -3   2   93.29    8.10
  -7   3  -2  179.28   17.90
  -7   3  -2  188.78   11.70
  -7   3  -2  201.88   11.70
  -7   3  -2  166.48   11.70
   7  -3   2  198.78   11.50
   7  -3   2  180.98   11.00
   7  -3   2  193.98   15.20
   7  -3   2  178.28   11.20
  -8   3  -2   54.09    9.80
  -8   3  -2   78.29   14.70
  -8   3  -2   64.99    8.50
  -8   3  -2   45.30    8.70
   8  -3   2   56.29    8.10
   8  -3   2   42.10    7.20
   8  -3   2   44.10    8.80
   9   2  -2    6.80    5.00
   9   2  -2    6.60    4.80
   9   2  -2    1.50    5.40
   9   2  -2   15.20    5.50
   9   2  -2   14.00    3.10
   9   2  -2    7.70    4.20
  -9  -2   2    3.00    6.10
  -9  -2   2    6.40    8.00
  -9  -2   2    2.20    5.30
   8   2  -2    5.60    3.40
   8   2  -2   -1.30    3.90
   8   2  -2    6.50    3.70
   8   2  -2    6.20    2.60
   8   2  -2    1.90    4.90
   8   2  -2   -2.70    3.50
  -8  -2   2    3.10    5.50
  -8  -2   2    7.70    5.00
  -8  -2   2    4.10    4.60
  -8  -2   2   -0.10    4.10
   7   2  -2    5.00    2.90
   7   2  -2    4.00    3.00
   7   2  -2    3.70    2.60
   7   2  -2    9.70    3.10
   7   2  -2   -1.00    3.10
   7   2  -2    7.20    2.30
  -7  -2   2   11.00    4.90
  -7  -2   2    1.50    4.30
  -7  -2   2   10.40    3.40
  -7  -2   2   11.60    3.60
   6   2  -2  275.37   11.60
   6   2  -2  263.77    9.60
   6   2  -2  289.37   10.20
   6   2  -2  278.27    9.30
   6   2  -2  271.77    9.80
   6   2  -2  262.27    9.20
  -6  -2   2  278.17   10.70
  -6  -2   2  269.27   10.10
  -6  -2   2  264.97   11.10
  -6  -2   2  299.67   12.90
   5   2  -2   20.20    3.40
   5   2  -2   19.70    2.40
   5   2  -2   18.10    2.70
   5   2  -2   23.30    2.80
   5   2  -2   25.60    2.90
  -5  -2   2   17.90    2.60
  -5  -2   2   19.00    2.90
  -5  -2   2   20.00    3.30
  -5  -2   2   16.50    3.30
   4   2  -2  310.27   10.00
   4   2  -2  326.77    9.00
   4   2  -2  304.17    9.10
   4   2  -2  327.57    9.20
   4   2  -2  322.17    9.00
   4   2  -2  300.97   11.10
  -4  -2   2  311.67   10.40
  -4  -2   2  310.87   11.80
  -4  -2   2  319.87   10.70
  -4  -2   2  308.37    9.40
   3   2  -2 1018.00   23.90
   3   2  -2  976.40   23.80
   3   2  -2 1004.00   26.40
   3   2  -2 1011.80   25.40
  -3  -2   2  973.70   24.20
  -3  -2   2  992.30   25.90
  -3  -2   2  873.61   24.20
  -3  -2   2 1025.30   26.90
  -3  -2   2 1008.00   25.60
   2   2  -2 1484.45   34.50
   2   2  -2 1361.16   37.00
   2   2  -2 1477.75   36.60
   2   2  -2 1457.65   34.30
  -2  -2   2 1475.95   36.50
  -2  -2   2 1515.65   36.90
  -2  -2   2 1437.46   34.70
  -2  -2   2 1473.15   34.80
   1   2  -2  279.97    8.90
   1   2  -2  299.17    7.90
   1   2  -2  287.67    7.50
   1   2  -2  283.17    7.20
   1   2  -2  283.17    8.50
   1   2  -2  292.27    7.40
  -1  -2   2  294.77    8.80
  -1  -2   2  280.77    8.10
  -1  -2   2  284.17    8.90
   0   2  -2 5984.10  137.59
   0  -2   2 5692.63  137.49
  -1   2  -2  632.54   16.50
  -1   2  -2  620.94   17.00
  -1   2  -2  611.44   16.70
  -1   2  -2  610.14   17.80
  -1   2  -2  646.54   16.70
   1  -2   2  612.34   16.50
   1  -2   2  636.04   17.80
   1  -2   2  639.34   16.60
   1  -2   2  653.03   16.10
  -2   2  -2 1820.02   45.90
  -2   2  -2 1809.92   46.20
  -2   2  -2 1929.11   47.90
  -2   2  -2 1865.81   45.80
  -2   2  -2 1890.51   46.00
   2  -2   2 1834.32   45.70
   2  -2   2 1906.11   46.00
   2  -2   2 1849.81   47.40
   2  -2   2 1883.21   45.50
  -3   2  -2  453.35   12.90
  -3   2  -2  453.15   15.60
  -3   2  -2  434.96   13.80
  -3   2  -2  446.76   14.10
  -3   2  -2  448.06   13.80
   3  -2   2  463.55   13.80
   3  -2   2  443.96   13.60
   3  -2   2  451.15   15.30
   3  -2   2  449.26   13.40
  -4   2  -2   22.70    4.50
  -4   2  -2   22.30    3.30
  -4   2  -2   30.40    4.00
  -4   2  -2   32.40    3.90
  -4   2  -2   31.00    2.80
   4  -2   2   28.30    3.30
   4  -2   2   29.70    3.60
   4  -2   2   29.50    2.10
   4  -2   2   27.60    3.60
   4  -2   2   32.20    4.60
  -5   2  -2  367.56   13.80
  -5   2  -2  391.86   16.20
  -5   2  -2  360.76   14.10
  -5   2  -2  374.86   13.50
   5  -2   2  370.86   15.20
   5  -2   2  394.66   13.40
   5  -2   2  381.66   11.00
   5  -2   2  404.86   13.80
   5  -2   2  379.06   13.40
  -6   2  -2   81.79    7.70
  -6   2  -2   87.59   10.00
  -6   2  -2   88.59    7.90
  -6   2  -2   98.79    7.70
   6  -2   2   88.89    4.70
   6  -2   2   80.29    7.00
   6  -2   2   62.99    8.00
   6  -2   2   85.89    9.30
   6  -2   2   79.09    7.10
  -7   2  -2  361.26   16.10
  -7   2  -2  339.87   15.20
  -7   2  -2  372.96   15.10
  -7   2  -2  325.97   19.30
   7  -2   2  358.06   14.40
   7  -2   2  355.76   14.80
   7  -2   2  331.77   14.60
   7  -2   2  356.56   17.70
  -8   2  -2   26.80    6.20
  -8   2  -2   27.40    6.20
  -8   2  -2   15.10   10.50
  -8   2  -2    5.90    5.90
   8  -2   2   28.30    8.70
   8  -2   2   34.30    6.10
   8  -2   2   23.20    6.00
   8  -2   2   20.40    6.00
  -9   2  -2  101.09   13.50
  -9   2  -2  140.69   13.30
  -9   2  -2  139.19   17.40
   9  -2   2  106.09   12.70
   9  -2   2  138.39   13.60
   9  -2   2  128.59   13.80
   9   1  -2  104.49   11.50
   9   1  -2  105.19    8.10
   9   1  -2   97.19   10.20
   9   1  -2   93.19   10.60
   9   1  -2  118.69   10.60
  -9  -1   2   95.39   11.70
  -9  -1   2   83.79   12.30
  -9  -1   2   99.99   10.70
   8   1  -2  144.29   10.20
   8   1  -2  147.99    9.40
   8   1  -2  149.59    9.60
   8   1  -2  130.99    9.20
   8   1  -2  154.68    8.50
  -8  -1   2  148.19   12.80
  -8  -1   2  137.99   10.50
  -8  -1   2  136.59    9.80
   7   1  -2  223.68    9.90
   7   1  -2  222.68    7.10
   7   1  -2  209.38    9.90
   7   1  -2  204.08    9.80
   7   1  -2  220.28    9.10
   7   1  -2  211.88   11.00
  -7  -1   2  215.68    6.30
  -7  -1   2  208.48   10.20
  -7  -1   2  227.28   11.70
  -7  -1   2  222.18   10.80
   6   1  -2  557.54   17.20
   6   1  -2  561.24   16.20
   6   1  -2  550.34   18.70
   6   1  -2  571.94   17.00
   6   1  -2  555.04   16.70
  -6  -1   2  559.54   18.40
  -6  -1   2  584.94   19.70
  -6  -1   2  559.04   13.80
  -6  -1   2  520.25   17.30
  -6  -1   2  570.24   17.80
   5   1  -2  694.13   19.00
   5   1  -2  678.43   19.40
   5   1  -2  681.83   21.10
   5   1  -2  717.43   19.30
   5   1  -2  713.63   18.70
   5   1  -2  716.23   18.80
  -5  -1   2  688.33   21.60
  -5  -1   2  687.63   20.30
  -5  -1   2  699.83   20.20
  -5  -1   2  664.13   19.30
   4   1  -2 1449.15   34.30
   4   1  -2 1337.37   35.00
   4   1  -2 1429.96   34.70
   4   1  -2 1355.56   34.80
  -4  -1   2 1398.06   35.80
  -4  -1   2 1407.56   35.90
  -4  -1   2 1428.96   37.30
  -4  -1   2 1407.86   35.50
  -4  -1   2 1373.56   34.80
   3   1  -2  164.08    6.40
   3   1  -2  171.28    5.10
   3   1  -2  172.38    5.00
   3   1  -2  166.28    5.00
   3   1  -2  148.49    6.70
   3   1  -2  164.28    5.30
   3   1  -2  168.48    6.20
  -3  -1   2  164.48    6.40
  -3  -1   2  171.18    6.40
  -3  -1   2  163.48    7.10
  -3  -1   2  160.18    5.30
   1   1  -2  114.49    4.50
   1   1  -2  114.39    4.50
   1   1  -2  116.69    4.60
  -1  -1   2  119.39    4.70
  -1  -1   2  127.89    4.80
   0  -1   2 5199.78  122.19
  -1   1  -2 5275.87  125.19
  -1   1  -2 5439.36  126.29
   1  -1   2 5326.87  126.09
  -2   1  -2  781.72   18.50
  -2   1  -2  812.02   21.40
  -2   1  -2  781.92   20.40
  -2   1  -2  763.92   20.10
  -2   1  -2  743.83   19.80
  -2   1  -2  773.42   20.00
   2  -1   2  770.52   19.80
   2  -1   2  757.22   19.90
   2  -1   2  736.83   20.90
   2  -1   2  763.62   19.80
  -3   1  -2  149.59    6.40
  -3   1  -2  148.79    6.20
  -3   1  -2  148.69    6.10
  -3   1  -2  158.88    5.00
  -3   1  -2  140.89    5.30
  -3   1  -2  146.49    7.20
   3  -1   2  136.89    5.80
   3  -1   2  153.68    6.00
   3  -1   2  151.78    5.40
   3  -1   2  150.98    7.00
  -4   1  -2   23.20    2.90
  -4   1  -2   27.80    3.60
  -4   1  -2   27.20    3.40
  -4   1  -2   28.50    2.80
  -4   1  -2   27.90    4.20
   4  -1   2   26.00    3.90
   4  -1   2   38.50    3.80
   4  -1   2   29.30    3.30
   4  -1   2   30.30    2.60
   4  -1   2   29.50    3.40
  -5   1  -2  575.54   18.90
  -5   1  -2  613.24   18.80
  -5   1  -2  616.34   17.40
  -5   1  -2  634.24   21.20
  -5   1  -2  606.24   18.40
   5  -1   2  614.04   18.50
   5  -1   2  617.24   16.20
   5  -1   2  611.24   18.60
   5  -1   2  584.54   19.90
   5  -1   2  615.04   18.40
  -6   1  -2  195.58    9.70
  -6   1  -2  200.08   11.80
  -6   1  -2  204.48    9.50
  -6   1  -2  190.18   10.10
  -6   1  -2  190.08    8.50
   6  -1   2  201.68    9.60
   6  -1   2  187.68    6.50
   6  -1   2  189.68   10.60
   6  -1   2  188.18    9.30
   6  -1   2  187.38    9.20
  -7   1  -2  161.38   10.00
  -7   1  -2  163.78   13.30
  -7   1  -2  155.68    9.90
  -7   1  -2  158.58    8.80
  -7   1  -2  158.18    9.40
   7  -1   2  170.48    9.70
   7  -1   2  146.19    9.40
   7  -1   2  158.48    9.40
   7  -1   2  165.78   11.80
  -8   1  -2   -0.80    4.90
  -8   1  -2  -10.10    4.40
  -8   1  -2   -4.10    7.80
  -8   1  -2    0.80    4.90
   8  -1   2   -6.80    4.80
   8  -1   2   -0.50    6.40
   8  -1   2    5.70    4.40
   8  -1   2  -11.30    4.00
  -9   1  -2   12.40    6.60
  -9   1  -2    3.50    6.00
  -9   1  -2    8.70   11.70
   9  -1   2    5.10    8.30
   9  -1   2   12.00    6.30
   9  -1   2   16.90    8.20
   9  -1   2    4.00    6.00
   9   0  -2   10.10    6.70
   9   0  -2    5.60    4.60
   9   0  -2  -11.50    5.10
   9   0  -2    6.90    6.20
   9   0  -2    0.80    5.70
  -9   0   2   19.30    9.00
  -9   0   2    0.30    2.90
  -9   0   2    1.70    3.30
  -9   0   2    9.10    6.70
   8   0  -2  472.55   17.30
   8   0  -2  466.65   18.30
   8   0  -2  479.85   16.00
   8   0  -2  451.15   18.00
   8   0  -2  473.95   17.30
  -8   0   2  444.96   13.40
  -8   0   2  483.75   20.60
  -8   0   2  443.66   13.90
  -8   0   2  485.35   18.50
  -8   0   2  447.96   17.50
   7   0  -2  223.78   10.30
   7   0  -2  227.78   11.70
   7   0  -2  213.78    9.00
   7   0  -2  236.58   10.40
   7   0  -2  199.28   10.70
  -7   0   2  218.88    7.50
  -7   0   2  216.38   12.70
  -7   0   2  206.18    7.80
  -7   0   2  207.88   11.10
  -7   0   2  201.38   10.30
   6   0  -2    9.30    2.90
   6   0  -2   10.30    3.10
   6   0  -2   13.90    4.00
   6   0  -2   10.60    2.70
  -6   0   2    8.00    3.00
  -6   0   2    4.00    4.20
  -6   0   2   11.10    3.40
  -6   0   2    8.50    1.90
  -6   0   2    9.90    2.00
   5   0  -2   30.70    4.00
   5   0  -2   29.70    2.00
   5   0  -2   37.60    3.30
   5   0  -2   21.60    3.50
   5   0  -2   30.10    3.50
   5   0  -2   31.40    3.60
  -5   0   2   28.60    2.70
  -5   0   2   26.10    3.20
  -5   0   2   31.70    4.40
  -5   0   2   27.70    2.40
  -5   0   2   33.00    4.10
   4   0  -2 1672.03   40.50
   4   0  -2 1666.73   40.90
   4   0  -2 1640.84   40.70
   4   0  -2 1606.94   39.70
   4   0  -2 1665.23   42.90
   4   0  -2 1622.74   41.60
  -4   0   2 1692.33   42.30
  -4   0   2 1688.23   42.00
  -4   0   2 1648.14   39.40
  -4   0   2 1631.04   39.70
  -4   0   2 1639.24   41.10
   3   0  -2   18.80    2.40
   3   0  -2   15.60    1.60
   3   0  -2   12.60    2.00
   3   0  -2   14.70    1.70
   3   0  -2   18.80    2.80
   3   0  -2   15.60    1.70
   3   0  -2   18.60    2.00
  -3   0   2   16.70    2.30
  -3   0   2   19.70    2.70
  -3   0   2   17.50    1.20
  -3   0   2   22.90    2.90
  -3   0   2   15.50    1.80
  -3   0   2   19.00    1.10
   2   0  -2   91.29    3.00
   2   0  -2   78.79    3.80
   2   0  -2   85.99    3.40
   2   0  -2   90.09    2.80
   2   0  -2   77.59    4.20
   2   0  -2   82.09    3.40
   2   0  -2   87.79    2.90
  -2   0   2   85.09    4.00
  -2   0   2   89.39    4.00
   1   0  -2  483.45   13.30
   1   0  -2  484.15   13.10
   1   0  -2  480.25   12.70
   1   0  -2  475.85   11.60
   1   0  -2  501.05   13.80
   1   0  -2  475.95   11.90
  -1   0   2  475.85   13.10
  -1   0   2  474.85   12.60
  -1   0   2  489.25   13.00
  -1   0   2  463.35   11.60
   0   0  -2 3014.10   73.39
   0   0  -2 3346.07   73.49
   0   0   2 3071.89   73.39
   0   0   2 2963.40   73.39
  -1   0  -2 1084.79   26.90
  -1   0  -2 1110.09   27.40
  -1   0  -2 1072.69   27.10
  -1   0  -2 1129.69   26.80
  -1   0  -2 1110.79   27.30
   1   0   2 1108.69   27.30
   1   0   2 1091.39   26.60
   1   0   2 1120.39   26.80
   1   0   2 1112.59   27.10
   1   0   2 1102.99   27.30
  -2   0  -2 1838.82   44.60
  -2   0  -2 1799.02   43.50
  -2   0  -2 1768.32   43.80
  -2   0  -2 1810.72   44.10
  -2   0  -2 1851.81   43.70
   2   0   2 1727.13   44.70
   2   0   2 1835.42   43.60
   2   0   2 1817.72   44.00
   2   0   2 1746.93   43.50
   2   0   2 1846.52   43.70
  -3   0  -2 1325.27   34.30
  -3   0  -2 1372.66   33.90
  -3   0  -2 1358.66   35.20
  -3   0  -2 1272.77   34.00
  -3   0  -2 1353.96   32.90
   3   0   2 1389.16   33.30
   3   0   2 1382.56   34.00
   3   0   2 1384.96   34.40
   3   0   2 1301.07   33.70
   3   0   2 1362.06   35.00
  -4   0  -2 1768.42   45.60
  -4   0  -2 1785.72   45.20
  -4   0  -2 1785.52   44.20
  -4   0  -2 1818.92   46.70
  -4   0  -2 1789.62   44.90
   4   0   2 1796.52   45.10
   4   0   2 1784.62   44.90
   4   0   2 1793.62   46.40
   4   0   2 1800.92   43.70
   4   0   2 1871.61   45.50
  -5   0  -2  754.52   22.10
  -5   0  -2  788.12   21.90
  -5   0  -2  778.82   23.90
  -5   0  -2  777.02   21.40
  -5   0  -2  738.83   22.50
   5   0   2  775.92   20.10
   5   0   2  819.02   22.30
   5   0   2  762.82   21.90
   5   0   2  786.02   22.30
   5   0   2  769.22   23.40
  -6   0  -2  542.35   20.40
  -6   0  -2  606.24   19.70
  -6   0  -2  603.34   18.40
  -6   0  -2  629.94   18.80
  -6   0  -2  622.44   21.40
   6   0   2  638.84   19.20
   6   0   2  600.04   20.50
   6   0   2  620.94   16.40
   6   0   2  592.64   18.80
   6   0   2  602.74   19.00
  -7   0  -2   -4.40    2.60
  -7   0  -2   -4.10    3.10
  -7   0  -2   -0.90    5.10
  -7   0  -2   -6.00    3.10
  -7   0  -2   -3.30    3.50
   7   0   2   -2.40    3.70
   7   0   2   -0.70    3.10
   7   0   2   -7.00    3.30
   7   0   2    3.70    3.40
   7   0   2   -0.80    1.70
  -8   0  -2  100.99    9.90
  -8   0  -2  103.19    8.90
  -8   0  -2   98.19   11.90
  -8   0  -2  120.89    8.90
  -8   0  -2  101.89    9.20
   8   0   2  109.09    8.90
   8   0   2   97.69   10.50
   8   0   2   97.89    4.30
   8   0   2   84.89    8.50
   8   0   2  111.49    8.80
  -9   0  -2   97.79   13.80
  -9   0  -2  106.39   10.80
  -9   0  -2   88.89   11.10
  -9   0  -2   91.09   10.10
  -9   0  -2   96.69   10.80
   9   0   2   96.59   10.50
   9   0   2   80.79   10.00
   9   0   2   89.69   10.20
   9   0   2  122.29   13.20
 -10   0  -2   17.30   14.00
 -10   0  -2    6.00    6.80
 -10   0  -2    9.10    7.00
  10   0   2   15.20    8.00
  10   0   2    4.90    7.90
  10   0   2   -5.10    8.70
   9  -1  -2    0.50    5.30
   9  -1  -2    7.70    7.00
   9  -1  -2   14.50    7.10
   9  -1  -2   -7.40    5.70
   9  -1  -2   12.90    8.30
  -9   1   2    2.80   10.40
  -9   1   2   10.20    8.00
  -9   1   2    9.60    4.00
   8  -1  -2  371.56   15.10
   8  -1  -2  348.27   16.90
   8  -1  -2  367.46   14.10
   8  -1  -2  335.57   15.50
   8  -1  -2  373.86   15.70
  -8   1   2  394.06   16.90
  -8   1   2  346.77   12.10
  -8   1   2  373.96   16.10
  -8   1   2  344.27   13.00
  -8   1   2  347.17   18.80
   7  -1  -2   76.19    7.10
   7  -1  -2   91.49    7.90
   7  -1  -2   87.59    8.50
   7  -1  -2   85.69    9.10
   7  -1  -2   73.09    6.20
  -7   1   2   66.79    9.00
  -7   1   2   78.39    7.90
  -7   1   2   62.69    8.50
  -7   1   2   74.19    5.20
  -7   1   2   78.59    6.00
   6  -1  -2   12.70    3.20
   6  -1  -2   10.10    3.60
   6  -1  -2   12.10    3.60
   6  -1  -2   21.50    4.40
  -6   1   2   14.30    2.60
  -6   1   2   10.20    3.70
  -6   1   2    5.00    4.40
  -6   1   2   11.40    3.30
  -6   1   2   10.80    2.90
   5  -1  -2  953.90   25.70
   5  -1  -2  951.10   27.40
   5  -1  -2  952.20   25.10
   5  -1  -2  937.21   25.80
   5  -1  -2  928.51   27.00
  -5   1   2  918.41   26.40
  -5   1   2  921.81   26.50
  -5   1   2  970.10   24.40
  -5   1   2  954.00   28.10
  -5   1   2  949.90   24.90
   4  -1  -2 1704.53   44.40
   4  -1  -2 1714.93   42.70
   4  -1  -2 1740.03   42.70
   4  -1  -2 1740.83   44.10
   4  -1  -2 1684.33   42.20
  -4   1   2 1695.33   43.60
  -4   1   2 1666.43   41.50
  -4   1   2 1717.93   43.00
  -4   1   2 1754.92   44.70
  -4   1   2 1676.23   42.00
   3  -1  -2 2300.97   55.19
   3  -1  -2 2286.17   54.89
   3  -1  -2 2274.97   56.39
   3  -1  -2 2285.67   56.89
   3  -1  -2 2262.57   55.09
  -3   1   2 2287.17   54.39
  -3   1   2 2224.08   55.29
  -3   1   2 2263.77   54.89
  -3   1   2 2354.36   56.89
  -3   1   2 2296.77   56.19
   2  -1  -2    8.20    1.70
   2  -1  -2    5.60    0.90
   2  -1  -2    5.10    1.40
   2  -1  -2    5.90    1.10
   2  -1  -2    6.90    1.10
   2  -1  -2    5.60    1.30
  -2   1   2    7.00    1.10
  -2   1   2    7.00    1.00
  -2   1   2    4.70    1.00
  -2   1   2    6.50    1.40
  -2   1   2    6.20    1.50
  -2   1   2    6.70    1.00
  -2   1   2    7.90    1.90
   1  -1  -2   84.59    3.80
   1  -1  -2   87.79    3.70
   1  -1  -2   91.39    3.70
   1  -1  -2   88.89    3.00
   1  -1  -2   88.09    3.00
   1  -1  -2   84.69    3.00
  -1   1   2   82.59    2.90
  -1   1   2   77.89    3.70
  -1   1   2   88.89    3.20
  -1   1   2   94.69    3.60
  -1   1   2   87.99    3.70
  -1   1   2   88.09    2.90
  -1   1   2   91.19    2.80
   0  -1  -2 3338.07   74.39
   0  -1  -2 3201.48   73.99
   0   1   2 3084.19   74.89
   0   1   2 3004.80   74.29
  -1  -1  -2   99.69    3.90
  -1  -1  -2  102.39    3.90
  -1  -1  -2  107.69    3.80
  -1  -1  -2  102.89    3.60
   1   1   2  105.49    4.00
   1   1   2  107.49    3.80
   1   1   2  102.09    3.50
   1   1   2   99.79    3.90
  -2  -1  -2  839.32   21.70
  -2  -1  -2  849.61   21.50
  -2  -1  -2  877.71   22.10
  -2  -1  -2  889.51   22.30
   2   1   2  840.02   22.00
   2   1   2  906.21   22.10
   2   1   2  804.52   21.30
  -3  -1  -2  101.39    4.50
  -3  -1  -2  107.99    5.20
  -3  -1  -2  108.99    3.90
  -3  -1  -2  102.69    4.80
  -3  -1  -2   98.19    4.30
   3   1   2  100.49    4.80
   3   1   2   98.39    4.50
   3   1   2  106.29    4.30
  -4  -1  -2  276.77   10.30
  -4  -1  -2  284.57    9.30
  -4  -1  -2  271.47    9.40
  -4  -1  -2  275.27    9.80
  -4  -1  -2  283.87    8.90
   4   1   2  264.37    9.90
   4   1   2  277.17    9.20
   4   1   2  269.07    9.60
   4   1   2  282.67    9.60
  -5  -1  -2   34.00    4.60
  -5  -1  -2   32.60    3.80
  -5  -1  -2   36.40    3.80
  -5  -1  -2   43.00    4.00
  -5  -1  -2   42.20    4.30
   5   1   2   39.30    4.00
   5   1   2   37.40    4.50
   5   1   2   48.10    4.50
   5   1   2   37.40    3.80
  -6  -1  -2  389.36   13.80
  -6  -1  -2  402.86   13.90
  -6  -1  -2  416.96   13.80
  -6  -1  -2  431.26   16.10
  -6  -1  -2  398.26   14.80
   6   1   2  414.16   14.20
   6   1   2  450.85   14.70
   6   1   2  390.76   14.80
   6   1   2  409.96   12.00
   6   1   2  407.06   13.80
  -7  -1  -2   23.00    4.00
  -7  -1  -2   25.40    4.30
  -7  -1  -2   34.30    6.80
  -7  -1  -2   21.10    4.60
  -7  -1  -2   19.10    3.90
   7   1   2   25.30    2.80
   7   1   2   17.40    4.80
   7   1   2   22.80    4.20
   7   1   2   15.40    4.00
  -8  -1  -2   80.39    8.60
  -8  -1  -2   80.89   10.00
  -8  -1  -2   79.29   12.10
  -8  -1  -2   80.49    7.80
  -8  -1  -2   89.99    8.60
   8   1   2   75.29    7.90
   8   1   2   82.09    4.80
   8   1   2   92.59    8.30
  -9  -1  -2  268.07   14.70
  -9  -1  -2  259.97   14.50
  -9  -1  -2  268.07   13.10
  -9  -1  -2  273.97   13.40
  -9  -1  -2  273.17   18.50
   9   1   2  281.77   13.80
   9   1   2  250.87   15.40
   9   1   2  252.37    8.50
   9   1   2  245.78   13.10
   9   1   2  270.37   13.90
 -10  -1  -2   -1.40    6.70
 -10  -1  -2    5.70    5.50
 -10  -1  -2   10.60    6.40
 -10  -1  -2    0.30   11.40
  10   1   2    5.80    7.10
  10   1   2   21.70    7.40
  10   1   2   18.20    8.50
   8  -2  -2    6.20    4.50
   8  -2  -2   14.10    5.10
   8  -2  -2   11.60    5.60
   8  -2  -2   17.30    7.80
   8  -2  -2    6.50    4.80
  -8   2   2   16.70    9.10
  -8   2   2    6.90    3.70
  -8   2   2    3.80    5.70
  -8   2   2    9.20    6.10
  -8   2   2   10.40    5.00
   7  -2  -2  112.79   10.00
   7  -2  -2  114.99   10.60
   7  -2  -2  119.69    9.10
   7  -2  -2  110.69    8.60
   7  -2  -2  122.29    7.60
  -7   2   2  124.09   10.20
  -7   2   2  138.89   13.30
  -7   2   2  128.29    7.10
  -7   2   2  118.89    9.00
  -7   2   2  110.79    8.00
   6  -2  -2  650.93   21.40
   6  -2  -2  628.74   20.40
   6  -2  -2  642.54   22.40
   6  -2  -2  669.03   19.50
  -6   2   2  629.34   19.50
  -6   2   2  640.24   20.90
  -6   2   2  652.23   18.60
  -6   2   2  669.53   21.40
  -6   2   2  657.93   23.50
   5  -2  -2  380.86   12.40
   5  -2  -2  372.06   12.80
   5  -2  -2  384.96   14.20
   5  -2  -2  373.96   14.70
   5  -2  -2  391.76   13.30
  -5   2   2  371.66   13.30
  -5   2   2  374.16   11.90
  -5   2   2  389.76   13.90
  -5   2   2  371.86   12.60
  -5   2   2  383.16   15.90
   4  -2  -2   67.19    5.80
   4  -2  -2   67.49    4.70
   4  -2  -2   64.29    5.40
   4  -2  -2   73.69    4.30
   4  -2  -2   79.49    4.60
  -4   2   2   77.59    5.50
  -4   2   2   71.29    6.50
  -4   2   2   72.99    4.20
  -4   2   2   73.49    4.50
   3  -2  -2   76.89    3.90
   3  -2  -2   69.39    4.80
   3  -2  -2   81.79    4.20
   3  -2  -2   79.29    6.60
   3  -2  -2   71.19    4.20
  -3   2   2   77.09    4.80
  -3   2   2   76.29    5.90
  -3   2   2   72.79    3.80
  -3   2   2   76.69    4.20
  -3   2   2   69.99    4.00
   2  -2  -2 5535.85  131.79
   2  -2  -2 5560.14  133.69
  -2   2   2 5628.64  132.79
  -2   2   2 5683.03  133.79
   1  -2  -2  203.78    6.40
   1  -2  -2  211.98    6.40
   1  -2  -2  207.48    7.60
   1  -2  -2  217.98    6.60
   1  -2  -2  217.08    6.50
  -1   2   2  196.88    6.40
  -1   2   2  219.98    6.30
  -1   2   2  210.58    7.60
  -1   2   2  212.18    6.40
  -1   2   2  209.88    7.00
  -1   2   2  204.68    6.30
  -1  -2  -2 2813.02   67.49
  -1  -2  -2 2735.93   66.89
  -1  -2  -2 2858.41   66.79
  -1  -2  -2 2880.01   67.29
   1   2   2 2783.52   67.09
   1   2   2 2787.02   66.79
   1   2   2 2877.61   66.99
   1   2   2 2863.91   67.49
  -2  -2  -2    2.10    1.30
  -2  -2  -2    1.60    1.10
  -2  -2  -2    3.90    1.70
  -2  -2  -2    3.80    1.40
   2   2   2    5.70    1.50
   2   2   2    1.70    1.20
   2   2   2    4.70    1.70
   2   2   2    5.60    1.40
  -3  -2  -2  111.99    5.20
  -3  -2  -2  102.49    4.70
  -3  -2  -2   98.49    4.40
  -3  -2  -2  103.39    4.30
   3   2   2  104.79    4.30
   3   2   2  115.89    4.80
  -4  -2  -2  339.07   11.50
  -4  -2  -2  318.17   10.90
  -4  -2  -2  335.87   10.50
  -4  -2  -2  329.57   10.20
  -4  -2  -2  333.67   10.30
   4   2   2  318.37   10.90
   4   2   2  334.17   10.30
   4   2   2  340.07   10.80
  -5  -2  -2  796.92   22.00
  -5  -2  -2  805.62   22.80
  -5  -2  -2  779.12   21.90
  -5  -2  -2  768.62   21.60
  -5  -2  -2  791.22   23.40
   5   2   2  796.12   22.90
   5   2   2  843.32   22.60
   5   2   2  788.72   21.80
  -6  -2  -2   41.00    4.50
  -6  -2  -2   35.30    4.50
  -6  -2  -2   37.40    4.80
  -6  -2  -2   31.80    3.80
  -6  -2  -2   37.70    5.10
   6   2   2   38.40    4.80
   6   2   2   41.70    5.00
   6   2   2   43.50    4.30
   6   2   2   40.80    4.90
  -7  -2  -2 1537.35   41.90
  -7  -2  -2 1479.85   38.70
  -7  -2  -2 1499.95   39.90
  -7  -2  -2 1438.46   40.20
  -7  -2  -2 1442.36   39.60
   7   2   2 1443.26   39.00
   7   2   2 1491.95   39.90
   7   2   2 1459.45   39.80
   7   2   2 1425.26   40.50
  -8  -2  -2  423.26   19.60
  -8  -2  -2  495.85   20.00
  -8  -2  -2  494.45   16.70
  -8  -2  -2  466.55   18.10
  -8  -2  -2  471.95   16.50
   8   2   2  515.05   17.90
   8   2   2  481.85   18.50
   8   2   2  486.55   17.00
   8   2   2  498.75   17.80
  -9  -2  -2  119.79   10.00
  -9  -2  -2  134.39   10.10
  -9  -2  -2  135.19   11.30
  -9  -2  -2  109.29    8.90
  -9  -2  -2  132.19   13.90
   9   2   2  127.39   10.60
   9   2   2  133.59   11.70
   9   2   2  154.48   10.50
   9   2   2  123.49    9.60
   9   2   2  126.39    6.60
 -10  -2  -2  102.19    9.70
 -10  -2  -2  106.79   13.10
 -10  -2  -2  122.89   11.20
 -10  -2  -2   79.59   13.10
 -10  -2  -2  101.59   10.90
  10   2   2   90.09    6.30
  10   2   2   82.09   10.50
  10   2   2  113.09   12.10
  10   2   2  118.19   12.00
  10   2   2   93.79   11.50
   8  -3  -2    7.50    9.10
   8  -3  -2   20.10    6.60
   8  -3  -2   24.90    7.50
   8  -3  -2   26.50    6.30
   8  -3  -2   30.80    6.60
  -8   3   2   32.40    8.50
  -8   3   2   59.39   12.40
  -8   3   2   28.80    6.40
  -8   3   2   28.70    5.40
   7  -3  -2   19.50    4.70
   7  -3  -2   17.30    5.60
   7  -3  -2   20.90    4.60
   7  -3  -2   27.90    5.40
  -7   3   2   23.10    5.10
  -7   3   2   34.70    5.70
  -7   3   2   29.40    9.60
  -7   3   2   24.70    6.40
  -7   3   2   15.00    5.10
   6  -3  -2  321.57   12.30
   6  -3  -2  306.67   15.40
   6  -3  -2  316.17   12.80
   6  -3  -2  313.37   13.50
   6  -3  -2  322.17   13.90
  -6   3   2  311.67   13.70
  -6   3   2  322.07   11.90
  -6   3   2  335.97   17.10
  -6   3   2  312.77   12.80
  -6   3   2  312.77   14.00
   5  -3  -2  289.77   11.80
   5  -3  -2  300.07   11.20
   5  -3  -2  274.07   13.50
   5  -3  -2  279.07   11.00
  -5   3   2  291.77   10.50
  -5   3   2  291.97   14.70
  -5   3   2  283.07   11.60
  -5   3   2  289.07   11.30
  -5   3   2  267.77   12.20
   4  -3  -2   66.29    5.80
   4  -3  -2   82.09    5.10
   4  -3  -2   79.99    5.10
   4  -3  -2   75.29    7.10
   4  -3  -2   82.79    5.70
  -4   3   2   69.09    5.60
  -4   3   2   73.29    5.20
  -4   3   2   85.49    5.90
  -4   3   2   80.89    4.90
  -4   3   2   79.59    7.70
   3  -3  -2 1336.27   34.00
   3  -3  -2 1306.37   34.40
   3  -3  -2 1357.46   33.90
   3  -3  -2 1308.37   36.50
   3  -3  -2 1285.87   35.00
  -3   3   2 1301.67   34.80
  -3   3   2 1390.16   33.80
  -3   3   2 1304.17   34.10
  -3   3   2 1330.47   34.50
  -3   3   2 1366.86   36.90
   2  -3  -2 1804.92   46.60
   2  -3  -2 1759.02   44.00
   2  -3  -2 1774.92   44.50
   2  -3  -2 1779.82   44.10
  -2   3   2 1883.51   46.80
  -2   3   2 1833.52   44.00
  -2   3   2 1728.43   44.30
  -2   3   2 1797.02   44.80
  -2   3   2 1769.92   44.20
   1  -3  -2 2242.68   50.19
   1  -3  -2 2048.00   52.89
   1  -3  -2 2100.19   50.59
   1  -3  -2 2038.00   50.69
   1  -3  -2 2085.49   50.89
  -1   3   2 2106.79   51.19
  -1   3   2 2152.68   52.69
  -1   3   2 2033.80   50.59
  -1   3   2 2044.80   50.79
  -1   3   2 2076.79   50.69
   0  -3  -2   88.39    4.90
   0  -3  -2  106.09    4.00
   0  -3  -2   95.79    3.70
   0  -3  -2   86.09    3.70
   0  -3  -2   95.89    3.10
   0   3   2   82.19    3.50
   0   3   2   83.29    3.70
   0   3   2   86.29    3.70
   0   3   2   93.39    2.90
   0   3   2   90.49    3.90
  -1  -3  -2   17.80    1.60
  -1  -3  -2   16.10    1.30
  -1  -3  -2   12.90    2.20
  -1  -3  -2   16.10    1.90
  -1  -3  -2   14.30    1.50
   1   3   2   17.10    1.50
   1   3   2   12.00    1.90
   1   3   2   13.00    2.00
   1   3   2   13.80    1.70
   1   3   2   16.20    1.50
   1   3   2   15.70    1.00
  -2  -3  -2 1699.53   41.80
  -2  -3  -2 1721.93   41.90
  -2  -3  -2 1686.63   40.80
  -2  -3  -2 1731.83   42.80
   2   3   2 1712.23   43.30
   2   3   2 1803.92   42.80
   2   3   2 1702.73   41.70
   2   3   2 1750.82   42.20
  -3  -3  -2 1774.42   43.60
  -3  -3  -2 1697.03   43.40
  -3  -3  -2 1762.12   42.70
  -3  -3  -2 1770.82   42.70
   3   3   2 1710.63   42.50
   3   3   2 1734.73   43.60
   3   3   2 1755.62   43.00
   3   3   2 1731.53   43.60
  -4  -3  -2  646.84   18.30
  -4  -3  -2  631.34   17.10
  -4  -3  -2  621.24   17.10
  -4  -3  -2  621.04   17.00
  -4  -3  -2  598.94   17.80
   4   3   2  608.64   17.90
   4   3   2  590.84   16.90
   4   3   2  625.34   17.80
   4   3   2  629.44   17.60
  -5  -3  -2  132.09    6.00
  -5  -3  -2  153.88    7.20
  -5  -3  -2  150.08    7.60
  -5  -3  -2  151.08    6.40
  -5  -3  -2  150.98    6.70
   5   3   2  155.88    7.10
   5   3   2  154.18    7.30
   5   3   2  147.69    6.40
   5   3   2  151.68    7.10
  -6  -3  -2  380.36   13.20
  -6  -3  -2  368.96   12.30
  -6  -3  -2  359.66   13.30
  -6  -3  -2  361.86   12.30
  -6  -3  -2  403.56   14.70
   6   3   2  383.56   13.50
   6   3   2  389.26   13.70
   6   3   2  396.46   13.40
   6   3   2  375.86   12.60
  -7  -3  -2   24.90    4.30
  -7  -3  -2   39.60    4.50
  -7  -3  -2   32.70    4.70
  -7  -3  -2   35.10    5.90
  -7  -3  -2   38.10    4.30
   7   3   2   34.90    4.80
   7   3   2   38.40    5.20
   7   3   2   43.50    4.90
   7   3   2   48.80    5.70
  -8  -3  -2    0.60    3.70
  -8  -3  -2   10.30    5.00
  -8  -3  -2   10.20    3.40
  -8  -3  -2   11.00    4.30
  -8  -3  -2   11.90    3.50
   8   3   2   12.80    4.50
   8   3   2   13.10    3.70
   8   3   2   10.00    3.90
   8   3   2    9.10    4.20
  -9  -3  -2    5.70    3.80
  -9  -3  -2    3.00    3.40
  -9  -3  -2    4.40    5.20
  -9  -3  -2    4.00    4.30
  -9  -3  -2   -1.00    4.30
  -9  -3  -2    1.10    7.10
   9   3   2    4.50    4.30
   9   3   2    7.60    5.50
   9   3   2    5.30    4.40
   9   3   2    1.30    4.20
 -10  -3  -2   60.69    7.30
 -10  -3  -2   62.29    7.30
 -10  -3  -2   67.29    8.40
 -10  -3  -2   67.89    9.30
 -10  -3  -2   69.59   14.20
  10   3   2   43.60    6.80
  10   3   2   67.79    6.80
  10   3   2   53.39    8.80
  10   3   2   65.09    8.20
  10   3   2   56.59    8.60
   8  -4  -2    7.50    7.40
   8  -4  -2    7.00    6.60
   8  -4  -2  -13.30   10.50
  -8   4   2   -2.80   13.00
  -8   4   2   -5.20    6.10
  -8   4   2  -14.50    5.70
   7  -4  -2    6.40    5.50
   7  -4  -2   -2.20    4.20
   7  -4  -2   -6.60    7.80
   7  -4  -2    8.40    5.10
   7  -4  -2   -0.90    5.20
  -7   4   2   11.50    9.80
  -7   4   2    3.00    5.90
  -7   4   2   11.60    6.20
  -7   4   2   -2.30    4.90
  -7   4   2    6.60    4.60
   6  -4  -2   52.59    8.60
   6  -4  -2   50.69    6.50
   6  -4  -2   46.80    6.20
   6  -4  -2   54.79    6.10
   6  -4  -2   50.29    6.70
  -6   4   2   57.59    6.60
  -6   4   2   54.49   10.10
  -6   4   2   61.19    7.60
  -6   4   2   61.29    7.30
  -6   4   2   51.29    7.20
   5  -4  -2   58.99    8.10
   5  -4  -2   59.69    6.10
   5  -4  -2   62.19    7.00
   5  -4  -2   64.59    5.90
   5  -4  -2   71.99    7.40
  -5   4   2   84.49   10.80
  -5   4   2   56.59    6.60
  -5   4   2   59.89    7.30
  -5   4   2   63.99    6.10
  -5   4   2   50.39    6.40
   4  -4  -2   46.50    5.10
   4  -4  -2   41.40    4.80
   4  -4  -2   37.00    4.10
   4  -4  -2   34.90    6.00
   4  -4  -2   41.80    5.50
  -4   4   2   41.80    6.90
  -4   4   2   43.40    5.60
  -4   4   2   40.00    5.10
  -4   4   2   41.40    5.60
  -4   4   2   48.10    4.90
   3  -4  -2  537.95   16.20
   3  -4  -2  509.75   18.70
   3  -4  -2  540.95   16.90
   3  -4  -2  562.94   16.30
  -3   4   2  544.75   16.90
  -3   4   2  532.85   16.50
  -3   4   2  564.54   16.30
  -3   4   2  562.14   19.60
  -3   4   2  541.45   16.90
   2  -4  -2  674.43   19.50
   2  -4  -2  682.63   19.00
   2  -4  -2  695.53   22.00
   2  -4  -2  693.43   19.20
  -2   4   2  668.13   19.20
  -2   4   2  726.83   22.00
  -2   4   2  674.53   19.40
  -2   4   2  707.13   19.20
  -2   4   2  679.73   19.50
   1  -4  -2   69.39    5.40
   1  -4  -2   69.29    4.20
   1  -4  -2   71.09    3.90
   1  -4  -2   73.79    3.70
   1  -4  -2   68.09    3.80
  -1   4   2   64.49    3.80
  -1   4   2   68.19    4.00
  -1   4   2   71.49    5.70
  -1   4   2   68.09    4.00
  -1   4   2   62.89    3.80
   0  -4  -2  851.01   25.20
   0  -4  -2  894.41   23.00
   0  -4  -2  966.90   21.70
   0  -4  -2  910.31   23.40
   0  -4  -2  860.01   23.30
   0   4   2  870.71   23.30
   0   4   2  906.81   23.20
   0   4   2  889.41   23.10
   0   4   2  913.61   25.00
  -1  -4  -2  218.48    7.30
  -1  -4  -2  226.68    8.70
  -1  -4  -2  231.38    7.20
   1   4   2  226.68    6.90
   1   4   2  215.28    7.30
   1   4   2  218.08    7.10
   1   4   2  235.48    8.60
   1   4   2  223.48    7.40
  -2  -4  -2 1480.35   36.90
  -2  -4  -2 1465.45   36.30
  -2  -4  -2 1442.36   37.50
  -2  -4  -2 1474.55   36.30
   2   4   2 1439.16   36.10
   2   4   2 1469.05   36.50
   2   4   2 1452.25   36.50
   2   4   2 1472.35   37.40
   2   4   2 1465.45   35.10
   2   4   2 1532.45   34.60
  -3  -4  -2 2269.87   54.49
  -3  -4  -2 2250.07   53.49
  -3  -4  -2 2179.48   54.59
  -3  -4  -2 2131.49   53.29
   3   4   2 2200.58   53.89
   3   4   2 2221.38   53.89
   3   4   2 2245.68   54.69
   3   4   2 2117.09   53.29
  -4  -4  -2  149.39    6.10
  -4  -4  -2  148.99    6.90
  -4  -4  -2  153.18    6.00
  -4  -4  -2  158.58    7.10
   4   4   2  156.48    7.10
   4   4   2  154.48    6.50
   4   4   2  167.98    6.80
   4   4   2  157.88    6.10
  -5  -4  -2   13.00    2.70
  -5  -4  -2   17.80    2.80
  -5  -4  -2   14.40    2.30
  -5  -4  -2   14.40    3.00
   5   4   2   15.10    2.70
   5   4   2    9.10    2.60
   5   4   2   15.30    2.70
   5   4   2    9.30    2.00
  -6  -4  -2   41.20    5.00
  -6  -4  -2   42.10    4.00
  -6  -4  -2   32.30    4.10
  -6  -4  -2   34.00    4.60
  -6  -4  -2   42.70    5.70
   6   4   2   51.29    5.30
   6   4   2   43.20    4.80
   6   4   2   41.10    4.60
   6   4   2   35.60    4.10
  -7  -4  -2 1993.80   49.10
  -7  -4  -2 1995.50   50.59
  -7  -4  -2 2026.50   53.59
  -7  -4  -2 1955.60   50.29
  -7  -4  -2 2042.50   52.79
  -7  -4  -2 1940.81   52.49
   7   4   2 2043.40   52.59
   7   4   2 1981.20   51.19
   7   4   2 2104.79   52.49
   7   4   2 1981.70   52.19
  -8  -4  -2   95.49    6.90
  -8  -4  -2   96.39    7.70
  -8  -4  -2   87.59    5.90
  -8  -4  -2   94.19    8.80
  -8  -4  -2  108.59    8.50
  -8  -4  -2  103.09    9.80
   8   4   2   99.49    8.30
   8   4   2  101.19    8.30
   8   4   2  102.19    8.40
   8   4   2  107.19    7.80
  -9  -4  -2  172.28    8.50
  -9  -4  -2  179.08   11.10
  -9  -4  -2  171.78   13.20
  -9  -4  -2  166.08   12.00
  -9  -4  -2  159.68    9.00
  -9  -4  -2  170.48    9.60
   9   4   2  159.08   11.60
   9   4   2  167.98   11.30
   9   4   2  191.38   12.10
   9   4   2  172.28   10.70
 -10  -4  -2    9.80    4.50
 -10  -4  -2    6.70    7.80
 -10  -4  -2    2.80    7.00
 -10  -4  -2    3.90    8.90
 -10  -4  -2   21.60    4.90
  10   4   2   11.50    5.50
  10   4   2   20.70    6.80
  10   4   2   19.40    7.20
  10   4   2   11.70    6.50
   7  -5  -2  215.98   13.60
   7  -5  -2  175.68   18.70
   7  -5  -2  204.88   13.70
   7  -5  -2  195.48   12.90
  -7   5   2  186.58   22.10
  -7   5   2  176.78   13.30
  -7   5   2  201.18   12.90
  -7   5   2  190.98   15.60
   6  -5  -2   50.89    9.90
   6  -5  -2   71.09    7.80
   6  -5  -2   73.29    8.30
   6  -5  -2   51.09    7.00
   6  -5  -2   68.39    7.80
  -6   5   2   68.09    9.00
  -6   5   2   65.89    7.30
  -6   5   2   84.59    9.30
  -6   5   2   60.19    7.50
  -6   5   2   50.09   11.10
   5  -5  -2   39.00    5.80
   5  -5  -2   36.10    6.30
   5  -5  -2   38.10    8.10
   5  -5  -2   41.90    5.50
  -5   5   2   38.00    5.40
  -5   5   2   20.50    5.20
  -5   5   2   19.20    9.50
  -5   5   2   31.60    5.70
   4  -5  -2  540.65   17.20
   4  -5  -2  513.85   18.20
   4  -5  -2  545.85   17.30
   4  -5  -2  551.64   18.10
  -4   5   2  523.75   13.80
  -4   5   2  512.25   21.00
  -4   5   2  547.15   17.70
  -4   5   2  528.35   18.10
  -4   5   2  533.65   18.10
  -4   5   2  523.75   18.00
   3  -5  -2    0.10    4.20
   3  -5  -2   -0.60    2.50
   3  -5  -2   -1.60    2.20
   3  -5  -2    2.00    2.40
  -3   5   2    0.50    4.40
  -3   5   2   -2.70    2.20
  -3   5   2    2.80    2.50
  -3   5   2    0.90    2.60
  -3   5   2    2.10    2.30
   2  -5  -2  100.29    6.20
   2  -5  -2   99.79    5.50
   2  -5  -2   88.89    7.60
  -2   5   2   88.79    5.60
  -2   5   2  103.29    6.00
  -2   5   2   99.69    8.10
  -2   5   2   96.79    5.80
   1  -5  -2 3184.78   76.99
   1  -5  -2 3180.08   77.39
   1  -5  -2 3198.38   80.89
   1  -5  -2 3141.69   77.79
  -1   5   2 3229.68   80.29
  -1   5   2 3260.27   77.49
  -1   5   2 3185.98   77.39
  -1   5   2 3159.78   77.59
   0  -5  -2  945.11   21.80
   0  -5  -2  883.71   24.10
   0  -5  -2  881.31   24.20
   0  -5  -2  898.21   23.60
   0  -5  -2  927.11   26.90
   0   5   2  915.51   23.70
   0   5   2  892.81   24.00
   0   5   2  903.31   24.10
   0   5   2  895.51   26.00
   0   5   2  891.81   23.80
  -1  -5  -2 1576.64   39.20
  -1  -5  -2 1532.45   41.10
  -1  -5  -2 1548.55   38.50
  -1  -5  -2 1527.65   38.90
   1   5   2 1594.14   40.60
   1   5   2 1508.35   38.50
   1   5   2 1528.25   38.80
   1   5   2 1561.64   38.10
   1   5   2 1566.04   38.90
  -2  -5  -2    9.00    2.60
  -2  -5  -2    5.80    1.70
  -2  -5  -2    5.70    2.00
  -2  -5  -2    6.10    1.50
   2   5   2    7.90    1.70
   2   5   2    5.40    2.00
   2   5   2    3.00    1.50
   2   5   2    5.00    1.50
   2   5   2    6.60    1.20
  -3  -5  -2    4.10    1.80
  -3  -5  -2    7.40    2.40
  -3  -5  -2    7.30    1.80
  -3  -5  -2    4.10    1.50
   3   5   2    3.40    2.30
   3   5   2    7.10    1.70
   3   5   2    7.20    1.70
   3   5   2    6.60    1.40
   3   5   2    7.50    2.10
  -4  -5  -2    0.50    1.40
  -4  -5  -2    0.90    1.30
  -4  -5  -2    1.20    2.20
  -4  -5  -2    0.40    1.90
   4   5   2   -0.80    1.50
   4   5   2    1.20    1.70
   4   5   2    1.70    2.10
   4   5   2    1.20    1.40
  -5  -5  -2  511.95   15.40
  -5  -5  -2  481.15   16.00
  -5  -5  -2  484.45   14.50
  -5  -5  -2  469.55   14.10
  -5  -5  -2  494.25   15.90
   5   5   2  501.75   15.50
   5   5   2  494.75   16.10
   5   5   2  464.45   15.00
   5   5   2  484.05   14.60
  -6  -5  -2   26.60    2.00
  -6  -5  -2   35.90    4.80
  -6  -5  -2   23.40    4.10
  -6  -5  -2   30.80    3.60
  -6  -5  -2   28.80    3.60
  -6  -5  -2   21.70    4.00
   6   5   2   26.40    4.30
   6   5   2   26.30    3.70
   6   5   2   28.90    4.10
   6   5   2   22.10    3.20
  -7  -5  -2  108.09    6.60
  -7  -5  -2  117.29    7.80
  -7  -5  -2  110.19    4.60
  -7  -5  -2  113.09    6.20
  -7  -5  -2  113.69    8.30
  -7  -5  -2  130.39    9.00
   7   5   2   96.19    6.70
   7   5   2  112.69    9.30
   7   5   2  105.59    7.20
   7   5   2  100.89    7.90
  -8  -5  -2    6.40    3.10
  -8  -5  -2    4.20    2.10
  -8  -5  -2    7.00    4.00
  -8  -5  -2    4.90    5.10
  -8  -5  -2    5.80    3.80
  -8  -5  -2    7.60    3.70
   8   5   2    2.60    3.30
   8   5   2    1.40    3.50
   8   5   2    4.30    4.10
   8   5   2    4.60    3.80
  -9  -5  -2  182.88    9.80
  -9  -5  -2  188.88   13.50
  -9  -5  -2  170.28    8.00
  -9  -5  -2  175.88   12.20
  -9  -5  -2  182.18   11.30
  -9  -5  -2  175.38    9.10
   9   5   2  182.18   11.30
   9   5   2  198.78   11.30
   9   5   2  201.98   12.30
   9   5   2  184.78   10.70
 -10  -5  -2    3.90    4.20
 -10  -5  -2    7.10    4.00
 -10  -5  -2    3.60    4.80
 -10  -5  -2    2.40    8.40
 -10  -5  -2    5.30    6.40
  10   5   2    2.10    5.50
  10   5   2    7.70    5.40
  10   5   2   -4.40    5.80
  10   5   2   -1.50    7.30
   6  -6  -2    6.30    5.80
   6  -6  -2    6.00    9.30
   6  -6  -2    1.90    5.70
   6  -6  -2    6.10    5.80
  -6   6   2    8.50    5.70
  -6   6   2   13.30   12.60
  -6   6   2    3.00    6.20
  -6   6   2    9.80    6.90
   5  -6  -2  205.88   11.00
   5  -6  -2  199.18   11.10
   5  -6  -2  198.18   11.50
   5  -6  -2  210.18   17.20
   5  -6  -2  195.08   12.20
  -5   6   2  205.48   11.60
  -5   6   2  192.58   12.40
  -5   6   2  206.48   11.90
  -5   6   2  204.98   16.40
   4  -6  -2  186.18   11.00
   4  -6  -2  194.48    9.90
   4  -6  -2  198.98    9.60
   4  -6  -2  164.98   13.20
  -4   6   2  201.08   11.00
  -4   6   2  190.78   15.20
  -4   6   2  185.18   10.30
  -4   6   2  187.58   10.90
  -4   6   2  187.28   10.70
  -4   6   2  197.78    7.00
   3  -6  -2  500.35   21.10
   3  -6  -2  514.75   17.90
   3  -6  -2  515.85   16.60
   3  -6  -2  516.15   16.90
  -3   6   2  505.75   17.70
  -3   6   2  519.45   21.40
  -3   6   2  505.05   16.90
  -3   6   2  514.55   17.50
   2  -6  -2  233.98   15.60
   2  -6  -2  245.28   10.00
   2  -6  -2  225.48   10.30
   2  -6  -2  240.78    9.50
  -2   6   2  242.18   10.10
  -2   6   2  238.48   13.00
  -2   6   2  256.47   10.20
  -2   6   2  247.28   10.40
   1  -6  -2  105.79    5.70
   1  -6  -2  103.09    6.50
   1  -6  -2  105.89    5.90
   1  -6  -2  105.79    9.00
  -1   6   2  113.29    8.60
  -1   6   2  106.19    6.30
  -1   6   2  110.19    6.30
   0  -6  -2  715.53   20.60
   0  -6  -2  736.63   19.90
   0  -6  -2  713.13   20.40
   0  -6  -2  689.23   23.20
   0  -6  -2  737.63   17.40
   0   6   2  682.73   22.20
   0   6   2  727.43   20.40
   0   6   2  707.53   20.30
   0   6   2  694.73   20.00
  -1  -6  -2 1002.10   30.10
  -1  -6  -2 1002.30   27.40
  -1  -6  -2 1035.90   27.00
  -1  -6  -2 1008.30   27.70
   1   6   2 1030.40   26.50
   1   6   2 1030.00   27.40
   1   6   2 1052.69   29.40
   1   6   2 1058.49   27.60
   1   6   2 1041.80   27.10
  -2  -6  -2  129.29    6.10
  -2  -6  -2  144.79    6.10
  -2  -6  -2  133.69    7.70
  -2  -6  -2  136.19    6.50
   2   6   2  136.59    6.00
   2   6   2  130.49    6.20
   2   6   2  141.29    5.00
   2   6   2  132.29    7.50
   2   6   2  127.69    5.80
  -3  -6  -2  233.08    8.50
  -3  -6  -2  222.58   10.00
  -3  -6  -2  244.48    9.60
  -3  -6  -2  220.88    8.30
   3   6   2  245.18    6.60
   3   6   2  236.68    8.60
   3   6   2  253.57    9.10
   3   6   2  237.08    6.50
   3   6   2  241.68   10.00
   3   6   2  231.18    8.30
  -4  -6  -2   59.99    4.40
  -4  -6  -2   62.79    5.60
  -4  -6  -2   59.89    4.10
  -4  -6  -2   68.69    5.40
   4   6   2   58.89    4.50
   4   6   2   63.79    5.30
   4   6   2   58.29    4.20
   4   6   2   66.09    4.90
  -5  -6  -2    9.20    2.30
  -5  -6  -2    6.90    3.00
  -5  -6  -2   11.50    3.40
  -5  -6  -2    4.90    2.60
  -5  -6  -2    7.70    2.40
   5   6   2    5.10    2.80
   5   6   2    8.00    2.60
   5   6   2   12.00    2.90
   5   6   2    7.50    2.30
  -6  -6  -2   48.30    4.80
  -6  -6  -2   54.69    5.80
  -6  -6  -2   59.29    4.40
  -6  -6  -2   46.00    5.50
  -6  -6  -2   49.50    6.10
   6   6   2   52.19    5.80
   6   6   2   50.09    5.20
   6   6   2   45.20    6.00
   6   6   2   51.29    6.30
  -7  -6  -2    2.80    2.80
  -7  -6  -2    0.10    3.40
  -7  -6  -2    0.90    3.50
  -7  -6  -2    4.90    2.50
  -7  -6  -2    5.70    4.20
   7   6   2    5.00    4.50
   7   6   2    1.90    3.00
   7   6   2   -1.10    3.30
   7   6   2    6.80    2.80
  -8  -6  -2  133.89    7.40
  -8  -6  -2  137.79   10.10
  -8  -6  -2  117.89    9.40
  -8  -6  -2  142.29   11.20
  -8  -6  -2  134.09    7.80
   8   6   2  143.39    8.40
   8   6   2  128.59   10.00
   8   6   2  139.89    9.80
   8   6   2  130.19    8.70
  -9  -6  -2  426.76   14.30
  -9  -6  -2  404.76   12.50
  -9  -6  -2  458.55   19.30
  -9  -6  -2  418.06   17.60
  -9  -6  -2  421.86   18.80
  -9  -6  -2  431.86   14.80
   9   6   2  401.26   16.10
   9   6   2  423.46   16.60
   9   6   2  430.16   17.90
   9   6   2  418.96   17.50
 -10  -6  -2   67.79    7.90
 -10  -6  -2   58.09    9.20
 -10  -6  -2   68.19    6.80
 -10  -6  -2   69.99   10.60
 -10  -6  -2   65.99    8.40
  10   6   2   51.89    8.30
  10   6   2   87.29    9.70
  10   6   2   88.39   11.50
  10   6   2   78.59   10.00
   5  -7  -2   71.99    8.00
   5  -7  -2   74.09    9.70
   5  -7  -2   70.19    8.00
   5  -7  -2   45.30   10.30
  -5   7   2   82.19   11.10
  -5   7   2   79.59    8.50
  -5   7   2  102.09   15.20
  -5   7   2   65.59    8.80
   4  -7  -2   23.00    4.80
   4  -7  -2   25.40    9.30
   4  -7  -2   34.20    6.00
   4  -7  -2   21.40    5.40
   4  -7  -2   29.10    5.80
  -4   7   2   19.50    9.90
  -4   7   2   26.90    5.60
  -4   7   2   30.20    3.80
  -4   7   2   26.50    5.80
  -4   7   2   24.20    6.00
  -4   7   2   19.60    5.30
   3  -7  -2  760.62   23.00
   3  -7  -2  732.83   24.40
   3  -7  -2  741.33   28.50
   3  -7  -2  792.02   23.90
  -3   7   2  774.52   24.20
  -3   7   2  780.42   28.90
  -3   7   2  722.83   24.00
  -3   7   2  772.12   24.80
  -3   7   2  788.52   23.90
   2  -7  -2  659.13   25.10
   2  -7  -2  612.24   20.80
   2  -7  -2  670.53   20.40
   2  -7  -2  639.54   19.60
  -2   7   2  665.43   20.50
  -2   7   2  609.64   20.50
  -2   7   2  660.63   20.60
  -2   7   2  622.24   23.80
   1  -7  -2   -2.40    3.90
   1  -7  -2   -0.50    2.70
   1  -7  -2    4.70    3.10
   1  -7  -2    4.40    3.00
  -1   7   2    1.80    2.70
  -1   7   2    6.10    3.20
  -1   7   2    5.60    3.20
  -1   7   2   -0.80    4.90
   0  -7  -2 1295.77   33.40
   0  -7  -2 1248.38   34.20
   0  -7  -2 1222.58   37.90
   0  -7  -2 1267.87   34.10
   0   7   2 1295.17   36.90
   0   7   2 1256.07   33.70
   0   7   2 1258.07   34.30
   0   7   2 1277.57   34.00
  -1  -7  -2  859.81   23.20
  -1  -7  -2  806.62   24.10
  -1  -7  -2  835.42   24.00
  -1  -7  -2  846.92   27.40
   1   7   2  853.81   23.70
   1   7   2  846.92   25.80
   1   7   2  801.32   23.30
   1   7   2  854.01   22.60
   1   7   2  849.02   23.90
  -2  -7  -2  633.84   18.70
  -2  -7  -2  636.94   18.40
  -2  -7  -2  655.63   19.40
  -2  -7  -2  614.44   21.60
   2   7   2  638.04   17.20
   2   7   2  638.54   20.50
   2   7   2  623.34   18.60
   2   7   2  646.64   19.00
  -3  -7  -2  135.49    6.80
  -3  -7  -2  140.09    8.90
  -3  -7  -2  152.08    7.00
  -3  -7  -2  148.99    7.80
   3   7   2  151.68    7.40
   3   7   2  140.99    8.30
   3   7   2  147.09    5.00
   3   7   2  147.29    9.10
   3   7   2  133.49    6.60
  -4  -7  -2   78.89    5.00
  -4  -7  -2   73.49    5.40
  -4  -7  -2   76.69    7.00
  -4  -7  -2   82.09    6.20
   4   7   2   71.59    5.10
   4   7   2   77.69    5.80
   4   7   2   75.29    6.60
   4   7   2   74.89    4.50
  -5  -7  -2    6.40    3.80
  -5  -7  -2   10.50    3.80
  -5  -7  -2    5.60    2.50
  -5  -7  -2    5.00    3.20
  -5  -7  -2    4.90    2.30
   5   7   2    6.00    2.30
   5   7   2    4.00    3.30
   5   7   2    3.10    3.00
   5   7   2    7.30    2.50
  -6  -7  -2    0.60    2.30
  -6  -7  -2    2.90    3.90
  -6  -7  -2   -0.90    3.30
  -6  -7  -2   -1.90    3.70
  -6  -7  -2    0.80    2.40
   6   7   2    0.70    3.30
   6   7   2    1.70    2.30
   6   7   2   -3.30    2.40
   6   7   2    4.10    4.10
  -7  -7  -2   50.09    6.80
  -7  -7  -2   55.99    6.90
  -7  -7  -2   38.30    6.10
  -7  -7  -2   36.50    4.70
  -7  -7  -2   48.80    5.70
   7   7   2   44.30    5.70
   7   7   2   37.10    4.70
   7   7   2   47.00    6.20
   7   7   2   35.10    5.10
  -8  -7  -2   25.10    7.00
  -8  -7  -2   19.00    5.20
  -8  -7  -2   15.10    3.90
  -8  -7  -2    7.30    5.00
  -8  -7  -2   15.40    3.50
   8   7   2   16.40    5.60
   8   7   2   12.20    4.30
   8   7   2   15.40    4.40
   8   7   2   21.30    5.40
  -9  -7  -2    7.50    5.70
  -9  -7  -2   -1.40    5.50
  -9  -7  -2    3.10    5.60
  -9  -7  -2   -7.50    6.90
  -9  -7  -2   -3.00    3.80
   9   7   2   -1.80    4.90
   9   7   2    2.00    5.30
   9   7   2   -8.00    5.20
   9   7   2    0.60    4.00
 -10  -7  -2   -6.30    8.80
 -10  -7  -2    3.40    7.00
 -10  -7  -2    4.50    4.80
 -10  -7  -2    7.60    4.20
  10   7   2    2.40    5.30
  10   7   2    9.50    7.50
  10   7   2    1.10    5.90
  10   7   2   11.40    7.90
   4  -8  -2   77.99    8.80
   4  -8  -2   93.29   13.20
   4  -8  -2   67.49    8.00
   4  -8  -2   55.39    7.00
  -4   8   2   52.99   13.20
  -4   8   2   92.39    9.30
  -4   8   2   80.69   10.90
  -4   8   2   64.09    7.10
   3  -8  -2  464.85   18.90
   3  -8  -2  503.55   18.60
   3  -8  -2  509.55   17.60
   3  -8  -2  442.86   22.30
  -3   8   2  492.25   19.30
  -3   8   2  496.45   18.80
  -3   8   2  537.95   24.80
  -3   8   2  506.45   18.90
  -3   8   2  486.15   18.90
   2  -8  -2   55.99   10.10
   2  -8  -2   68.19    7.40
   2  -8  -2   64.89    7.00
   2  -8  -2   57.59    6.90
  -2   8   2   61.69    8.10
  -2   8   2   55.69    6.30
  -2   8   2   56.69    6.40
  -2   8   2   72.19    7.90
  -2   8   2   60.09    9.70
   1  -8  -2   33.70    5.40
   1  -8  -2   43.00    5.20
   1  -8  -2   35.90    5.30
   1  -8  -2   41.90    8.50
  -1   8   2   42.70    6.00
  -1   8   2   47.10    6.00
  -1   8   2   46.20    8.30
  -1   8   2   28.00    4.60
   0  -8  -2   48.20    7.30
   0  -8  -2   43.00    5.40
   0  -8  -2   60.39    5.60
   0  -8  -2   55.19    6.10
   0   8   2   52.99    5.90
   0   8   2   55.09    8.20
   0   8   2   50.69    5.90
   0   8   2   55.49    6.00
  -1  -8  -2   34.90    6.60
  -1  -8  -2   40.30    5.20
  -1  -8  -2   33.30    4.40
  -1  -8  -2   32.90    5.00
   1   8   2   25.90    4.00
   1   8   2   31.40    4.10
   1   8   2   29.40    3.90
   1   8   2   41.90    6.80
   1   8   2   32.80    4.20
  -2  -8  -2  119.89   10.50
  -2  -8  -2  148.69    8.10
  -2  -8  -2  139.09    7.80
  -2  -8  -2  146.49    7.50
   2   8   2  134.69    6.20
   2   8   2  146.39   10.00
   2   8   2  143.79    7.50
   2   8   2  140.89    7.90
   2   8   2  140.79    7.30
  -3  -8  -2  154.48   10.70
  -3  -8  -2  165.68    9.00
  -3  -8  -2  160.08    8.00
  -3  -8  -2  164.38    7.90
   3   8   2  162.28    5.90
   3   8   2  160.78    7.80
   3   8   2  162.38    7.60
   3   8   2  157.18    9.80
  -4  -8  -2   68.59    6.70
  -4  -8  -2   58.99    7.30
  -4  -8  -2   68.59    5.80
  -4  -8  -2   61.59    6.20
   4   8   2   70.39    5.40
   4   8   2   70.89    7.40
   4   8   2   60.59    7.70
   4   8   2   70.19    5.40
  -5  -8  -2   50.99    5.50
  -5  -8  -2   37.70    5.70
  -5  -8  -2   43.60    6.30
  -5  -8  -2   34.80    5.10
   5   8   2   44.50    5.10
   5   8   2   51.99    6.90
   5   8   2   41.90    4.90
   5   8   2   40.60    5.20
  -6  -8  -2   32.80    5.80
  -6  -8  -2   34.80    6.20
  -6  -8  -2   31.40    4.30
  -6  -8  -2   26.20    5.50
  -6  -8  -2   31.80    5.10
   6   8   2   21.70    3.80
   6   8   2   28.10    5.20
   6   8   2   36.50    5.50
   6   8   2   30.30    4.60
  -7  -8  -2   -2.90    4.80
  -7  -8  -2    7.30    5.10
  -7  -8  -2    6.50    3.30
  -7  -8  -2   -1.80    4.50
   7   8   2    8.30    3.40
   7   8   2    1.00    4.40
   7   8   2    6.30    3.50
   7   8   2    1.90    4.70
  -8  -8  -2    7.20    6.30
  -8  -8  -2    1.90    5.40
  -8  -8  -2    1.10    3.30
   8   8   2    3.50    4.20
   8   8   2    2.50    4.00
   8   8   2    5.90    5.30
   8   8   2    8.70    5.40
  -9  -8  -2   -0.20    4.10
  -9  -8  -2   -2.40    7.50
  -9  -8  -2    4.20    6.90
  -9  -8  -2  -10.90    7.10
   9   8   2    0.70    5.10
   9   8   2   -3.80    4.50
   9   8   2    4.90    6.40
   9   8   2    2.80    6.10
 -10  -8  -2   11.80   10.40
  10   8   2    2.00    8.40
  10   8   2    4.10    8.00
   3  -9  -2   34.50    7.40
   3  -9  -2   42.20   14.30
   3  -9  -2   60.79    7.40
  -3   9   2   66.19    8.80
  -3   9   2   71.69   15.40
  -3   9   2   60.89    8.90
  -3   9   2   42.10   13.00
   2  -9  -2  126.39   16.30
   2  -9  -2  108.89   11.30
   2  -9  -2  115.39    9.40
   2  -9  -2  130.69   11.40
  -2   9   2  114.49   14.50
  -2   9   2  148.69   11.40
  -2   9   2  115.09   10.40
  -2   9   2  118.89   10.90
  -2   9   2  115.59   10.10
   1  -9  -2  229.38   11.20
   1  -9  -2  207.78   16.20
   1  -9  -2  225.48   12.40
   1  -9  -2  212.78    7.10
   1  -9  -2  205.78   11.90
  -1   9   2  211.18   11.70
  -1   9   2  225.68   16.40
  -1   9   2  249.88   12.60
  -1   9   2  205.58   12.10
  -1   9   2  206.88   11.60
   0  -9  -2   74.49    8.50
   0  -9  -2   86.69    8.90
   0  -9  -2   78.39   10.70
   0  -9  -2   87.79    7.80
   0   9   2   72.79    7.30
   0   9   2   63.79    7.10
   0   9   2   84.99    7.80
   0   9   2   78.99   10.00
   0   9   2   82.59    8.10
  -1  -9  -2   41.80    6.10
  -1  -9  -2   35.50    4.90
  -1  -9  -2   26.90    7.90
  -1  -9  -2   35.00    5.30
   1   9   2   39.00    5.30
   1   9   2   29.90    4.90
   1   9   2   22.10    6.00
   1   9   2   33.10    4.90
   1   9   2   40.30    4.80
  -2  -9  -2  228.18   10.80
  -2  -9  -2  217.48   10.20
  -2  -9  -2  217.78   11.60
  -2  -9  -2  227.08   14.40
   2   9   2  201.38    9.80
   2   9   2  219.58   10.90
   2   9   2  215.28    8.60
   2   9   2  215.28   10.30
   2   9   2  229.08   13.00
  -3  -9  -2    6.90    3.60
  -3  -9  -2   10.90    4.70
  -3  -9  -2    7.60    3.60
  -3  -9  -2   11.50    5.70
   3   9   2   10.20    4.20
   3   9   2    6.90    3.30
   3   9   2    9.90    2.60
   3   9   2   12.70    5.20
  -4  -9  -2   52.19    6.30
  -4  -9  -2   48.60    6.00
  -4  -9  -2   38.00    7.00
  -4  -9  -2   42.30    5.10
   4   9   2   38.90    6.50
   4   9   2   43.50    5.60
   4   9   2   51.69    5.80
   4   9   2   53.89    6.30
  -5  -9  -2    3.50    4.70
  -5  -9  -2    4.50    4.20
  -5  -9  -2    6.20    3.30
  -5  -9  -2   -0.90    5.00
  -5  -9  -2    7.70    3.60
   5   9   2    8.50    4.70
   5   9   2   10.40    3.50
   5   9   2    9.90    3.40
  -6  -9  -2   14.40    3.80
  -6  -9  -2    3.50    5.20
  -6  -9  -2    9.70    5.90
  -6  -9  -2   15.60    5.20
  -6  -9  -2   19.00    4.00
   6   9   2   19.10    5.00
   6   9   2   15.80    5.50
   6   9   2   15.10    4.10
   6   9   2   14.70    4.00
  -7  -9  -2   -1.60    5.30
  -7  -9  -2   -2.00    6.00
  -7  -9  -2   15.20    3.90
  -7  -9  -2    8.40    6.00
  -7  -9  -2    9.30    3.90
   7   9   2   16.00    4.20
   7   9   2   13.50    5.10
   7   9   2   15.30    4.40
   7   9   2    8.80    5.60
  -8  -9  -2    4.40    7.00
  -8  -9  -2   -3.00    6.80
  -8  -9  -2   -1.90    3.70
  -8  -9  -2   -0.50    6.70
  -8  -9  -2   -6.70    3.80
   8   9   2    2.50    4.50
   8   9   2   -4.60    5.90
   8   9   2   -5.70    5.60
   8   9   2   -4.90    3.90
  -9  -9  -2    9.30    8.70
  -9  -9  -2   41.80   10.30
  -9  -9  -2   24.70    5.70
  -9  -9  -2   27.40    5.60
   9   9   2   26.20    8.80
   9   9   2   35.00    6.40
   9   9   2   23.50    6.20
   9   9   2   28.90    7.80
   2 -10  -2    7.60    8.10
   2 -10  -2   10.80    6.80
  -2  10   2    9.60   12.10
  -2  10   2   -1.50   11.00
  -2  10   2   -6.00    6.50
   1 -10  -2   57.59    7.30
   1 -10  -2   81.29    9.60
  -1  10   2   82.39    9.30
  -1  10   2   83.09   10.40
  -1  10   2   76.09   10.00
  -1  10   2   50.89   11.10
   0 -10  -2   36.50    6.50
   0 -10  -2   23.60   10.50
   0 -10  -2   28.90    6.00
   0 -10  -2   34.70    7.40
   0  10   2   28.80    6.30
   0  10   2   31.80    5.80
   0  10   2   21.90    6.30
   0  10   2   28.70    6.50
   0  10   2   38.00    9.70
  -1 -10  -2   51.29    9.90
  -1 -10  -2   84.59   10.40
  -1 -10  -2   79.89    8.80
  -1 -10  -2   70.49    8.70
   1  10   2   65.29    7.30
   1  10   2   89.49   10.80
   1  10   2   77.99    9.00
   1  10   2   73.39    7.40
   1  10   2   74.49    7.90
  -2 -10  -2   40.30    6.10
  -2 -10  -2   24.10    6.50
  -2 -10  -2   22.00    8.80
  -2 -10  -2   25.20    5.80
   2  10   2   24.80    4.30
   2  10   2   27.10    5.60
   2  10   2   32.30    7.90
   2  10   2   34.10    4.90
   2  10   2   27.40    5.20
  -3 -10  -2   35.50    5.70
  -3 -10  -2   37.00    5.50
  -3 -10  -2   39.30    8.50
  -3 -10  -2   34.60    8.00
   3  10   2   32.40    7.60
   3  10   2   32.20    5.70
   3  10   2   38.50    4.80
   3  10   2   42.90    6.60
   3  10   2   23.10    4.40
  -4 -10  -2    3.20    4.40
  -4 -10  -2    8.70    5.50
  -4 -10  -2   13.20    4.40
  -4 -10  -2   14.90    6.60
   4  10   2    7.00    4.00
   4  10   2   -0.20    4.20
   4  10   2   14.10    6.00
   4  10   2   10.30    3.60
  -5 -10  -2   28.30    6.30
  -5 -10  -2   28.20    5.20
  -5 -10  -2   15.50    7.10
  -5 -10  -2   31.60    6.20
  -5 -10  -2   33.60    6.40
   5  10   2   26.60    6.00
   5  10   2   30.70    6.90
   5  10   2   34.50    5.00
  -6 -10  -2   16.50    6.00
  -6 -10  -2   27.20    7.40
  -6 -10  -2   20.90    4.80
  -6 -10  -2   20.80    7.40
  -6 -10  -2   12.00    4.40
   6  10   2   22.70    6.40
   6  10   2    2.30    6.40
   6  10   2   11.70    3.90
   6  10   2   11.90    4.60
  -7 -10  -2   42.30    8.50
  -7 -10  -2   31.80    8.40
  -7 -10  -2   39.40    5.40
  -7 -10  -2   40.90    5.80
   7  10   2   39.50    7.60
   7  10   2   33.20    5.10
   7  10   2   35.70    8.30
   7  10   2   51.79    6.60
  -8 -10  -2   -0.60    8.60
  -8 -10  -2    1.60    5.00
  -8 -10  -2   -1.10    4.60
  -8 -10  -2  -11.70    8.50
   8  10   2   -1.40    8.00
   8  10   2   -6.40    5.20
   8  10   2    0.50    5.20
   8  10   2   10.00    7.80
   0 -11  -2   10.10    8.50
   0 -11  -2    4.20    6.50
   0  11   2    6.70    6.60
   0  11   2   10.40    6.70
  -1 -11  -2    5.10    5.70
  -1 -11  -2    9.80    7.10
  -1 -11  -2    5.10    7.50
   1  11   2    1.50    5.60
   1  11   2    7.10    5.20
   1  11   2    0.80    9.70
   1  11   2    1.40    7.30
  -2 -11  -2   55.09    9.40
  -2 -11  -2   58.89    7.80
  -2 -11  -2   44.10    7.20
   2  11   2   56.39    7.70
   2  11   2   50.99    7.80
   2  11   2   59.49   11.30
   2  11   2   47.10   11.90
  -3 -11  -2   16.30    6.00
  -3 -11  -2   21.10    8.10
  -3 -11  -2   17.70    5.60
   3  11   2   23.50    8.70
   3  11   2   29.70    6.10
   3  11   2   23.50    4.30
   3  11   2   27.40    6.60
  -4 -11  -2   45.60    7.20
  -4 -11  -2   52.09    7.10
  -4 -11  -2   40.30    6.50
  -4 -11  -2   58.09    8.90
   4  11   2   39.20    6.20
   4  11   2   43.20    6.80
   4  11   2   48.00    9.80
   4  11   2   61.39    8.10
  -5 -11  -2   10.40    5.20
  -5 -11  -2    7.50    6.70
  -5 -11  -2   10.50    5.50
  -5 -11  -2    6.90    7.30
   5  11   2   13.50    5.40
   5  11   2   16.50    5.30
   5  11   2    9.70    8.20
   5  11   2    3.50    6.20
  -6 -11  -2   26.50    9.10
  -6 -11  -2   18.10    5.50
  -6 -11  -2   24.30    7.80
  -6 -11  -2   16.20    7.00
   6  11   2   13.90    5.50
   6  11   2   22.20    9.20
   6  11   2    0.20    6.90
  -7 -11  -2   24.70   10.00
  -7 -11  -2   27.80    6.30
  -7 -11  -2   44.80   12.20
  -7 -11  -2   41.20    6.10
   7  11   2   25.60    9.70
   7  11   2   44.70    9.30
   7  11   2   52.39    9.30
   5   9  -3    9.50    4.10
   5   9  -3   -3.50    5.60
   5   9  -3   14.30    5.50
   5   9  -3    6.30    4.10
  -5  -9   3    9.80    7.50
  -5  -9   3    4.20    4.30
  -5  -9   3   -3.80    7.20
   4   9  -3   -5.40    4.80
   4   9  -3    2.00    4.80
   4   9  -3    1.30    4.20
   4   9  -3   -2.30    3.90
   4   9  -3    6.30    3.60
  -4  -9   3    9.80    5.30
  -4  -9   3    3.60    6.40
  -4  -9   3    9.40    4.30
  -4  -9   3   -3.30    7.10
   3   9  -3   16.00    4.60
   3   9  -3   14.90    4.80
   3   9  -3   18.30    6.00
   3   9  -3    7.00    4.70
  -3  -9   3    4.80    5.40
  -3  -9   3   20.70    5.60
  -3  -9   3   18.70    4.60
  -3  -9   3   22.90    7.60
   2   9  -3   23.50    5.30
   2   9  -3   20.50    5.20
   2   9  -3   10.70    6.30
   2   9  -3   11.70    4.90
  -2  -9   3   13.40    4.30
  -2  -9   3   22.80    5.00
  -2  -9   3   20.70    5.70
  -2  -9   3    2.60    7.30
   1   9  -3   13.20    5.80
   1   9  -3   21.60    7.10
   1   9  -3   10.30    8.10
   1   9  -3   10.40    4.50
   1   9  -3   11.50    5.10
  -1  -9   3    7.30    4.30
  -1  -9   3    6.10    5.10
  -1  -9   3    5.40    8.10
  -1  -9   3    1.80    3.40
  -1  -9   3   13.40    3.30
  -1  -9   3   13.00    4.10
   0   9  -3   17.10    6.10
   0   9  -3    8.40    5.80
   0   9  -3   14.70    8.50
   0   9  -3   16.20    5.70
   0   9  -3   11.30    7.80
   0  -9   3   27.50    4.30
   0  -9   3    8.40    4.60
   0  -9   3   20.10    5.50
   0  -9   3   21.50    6.30
  -1   9  -3   10.20    7.50
  -1   9  -3    8.60    9.90
  -1   9  -3   10.50    6.60
  -1   9  -3   -3.40    7.80
   1  -9   3   17.10    4.60
   1  -9   3   23.70    6.60
   1  -9   3   13.20    4.90
   1  -9   3    3.70    5.30
   7   8  -3    5.60    5.80
   7   8  -3    0.60    3.90
   7   8  -3    4.70    3.70
  -7  -8   3   -9.40    6.20
  -7  -8   3    0.30    8.80
   6   8  -3    9.90    4.30
   6   8  -3    3.50    3.10
   6   8  -3    2.20    3.30
   6   8  -3    3.10    3.40
  -6  -8   3    0.90    3.70
  -6  -8   3    0.80    7.30
  -6  -8   3    4.30    6.20
   5   8  -3    1.40    3.40
   5   8  -3    5.80    4.40
   5   8  -3    3.10    3.00
   5   8  -3   -0.50    3.90
   5   8  -3    6.60    5.40
  -5  -8   3    4.10    5.70
  -5  -8   3    6.30    6.20
  -5  -8   3    4.20    3.70
  -5  -8   3   -1.70    4.30
   4   8  -3   24.20    3.80
   4   8  -3   21.40    4.00
   4   8  -3   27.30    5.50
   4   8  -3   26.70    5.70
   4   8  -3   25.00    3.80
  -4  -8   3   27.90    6.60
  -4  -8   3   26.40    6.50
  -4  -8   3   26.80    5.00
  -4  -8   3   24.40    4.90
   3   8  -3  186.58    9.80
   3   8  -3  196.58    8.70
   3   8  -3  190.88    8.80
   3   8  -3  186.98   10.50
  -3  -8   3  191.18    9.40
  -3  -8   3  224.88   11.60
  -3  -8   3  188.68   13.00
  -3  -8   3  197.58    9.80
   2   8  -3  106.39    9.30
   2   8  -3  112.79    8.50
   2   8  -3  102.59    7.30
   2   8  -3  108.09    7.20
   2   8  -3  100.99    9.30
  -2  -8   3  112.89    8.30
  -2  -8   3  103.59    7.60
  -2  -8   3  117.69    7.50
  -2  -8   3  113.49   11.30
   1   8  -3   26.90    6.00
   1   8  -3   10.10    4.70
   1   8  -3    0.80    5.70
   1   8  -3    7.10    3.90
   1   8  -3   14.30    4.20
  -1  -8   3   12.40    6.10
  -1  -8   3    9.90    2.80
  -1  -8   3   14.10    4.30
  -1  -8   3   10.20    3.60
  -1  -8   3    8.50    2.60
  -1  -8   3   11.00    3.40
   0   8  -3  104.19   11.40
   0   8  -3   79.79    9.60
   0   8  -3   87.19    9.00
   0   8  -3  109.29    8.60
   0   8  -3   83.69    8.30
   0  -8   3  100.09    6.20
   0  -8   3   95.39    5.10
   0  -8   3  116.09   11.50
   0  -8   3  110.09    7.30
   0  -8   3   90.09    7.40
   0  -8   3  107.09    8.40
  -1   8  -3   65.29    9.30
  -1   8  -3   78.19    9.80
  -1   8  -3   72.49    7.70
  -1   8  -3   86.79    9.70
   1  -8   3   52.19    9.20
   1  -8   3   74.39    7.80
   1  -8   3   63.09    7.80
   1  -8   3   59.39    7.10
   1  -8   3   65.89    6.30
  -2   8  -3   44.40    7.20
  -2   8  -3   48.70   10.70
  -2   8  -3   33.80    6.90
  -2   8  -3   39.80    7.30
  -2   8  -3   45.20    7.60
   2  -8   3   39.30    5.80
   2  -8   3   30.50    5.10
   2  -8   3   32.50    6.80
   2  -8   3   22.80    6.00
  -3   8  -3  124.09   11.80
  -3   8  -3  130.89   13.60
  -3   8  -3  105.19   14.40
  -3   8  -3  123.09   13.30
   3  -8   3  143.19   10.40
   3  -8   3  122.09   11.50
   3  -8   3  114.09    9.70
   3  -8   3  122.19   11.10
   8   7  -3    6.60    6.40
   8   7  -3   -0.40    4.40
   8   7  -3  -11.10    7.00
  -8  -7   3    6.90    5.80
  -8  -7   3   -3.50    9.80
   7   7  -3    0.90    2.30
   7   7  -3    8.60    4.10
   7   7  -3    2.00    6.10
   7   7  -3    4.50    3.20
   7   7  -3    8.20    4.80
  -7  -7   3   -1.00    4.60
  -7  -7   3    8.10    5.00
  -7  -7   3   -6.90    7.30
   6   7  -3   24.10    2.90
   6   7  -3   24.60    3.70
   6   7  -3   27.00    3.90
   6   7  -3   21.30    3.60
   6   7  -3   21.50    4.60
  -6  -7   3   21.70    5.40
  -6  -7   3    8.50    4.40
  -6  -7   3   22.00    7.10
   5   7  -3    7.60    3.40
   5   7  -3   12.90    3.50
   5   7  -3    9.20    2.50
   5   7  -3    9.90    3.00
   5   7  -3    5.30    2.50
  -5  -7   3   27.90    6.60
  -5  -7   3    6.60    3.40
  -5  -7   3    9.50    4.60
   4   7  -3   58.99    6.00
   4   7  -3   49.20    5.10
   4   7  -3   52.99    4.60
   4   7  -3   50.19    5.70
   4   7  -3   52.39    4.50
  -4  -7   3   57.49    7.10
  -4  -7   3   47.70    5.90
  -4  -7   3   68.69    6.10
  -4  -7   3   64.89    8.00
   3   7  -3   59.59    6.10
   3   7  -3   55.19    4.70
   3   7  -3   56.29    4.60
   3   7  -3   58.49    7.30
   3   7  -3   52.09    5.20
  -3  -7   3   58.79    5.70
  -3  -7   3   57.69    7.20
  -3  -7   3   58.59    5.60
  -3  -7   3   64.89    8.20
   2   7  -3    4.00    2.90
   2   7  -3    4.20    3.50
   2   7  -3    2.20    2.50
   2   7  -3    1.60    2.40
  -2  -7   3    4.20    2.80
  -2  -7   3    3.90    2.80
  -2  -7   3    1.90    3.30
  -2  -7   3    7.80    4.60
   1   7  -3   87.19    6.40
   1   7  -3   89.79    6.30
   1   7  -3   86.29    8.80
   1   7  -3   95.99    7.00
   1   7  -3   86.79    7.80
  -1  -7   3   82.09    5.70
  -1  -7   3   78.09    6.00
  -1  -7   3   77.69    4.40
  -1  -7   3   90.09    6.30
  -1  -7   3   70.79    8.00
  -1  -7   3   81.29    4.20
   0   7  -3   78.99    7.20
   0   7  -3   90.49    7.00
   0   7  -3   84.59    6.70
   0   7  -3   86.99    9.00
   0   7  -3   88.09    8.90
   0  -7   3   89.39   10.10
   0  -7   3   86.79    5.20
   0  -7   3   85.99    5.90
   0  -7   3   89.29    4.70
   0  -7   3   76.19    6.20
   0  -7   3   86.39    6.30
  -1   7  -3   67.69    7.50
  -1   7  -3   54.09    6.00
  -1   7  -3   56.99    6.90
  -1   7  -3   67.69    8.20
   1  -7   3   71.09    5.40
   1  -7   3   62.79    6.20
   1  -7   3   71.99    6.40
   1  -7   3   59.59    7.40
   1  -7   3   49.10    7.70
  -2   7  -3   -6.70    3.50
  -2   7  -3   -8.70    3.90
  -2   7  -3    7.20    4.80
  -2   7  -3   -3.10    6.40
   2  -7   3    1.60    3.90
   2  -7   3    4.50    3.20
   2  -7   3   -2.20    5.70
   2  -7   3    1.10    4.20
   2  -7   3    0.90    3.40
  -3   7  -3   30.40    6.80
  -3   7  -3   21.50    5.60
  -3   7  -3   28.30    8.20
  -3   7  -3   34.20    6.40
  -3   7  -3   32.80    6.30
   3  -7   3   23.10    4.70
   3  -7   3   21.80    5.40
   3  -7   3   19.30    5.50
   3  -7   3   20.00    7.60
  -4   7  -3   25.60    6.50
  -4   7  -3   10.00   10.50
  -4   7  -3   21.30    7.80
  -4   7  -3   19.80    6.30
   4  -7   3   11.80    5.20
   4  -7   3   14.60    6.40
   4  -7   3   22.80    6.30
  -5   7  -3   30.40    7.70
  -5   7  -3   16.30    8.70
   5  -7   3   46.30    7.50
   5  -7   3   28.20    8.50
   8   6  -3    8.20    2.20
   8   6  -3    9.50    4.20
   8   6  -3    1.30    5.60
  -8  -6   3    7.20    8.10
  -8  -6   3    3.00    4.80
  -8  -6   3    6.40    6.80
   7   6  -3    9.80    2.10
   7   6  -3   22.60    5.80
   7   6  -3    2.00    3.90
   7   6  -3   10.40    3.30
  -7  -6   3   14.60    7.10
  -7  -6   3   18.60    4.40
  -7  -6   3    8.70    4.20
   6   6  -3   16.20    3.20
   6   6  -3   16.50    3.60
   6   6  -3   22.70    3.20
   6   6  -3   16.90    2.60
   6   6  -3   22.30    2.90
  -6  -6   3   27.00    4.70
  -6  -6   3   27.60    6.80
  -6  -6   3   14.50    4.00
  -6  -6   3   21.20    3.90
   5   6  -3   60.39    4.90
   5   6  -3   55.09    4.20
   5   6  -3   56.89    5.30
   5   6  -3   71.19    4.80
   5   6  -3   55.09    3.70
  -5  -6   3   57.09    6.50
  -5  -6   3   53.79    6.90
  -5  -6   3   62.09    6.00
   4   6  -3    0.20    1.90
   4   6  -3   -0.70    2.50
   4   6  -3    0.30    2.10
   4   6  -3    1.70    1.60
  -4  -6   3    1.20    4.10
  -4  -6   3   -0.50    2.80
  -4  -6   3   -1.60    4.00
  -4  -6   3   -2.60    3.90
   3   6  -3  259.87    9.00
   3   6  -3  238.28    9.80
   3   6  -3  262.87    8.60
   3   6  -3  258.07    8.60
   3   6  -3  250.17    9.40
  -3  -6   3  220.98   12.50
  -3  -6   3  262.87    9.30
  -3  -6   3  306.97   11.70
  -3  -6   3  272.37   10.40
   2   6  -3   81.29    4.80
   2   6  -3   77.99    6.00
   2   6  -3   93.29    5.50
   2   6  -3   77.69    4.60
  -2  -6   3   88.09    5.20
  -2  -6   3   87.69    7.50
  -2  -6   3   81.29    5.80
  -2  -6   3   82.69    6.10
   1   6  -3 2226.48   54.69
   1   6  -3 2275.97   56.59
   1   6  -3 2243.38   55.19
   1   6  -3 2228.58   57.49
   1   6  -3 2183.38   54.99
  -1  -6   3 2207.88   55.79
  -1  -6   3 2277.87   54.69
  -1  -6   3 2205.28   52.59
  -1  -6   3 2209.38   54.49
  -1  -6   3 2096.79   54.59
  -1  -6   3 2166.38   57.59
   0   6  -3  404.26   15.10
   0   6  -3  401.26   13.60
   0   6  -3  383.86   16.70
   0   6  -3  388.16   13.30
   0   6  -3  380.66   13.30
   0  -6   3  408.26   11.60
   0  -6   3  383.66   12.10
   0  -6   3  380.76   15.70
   0  -6   3  399.96   12.90
   0  -6   3  408.86   13.70
   0  -6   3  408.96   11.40
  -1   6  -3  126.29    7.50
  -1   6  -3  114.49    7.70
  -1   6  -3  122.09    8.70
  -1   6  -3  129.29    9.70
   1  -6   3  129.19    5.90
   1  -6   3  119.39    7.10
   1  -6   3  129.69   10.00
   1  -6   3  123.89    6.80
   1  -6   3  119.49    7.00
  -2   6  -3 1105.09   31.50
  -2   6  -3 1151.08   31.80
  -2   6  -3 1097.89   32.00
  -2   6  -3 1102.49   32.00
  -2   6  -3 1126.89   35.10
   2  -6   3 1094.89   30.70
   2  -6   3 1120.79   29.50
   2  -6   3 1149.48   30.90
   2  -6   3 1091.09   34.70
  -3   6  -3   79.79    8.60
  -3   6  -3   83.19    8.10
  -3   6  -3   97.49    8.70
  -3   6  -3   87.99   11.60
  -3   6  -3   89.39    8.20
   3  -6   3   90.89    6.70
   3  -6   3   81.99   10.60
   3  -6   3   91.09    8.10
   3  -6   3   79.69    7.80
  -4   6  -3   13.60    5.40
  -4   6  -3    1.60    4.40
  -4   6  -3   -0.90    7.10
  -4   6  -3    6.10    5.40
  -4   6  -3   11.40    5.10
   4  -6   3   -0.70    6.70
   4  -6   3   -3.00    4.60
   4  -6   3   -0.50    4.10
   4  -6   3    3.80    4.40
  -5   6  -3  101.89   11.80
  -5   6  -3  107.79   13.50
  -5   6  -3   77.29   10.30
  -5   6  -3  120.19    9.40
  -5   6  -3   98.89   11.60
   5  -6   3   91.19   10.60
   5  -6   3   92.19   10.50
   5  -6   3   91.89    9.70
   5  -6   3  104.19   12.80
  -6   6  -3  155.18   19.30
  -6   6  -3  173.48   16.30
  -6   6  -3  155.38   11.20
  -6   6  -3  124.39   13.00
   6  -6   3  151.08   14.00
   6  -6   3  175.88   13.40
   9   5  -3   98.89    6.70
   9   5  -3   72.89    8.70
   9   5  -3   90.29    9.20
   9   5  -3   86.79    9.90
  -9  -5   3   73.59    8.80
   8   5  -3   19.60    5.60
   8   5  -3   11.40    2.80
   8   5  -3   24.60    5.60
   8   5  -3   19.20    5.40
  -8  -5   3   16.90    5.80
  -8  -5   3   17.90    4.50
  -8  -5   3   17.30    7.60
   7   5  -3   12.10    2.10
   7   5  -3   14.10    3.40
   7   5  -3    5.40    4.60
   7   5  -3   14.50    3.80
   7   5  -3   16.00    3.90
   7   5  -3   13.60    2.50
  -7  -5   3   16.00    4.10
  -7  -5   3   11.30    7.10
  -7  -5   3   19.00    4.00
   6   5  -3    0.20    2.10
   6   5  -3   -0.90    2.50
   6   5  -3    0.10    1.60
   6   5  -3    1.40    1.40
   6   5  -3    1.90    2.40
   6   5  -3    0.50    3.20
  -6  -5   3    1.10    2.70
  -6  -5   3   -4.80    4.40
  -6  -5   3   -1.20    2.80
   5   5  -3  256.57    9.70
   5   5  -3  254.87   10.70
   5   5  -3  265.77    7.90
   5   5  -3  258.37    8.40
   5   5  -3  260.57    7.30
  -5  -5   3  251.77    9.30
  -5  -5   3  246.68    8.90
  -5  -5   3  252.57   10.60
   4   5  -3  100.29    4.00
   4   5  -3  107.49    4.80
   4   5  -3  106.99    4.90
   4   5  -3  100.39    4.40
   4   5  -3  105.09    5.90
  -4  -5   3   98.69    5.10
  -4  -5   3   95.89    6.50
  -4  -5   3  110.89    8.10
  -4  -5   3  106.99    6.00
   3   5  -3   57.89    3.30
   3   5  -3   55.19    3.80
   3   5  -3   54.29    4.50
   3   5  -3   56.59    3.20
   3   5  -3   68.99    4.00
  -3  -5   3   56.49    5.10
  -3  -5   3   56.59    4.80
  -3  -5   3   48.50    5.60
   2   5  -3   19.20    2.40
   2   5  -3   17.70    2.30
   2   5  -3   15.00    2.30
   2   5  -3   19.20    2.80
  -2  -5   3   17.70    3.60
  -2  -5   3   18.10    2.40
  -2  -5   3   19.30    3.30
  -2  -5   3   16.40    3.00
   1   5  -3  166.98    6.40
   1   5  -3  174.08    7.00
   1   5  -3  179.38    7.90
   1   5  -3  166.28    6.70
   1   5  -3  165.88    8.60
  -1  -5   3  171.98    6.60
  -1  -5   3  158.88    8.60
  -1  -5   3  177.38    4.80
  -1  -5   3  172.68    7.70
  -1  -5   3  167.18    4.80
  -1  -5   3  171.18    7.00
   0   5  -3  470.15   14.10
   0   5  -3  417.66   16.20
   0   5  -3  477.45   14.50
   0   5  -3  464.75   14.40
   0   5  -3  496.35   16.40
   0  -5   3  470.75   12.90
   0  -5   3  486.45   14.00
   0  -5   3  457.75   13.20
   0  -5   3  472.35   15.00
   0  -5   3  453.05   18.00
   0  -5   3  476.55   12.70
  -1   5  -3   35.30    4.50
  -1   5  -3   38.90    4.50
  -1   5  -3   41.20    5.80
   1  -5   3   38.20    4.30
   1  -5   3   38.90    5.60
   1  -5   3   39.00    4.00
   1  -5   3   39.30    3.30
   1  -5   3   37.50    4.00
  -2   5  -3    9.00    2.90
  -2   5  -3   13.70    3.60
  -2   5  -3   16.10    9.50
  -2   5  -3   12.10    3.80
   2  -5   3   11.20    3.00
   2  -5   3   11.30    2.40
   2  -5   3    4.40    3.90
   2  -5   3   10.00    2.80
  -3   5  -3  214.88   13.30
  -3   5  -3  284.07   12.20
  -3   5  -3  268.57   11.70
  -3   5  -3  271.87   11.80
  -3   5  -3  296.77   15.30
   3  -5   3  267.67   10.30
   3  -5   3  262.57   11.20
   3  -5   3  256.37   13.90
   3  -5   3  287.17   11.30
  -4   5  -3  164.18   10.50
  -4   5  -3  148.79   13.90
  -4   5  -3  154.68   10.10
  -4   5  -3  158.18    9.30
  -4   5  -3  153.88   10.40
   4  -5   3  147.49   12.20
   4  -5   3  157.68    9.50
   4  -5   3  182.88    8.90
   4  -5   3  148.09    9.40
  -5   5  -3    1.10    4.60
  -5   5  -3   -0.80    4.90
  -5   5  -3   13.40    8.00
  -5   5  -3    4.60    3.70
  -5   5  -3   -6.80    5.00
   5  -5   3   -5.60    3.40
   5  -5   3   -1.30    4.40
   5  -5   3   -3.70    4.70
   5  -5   3    5.10    6.00
  -6   5  -3   73.69    8.40
  -6   5  -3   89.69   11.40
  -6   5  -3   69.69   12.90
  -6   5  -3   77.29    7.70
  -6   5  -3   73.69    8.90
   6  -5   3   63.79    7.90
   6  -5   3   77.89    9.30
   6  -5   3   83.19   10.60
   6  -5   3   77.99   11.60
  -7   5  -3    5.20    7.80
  -7   5  -3   23.10   14.60
   7  -5   3   13.00    8.40
   7  -5   3   30.80    7.90
   9   4  -3    7.70    5.30
   9   4  -3   10.10    5.30
   9   4  -3   -0.80    3.60
   9   4  -3    3.70    5.80
  -9  -4   3    1.00    9.10
  -9  -4   3    4.30    4.60
  -9  -4   3    8.30    6.90
   8   4  -3   10.50    4.80
   8   4  -3   11.20    3.10
   8   4  -3   17.50    5.50
   8   4  -3    3.00    4.40
   8   4  -3    5.60    2.80
  -8  -4   3   11.10    5.30
  -8  -4   3    5.20    4.00
  -8  -4   3   15.50    7.50
   7   4  -3   20.80    4.60
   7   4  -3   24.20    2.90
   7   4  -3   23.00    3.00
   7   4  -3   26.90    4.30
   7   4  -3   26.10    3.80
   7   4  -3   20.70    4.50
  -7  -4   3    2.80    5.70
  -7  -4   3   16.40    5.90
  -7  -4   3   31.20    4.00
   6   4  -3    0.20    1.50
   6   4  -3    2.90    2.40
   6   4  -3    2.60    2.30
   6   4  -3    1.70    3.10
   6   4  -3    0.90    1.40
   6   4  -3    3.20    2.00
   6   4  -3    1.70    3.20
  -6  -4   3    3.20    5.00
  -6  -4   3    2.50    2.80
  -6  -4   3    0.10    2.80
  -6  -4   3    1.60    2.30
   5   4  -3  188.98    7.90
   5   4  -3  196.18    5.90
   5   4  -3  190.18    5.50
   5   4  -3  202.38    7.00
   5   4  -3  186.28    6.60
   5   4  -3  194.28    9.40
  -5  -4   3  186.38    7.00
  -5  -4   3  190.68    7.10
  -5  -4   3  187.88   11.10
  -5  -4   3  197.08    9.00
   4   4  -3   36.80    4.00
   4   4  -3   36.10    2.30
   4   4  -3   36.40    2.50
   4   4  -3   38.40    2.60
   4   4  -3   34.20    1.90
   4   4  -3   32.80    4.40
  -4  -4   3   32.40    2.90
  -4  -4   3   34.00    3.30
  -4  -4   3   30.60    4.20
  -4  -4   3   39.00    5.20
   3   4  -3   -0.60    1.60
   3   4  -3    0.30    0.90
   3   4  -3    0.40    1.20
   3   4  -3    0.40    1.10
   3   4  -3    2.60    1.00
   3   4  -3    0.40    1.70
  -3  -4   3   -0.40    1.20
  -3  -4   3   -1.50    2.30
  -3  -4   3    1.50    1.80
  -3  -4   3    0.50    1.80
   2   4  -3  694.13   17.60
   2   4  -3  675.53   17.40
   2   4  -3  722.23   18.20
   2   4  -3  700.03   17.80
   2   4  -3  708.23   20.50
   2   4  -3  665.43   18.70
  -2  -4   3  691.43   19.10
  -2  -4   3  690.93   19.80
  -2  -4   3  663.93   19.80
   1   4  -3 4004.10   96.19
   1   4  -3 3961.50   96.49
   1   4  -3 4119.89   98.99
   1   4  -3 4130.99   97.59
   1   4  -3 4104.49   96.69
  -1  -4   3 4028.60   98.19
  -1  -4   3 4099.09   97.29
  -1  -4   3 4082.79   96.29
  -1  -4   3 4160.98   98.29
   0   4  -3  141.69    5.70
   0   4  -3  159.18    7.50
   0   4  -3  147.99    7.50
   0   4  -3  142.59    6.10
   0   4  -3  136.79    5.90
   0  -4   3  145.29    5.70
   0  -4   3  137.19    7.30
   0  -4   3  144.49    4.70
   0  -4   3  136.69    6.80
   0  -4   3  142.49    5.20
   0  -4   3  133.39    5.90
  -1   4  -3 2379.06   59.29
  -1   4  -3 2413.16   60.19
  -1   4  -3 2365.26   58.89
  -1   4  -3 2501.95   61.59
  -1   4  -3 2424.06   59.29
   1  -4   3 2363.26   57.59
   1  -4   3 2386.66   58.39
   1  -4   3 2400.26   61.19
   1  -4   3 2378.06   58.69
  -2   4  -3  177.48    8.30
  -2   4  -3  183.68    8.00
  -2   4  -3  182.68    8.10
  -2   4  -3  188.58   10.40
  -2   4  -3  176.28    8.10
   2  -4   3  190.68    7.80
   2  -4   3  192.38    7.00
   2  -4   3  175.88    7.50
  -3   4  -3    5.30    2.60
  -3   4  -3    6.20    2.80
  -3   4  -3    3.90    2.80
  -3   4  -3   10.60    4.70
  -3   4  -3    6.50    2.80
   3  -4   3    4.60    2.70
   3  -4   3    4.50    2.70
   3  -4   3    7.20    4.10
   3  -4   3    5.10    2.30
  -4   4  -3 2164.98   55.69
  -4   4  -3 2249.97   60.99
  -4   4  -3 2207.18   57.29
  -4   4  -3 2245.78   57.09
  -4   4  -3 2183.18   58.19
   4  -4   3 2212.38   56.49
   4  -4   3 2228.88   59.99
   4  -4   3 2210.48   55.59
   4  -4   3 2166.88   56.39
  -5   4  -3   23.90    5.30
  -5   4  -3   15.70    5.20
  -5   4  -3   15.90    3.70
  -5   4  -3   18.50    4.60
  -5   4  -3   19.90    6.60
   5  -4   3   20.10    5.10
   5  -4   3   22.70    4.20
   5  -4   3   20.00    5.10
   5  -4   3   24.00    6.60
  -6   4  -3   17.50    5.90
  -6   4  -3   11.80    7.80
  -6   4  -3   15.00    5.40
  -6   4  -3   17.50    3.70
  -6   4  -3    9.10    5.00
   6  -4   3    1.10    4.20
   6  -4   3    5.50    5.50
   6  -4   3    7.80    5.30
   6  -4   3    7.00    4.20
  -7   4  -3   69.49    8.50
  -7   4  -3   77.49   14.00
  -7   4  -3   57.69    8.60
  -7   4  -3   71.19   12.60
   7  -4   3   72.89   10.90
   7  -4   3   91.09   10.60
   7  -4   3   55.79    8.40
   7  -4   3   77.39    8.60
  -8   4  -3  113.09   19.30
  -8   4  -3   98.99   11.70
   8  -4   3   99.99   11.50
   8  -4   3  123.59   14.80
   9   3  -3   15.50    4.00
   9   3  -3   17.70    4.60
   9   3  -3   11.60    5.40
   9   3  -3   20.00    6.40
  -9  -3   3    6.50    5.00
  -9  -3   3   23.50    7.70
   8   3  -3   25.50    5.50
   8   3  -3   39.00    4.80
   8   3  -3   34.50    5.40
   8   3  -3   36.20    5.20
   8   3  -3   34.80    4.70
   8   3  -3   37.10    4.40
  -8  -3   3   38.60    6.80
  -8  -3   3   25.20    4.90
  -8  -3   3   30.00    6.40
  -8  -3   3   37.60    7.10
   7   3  -3  189.48   11.30
   7   3  -3  220.38    7.70
   7   3  -3  209.48    8.80
   7   3  -3  223.68    9.60
   7   3  -3  204.78    9.60
  -7  -3   3  224.48   11.00
  -7  -3   3  188.88   10.50
  -7  -3   3  219.18    9.20
  -7  -3   3  217.28   13.20
   6   3  -3   70.09    5.80
   6   3  -3   76.19    3.90
   6   3  -3   86.89    7.30
   6   3  -3   77.79    5.30
   6   3  -3   80.69    4.70
   6   3  -3   76.29    4.10
  -6  -3   3   80.09    6.10
  -6  -3   3   86.09    8.70
  -6  -3   3   79.39    6.70
  -6  -3   3   75.09    5.00
   5   3  -3   37.60    3.00
   5   3  -3   36.00    2.30
   5   3  -3   39.30    2.50
   5   3  -3   30.70    3.90
   5   3  -3   40.40    3.40
   5   3  -3   22.80    3.70
   5   3  -3   49.60    4.30
  -5  -3   3   31.80    3.10
  -5  -3   3   32.40    4.30
  -5  -3   3   29.80    4.90
  -5  -3   3   36.20    4.90
  -5  -3   3   36.70    3.80
   4   3  -3  221.08    6.50
   4   3  -3  227.48    8.50
   4   3  -3  217.08    9.30
   4   3  -3  227.38    9.00
  -4  -3   3  216.58    8.90
  -4  -3   3  215.38    6.80
  -4  -3   3  225.18   10.20
  -4  -3   3  214.98    6.70
   3   3  -3  417.46   10.50
   3   3  -3  426.06   13.40
   3   3  -3  416.36   12.90
   3   3  -3  420.06   10.60
   3   3  -3  402.06   13.40
  -3  -3   3  411.16   10.80
  -3  -3   3  407.26   13.40
  -3  -3   3  405.96   11.10
  -3  -3   3  437.86   14.20
   2   3  -3   28.60    1.80
   2   3  -3   28.60    1.50
   2   3  -3   23.90    2.90
   2   3  -3   30.00    1.60
   2   3  -3   24.10    3.10
   2   3  -3   26.20    3.00
   2   3  -3   32.10    1.90
  -2  -3   3   26.20    3.50
  -2  -3   3   28.00    3.50
  -2  -3   3   27.30    1.80
  -2  -3   3   26.70    2.50
   1   3  -3   24.10    2.10
   1   3  -3   24.90    1.70
   1   3  -3   26.20    2.60
   1   3  -3   23.00    3.10
   1   3  -3   26.80    2.40
  -1  -3   3   25.90    3.20
  -1  -3   3   24.90    2.10
  -1  -3   3   20.90    2.80
  -1  -3   3   27.80    2.90
   0   3  -3  902.31   23.00
   0   3  -3  891.41   24.90
   0   3  -3  902.91   22.50
   0   3  -3  936.21   24.80
   0   3  -3  952.60   23.50
   0   3  -3  895.61   23.50
   0  -3   3  947.71   24.70
   0  -3   3  923.21   24.70
   0  -3   3  894.71   22.20
   0  -3   3  909.51   23.10
   0  -3   3  915.51   22.10
  -1   3  -3 1742.73   45.00
  -1   3  -3 1760.72   43.90
  -1   3  -3 1823.32   46.00
  -1   3  -3 1757.72   44.30
  -1   3  -3 1828.92   44.20
   1  -3   3 1770.22   43.80
   1  -3   3 1760.12   43.40
   1  -3   3 1817.92   45.80
   1  -3   3 1760.62   42.90
  -2   3  -3   91.79    5.20
  -2   3  -3   94.29    5.10
  -2   3  -3   95.59    5.60
  -2   3  -3   91.79    6.80
  -2   3  -3   87.79    5.10
   2  -3   3   87.19    4.70
   2  -3   3   89.19    4.40
   2  -3   3   93.09    6.30
   2  -3   3   97.99    5.00
  -3   3  -3    6.80    2.40
  -3   3  -3    7.20    3.40
  -3   3  -3    1.50    2.10
  -3   3  -3    2.00    2.00
  -3   3  -3    2.40    2.50
   3  -3   3    2.30    2.20
   3  -3   3    4.20    2.20
   3  -3   3    4.00    1.90
   3  -3   3    8.20    3.10
  -4   3  -3  179.48    9.30
  -4   3  -3  181.78   11.50
  -4   3  -3  186.78    9.20
  -4   3  -3  194.88    9.20
  -4   3  -3  178.38    7.90
   4  -3   3  200.98    8.40
   4  -3   3  196.78    9.20
   4  -3   3  192.48   10.90
   4  -3   3  181.28    8.50
  -5   3  -3   64.89    5.20
  -5   3  -3   82.49   10.50
  -5   3  -3   73.89    7.20
  -5   3  -3   73.89    7.00
  -5   3  -3   70.49    7.20
   5  -3   3   67.39    6.80
   5  -3   3   59.39    7.80
   5  -3   3   72.39    7.00
  -6   3  -3  152.38   11.00
  -6   3  -3  159.18   10.50
  -6   3  -3  169.48   10.50
  -6   3  -3  191.68   15.00
   6  -3   3  148.99    9.80
   6  -3   3  171.28   10.40
   6  -3   3  163.58   12.70
   6  -3   3  169.88    9.60
  -7   3  -3   16.50    5.40
  -7   3  -3   14.90    9.80
  -7   3  -3   25.10    6.40
  -7   3  -3   32.70    7.20
   7  -3   3   23.80    5.50
   7  -3   3   27.60    5.90
   7  -3   3   25.40    5.60
   7  -3   3   27.60    7.90
  -8   3  -3  160.28   13.80
  -8   3  -3  150.18   14.90
  -8   3  -3  183.68   21.50
   8  -3   3  128.69   14.10
   8  -3   3  145.09   12.30
   8  -3   3  152.28   13.00
   9   2  -3    5.20    5.30
   9   2  -3    8.90    6.00
   9   2  -3   11.90    4.00
   9   2  -3    9.30    4.00
  -9  -2   3   16.20    8.00
  -9  -2   3   14.40    5.40
  -9  -2   3    2.00    8.10
   8   2  -3  397.86   12.90
   8   2  -3  374.16   14.40
   8   2  -3  355.06   16.30
   8   2  -3  388.46   13.80
   8   2  -3  380.26   12.70
  -8  -2   3  414.86   17.40
  -8  -2   3  410.26   17.20
  -8  -2   3  394.96   14.90
   7   2  -3   32.80    4.00
   7   2  -3   37.50    4.10
   7   2  -3   43.60    5.00
   7   2  -3   34.50    4.30
   7   2  -3   23.30    4.70
   7   2  -3   32.20    3.90
  -7  -2   3   34.50    5.90
  -7  -2   3   38.50    4.70
  -7  -2   3   35.70    5.80
   6   2  -3   46.40    4.70
   6   2  -3   46.80    6.00
   6   2  -3   36.70    3.30
   6   2  -3   35.20    4.30
   6   2  -3   33.50    3.90
   6   2  -3   37.90    4.00
  -6  -2   3   36.00    4.30
  -6  -2   3   39.40    5.30
  -6  -2   3   34.70    6.00
   5   2  -3   35.90    3.00
   5   2  -3   30.20    3.90
   5   2  -3   38.50    4.10
   5   2  -3   33.20    4.50
   5   2  -3   36.60    3.70
   5   2  -3   38.00    2.70
   5   2  -3   40.40    3.10
  -5  -2   3   45.80    5.10
  -5  -2   3   39.90    4.40
  -5  -2   3   37.20    3.30
  -5  -2   3   37.30    5.40
   4   2  -3    6.50    2.00
   4   2  -3    0.40    1.10
   4   2  -3    1.70    0.70
   4   2  -3   -0.80    1.00
   4   2  -3    1.80    0.90
   4   2  -3    1.90    1.60
   4   2  -3   -1.60    2.20
  -4  -2   3    4.40    2.10
  -4  -2   3    0.30    1.50
  -4  -2   3    7.70    2.40
  -4  -2   3    1.10    1.20
  -4  -2   3   -0.70    2.60
   3   2  -3  508.75   15.70
   3   2  -3  494.05   14.70
   3   2  -3  506.15   14.80
  -3  -2   3  480.15   12.50
  -3  -2   3  509.25   12.40
  -3  -2   3  505.25   15.20
  -3  -2   3  500.25   15.90
   2   2  -3  222.78    8.20
   2   2  -3  221.58    8.20
   2   2  -3  220.58    8.00
  -2  -2   3  221.98    8.40
  -2  -2   3  227.78    8.30
   1   2  -3  968.20   22.70
   1   2  -3  940.61   24.50
   1   2  -3  956.10   25.30
   1   2  -3  965.40   22.90
   1   2  -3 1001.70   23.10
   1   2  -3  931.01   22.50
  -1  -2   3  918.41   22.70
  -1  -2   3  926.21   25.10
   0   2  -3 3578.84   85.99
   0   2  -3 3636.14   85.89
   0   2  -3 3624.64   85.59
   0   2  -3 3604.44   85.99
   0   2  -3 3660.03   87.69
   0   2  -3 3786.02   86.99
   0  -2   3 3713.03   86.79
   0  -2   3 3494.35   85.89
   0  -2   3 3706.23   87.49
  -1   2  -3 3374.26   80.79
  -1   2  -3 3276.87   79.39
  -1   2  -3 3438.86   82.09
  -1   2  -3 3460.65   80.99
  -1   2  -3 3466.15   82.49
  -1   2  -3 3408.16   81.29
   1  -2   3 3358.66   82.09
   1  -2   3 3350.76   80.29
   1  -2   3 3416.86   79.99
   1  -2   3 3455.15   80.99
  -2   2  -3 1490.95   38.80
  -2   2  -3 1450.65   37.30
  -2   2  -3 1470.35   37.00
  -2   2  -3 1421.86   37.60
  -2   2  -3 1501.45   37.00
   2  -2   3 1517.75   37.10
   2  -2   3 1409.16   36.40
   2  -2   3 1449.85   38.40
   2  -2   3 1503.25   37.10
   2  -2   3 1455.45   36.20
  -3   2  -3 1205.38   31.70
  -3   2  -3 1235.28   32.00
  -3   2  -3 1208.48   31.40
  -3   2  -3 1180.08   32.20
  -3   2  -3 1228.58   33.90
   3  -2   3 1239.68   31.10
   3  -2   3 1179.28   31.40
   3  -2   3 1181.68   33.30
   3  -2   3 1227.28   31.80
   3  -2   3 1221.38   31.20
  -4   2  -3  882.91   27.00
  -4   2  -3  851.41   24.60
  -4   2  -3  860.71   25.00
  -4   2  -3  879.51   24.60
  -4   2  -3  837.82   23.20
   4  -2   3  862.91   23.80
   4  -2   3  872.91   26.40
   4  -2   3  881.41   24.60
   4  -2   3  851.21   24.10
  -5   2  -3  370.76   16.00
  -5   2  -3  370.56   13.70
  -5   2  -3  351.86   11.60
  -5   2  -3  373.46   14.30
  -5   2  -3  366.26   13.90
   5  -2   3  381.16   15.70
   5  -2   3  369.76   13.10
   5  -2   3  357.66   13.20
   5  -2   3  375.06   13.50
  -6   2  -3 1005.40   30.20
  -6   2  -3  980.60   30.70
  -6   2  -3 1038.80   33.80
  -6   2  -3 1040.70   29.90
   6  -2   3 1042.50   29.80
   6  -2   3 1026.10   29.30
   6  -2   3 1018.40   32.30
  -7   2  -3   51.89    7.60
  -7   2  -3   43.70   10.30
  -7   2  -3   42.50    7.00
  -7   2  -3   45.60    6.00
   7  -2   3   44.40    6.00
   7  -2   3   45.30    8.40
   7  -2   3   50.69    6.60
   7  -2   3   47.70    5.80
  -8   2  -3    7.40    6.40
  -8   2  -3    9.40    5.80
  -8   2  -3   18.00   11.00
  -8   2  -3   10.50    6.20
   8  -2   3   10.70    5.30
   8  -2   3    4.40    5.90
   8  -2   3    6.20    5.20
   8  -2   3   11.10    6.70
  -9   2  -3   30.50   14.90
  -9   2  -3   60.29   10.30
   9  -2   3   41.50    9.20
   9  -2   3   26.10   11.00
   9  -2   3   42.10    8.80
   9   1  -3  127.89   11.30
   9   1  -3  131.99   11.60
   9   1  -3  126.19    8.60
  -9  -1   3  131.79   15.70
  -9  -1   3  106.39   11.70
  -9  -1   3  128.69   14.20
   8   1  -3  143.99   10.90
   8   1  -3  130.09    9.50
   8   1  -3  137.99    9.30
   8   1  -3  155.28    9.70
   8   1  -3  147.09    5.50
   8   1  -3  156.98    8.00
  -8  -1   3  145.69   12.90
  -8  -1   3  148.49   10.00
  -8  -1   3  149.19   12.00
   7   1  -3    2.80    3.90
   7   1  -3    6.40    3.30
   7   1  -3    5.20    3.50
   7   1  -3    1.30    2.40
   7   1  -3    2.20    2.10
   7   1  -3    2.50    3.10
  -7  -1   3   -1.70    3.30
  -7  -1   3    0.00    4.60
  -7  -1   3    1.10    4.20
   6   1  -3  302.27   10.70
   6   1  -3  302.37    9.60
   6   1  -3  290.97   12.90
   6   1  -3  293.17   10.60
   6   1  -3  299.17   10.50
   6   1  -3  295.17    9.80
  -6  -1   3  310.07   12.50
  -6  -1   3  306.57   12.60
  -6  -1   3  297.87   10.90
   5   1  -3  483.05   13.90
   5   1  -3  486.85   14.20
   5   1  -3  488.95   16.90
   5   1  -3  484.55   14.20
   5   1  -3  497.85   13.30
   5   1  -3  474.75   14.10
  -5  -1   3  495.35   14.30
  -5  -1   3  489.65   16.10
  -5  -1   3  492.75   15.80
  -5  -1   3  483.95   16.30
   4   1  -3   28.60    2.10
   4   1  -3   31.20    3.10
   4   1  -3   31.80    2.60
   4   1  -3   25.20    2.90
   4   1  -3   24.50    3.60
   4   1  -3   31.40    2.40
   4   1  -3   30.20    3.50
  -4  -1   3   33.40    4.00
  -4  -1   3   35.80    2.80
  -4  -1   3   28.60    3.50
   3   1  -3  301.27    7.80
   3   1  -3  315.77    8.00
   3   1  -3  300.97   10.10
   3   1  -3  308.37    7.60
   3   1  -3  297.97    7.80
   3   1  -3  295.97   10.90
   3   1  -3  298.97    9.60
  -3  -1   3  307.37   10.40
  -3  -1   3  297.57    8.20
  -3  -1   3  291.07    8.50
  -3  -1   3  297.77   10.30
   2   1  -3  209.48    8.10
   2   1  -3  221.88    7.60
   2   1  -3  230.88    7.90
  -2  -1   3  208.48    7.80
  -2  -1   3  211.08    7.80
   1   1  -3  128.69    5.40
   1   1  -3  130.59    5.40
   1   1  -3  132.59    5.40
  -1  -1   3  127.99    5.30
  -1  -1   3  127.49    5.40
   0   1  -3    3.90    0.70
   0   1  -3    1.90    0.90
   0   1  -3    2.80    1.30
   0   1  -3    2.80    0.80
   0   1  -3    2.30    0.70
   0   1  -3    2.10    1.00
   0  -1   3    3.00    1.60
   0  -1   3    1.70    1.20
   0  -1   3    2.50    0.90
  -1   1  -3  155.08    5.10
  -1   1  -3  145.39    5.30
  -1   1  -3  138.79    5.80
  -1   1  -3  155.88    6.00
  -1   1  -3  144.99    5.00
   1  -1   3  147.89    5.70
   1  -1   3  152.08    5.30
   1  -1   3  151.98    4.70
   1  -1   3  152.68    4.60
   1  -1   3  154.78    5.90
  -2   1  -3   60.79    3.70
  -2   1  -3   62.19    3.80
  -2   1  -3   69.79    3.70
  -2   1  -3   61.49    3.50
  -2   1  -3   65.29    4.60
   2  -1   3   64.89    3.30
   2  -1   3   66.89    3.30
   2  -1   3   66.49    3.80
   2  -1   3   60.79    4.10
   2  -1   3   65.99    3.80
  -3   1  -3  213.28    8.00
  -3   1  -3  220.68    9.30
  -3   1  -3  207.88    8.10
  -3   1  -3  218.38    7.80
  -3   1  -3  221.78    6.30
  -3   1  -3  217.88    8.50
   3  -1   3  214.58    7.70
   3  -1   3  227.78    8.30
   3  -1   3  234.28    7.90
   3  -1   3  214.38    7.70
   3  -1   3  224.08    9.10
  -4   1  -3    1.50    1.30
  -4   1  -3    3.30    2.20
  -4   1  -3   -1.40    1.80
  -4   1  -3    1.40    2.00
  -4   1  -3    1.80    3.10
  -4   1  -3    2.00    1.20
   4  -1   3    2.80    2.60
   4  -1   3    1.20    1.40
   4  -1   3    2.10    1.90
   4  -1   3    1.10    1.70
  -5   1  -3   22.70    2.80
  -5   1  -3   11.30    3.50
  -5   1  -3   23.80    4.80
  -5   1  -3   25.80    4.10
  -5   1  -3   11.30    4.20
   5  -1   3   19.60    3.10
   5  -1   3   12.70    3.50
   5  -1   3   15.20    3.30
   5  -1   3   21.30    2.70
   5  -1   3   19.80    3.50
  -6   1  -3  159.08    7.40
  -6   1  -3  173.28    9.50
  -6   1  -3  175.28   12.20
  -6   1  -3  170.88    9.80
  -6   1  -3  169.88    9.30
   6  -1   3  185.18   11.20
   6  -1   3  158.38    8.60
   6  -1   3  172.08    6.90
   6  -1   3  164.18    8.80
   6  -1   3  140.39    9.10
  -7   1  -3   21.20    5.10
  -7   1  -3   37.70    6.10
  -7   1  -3   29.00    8.10
  -7   1  -3   23.40    4.30
  -7   1  -3   35.20    6.20
   7  -1   3   27.50    5.20
   7  -1   3   21.70    6.30
   7  -1   3   38.30    5.50
   7  -1   3   30.80    5.60
   7  -1   3   22.30    3.00
  -8   1  -3   36.90   10.60
  -8   1  -3   43.10    6.90
  -8   1  -3   32.50    6.30
  -8   1  -3   25.20    5.80
   8  -1   3   17.70    7.10
   8  -1   3   39.80    6.00
   8  -1   3   38.90    6.70
   8  -1   3   34.50    6.20
  -9   1  -3   27.40   12.90
  -9   1  -3   28.40    7.80
  -9   1  -3   12.20   13.00
  -9   1  -3   31.80    7.50
   9  -1   3   31.50    7.70
   9  -1   3   31.60    8.40
   9  -1   3   27.80    7.30
   9   0  -3    4.20    6.10
   9   0  -3   12.50    6.20
   9   0  -3    6.00    4.70
  -9   0   3    3.10    9.30
  -9   0   3    8.00    8.20
   8   0  -3    3.90    3.30
   8   0  -3    8.30    5.00
   8   0  -3   -0.90    4.80
   8   0  -3    4.70    4.70
   8   0  -3    2.30    4.20
  -8   0   3   -1.50    4.60
  -8   0   3    7.00    6.10
  -8   0   3  -10.50    6.60
   7   0  -3  169.88   11.00
   7   0  -3  151.08    9.00
   7   0  -3  161.68    7.70
   7   0  -3  150.88    9.10
   7   0  -3  166.68    9.00
  -7   0   3  163.48   10.80
  -7   0   3  160.68   11.40
  -7   0   3  181.98    9.50
   6   0  -3  495.95   16.30
   6   0  -3  504.35   15.70
   6   0  -3  497.95   18.10
   6   0  -3  496.15   15.70
   6   0  -3  513.55   14.80
   6   0  -3  484.25   13.20
  -6   0   3  485.35   15.90
  -6   0   3  507.05   17.90
  -6   0   3  504.25   17.50
   5   0  -3    5.10    2.30
   5   0  -3    6.30    2.10
   5   0  -3    4.10    1.80
   5   0  -3    5.20    2.00
   5   0  -3    6.10    1.60
   5   0  -3    6.10    3.00
  -5   0   3    7.80    2.30
  -5   0   3    5.50    2.80
  -5   0   3    6.10    3.00
   4   0  -3   20.30    2.40
   4   0  -3   19.90    2.50
   4   0  -3   23.00    2.50
   4   0  -3   27.00    4.10
   4   0  -3   21.70    2.70
   4   0  -3   26.00    2.30
  -4   0   3   31.80    3.50
  -4   0   3   17.30    2.30
  -4   0   3   17.20    3.00
  -4   0   3   18.00    3.10
   3   0  -3  212.98    6.50
   3   0  -3  216.58    8.80
   3   0  -3  208.18    6.30
   3   0  -3  208.28    6.90
   3   0  -3  209.38    8.00
   3   0  -3  214.38    6.20
  -3   0   3  215.18    8.30
  -3   0   3  206.68    7.90
  -3   0   3  214.28    6.60
  -3   0   3  234.08    8.60
   2   0  -3  873.71   23.70
   2   0  -3  841.92   23.00
   2   0  -3  869.71   20.80
   2   0  -3  850.81   20.70
   2   0  -3  850.81   23.30
   2   0  -3  883.81   20.90
  -2   0   3  874.61   22.20
  -2   0   3  873.91   23.30
  -2   0   3  879.71   23.00
   1   0  -3  907.81   21.10
   1   0  -3  826.32   22.80
   1   0  -3  893.61   20.90
   1   0  -3  848.92   22.70
  -1   0   3  899.31   23.10
  -1   0   3  841.72   20.70
  -1   0   3  922.41   23.00
  -1   0   3  835.92   20.90
  -1   0   3  891.91   22.50
   0   0  -3   56.99    2.50
   0   0  -3   62.09    2.00
   0   0  -3   54.69    2.10
   0   0  -3   50.39    2.30
   0   0  -3   53.49    3.20
   0   0   3   58.29    2.40
   0   0   3   58.29    3.40
   0   0   3   51.69    3.20
  -1   0  -3 1092.79   26.90
  -1   0  -3 1060.49   27.10
  -1   0  -3 1020.20   27.60
  -1   0  -3 1116.39   26.70
  -1   0  -3 1126.59   27.50
   1   0   3 1110.19   27.80
   1   0   3 1114.49   26.50
   1   0   3 1108.29   27.10
   1   0   3 1087.19   26.30
  -2   0  -3  542.85   15.50
  -2   0  -3  540.75   14.70
  -2   0  -3  538.35   14.80
  -2   0  -3  514.15   14.90
  -2   0  -3  540.25   14.50
   2   0   3  522.15   15.20
   2   0   3  558.34   14.40
   2   0   3  542.95   14.90
   2   0   3  524.45   14.30
   2   0   3  535.05   14.90
  -3   0  -3 5528.55  132.39
  -3   0  -3 5548.64  133.39
  -3   0  -3 5666.63  134.19
  -3   0  -3 5811.12  132.89
  -3   0  -3 5551.64  133.09
   3   0   3 5629.24  132.69
   3   0   3 5711.23  133.29
   3   0   3 5650.73  132.59
   3   0   3 5489.05  132.39
   3   0   3 5547.04  133.99
  -4   0  -3 3120.89   77.79
  -4   0  -3 3290.77   76.09
  -4   0  -3 3301.97   79.49
  -4   0  -3 3115.59   78.19
  -4   0  -3 3192.18   77.49
   4   0   3 3153.28   77.49
   4   0   3 3164.88   78.99
   4   0   3 3204.38   77.99
   4   0   3 3139.59   76.69
   4   0   3 3231.38   77.39
  -5   0  -3  371.36   13.40
  -5   0  -3  363.86   11.50
  -5   0  -3  366.56   12.90
  -5   0  -3  372.46   12.70
  -5   0  -3  355.66   14.40
   5   0   3  372.46   12.50
   5   0   3  366.36   14.10
   5   0   3  366.66   12.70
   5   0   3  358.76   11.40
   5   0   3  376.16   13.20
  -6   0  -3  192.98   10.10
  -6   0  -3  207.48    9.50
  -6   0  -3  200.68    9.60
  -6   0  -3  180.68   11.40
  -6   0  -3  205.88    8.40
   6   0   3  192.98    9.10
   6   0   3  208.48    7.70
   6   0   3  188.58   10.70
   6   0   3  202.38    9.50
   6   0   3  192.78    9.40
  -7   0  -3 1121.99   34.90
  -7   0  -3 1110.69   30.70
  -7   0  -3 1124.59   31.60
  -7   0  -3 1105.09   33.00
  -7   0  -3 1114.39   32.10
   7   0   3 1110.89   31.70
   7   0   3 1079.59   31.50
   7   0   3 1117.59   28.80
   7   0   3 1057.79   33.40
  -8   0  -3  782.52   26.80
  -8   0  -3  813.52   30.00
  -8   0  -3  774.92   24.40
  -8   0  -3  784.92   25.70
  -8   0  -3  810.62   25.40
   8   0   3  812.02   25.40
   8   0   3  752.62   21.00
   8   0   3  814.32   25.70
   8   0   3  775.42   25.10
   8   0   3  756.52   27.10
  -9   0  -3   53.29    7.50
  -9   0  -3   69.99    8.40
  -9   0  -3   55.89    7.40
  -9   0  -3   52.89    8.90
  -9   0  -3   44.60   11.70
   9   0   3   49.70    7.80
   9   0   3   49.20    8.10
   9   0   3   54.39    9.80
   9   0   3   53.49    7.70
 -10   0  -3   11.70   14.30
 -10   0  -3   23.00    8.10
  10   0   3   11.50    8.10
  10   0   3    2.90    7.70
  10   0   3   18.80    8.00
   9  -1  -3   67.69    9.30
   9  -1  -3   47.60    8.00
   9  -1  -3   51.29    7.10
  -9   1   3   57.29   10.50
   8  -1  -3   19.20    5.70
   8  -1  -3   -0.60    3.80
   8  -1  -3   13.70    4.80
   8  -1  -3   -2.00    5.80
   8  -1  -3    6.10    5.50
  -8   1   3   -7.60    5.80
  -8   1   3    0.30    2.30
  -8   1   3   -5.00    7.40
  -8   1   3    0.60    5.40
  -8   1   3   -3.30    2.60
   7  -1  -3  235.58   12.60
   7  -1  -3  244.48   13.50
   7  -1  -3  241.38   11.60
   7  -1  -3  258.77   10.50
   7  -1  -3  265.57   11.50
  -7   1   3  237.08   14.40
  -7   1   3  257.77    8.70
  -7   1   3  249.58    8.00
  -7   1   3  252.57   12.10
  -7   1   3  265.07   13.70
   6  -1  -3  133.29    7.50
   6  -1  -3  135.59    9.30
   6  -1  -3  131.79    8.40
   6  -1  -3  124.99    7.70
   6  -1  -3  118.49    8.60
  -6   1   3  131.49    5.10
  -6   1   3  128.19    5.50
  -6   1   3  129.39    9.90
  -6   1   3  128.19    7.70
  -6   1   3  138.09    9.30
   5  -1  -3    9.30    2.50
   5  -1  -3   10.70    2.70
   5  -1  -3    8.80    3.10
   5  -1  -3    5.80    2.90
   5  -1  -3    9.90    2.30
  -5   1   3    8.40    2.70
  -5   1   3    9.70    3.80
  -5   1   3    9.90    1.90
  -5   1   3   10.80    1.60
  -5   1   3   10.20    3.20
   4  -1  -3  719.23   20.00
   4  -1  -3  747.43   20.10
   4  -1  -3  722.43   21.10
   4  -1  -3  762.42   22.50
   4  -1  -3  767.12   19.60
  -4   1   3  730.13   20.20
  -4   1   3  756.12   21.90
  -4   1   3  716.63   18.80
  -4   1   3  752.12   18.50
  -4   1   3  733.53   21.80
   3  -1  -3 1532.65   38.30
   3  -1  -3 1472.05   39.50
   3  -1  -3 1471.65   37.00
   3  -1  -3 1550.24   37.10
   3  -1  -3 1500.75   36.60
   3  -1  -3 1470.15   38.30
   3  -1  -3 1512.55   36.70
  -3   1   3 1526.65   39.00
  -3   1   3 1546.25   38.70
  -3   1   3 1528.95   38.20
  -3   1   3 1489.55   37.20
  -3   1   3 1495.55   36.10
  -3   1   3 1507.55   35.80
   2  -1  -3   68.79    3.10
   2  -1  -3   61.09    3.70
   2  -1  -3   66.29    2.90
   2  -1  -3   61.89    2.80
   2  -1  -3   65.19    3.90
   2  -1  -3   66.89    2.80
  -2   1   3   64.59    2.20
  -2   1   3   65.59    2.20
  -2   1   3   65.99    2.90
  -2   1   3   65.99    3.20
  -2   1   3   64.39    3.90
  -2   1   3   65.59    4.20
  -2   1   3   68.19    3.70
   1  -1  -3 1815.22   43.70
   1  -1  -3 1806.22   42.10
   1  -1  -3 1755.92   41.90
   1  -1  -3 1732.03   41.80
   1  -1  -3 1766.22   42.80
   1  -1  -3 1815.32   43.00
  -1   1   3 1847.72   43.40
  -1   1   3 1855.31   43.00
  -1   1   3 1779.22   42.50
  -1   1   3 1792.32   43.80
  -1   1   3 1720.93   41.30
  -1   1   3 1522.55   41.70
   0  -1  -3 2460.85   59.59
   0  -1  -3 2465.45   59.09
   0  -1  -3 2406.96   59.99
   0  -1  -3 2487.05   58.69
   0  -1  -3 2512.95   58.89
   0   1   3 2556.24   58.39
   0   1   3 2519.95   59.69
   0   1   3 2391.16   59.89
   0   1   3 2533.75   59.09
   0   1   3 2485.15   58.79
   0   1   3 2498.85   59.69
  -1  -1  -3   88.39    3.60
  -1  -1  -3   91.49    3.30
  -1  -1  -3   88.69    3.80
  -1  -1  -3   84.59    3.50
   1   1   3   86.49    3.40
   1   1   3   85.09    3.60
   1   1   3   90.49    3.80
   1   1   3   87.09    3.00
   1   1   3   89.89    3.90
  -2  -1  -3 3123.19   71.49
  -2  -1  -3 2926.21   72.79
  -2  -1  -3 3021.80   72.19
  -2  -1  -3 3008.40   72.39
   2   1   3 2942.01   72.19
   2   1   3 2942.51   71.59
   2   1   3 3019.80   71.89
   2   1   3 3062.09   72.19
  -3  -1  -3 3123.09   75.89
  -3  -1  -3 3104.19   76.99
  -3  -1  -3 3226.58   76.29
  -3  -1  -3 3152.88   76.69
   3   1   3 3241.78   76.69
   3   1   3 3161.98   76.89
   3   1   3 3047.90   75.59
   3   1   3 3183.78   75.89
   3   1   3 3263.47   76.19
  -4  -1  -3  625.44   18.50
  -4  -1  -3  610.04   18.90
  -4  -1  -3  650.93   17.80
  -4  -1  -3  613.94   18.00
  -4  -1  -3  635.14   16.70
   4   1   3  610.74   17.50
   4   1   3  648.14   18.40
   4   1   3  629.54   17.20
   4   1   3  611.74   18.70
  -5  -1  -3   17.60    2.50
  -5  -1  -3   14.00    2.90
  -5  -1  -3   19.80    3.80
  -5  -1  -3   14.90    2.70
  -5  -1  -3   14.80    3.10
   5   1   3   22.80    2.90
   5   1   3   11.00    2.50
   5   1   3   16.70    3.40
   5   1   3   19.70    2.90
   5   1   3   16.70    3.00
  -6  -1  -3    8.20    2.80
  -6  -1  -3   12.00    3.30
  -6  -1  -3   17.90    4.00
  -6  -1  -3   13.00    2.80
  -6  -1  -3   10.90    4.10
   6   1   3   13.50    3.70
   6   1   3   13.40    2.60
   6   1   3   13.80    3.90
   6   1   3   12.90    3.10
  -7  -1  -3  287.87   12.30
  -7  -1  -3  284.37   11.60
  -7  -1  -3  281.17   12.90
  -7  -1  -3  294.67   14.30
  -7  -1  -3  306.07   12.20
   7   1   3  287.77   10.00
   7   1   3  269.37   15.40
   7   1   3  279.27   11.80
   7   1   3  281.07   12.60
  -8  -1  -3  438.96   17.00
  -8  -1  -3  441.26   21.00
  -8  -1  -3  430.86   16.60
  -8  -1  -3  433.96   16.60
  -8  -1  -3  437.36   18.10
   8   1   3  432.46   16.60
   8   1   3  461.65   17.20
   8   1   3  473.45   17.60
   8   1   3  415.66   17.80
   8   1   3  450.25   13.70
  -9  -1  -3   49.90   11.10
  -9  -1  -3   49.00    7.90
  -9  -1  -3   46.00    6.60
  -9  -1  -3   49.30    7.30
  -9  -1  -3   56.29    7.10
   9   1   3   40.20    7.40
   9   1   3   44.70    7.00
   9   1   3   39.10    6.00
   9   1   3   58.49    9.10
   9   1   3   42.80    5.20
 -10  -1  -3  190.68   13.40
 -10  -1  -3  205.28   14.70
 -10  -1  -3  201.58   15.30
 -10  -1  -3  193.68   21.40
  10   1   3  204.18   15.20
  10   1   3  199.18   17.00
  10   1   3  196.08   15.20
  10   1   3  195.38    7.70
   8  -2  -3   96.29   10.50
   8  -2  -3  100.69   13.20
   8  -2  -3   75.29    9.40
   8  -2  -3   77.99    9.70
   8  -2  -3   91.59    8.50
  -8   2   3   71.59    7.50
  -8   2   3   67.69   10.80
  -8   2   3   76.09    6.40
  -8   2   3   98.49   12.20
   7  -2  -3   -1.30    4.20
   7  -2  -3   10.60    5.50
   7  -2  -3    3.70    3.40
   7  -2  -3    1.70    5.00
   7  -2  -3    5.10    4.00
  -7   2   3   -4.60    3.90
  -7   2   3    2.20    3.30
  -7   2   3    3.10    6.30
  -7   2   3    2.00    5.60
  -7   2   3   -3.30    2.70
   6  -2  -3   66.59    8.00
   6  -2  -3   72.19    7.90
   6  -2  -3   72.19    7.10
   6  -2  -3   75.39    5.90
  -6   2   3   71.49    4.70
  -6   2   3   69.59    9.20
  -6   2   3   83.59    7.10
  -6   2   3   77.29    5.60
  -6   2   3   71.89    8.30
   5  -2  -3   -0.70    3.20
   5  -2  -3    3.20    3.30
   5  -2  -3    2.60    2.50
   5  -2  -3    2.20    2.30
   5  -2  -3    0.50    1.90
  -5   2   3   -3.80    3.80
  -5   2   3    0.80    2.60
  -5   2   3   -0.80    3.30
  -5   2   3   -1.80    1.60
  -5   2   3    1.20    2.10
   4  -2  -3   10.50    2.00
   4  -2  -3    8.80    2.20
   4  -2  -3   10.00    2.40
   4  -2  -3   10.60    3.10
  -4   2   3   10.90    1.90
  -4   2   3    6.40    3.30
  -4   2   3   10.50    2.50
  -4   2   3    6.80    1.90
  -4   2   3    9.60    3.10
   3  -2  -3   58.59    4.90
   3  -2  -3   54.39    4.80
   3  -2  -3   60.39    3.70
   3  -2  -3   58.69    3.40
   3  -2  -3   62.49    3.80
  -3   2   3   59.89    3.10
  -3   2   3   57.99    3.40
  -3   2   3   65.79    5.50
  -3   2   3   57.69    4.80
  -3   2   3   58.69    3.80
  -3   2   3   63.59    2.90
   2  -2  -3  890.31   24.50
   2  -2  -3  915.71   23.60
   2  -2  -3  906.31   25.20
   2  -2  -3  944.31   23.60
   2  -2  -3  949.90   23.60
  -2   2   3  928.71   25.10
  -2   2   3  945.51   25.30
  -2   2   3  936.41   23.30
  -2   2   3  937.01   23.10
  -2   2   3  923.41   23.70
  -2   2   3  944.01   24.10
   1  -2  -3 1941.61   48.50
   1  -2  -3 1992.80   48.20
   1  -2  -3 1975.20   47.30
   1  -2  -3 1924.81   47.40
   1  -2  -3 2029.10   49.00
  -1   2   3 1991.50   47.60
  -1   2   3 1929.91   47.40
  -1   2   3 2022.40   47.90
  -1   2   3 1955.90   48.70
  -1   2   3 1936.21   47.20
  -1   2   3 1951.70   47.20
  -1   2   3 2051.59   48.70
   0  -2  -3 3954.60   93.49
   0  -2  -3 3958.90   93.79
   0  -2  -3 3796.82   94.59
   0  -2  -3 4029.30   94.79
   0  -2  -3 4218.58   94.19
   0   2   3 3974.90   94.49
   0   2   3 3958.50   94.79
  -1  -2  -3  309.27    8.30
  -1  -2  -3  298.57    8.80
  -1  -2  -3  278.07    8.40
  -1  -2  -3  282.97    8.90
  -1  -2  -3  298.47    8.80
   1   2   3  293.37    8.10
   1   2   3  301.27    9.00
   1   2   3  283.87    8.60
   1   2   3  289.07    8.60
   1   2   3  301.07    8.40
  -2  -2  -3 1458.55   36.10
  -2  -2  -3 1464.95   35.80
  -2  -2  -3 1527.55   36.70
  -2  -2  -3 1392.76   36.30
   2   2   3 1428.66   36.30
   2   2   3 1407.66   35.50
   2   2   3 1516.15   36.70
   2   2   3 1493.45   36.20
  -3  -2  -3  111.79    5.50
  -3  -2  -3  107.69    4.90
  -3  -2  -3  121.99    5.50
  -3  -2  -3  119.69    4.90
   3   2   3  115.39    5.40
   3   2   3  107.09    4.60
   3   2   3  115.19    5.30
  -4  -2  -3  137.69    6.60
  -4  -2  -3  151.98    6.40
  -4  -2  -3  144.99    7.00
  -4  -2  -3  149.59    6.10
   4   2   3  147.39    6.80
   4   2   3  150.88    6.60
   4   2   3  144.69    6.80
   4   2   3  135.29    5.80
  -5  -2  -3 2908.41   69.99
  -5  -2  -3 2962.90   71.89
  -5  -2  -3 2838.02   71.09
  -5  -2  -3 2901.31   69.39
  -5  -2  -3 2788.22   70.09
   5   2   3 2862.71   70.49
   5   2   3 2796.82   69.69
   5   2   3 2791.42   70.99
  -6  -2  -3 3832.32   92.69
  -6  -2  -3 3612.84   90.29
  -6  -2  -3 3664.23   91.39
  -6  -2  -3 3728.83   89.99
  -6  -2  -3 3661.53   89.79
   6   2   3 3600.24   89.89
   6   2   3 3719.23   91.79
   6   2   3 3725.73   90.79
   6   2   3 3721.43   91.09
  -7  -2  -3   86.89    6.70
  -7  -2  -3   84.39    6.70
  -7  -2  -3   84.09    6.50
  -7  -2  -3   86.59    7.50
  -7  -2  -3   87.59    8.30
   7   2   3   92.29    7.80
   7   2   3   74.09    7.40
   7   2   3   84.89    5.50
   7   2   3   83.49    6.60
   7   2   3   91.59    7.30
  -8  -2  -3  353.96   14.50
  -8  -2  -3  357.56   16.00
  -8  -2  -3  376.36   15.00
  -8  -2  -3  377.26   15.40
  -8  -2  -3  371.26   17.90
   8   2   3  364.06   15.40
   8   2   3  380.46   12.60
   8   2   3  371.86   15.40
   8   2   3  389.46   14.80
   8   2   3  378.66   16.50
  -9  -2  -3   42.90    6.70
  -9  -2  -3   35.00    6.30
  -9  -2  -3   40.60    6.50
  -9  -2  -3   37.00    6.10
  -9  -2  -3   48.30   10.10
   9   2   3   47.20    7.20
   9   2   3   39.40    5.60
   9   2   3   45.20    8.10
   9   2   3   38.30    4.40
   9   2   3   46.80    7.50
 -10  -2  -3  276.17   15.20
 -10  -2  -3  265.57   15.90
 -10  -2  -3  282.97   21.50
 -10  -2  -3  276.27   13.70
  10   2   3  301.27   22.90
  10   2   3  237.08   17.10
  10   2   3  252.67   15.70
  10   2   3  278.37   10.70
   8  -3  -3   20.70    7.90
   8  -3  -3   41.40    6.50
   8  -3  -3   42.20   10.10
   8  -3  -3   36.20    9.40
   8  -3  -3   35.60    7.30
  -8   3   3   29.20    6.40
  -8   3   3   28.50   11.90
  -8   3   3   31.00    9.70
  -8   3   3   31.00    5.20
   7  -3  -3   -2.20    4.90
   7  -3  -3    6.30    6.50
   7  -3  -3   12.00    4.60
   7  -3  -3    2.00    5.10
   7  -3  -3    7.60    3.90
  -7   3   3   -6.50    7.70
  -7   3   3    3.10    4.30
  -7   3   3    9.00    3.40
  -7   3   3    7.40    5.10
  -7   3   3    8.20    5.60
   6  -3  -3   10.60    3.80
   6  -3  -3    9.80    3.40
   6  -3  -3    7.30    4.00
   6  -3  -3   11.10    4.50
   6  -3  -3    3.60    5.40
  -6   3   3    6.50    6.40
  -6   3   3    4.70    4.30
  -6   3   3    8.80    4.70
  -6   3   3    7.60    2.80
  -6   3   3    6.90    4.10
   5  -3  -3  144.39   10.20
   5  -3  -3  165.08    8.30
   5  -3  -3  165.98    9.80
   5  -3  -3  172.88    8.90
   5  -3  -3  160.48    7.60
  -5   3   3  161.68    7.10
  -5   3   3  146.99   11.30
  -5   3   3  152.58    8.50
  -5   3   3  159.18    9.60
  -5   3   3  154.58    7.90
   4  -3  -3 1442.66   37.80
   4  -3  -3 1415.76   39.80
   4  -3  -3 1438.66   39.30
   4  -3  -3 1435.26   37.10
   4  -3  -3 1421.26   36.80
  -4   3   3 1453.95   40.30
  -4   3   3 1487.85   36.40
  -4   3   3 1454.45   38.80
  -4   3   3 1416.26   37.70
  -4   3   3 1394.66   36.90
   3  -3  -3   12.80    3.20
   3  -3  -3   14.00    2.30
   3  -3  -3   11.10    2.40
   3  -3  -3   19.70    2.60
  -3   3   3   15.80    3.70
  -3   3   3   15.00    2.70
  -3   3   3   15.20    2.40
  -3   3   3   22.30    2.10
  -3   3   3   12.20    2.10
  -3   3   3   17.00    2.70
   2  -3  -3  591.34   16.10
   2  -3  -3  583.84   16.00
   2  -3  -3  585.14   16.40
   2  -3  -3  580.74   18.50
  -2   3   3  584.54   15.80
  -2   3   3  585.04   16.10
  -2   3   3  589.34   17.30
  -2   3   3  561.34   16.20
  -2   3   3  597.24   18.20
   1  -3  -3   69.29    4.80
   1  -3  -3   59.49    3.30
   1  -3  -3   63.09    3.50
   1  -3  -3   69.39    3.50
  -1   3   3   68.69    3.40
  -1   3   3   69.79    3.50
  -1   3   3   68.09    4.70
  -1   3   3   66.29    3.40
  -1   3   3   63.79    4.10
  -1   3   3   72.89    3.30
   0  -3  -3  543.05   14.70
   0  -3  -3  552.64   14.90
   0  -3  -3  536.15   15.00
   0  -3  -3  526.15   16.00
   0  -3  -3  586.04   14.40
   0  -3  -3  541.35   14.40
   0   3   3  547.35   15.70
   0   3   3  519.15   14.50
   0   3   3  539.35   15.20
   0   3   3  538.85   14.60
   0   3   3  560.94   14.10
   0   3   3  537.25   14.30
  -1  -3  -3 2112.19   52.09
  -1  -3  -3 2143.39   50.79
  -1  -3  -3 2075.99   50.99
  -1  -3  -3 2151.18   51.49
  -1  -3  -3 2060.19   50.99
   1   3   3 2177.08   50.39
   1   3   3 2036.00   50.59
   1   3   3 2090.99   51.09
   1   3   3 2208.48   51.99
   1   3   3 2171.88   51.19
   1   3   3 2038.70   51.09
  -2  -3  -3  208.68    6.60
  -2  -3  -3  214.28    7.00
  -2  -3  -3  223.08    7.70
  -2  -3  -3  214.28    7.70
   2   3   3  213.68    7.30
   2   3   3  213.78    7.70
   2   3   3  208.38    6.70
   2   3   3  212.68    7.30
  -3  -3  -3 3356.76   80.59
  -3  -3  -3 3305.17   80.49
  -3  -3  -3 3280.27   79.69
  -3  -3  -3 3374.76   79.59
   3   3   3 3132.29   79.19
   3   3   3 3311.07   80.19
   3   3   3 3451.95   80.69
   3   3   3 3382.06   80.09
  -4  -3  -3 2069.79   50.59
  -4  -3  -3 2054.09   51.89
  -4  -3  -3 2092.59   51.69
  -4  -3  -3 1998.80   50.59
   4   3   3 2009.60   51.39
   4   3   3 1998.80   50.39
   4   3   3 2088.39   51.19
   4   3   3 2101.89   51.79
  -5  -3  -3  534.95   15.30
  -5  -3  -3  524.25   17.10
  -5  -3  -3  494.75   15.60
  -5  -3  -3  513.95   15.50
  -5  -3  -3  503.05   16.50
   5   3   3  504.05   16.40
   5   3   3  528.05   16.30
   5   3   3  510.25   15.40
   5   3   3  553.14   16.90
  -6  -3  -3   17.00    3.20
  -6  -3  -3   16.80    3.20
  -6  -3  -3   12.10    3.10
  -6  -3  -3   12.60    4.30
  -6  -3  -3   16.80    3.20
   6   3   3   13.60    3.00
   6   3   3   13.00    2.80
   6   3   3   10.80    3.10
   6   3   3   10.50    3.10
  -7  -3  -3   -0.90    2.50
  -7  -3  -3    3.80    3.20
  -7  -3  -3    0.50    3.00
  -7  -3  -3    1.80    4.20
  -7  -3  -3    0.80    2.30
   7   3   3    1.70    3.40
   7   3   3    0.20    2.70
   7   3   3    2.50    3.40
   7   3   3    9.10    3.80
  -8  -3  -3  217.88   13.20
  -8  -3  -3  208.68   10.00
  -8  -3  -3  188.48   10.10
  -8  -3  -3  197.48   11.50
  -8  -3  -3  183.48   11.00
   8   3   3  201.88   10.20
   8   3   3  197.18   11.40
   8   3   3  206.08   11.30
   8   3   3  200.08   11.20
  -9  -3  -3  254.97   13.70
  -9  -3  -3  245.68   12.10
  -9  -3  -3  236.58   17.00
  -9  -3  -3  234.38   13.30
  -9  -3  -3  249.48   12.50
   9   3   3  263.67   14.60
   9   3   3  287.07   14.00
   9   3   3  256.37   13.40
   9   3   3  261.87   12.60
 -10  -3  -3   22.30    6.70
 -10  -3  -3    9.40    9.90
 -10  -3  -3    9.80    4.80
 -10  -3  -3   18.40    6.80
  10   3   3    7.50    6.60
  10   3   3    8.60    5.90
  10   3   3   23.00    6.60
  10   3   3   12.40    7.50
  10   3   3   14.10    4.30
   7  -4  -3   18.80    6.00
   7  -4  -3   36.30    5.60
   7  -4  -3   34.90    7.00
   7  -4  -3   20.60    8.70
   7  -4  -3   23.70    6.00
  -7   4   3   29.40   17.80
  -7   4   3   32.00    8.20
  -7   4   3   31.50    5.40
  -7   4   3   20.50    5.90
   6  -4  -3  116.29    8.80
   6  -4  -3  147.29    8.40
   6  -4  -3  129.49   10.70
   6  -4  -3  135.19   10.20
   6  -4  -3  131.39   12.40
  -6   4   3  145.99    8.40
  -6   4   3  107.09   13.70
  -6   4   3  159.88   11.20
  -6   4   3  139.49    9.50
  -6   4   3  132.89    9.20
   5  -4  -3  997.60   28.20
   5  -4  -3 1012.50   28.00
   5  -4  -3  955.60   31.80
   5  -4  -3 1003.10   29.30
   5  -4  -3  998.70   30.10
  -5   4   3 1037.40   27.40
  -5   4   3  969.10   28.20
  -5   4   3  954.80   32.10
  -5   4   3  996.70   30.00
   4  -4  -3  878.91   27.90
   4  -4  -3  944.11   27.30
   4  -4  -3  935.41   28.20
   4  -4  -3  918.61   29.60
   4  -4  -3  980.70   26.50
  -4   4   3  974.10   27.30
  -4   4   3 1003.00   30.50
  -4   4   3 1002.30   26.10
  -4   4   3  924.11   26.50
  -4   4   3  957.40   28.40
   3  -4  -3   95.59    7.90
   3  -4  -3   84.89    5.00
   3  -4  -3   91.99    5.40
   3  -4  -3   90.19    5.90
  -3   4   3   90.99    5.30
  -3   4   3   83.99    5.30
  -3   4   3   89.99    5.50
  -3   4   3   88.19    6.40
  -3   4   3  103.69    7.60
   2  -4  -3  225.68    8.10
   2  -4  -3  207.18    8.30
   2  -4  -3  219.08    8.00
   2  -4  -3  242.98   10.90
  -2   4   3  223.18    8.00
  -2   4   3  216.38    8.20
  -2   4   3  212.98    8.80
  -2   4   3  211.88   10.00
  -2   4   3  210.18    8.10
   1  -4  -3   37.40    5.00
   1  -4  -3   37.30    2.90
   1  -4  -3   34.30    3.20
   1  -4  -3   34.90    3.20
  -1   4   3   32.90    3.00
  -1   4   3   31.30    3.00
  -1   4   3   36.40    4.70
  -1   4   3   25.40    3.40
  -1   4   3   28.20    2.90
   0  -4  -3 6682.03  147.69
   0  -4  -3 6240.28  149.09
   0  -4  -3 6253.37  148.89
   0  -4  -3 6226.08  151.08
   0   4   3 6378.46  148.89
   0   4   3 6143.89  148.79
   0   4   3 6222.18  148.49
   0   4   3 6250.17  149.19
   0   4   3 6465.05  150.68
  -1  -4  -3 3304.37   78.19
  -1  -4  -3 3279.77   79.39
  -1  -4  -3 3147.49   77.09
  -1  -4  -3 3208.08   77.69
  -1  -4  -3 3182.18   77.29
   1   4   3 3187.38   77.69
   1   4   3 3249.38   77.29
   1   4   3 3163.28   77.39
   1   4   3 3418.16   75.99
   1   4   3 3212.68   77.69
   1   4   3 3341.07   78.99
  -2  -4  -3 1401.16   35.50
  -2  -4  -3 1341.47   35.90
  -2  -4  -3 1325.27   34.70
  -2  -4  -3 1381.86   33.80
  -2  -4  -3 1426.36   34.70
   2   4   3 1389.46   34.00
   2   4   3 1469.85   35.20
   2   4   3 1369.26   35.00
   2   4   3 1486.45   36.20
   2   4   3 1320.27   34.30
  -3  -4  -3  732.73   20.30
  -3  -4  -3  744.53   21.40
  -3  -4  -3  814.02   20.60
  -3  -4  -3  754.42   19.00
  -3  -4  -3  751.92   21.30
   3   4   3  782.72   20.90
   3   4   3  744.13   20.10
   3   4   3  778.22   21.60
   3   4   3  768.42   20.90
  -4  -4  -3 1146.09   29.80
  -4  -4  -3 1036.50   29.30
  -4  -4  -3 1091.49   28.40
   4   4   3 1122.59   29.70
   4   4   3 1065.29   29.00
   4   4   3 1062.99   28.10
   4   4   3 1098.19   29.00
  -5  -4  -3   37.10    3.60
  -5  -4  -3   39.50    4.50
  -5  -4  -3   31.60    3.80
  -5  -4  -3   34.20    4.50
   5   4   3   34.00    4.20
   5   4   3   39.30    4.60
   5   4   3   27.30    3.50
   5   4   3   31.90    3.50
  -6  -4  -3  137.09    8.60
  -6  -4  -3  129.19    6.70
  -6  -4  -3  140.99    7.20
  -6  -4  -3  143.89    7.10
   6   4   3  132.79    6.80
   6   4   3  128.69    7.50
   6   4   3  134.19    7.70
   6   4   3  130.99    7.60
  -7  -4  -3   11.90    3.00
  -7  -4  -3    8.90    3.00
  -7  -4  -3    1.70    3.50
  -7  -4  -3   20.30    5.20
  -7  -4  -3   17.80    4.40
   7   4   3   15.20    4.00
   7   4   3   11.10    4.50
   7   4   3   11.40    3.70
   7   4   3   12.60    3.30
  -8  -4  -3 1443.96   41.10
  -8  -4  -3 1446.06   38.90
  -8  -4  -3 1446.96   40.30
  -8  -4  -3 1482.95   42.30
  -8  -4  -3 1387.46   38.50
   8   4   3 1479.15   39.40
   8   4   3 1401.06   40.50
   8   4   3 1457.25   40.60
   8   4   3 1460.75   40.50
  -9  -4  -3    9.50    4.80
  -9  -4  -3   12.00    7.10
  -9  -4  -3   -1.30    3.50
  -9  -4  -3   -1.00    4.50
  -9  -4  -3   11.40    5.30
   9   4   3   -0.10    4.80
   9   4   3   -8.80    5.00
   9   4   3   -3.40    3.90
   9   4   3   -5.50    4.90
 -10  -4  -3    3.40    9.20
 -10  -4  -3    3.30    5.80
 -10  -4  -3    1.30    5.80
 -10  -4  -3    6.60    4.60
 -10  -4  -3   -1.00    6.90
 -10  -4  -3   -0.50    4.00
  10   4   3    5.70    6.20
  10   4   3    7.70    6.50
  10   4   3    4.30    6.40
  10   4   3    6.80    5.50
 -11  -4  -3    7.60   12.60
 -11  -4  -3    5.10    9.40
 -11  -4  -3    4.40    5.60
 -11  -4  -3    6.90    7.10
  11   4   3   -3.20    9.40
  11   4   3   -5.10    8.40
   7  -5  -3  142.29   11.50
   7  -5  -3  122.69   14.70
   7  -5  -3  137.89   12.90
   7  -5  -3  105.79   12.10
  -7   5   3  133.89   17.20
  -7   5   3  150.98   12.00
  -7   5   3  127.59   11.10
  -7   5   3  146.29   17.50
   6  -5  -3   12.20    4.70
   6  -5  -3    5.70    7.50
   6  -5  -3    2.00    4.60
   6  -5  -3   14.40    6.00
   6  -5  -3    4.70    5.10
  -6   5   3   13.90   10.00
  -6   5   3   11.60    5.50
  -6   5   3   20.60    5.50
  -6   5   3   15.80    5.00
  -6   5   3    7.90    5.10
   5  -5  -3   35.30    5.00
   5  -5  -3   25.00    5.90
   5  -5  -3   17.10    4.30
   5  -5  -3   21.10    7.20
   5  -5  -3   30.80    5.70
  -5   5   3   36.30    5.60
  -5   5   3   22.20    7.90
  -5   5   3   22.00    5.90
  -5   5   3   30.40    5.40
  -5   5   3   25.40    4.80
   4  -5  -3  180.08   10.50
   4  -5  -3  158.58    9.60
   4  -5  -3  170.28    8.60
   4  -5  -3  172.18    8.70
   4  -5  -3  177.58   12.60
  -4   5   3  183.28   12.90
  -4   5   3  166.58    9.30
  -4   5   3  176.88   10.50
  -4   5   3  172.48    5.50
  -4   5   3  167.48    9.20
  -4   5   3  177.58    8.70
   3  -5  -3 2072.19   51.29
   3  -5  -3 2056.69   55.79
   3  -5  -3 2017.20   52.39
   3  -5  -3 1926.41   55.19
  -3   5   3 2018.10   55.19
  -3   5   3 2013.40   51.69
  -3   5   3 2110.59   51.49
  -3   5   3 2020.80   52.19
  -3   5   3 2042.20   52.89
   2  -5  -3 1657.23   41.20
   2  -5  -3 1635.54   41.50
   2  -5  -3 1598.34   45.20
  -2   5   3 1596.74   41.50
  -2   5   3 1640.44   42.40
  -2   5   3 1674.83   41.40
  -2   5   3 1681.73   44.80
  -2   5   3 1472.75   41.90
   1  -5  -3  544.25   15.70
   1  -5  -3  538.55   16.10
   1  -5  -3  529.55   18.90
   1  -5  -3  529.35   16.20
  -1   5   3  543.05   16.00
  -1   5   3  546.55   18.40
  -1   5   3  546.15   16.50
  -1   5   3  552.34   16.00
  -1   5   3  535.15   15.90
   0  -5  -3  754.22   20.90
   0  -5  -3  764.02   20.90
   0  -5  -3  808.52   18.90
   0  -5  -3  708.03   23.00
   0  -5  -3  757.12   20.40
   0   5   3  736.93   20.60
   0   5   3  761.32   20.80
   0   5   3  743.03   20.70
   0   5   3  764.32   22.60
   0   5   3  743.13   20.40
  -1  -5  -3    1.10    1.30
  -1  -5  -3    0.40    2.30
  -1  -5  -3    1.70    1.40
  -1  -5  -3    0.90    1.60
   1   5   3    1.50    1.30
   1   5   3    1.40    1.20
   1   5   3    0.70    1.70
   1   5   3   -1.70    1.10
   1   5   3    1.70    2.30
  -2  -5  -3  722.83   20.20
  -2  -5  -3  736.83   21.00
  -2  -5  -3  739.13   21.90
  -2  -5  -3  774.82   20.20
   2   5   3  760.72   20.50
   2   5   3  737.23   19.90
   2   5   3  762.42   21.80
   2   5   3  749.92   19.40
   2   5   3  759.92   20.60
  -3  -5  -3  166.58    6.50
  -3  -5  -3  157.58    7.60
  -3  -5  -3  167.38    7.30
  -3  -5  -3  161.58    6.50
   3   5   3  165.68    7.70
   3   5   3  153.48    6.60
   3   5   3  162.28    7.00
   3   5   3  154.58    6.20
  -4  -5  -3  398.76   13.60
  -4  -5  -3  393.06   13.40
  -4  -5  -3  402.86   12.40
  -4  -5  -3  376.46   12.10
  -4  -5  -3  388.36    9.70
   4   5   3  384.76   12.70
   4   5   3  382.66   12.00
   4   5   3  406.76   13.00
   4   5   3  392.16   13.80
  -5  -5  -3 1346.77   36.90
  -5  -5  -3 1408.96   35.70
  -5  -5  -3 1357.36   37.20
  -5  -5  -3 1367.56   35.40
   5   5   3 1338.37   35.40
   5   5   3 1364.46   36.30
   5   5   3 1386.46   36.50
   5   5   3 1422.16   37.40
  -6  -5  -3    8.10    3.50
  -6  -5  -3   -2.20    2.10
  -6  -5  -3   -0.80    2.40
  -6  -5  -3   -2.30    2.70
  -6  -5  -3   -3.00    2.20
   6   5   3   -1.00    2.60
   6   5   3    0.50    2.80
   6   5   3    5.10    2.80
  -7  -5  -3    2.40    2.80
  -7  -5  -3    3.60    3.30
  -7  -5  -3   -0.50    4.10
   7   5   3    6.30    3.50
   7   5   3   -2.20    3.10
   7   5   3    2.00    3.30
   7   5   3    3.80    2.70
  -8  -5  -3    0.40    3.90
  -8  -5  -3    2.70    3.50
  -8  -5  -3    0.20    4.20
  -8  -5  -3    2.40    2.00
  -8  -5  -3    3.70    4.90
   8   5   3   -0.80    3.30
   8   5   3    0.70    3.90
   8   5   3   -7.60    3.80
   8   5   3    5.70    4.30
  -9  -5  -3   62.19    7.70
  -9  -5  -3   56.09    5.20
  -9  -5  -3   57.19    7.90
  -9  -5  -3   59.59    9.10
   9   5   3   62.09    8.40
   9   5   3   48.00    7.10
   9   5   3   64.49    8.80
   9   5   3   66.89    7.40
 -10  -5  -3   -4.90    3.40
 -10  -5  -3    6.00    5.50
 -10  -5  -3    0.20    8.80
 -10  -5  -3    5.70    5.30
  10   5   3    2.30    6.80
  10   5   3    3.70    5.50
  10   5   3    1.60    6.20
  10   5   3    4.20    6.40
 -11  -5  -3    4.50   13.10
   6  -6  -3   -6.90    5.40
   6  -6  -3    1.60    6.10
   6  -6  -3   -0.70    6.00
   6  -6  -3   -2.90   10.20
  -6   6   3    7.30    6.20
  -6   6   3   -0.40   12.20
  -6   6   3    1.00    5.80
  -6   6   3    7.20    7.80
   5  -6  -3    0.70    3.90
   5  -6  -3    5.30    4.30
   5  -6  -3    4.90    5.00
   5  -6  -3    3.80    8.00
   5  -6  -3   -0.20    5.10
  -5   6   3   -1.40    4.80
  -5   6   3   13.00    5.30
  -5   6   3    9.00    5.10
  -5   6   3   -7.80    8.50
  -5   6   3    5.80    4.80
   4  -6  -3 1343.17   42.60
   4  -6  -3 1432.26   37.70
   4  -6  -3 1365.26   38.90
   4  -6  -3 1315.87   38.70
   4  -6  -3 1381.86   37.40
  -4   6   3 1361.76   38.20
  -4   6   3 1398.66   37.40
  -4   6   3 1344.17   38.70
  -4   6   3 1389.56   39.20
   3  -6  -3 1602.24   42.80
   3  -6  -3 1620.94   41.80
   3  -6  -3 1644.94   41.50
   3  -6  -3 1542.75   46.20
  -3   6   3 1356.96   41.90
  -3   6   3 1596.14   42.10
  -3   6   3 1539.05   42.20
  -3   6   3 1599.84   42.90
  -3   6   3 1660.33   46.40
   2  -6  -3   71.39    8.70
   2  -6  -3   76.69    9.50
   2  -6  -3   74.99    6.30
  -2   6   3   69.39    5.50
  -2   6   3   67.89    5.80
  -2   6   3   69.69    6.00
  -2   6   3   73.29    8.70
  -2   6   3   62.49    6.20
   1  -6  -3   68.79    8.10
   1  -6  -3   68.79    5.20
   1  -6  -3   63.19    5.50
   1  -6  -3   68.19    4.90
  -1   6   3   71.69    5.30
  -1   6   3   69.19    5.20
  -1   6   3   68.69    7.10
  -1   6   3   64.59    5.20
  -1   6   3   53.49    4.80
   0  -6  -3 1348.07   35.20
   0  -6  -3 1438.36   32.90
   0  -6  -3 1335.97   39.00
   0  -6  -3 1335.47   35.80
   0  -6  -3 1371.56   36.00
   0   6   3 1343.87   35.60
   0   6   3 1383.26   35.60
   0   6   3 1330.97   35.40
   0   6   3 1404.56   38.30
   0   6   3 1414.56   35.80
  -1  -6  -3  126.29    6.50
  -1  -6  -3  128.09    8.40
  -1  -6  -3  118.29    6.10
  -1  -6  -3  122.69    5.90
   1   6   3  118.49    5.60
   1   6   3  117.49    7.70
   1   6   3  130.19    6.30
   1   6   3  117.09    5.70
   1   6   3  121.69    6.00
  -2  -6  -3 1357.36   34.40
  -2  -6  -3 1384.76   35.50
  -2  -6  -3 1313.27   34.50
  -2  -6  -3 1321.37   37.00
   2   6   3 1322.17   33.40
   2   6   3 1358.16   36.40
   2   6   3 1308.57   34.10
   2   6   3 1364.16   34.90
   2   6   3 1336.47   34.70
  -3  -6  -3  658.43   19.20
  -3  -6  -3  600.64   19.70
  -3  -6  -3  625.24   18.00
  -3  -6  -3  640.84   18.10
   3   6   3  648.54   19.70
   3   6   3  625.24   18.30
   3   6   3  624.14   16.10
   3   6   3  606.34   17.60
  -4  -6  -3  405.96   12.80
  -4  -6  -3  390.56   14.40
  -4  -6  -3  400.46   13.00
  -4  -6  -3  398.66   14.00
   4   6   3  427.46   11.40
   4   6   3  404.86   13.50
   4   6   3  411.86   14.50
   4   6   3  408.96   12.70
   4   6   3  378.26   12.90
  -5  -6  -3  364.66   13.70
  -5  -6  -3  371.06   12.20
  -5  -6  -3  381.46   12.60
  -5  -6  -3  373.56   13.90
   5   6   3  351.86   12.20
   5   6   3  392.86   13.50
   5   6   3  349.27   12.70
   5   6   3  368.96   13.80
  -6  -6  -3  521.35   17.00
  -6  -6  -3  525.25   15.90
  -6  -6  -3  533.75   18.40
  -6  -6  -3  500.15   17.70
  -6  -6  -3  525.95   16.30
   6   6   3  518.65   16.30
   6   6   3  461.15   16.50
   6   6   3  536.95   18.30
   6   6   3  541.65   17.60
  -7  -6  -3   -1.50    3.30
  -7  -6  -3   -1.50    2.50
  -7  -6  -3    4.80    3.10
  -7  -6  -3   -2.00    3.30
  -7  -6  -3    0.30    4.00
   7   6   3    2.70    3.10
   7   6   3    2.10    2.70
   7   6   3   -3.20    3.30
   7   6   3   -1.50    3.50
  -8  -6  -3    1.10    3.40
  -8  -6  -3    1.60    1.60
  -8  -6  -3    1.90    5.40
  -8  -6  -3   -3.10    3.00
  -8  -6  -3   -7.40    4.10
  -8  -6  -3   -8.30    3.90
   8   6   3    6.50    4.30
   8   6   3    3.30    3.80
   8   6   3   -5.00    3.20
   8   6   3   -0.30    4.60
  -9  -6  -3   12.60    4.00
  -9  -6  -3    9.00    4.80
  -9  -6  -3   21.50    6.00
  -9  -6  -3   14.20    7.20
  -9  -6  -3    6.30    5.10
  -9  -6  -3   10.50    2.60
   9   6   3    8.80    5.80
   9   6   3   12.60    5.70
   9   6   3    4.20    3.80
 -10  -6  -3   79.49   10.00
 -10  -6  -3   67.59    6.30
 -10  -6  -3   88.39   10.90
 -10  -6  -3   76.69   14.60
 -10  -6  -3   65.59    6.80
  10   6   3   68.29    9.10
  10   6   3   65.59    8.00
  10   6   3   58.89    8.60
  10   6   3   64.39    9.50
   5  -7  -3   19.90    9.80
   5  -7  -3   13.50    6.80
   5  -7  -3    5.80    6.10
   5  -7  -3    4.50    6.10
  -5   7   3    9.70    5.70
  -5   7   3   -5.30    7.00
  -5   7   3   10.80    6.50
  -5   7   3   27.10   12.80
   4  -7  -3    3.00    4.10
   4  -7  -3    0.90    5.00
   4  -7  -3   -1.20    8.30
   4  -7  -3   -0.30    4.50
   4  -7  -3    4.20    3.60
  -4   7   3   10.40    8.80
  -4   7   3    0.20    4.60
  -4   7   3   -2.90    4.60
  -4   7   3   -1.10    5.30
  -4   7   3    1.40    4.50
   3  -7  -3  211.88   15.80
   3  -7  -3  235.78   10.60
   3  -7  -3  239.48   12.20
   3  -7  -3  234.18   11.20
  -3   7   3  248.48   12.60
  -3   7   3  220.98   11.30
  -3   7   3  245.38   16.60
  -3   7   3  229.68   11.70
  -3   7   3  232.28   11.60
   2  -7  -3  576.54   18.30
   2  -7  -3  568.74   19.60
   2  -7  -3  586.14   19.10
   2  -7  -3  577.24   23.50
  -2   7   3  615.24   19.10
  -2   7   3  578.74   19.10
  -2   7   3  576.44   19.40
  -2   7   3  567.84   19.40
   1  -7  -3  800.82   24.50
   1  -7  -3  850.71   23.60
   1  -7  -3  766.22   27.70
  -1   7   3  846.02   24.30
  -1   7   3  802.52   23.90
  -1   7   3  845.52   27.50
  -1   7   3  859.21   24.50
  -1   7   3  792.22   24.00
   0  -7  -3    2.10    2.50
   0  -7  -3    1.40    4.40
   0  -7  -3    4.10    2.20
   0  -7  -3    6.40    2.80
   0   7   3    3.20    2.40
   0   7   3   -0.60    2.30
   0   7   3    1.20    3.90
   0   7   3   -4.20    2.10
   0   7   3    2.50    2.50
  -1  -7  -3   60.29    4.80
  -1  -7  -3   54.59    5.10
  -1  -7  -3   57.39    8.40
  -1  -7  -3   53.09    5.00
   1   7   3   55.49    5.20
   1   7   3   52.69    4.80
   1   7   3   54.69    6.80
   1   7   3   48.30    4.60
   1   7   3   55.19    4.60
  -2  -7  -3   25.60    3.80
  -2  -7  -3   22.40    4.30
  -2  -7  -3   25.10    3.20
  -2  -7  -3   18.60    5.30
   2   7   3   31.30    3.80
   2   7   3   28.50    5.20
   2   7   3   25.30    3.10
   2   7   3   18.90    2.70
   2   7   3   26.70    3.80
  -3  -7  -3   10.50    2.50
  -3  -7  -3   14.80    3.40
  -3  -7  -3    8.40    3.20
  -3  -7  -3    7.30    3.40
   3   7   3    6.60    2.60
   3   7   3   10.20    2.30
   3   7   3   13.60    2.00
   3   7   3   10.20    3.80
   3   7   3   11.90    3.00
  -4  -7  -3  350.86   13.60
  -4  -7  -3  357.56   14.20
  -4  -7  -3  348.57   12.20
  -4  -7  -3  371.16   12.30
   4   7   3  354.06   11.80
   4   7   3  344.57   12.80
   4   7   3  346.07   13.90
   4   7   3  356.16   12.40
   4   7   3  354.76    9.60
  -5  -7  -3    7.80    3.70
  -5  -7  -3   12.50    3.20
  -5  -7  -3    4.30    3.80
   5   7   3   14.40    3.20
   5   7   3    9.10    2.80
   5   7   3    8.50    3.30
   5   7   3   11.90    4.50
  -6  -7  -3   63.89    7.20
  -6  -7  -3   67.99    7.00
  -6  -7  -3   64.69    6.00
  -6  -7  -3   67.49    5.50
  -6  -7  -3   57.39    7.00
   6   7   3   68.49    7.70
   6   7   3   55.89    5.30
   6   7   3   48.60    6.30
   6   7   3   50.49    5.80
  -7  -7  -3   88.59    8.40
  -7  -7  -3   73.09    8.00
  -7  -7  -3   89.79    6.50
  -7  -7  -3   97.89    9.20
  -7  -7  -3   91.39    7.00
   7   7   3   87.09    7.30
   7   7   3   86.79    8.40
   7   7   3   87.89    8.50
   7   7   3  102.19    7.20
  -8  -7  -3   -2.60    4.80
  -8  -7  -3    9.90    4.60
  -8  -7  -3   10.00    6.10
  -8  -7  -3    2.70    3.90
  -8  -7  -3    1.50    3.30
   8   7   3   -0.20    4.10
   8   7   3   -0.50    3.40
   8   7   3   -4.40    4.40
   8   7   3   -4.60    4.60
  -9  -7  -3   19.90    6.30
  -9  -7  -3   29.90    5.50
  -9  -7  -3   24.20    4.70
  -9  -7  -3   21.70    7.90
  -9  -7  -3   21.20    6.50
   9   7   3   20.50    5.80
   9   7   3   23.20    6.20
 -10  -7  -3   22.00    8.30
 -10  -7  -3   12.90    5.80
 -10  -7  -3   28.10   11.40
 -10  -7  -3   20.70    5.50
  10   7   3    5.70    7.50
  10   7   3   30.00    6.80
  10   7   3   28.40    8.30
  10   7   3   14.50    6.40
   4  -8  -3   48.00    7.10
   4  -8  -3   51.39   11.90
   4  -8  -3   64.29    8.60
   4  -8  -3   44.40    8.20
  -4   8   3   49.99    7.50
  -4   8   3   52.99   10.30
  -4   8   3   38.80    8.30
  -4   8   3   49.00    5.00
  -4   8   3   48.50   12.70
   3  -8  -3  150.48   16.50
   3  -8  -3  140.59    9.70
   3  -8  -3  151.88   10.00
   3  -8  -3  126.19   11.00
  -3   8   3  168.48   17.40
  -3   8   3  154.48   11.00
  -3   8   3  134.39   10.80
  -3   8   3  148.69   10.90
  -3   8   3  143.09   11.20
   2  -8  -3  360.26   14.70
   2  -8  -3  364.16   20.40
   2  -8  -3  349.07   13.70
   2  -8  -3  339.67   14.80
  -2   8   3  348.57   14.60
  -2   8   3  379.36   15.20
  -2   8   3  340.87   15.00
  -2   8   3  361.76   19.40
  -2   8   3  367.66   14.80
   1  -8  -3  300.77   12.50
   1  -8  -3  300.87   12.00
   1  -8  -3  283.17   13.00
   1  -8  -3  278.87   16.30
  -1   8   3  281.67   12.40
  -1   8   3  300.67   12.90
  -1   8   3  248.18   13.70
  -1   8   3  296.47   12.60
  -1   8   3  308.27   16.50
   0  -8  -3   30.50    5.00
   0  -8  -3   21.40    3.70
   0  -8  -3   22.50    7.00
   0  -8  -3   30.40    4.70
   0   8   3   38.40    5.00
   0   8   3   23.20    6.30
   0   8   3   26.40    4.10
   0   8   3   25.00    4.10
   0   8   3   29.40    4.90
  -1  -8  -3   75.69    6.80
  -1  -8  -3   72.89    6.10
  -1  -8  -3   65.29    6.30
  -1  -8  -3   55.69    7.80
   1   8   3   71.59    5.80
   1   8   3   64.39    6.20
   1   8   3   73.29    5.70
   1   8   3   75.49    8.40
   1   8   3   74.59    5.60
  -2  -8  -3  636.24   18.90
  -2  -8  -3  634.54   19.40
  -2  -8  -3  603.84   22.40
  -2  -8  -3  616.74   19.90
   2   8   3  535.95   19.40
   2   8   3  622.74   21.40
   2   8   3  641.44   19.70
   2   8   3  643.24   18.90
   2   8   3  650.53   17.90
  -3  -8  -3  346.27   13.50
  -3  -8  -3  350.16   12.60
  -3  -8  -3  348.27   12.60
  -3  -8  -3  351.06   15.40
   3   8   3  346.67   14.70
   3   8   3  365.36   12.30
   3   8   3  347.97   13.20
   3   8   3  344.27   10.40
   3   8   3  344.17   12.60
  -4  -8  -3  169.28   10.90
  -4  -8  -3  184.58    8.90
  -4  -8  -3  184.18    8.40
  -4  -8  -3  173.98    9.90
   4   8   3  171.58    8.10
   4   8   3  173.78    8.50
   4   8   3  187.88   10.80
  -5  -8  -3  101.09    6.50
  -5  -8  -3  120.49    9.40
  -5  -8  -3  103.39    7.20
  -5  -8  -3  108.29    8.80
   5   8   3   99.09    6.50
   5   8   3   98.79    8.90
   5   8   3  103.29    7.80
   5   8   3  111.19    7.00
  -6  -8  -3  209.78    9.20
  -6  -8  -3  209.68   10.10
  -6  -8  -3  211.78   11.10
  -6  -8  -3  212.18   12.00
  -6  -8  -3  226.78   12.00
   6   8   3  219.38   12.10
   6   8   3  227.98   11.30
   6   8   3  218.18    9.70
   6   8   3  208.58   10.00
  -7  -8  -3  169.68   12.40
  -7  -8  -3  155.38    9.20
  -7  -8  -3  130.49   10.40
  -7  -8  -3  158.88    8.30
  -7  -8  -3  170.68   10.80
   7   8   3  160.18   11.20
   7   8   3  147.69    8.60
   7   8   3  186.38   11.40
   7   8   3  161.68    9.50
  -8  -8  -3  110.99    7.80
  -8  -8  -3  121.49   10.30
  -8  -8  -3  127.99   12.30
  -8  -8  -3  124.99   12.00
  -8  -8  -3  106.29    8.80
   8   8   3  120.89   10.90
   8   8   3  113.29   10.60
   8   8   3  119.99    9.70
   8   8   3  118.09    8.70
  -9  -8  -3    5.80    4.00
  -9  -8  -3    4.90    7.50
  -9  -8  -3    5.60    7.00
  -9  -8  -3    3.60    7.50
  -9  -8  -3   -7.30    5.40
   9   8   3    2.80    6.40
   9   8   3    6.50    5.70
   9   8   3   -5.80    6.30
   9   8   3   -5.80    4.50
 -10  -8  -3   30.40    8.60
 -10  -8  -3   25.70    5.30
 -10  -8  -3   12.40   11.50
 -10  -8  -3   39.90   10.90
  10   8   3   40.50    9.70
  10   8   3   10.30    8.70
  10   8   3   19.70    7.20
   3  -9  -3   25.70    7.50
   3  -9  -3   19.20    6.40
   3  -9  -3   13.10   12.10
  -3   9   3   11.30    6.80
  -3   9   3   16.00   11.60
  -3   9   3    9.70    6.90
   2  -9  -3   11.30    4.70
   2  -9  -3    7.10    6.20
   2  -9  -3   12.70    5.60
   2  -9  -3   11.40    9.50
  -2   9   3    4.00    4.90
  -2   9   3   22.30   10.10
  -2   9   3   15.40    5.60
  -2   9   3    8.60    5.60
  -2   9   3   13.20    5.60
   1  -9  -3    3.20    3.90
   1  -9  -3   -5.10    4.30
   1  -9  -3    1.50    4.70
   1  -9  -3   12.10    7.40
  -1   9   3    8.30    5.00
  -1   9   3   -5.00    6.60
  -1   9   3    1.00    4.40
  -1   9   3    6.20    4.40
  -1   9   3   -0.20    3.90
   0  -9  -3   40.70    6.30
   0  -9  -3   51.59    6.20
   0  -9  -3   34.00    8.50
   0  -9  -3   44.20    6.10
   0   9   3   33.90    4.90
   0   9   3   36.80    8.70
   0   9   3   34.40    5.10
   0   9   3   37.90    5.20
   0   9   3   34.40    5.40
  -1  -9  -3   73.99    8.00
  -1  -9  -3   55.19    6.80
  -1  -9  -3   70.39    7.90
  -1  -9  -3   56.79    9.50
   1   9   3   81.89   10.40
   1   9   3   50.09    6.70
   1   9   3   61.39    6.30
   1   9   3   56.39    6.30
   1   9   3   62.49    6.10
  -2  -9  -3    6.30    3.80
  -2  -9  -3   10.90    4.00
  -2  -9  -3    9.00    5.00
  -2  -9  -3    4.80    5.40
   2   9   3    7.00    2.90
   2   9   3    3.50    4.00
   2   9   3    2.20    2.60
   2   9   3    3.60    3.00
   2   9   3   -1.50    4.60
  -3  -9  -3   10.80    3.60
  -3  -9  -3    9.00    3.60
  -3  -9  -3   10.30    4.30
  -3  -9  -3   13.50    6.00
   3   9   3    8.30    4.20
   3   9   3   19.90    4.00
   3   9   3    8.70    5.20
   3   9   3   14.60    2.70
   3   9   3   17.30    3.90
  -4  -9  -3   72.69    8.40
  -4  -9  -3   63.09    7.30
  -4  -9  -3   63.59    8.40
  -4  -9  -3   56.99    6.60
   4   9   3   68.09    6.00
   4   9   3   64.39    8.50
   4   9   3   72.89    6.60
   4   9   3   59.99    7.20
  -5  -9  -3   -1.50    4.00
  -5  -9  -3   -0.30    3.00
  -5  -9  -3   -0.40    6.90
  -5  -9  -3   -3.20    4.80
   5   9   3    2.70    3.90
   5   9   3   -1.60    2.80
   5   9   3    6.60    4.80
  -6  -9  -3  168.88   11.50
  -6  -9  -3  152.18   11.80
  -6  -9  -3  166.98   10.60
  -6  -9  -3  151.38    8.60
  -6  -9  -3  171.68   11.20
   6   9   3  162.38   11.60
   6   9   3  146.49   10.50
   6   9   3  153.78    8.70
  -7  -9  -3    4.50    4.80
  -7  -9  -3    2.10    6.80
  -7  -9  -3    4.70    3.50
  -7  -9  -3    6.10    4.80
  -7  -9  -3  -10.50    5.20
   7   9   3   -0.30    3.30
   7   9   3    7.70    5.60
   7   9   3   10.60    5.70
  -8  -9  -3   11.90    7.30
  -8  -9  -3    2.00    6.80
  -8  -9  -3    7.10    4.00
  -8  -9  -3    0.50    7.20
   8   9   3   12.50    6.40
   8   9   3    2.60    4.30
   8   9   3    5.00    4.90
   8   9   3    6.30    5.50
  -9  -9  -3   45.70    9.50
  -9  -9  -3   33.10    5.30
   9   9   3   45.10    7.10
   9   9   3   37.30    7.10
   9   9   3   24.00    8.40
   9   9   3   40.60    9.30
   2 -10  -3   27.80    7.60
   2 -10  -3   28.40    9.00
  -2  10   3   55.09    9.70
  -2  10   3   43.00   14.20
  -2  10   3   36.50    8.20
   1 -10  -3    3.40   11.50
   1 -10  -3   14.90    7.20
   1 -10  -3    2.00    5.40
  -1  10   3   14.10   10.70
  -1  10   3   16.10    6.10
  -1  10   3   20.20    6.60
  -1  10   3   10.80    6.10
   0 -10  -3   11.10    9.40
   0 -10  -3   -1.30    4.70
   0 -10  -3    0.30    5.20
   0 -10  -3    8.30    5.80
   0  10   3    4.00    4.90
   0  10   3   -5.10    5.30
   0  10   3    2.00    4.80
   0  10   3   -2.60    4.70
   0  10   3    7.70    8.20
  -1 -10  -3  361.76   15.10
  -1 -10  -3  365.46   15.70
  -1 -10  -3  363.26   20.60
  -1 -10  -3  387.16   17.00
   1  10   3  388.16   15.80
   1  10   3  344.87   15.20
   1  10   3  346.97   14.70
   1  10   3  354.26   14.10
   1  10   3  403.56   19.70
  -2 -10  -3  245.48   15.90
  -2 -10  -3  212.28   11.90
  -2 -10  -3  236.98   13.60
  -2 -10  -3  248.88   11.80
   2  10   3  239.58   12.60
   2  10   3  235.88   10.30
   2  10   3  233.48   11.30
   2  10   3  220.58   14.20
   2  10   3  229.98   11.80
  -3 -10  -3  257.77   16.30
  -3 -10  -3  293.57   13.60
  -3 -10  -3  332.27   15.60
  -3 -10  -3  322.77   13.60
   3  10   3  313.47   12.80
   3  10   3  324.67   16.70
   3  10   3  320.67   14.20
   3  10   3  316.97   13.30
   3  10   3  315.57   10.80
  -4 -10  -3    4.40    4.40
  -4 -10  -3    6.40    6.60
  -4 -10  -3    0.40    4.20
  -4 -10  -3   -3.10    6.00
   4  10   3   -2.10    4.40
   4  10   3    5.70    4.10
   4  10   3    3.40    3.00
   4  10   3    4.80    5.80
  -5 -10  -3  199.08   11.20
  -5 -10  -3  174.98   18.90
  -5 -10  -3  197.98   10.60
  -5 -10  -3  174.98   14.10
   5  10   3  202.98   11.90
   5  10   3  195.08   13.10
   5  10   3  182.78    9.60
   5  10   3  178.78   10.20
  -6 -10  -3   80.99    8.90
  -6 -10  -3   88.89   10.20
  -6 -10  -3   71.29    9.90
  -6 -10  -3   81.89    8.30
   6  10   3  102.19   11.70
   6  10   3   80.99   10.40
   6  10   3   88.89    7.70
   6  10   3   84.49    8.40
  -7 -10  -3   13.00    5.10
  -7 -10  -3    3.50    5.80
  -7 -10  -3   -3.30    4.30
   7  10   3   -1.80    4.60
   7  10   3    1.00    6.40
   7  10   3    9.00    4.00
   7  10   3   -3.90    7.20
  -8 -10  -3  108.79   12.10
  -8 -10  -3   91.59    9.00
  -8 -10  -3  116.09   10.20
  -8 -10  -3  112.49   13.00
   8  10   3  110.09   11.10
   8  10   3   96.79   10.60
   8  10   3   96.09   11.50
   8  10   3   82.89   10.70
   0 -11  -3   71.59    8.90
   0 -11  -3   66.99    9.70
   0  11   3   59.29    9.80
   0  11   3   83.69    9.30
   0  11   3   50.69   13.20
  -1 -11  -3   40.20    9.40
  -1 -11  -3   38.70    7.20
   1  11   3   43.90    7.00
   1  11   3   55.79    7.30
   1  11   3   34.90    7.80
   1  11   3   54.99   12.10
  -2 -11  -3    9.10    7.90
  -2 -11  -3   17.80    6.20
  -2 -11  -3    3.60    5.90
   2  11   3   13.50    7.00
   2  11   3   14.70    4.90
   2  11   3   -2.80    8.80
   2  11   3   13.90    4.40
  -3 -11  -3   38.40    8.00
  -3 -11  -3   53.49    7.40
  -3 -11  -3   45.20    7.10
   3  11   3   57.89   10.20
   3  11   3   46.40    7.40
   3  11   3   33.00    6.10
   3  11   3   46.10    5.20
  -4 -11  -3   47.60    7.30
  -4 -11  -3   42.10    6.40
  -4 -11  -3   44.70    8.70
   4  11   3   38.60    6.20
   4  11   3   39.10    7.00
   4  11   3   41.60    7.30
   4  11   3   39.60    9.30
  -5 -11  -3   78.39    8.10
  -5 -11  -3   75.69   11.00
  -5 -11  -3   84.89    9.50
  -5 -11  -3   82.59   11.00
   5  11   3   46.90    7.70
   5  11   3   66.99    8.60
   5  11   3   85.79    8.90
   5  11   3   66.29    9.90
  -6 -11  -3   19.00    5.80
  -6 -11  -3   28.70    7.20
  -6 -11  -3   15.30    7.60
  -6 -11  -3   24.60    9.00
   6  11   3   23.60    5.90
   6  11   3   10.80    9.20
   6  11   3   21.50    7.40
  -7 -11  -3    9.50    5.90
  -7 -11  -3   25.70   10.20
  -7 -11  -3   17.80    8.60
  -7 -11  -3   25.20    6.70
   7  11   3   28.40    9.20
   7  11   3   28.00    9.90
   7  11   3   13.10    6.10
   4   9  -4  -10.10    5.20
   4   9  -4    1.40    4.90
   4   9  -4    5.20    5.40
   4   9  -4    0.70    5.90
  -4  -9   4    9.30    4.90
  -4  -9   4    3.80    7.60
  -4  -9   4    5.30    7.50
   3   9  -4   -1.20    5.70
   3   9  -4    5.40    5.50
   3   9  -4    3.10    6.30
   3   9  -4    3.40    4.90
  -3  -9   4    2.30    6.00
  -3  -9   4   -5.80    7.90
   2   9  -4   14.80    5.90
   2   9  -4   12.60    5.40
   2   9  -4   31.20    7.20
  -2  -9   4   24.00    5.20
  -2  -9   4   15.90   10.70
   1   9  -4    7.00    7.60
   1   9  -4    2.00    6.10
   1   9  -4    7.80    5.40
  -1  -9   4    3.50    6.00
  -1  -9   4    8.80    5.00
   0   9  -4   19.40    7.30
   0   9  -4   34.40    7.00
   0   9  -4   30.90    9.70
   0  -9   4   28.90    6.70
   0  -9   4   36.10    6.40
   6   8  -4    4.60    3.60
  -6  -8   4   13.30    6.10
  -6  -8   4   18.50    4.90
  -6  -8   4   19.50    9.40
   5   8  -4    1.40    3.40
   5   8  -4    3.90    5.90
  -5  -8   4   -1.20    7.20
  -5  -8   4   -3.50    3.70
  -5  -8   4    6.60    6.20
   4   8  -4   44.00    4.90
   4   8  -4   48.30    6.50
   4   8  -4   61.99    7.70
   4   8  -4   39.00    6.50
  -4  -8   4   50.19    7.40
  -4  -8   4   69.39    8.40
   3   8  -4   19.70    4.60
   3   8  -4   31.00    4.50
   3   8  -4   30.40    5.50
   3   8  -4   25.60    5.60
   3   8  -4   19.00    7.30
  -3  -8   4   27.80    4.90
  -3  -8   4   38.30    6.90
  -3  -8   4   30.20    5.20
  -3  -8   4   32.00    6.20
   2   8  -4  229.98   10.80
   2   8  -4  242.28   12.20
   2   8  -4  236.68   12.00
   2   8  -4  231.08   14.40
  -2  -8   4  225.88   13.60
  -2  -8   4  236.38   11.70
  -2  -8   4  231.48   10.80
  -2  -8   4  219.58   11.10
   1   8  -4   55.59    7.30
   1   8  -4   64.69    8.00
   1   8  -4   55.39    6.70
   1   8  -4   46.30    7.90
   1   8  -4   49.70    5.80
  -1  -8   4   59.89    8.50
  -1  -8   4   49.50    6.50
  -1  -8   4   45.70    5.90
   0   8  -4   53.89    7.10
   0   8  -4   63.69    9.10
   0   8  -4   73.59    7.70
   0   8  -4   60.99    6.90
   0   8  -4   61.09    8.60
   0  -8   4   68.29    4.90
   0  -8   4   62.59    9.60
   0  -8   4   69.89    7.00
   0  -8   4   66.49    5.50
   0  -8   4   75.19    8.30
  -1   8  -4  156.68   11.50
  -1   8  -4  143.59   10.90
  -1   8  -4  153.68   11.90
  -1   8  -4  130.49   12.90
  -1   8  -4  137.99   14.70
   1  -8   4  151.88   19.80
   1  -8   4  144.79    9.70
   1  -8   4  143.09   10.20
   1  -8   4  141.39    7.60
  -2   8  -4   48.70    8.00
  -2   8  -4   55.09    8.90
  -2   8  -4   43.50    8.40
  -2   8  -4   61.09   12.10
  -2   8  -4   50.29    9.10
   2  -8   4   54.09    6.70
   2  -8   4   60.39    7.60
   2  -8   4   40.10    8.20
   2  -8   4   68.29    9.00
   7   7  -4    3.60    5.00
   7   7  -4    6.20    5.70
  -7  -7   4   11.40    9.40
  -7  -7   4   -5.80    4.70
  -7  -7   4    3.10    3.60
   6   7  -4    6.40    3.10
   6   7  -4    5.30    4.20
   6   7  -4   12.60    7.00
   6   7  -4    2.50    4.10
  -6  -7   4    8.60    4.70
  -6  -7   4    2.00    5.70
  -6  -7   4    8.40    7.90
  -6  -7   4    4.40    3.70
   5   7  -4   61.39    6.00
   5   7  -4   59.19    6.90
   5   7  -4   40.90    7.10
   5   7  -4   49.90    5.00
  -5  -7   4   55.69    9.00
  -5  -7   4   56.09    6.10
  -5  -7   4   56.59    7.10
  -5  -7   4   55.19    6.00
   4   7  -4    3.80    3.00
   4   7  -4    6.20    3.90
   4   7  -4    2.40    5.30
   4   7  -4    7.80    2.50
   4   7  -4    4.40    3.20
  -4  -7   4    2.70    3.50
  -4  -7   4   10.20    4.80
  -4  -7   4    6.10    5.50
  -4  -7   4    2.20    3.50
   3   7  -4   36.90    4.60
   3   7  -4   29.60    6.10
   3   7  -4   35.30    3.90
  -3  -7   4   37.90    4.40
  -3  -7   4   38.20    6.00
  -3  -7   4   33.50    5.00
  -3  -7   4   39.60    6.10
   2   7  -4    4.30    4.50
   2   7  -4   13.80    4.00
   2   7  -4   11.80    4.20
  -2  -7   4   12.00    3.50
  -2  -7   4   10.90    4.10
  -2  -7   4    9.00    3.90
  -2  -7   4    8.30    5.00
   1   7  -4   68.59    7.30
   1   7  -4   64.49    6.10
   1   7  -4   70.59    6.50
   1   7  -4   65.29    8.30
  -1  -7   4   83.59    9.90
  -1  -7   4   60.49    6.80
  -1  -7   4   76.29    6.20
   0   7  -4  232.48   11.30
   0   7  -4  235.68   13.20
   0   7  -4  225.68   10.80
   0   7  -4  243.28   10.90
   0   7  -4  248.58   13.30
   0  -7   4  224.08   11.10
   0  -7   4  240.68   10.30
   0  -7   4  243.78   14.10
   0  -7   4  249.38    7.90
   0  -7   4  243.48    8.20
  -1   7  -4  386.56   15.80
  -1   7  -4  434.76   16.30
  -1   7  -4  422.16   16.10
  -1   7  -4  408.36   17.30
  -1   7  -4  469.45   19.30
   1  -7   4  392.86   13.60
   1  -7   4  440.06   19.00
   1  -7   4  411.66   15.70
   1  -7   4  442.36   15.40
   1  -7   4  423.66   13.00
  -2   7  -4   83.19   10.10
  -2   7  -4   78.59    8.10
  -2   7  -4   75.19    9.50
  -2   7  -4   58.79    7.30
  -2   7  -4   55.19    6.90
   2  -7   4   52.19    8.90
   2  -7   4   74.09    7.80
   2  -7   4   70.19    6.00
   2  -7   4   69.09    7.70
   2  -7   4   61.99    7.40
  -3   7  -4   12.70    5.80
  -3   7  -4   14.70    6.90
  -3   7  -4    4.50    6.20
  -3   7  -4    3.20    5.60
  -3   7  -4   12.20    9.20
   3  -7   4    3.70    5.00
   3  -7   4   10.60    6.00
   3  -7   4   14.10    4.40
   3  -7   4   10.90    5.70
  -4   7  -4   76.89   10.10
  -4   7  -4   73.09    8.90
  -4   7  -4   73.09    9.50
  -4   7  -4   57.99   13.40
   4  -7   4   52.79    7.30
   4  -7   4   89.99   10.70
   4  -7   4   62.69    7.00
   7   6  -4    5.80    3.30
   7   6  -4    5.60    5.80
   7   6  -4    1.30    4.30
  -7  -6   4    6.70    3.80
  -7  -6   4    0.30    3.60
  -7  -6   4    2.80    7.80
  -7  -6   4    0.20    3.10
   6   6  -4   -1.30    5.00
   6   6  -4    0.40    3.70
   6   6  -4    1.30    2.50
   6   6  -4    0.60    3.20
  -6  -6   4    3.10    6.50
  -6  -6   4    2.60    3.40
   5   6  -4    4.00    4.90
   5   6  -4    7.40    2.80
   5   6  -4    9.60    3.70
   5   6  -4   11.20    2.30
  -5  -6   4    9.50    4.60
  -5  -6   4    9.30    2.80
  -5  -6   4   10.80    5.90
   4   6  -4   93.69    5.30
   4   6  -4   95.59    4.40
   4   6  -4  100.39    9.30
   4   6  -4   91.39    7.30
   4   6  -4   96.39    4.80
  -4  -6   4   99.59    7.40
  -4  -6   4  104.89    9.80
  -4  -6   4   99.79    5.50
   3   6  -4    7.90    2.60
   3   6  -4   12.40    3.70
   3   6  -4    9.10    4.50
   3   6  -4   10.60    2.80
   3   6  -4   11.10    2.20
  -3  -6   4    6.90    3.60
  -3  -6   4    3.30    3.90
  -3  -6   4    8.90    3.30
   2   6  -4  699.13   20.00
   2   6  -4  730.53   24.00
   2   6  -4  752.42   21.00
   2   6  -4  730.23   20.60
  -2  -6   4  757.72   20.30
  -2  -6   4  747.13   21.90
  -2  -6   4  726.73   22.50
  -2  -6   4  744.73   22.60
   1   6  -4   29.30    4.70
   1   6  -4   33.00    3.80
   1   6  -4   31.70    3.90
   1   6  -4   27.70    3.60
   1   6  -4   31.40    5.40
  -1  -6   4   34.20    4.40
  -1  -6   4   28.70    4.60
  -1  -6   4   31.60    5.40
   0   6  -4  135.59    7.50
   0   6  -4  131.69    9.60
   0   6  -4  108.89    7.50
   0   6  -4  145.79    9.60
   0   6  -4  152.58    8.30
   0  -6   4  137.69   10.00
   0  -6   4  128.09    5.10
   0  -6   4  129.49    8.00
   0  -6   4  132.79    5.00
   0  -6   4  131.59    6.70
  -1   6  -4   28.40    4.60
  -1   6  -4   25.10    6.10
  -1   6  -4   26.80    4.50
  -1   6  -4   20.50    4.90
  -1   6  -4   23.30    4.30
   1  -6   4   26.60    3.40
   1  -6   4   31.90    5.00
   1  -6   4   29.10    4.00
   1  -6   4   30.50    3.10
   1  -6   4   39.90    6.60
  -2   6  -4  163.18    9.80
  -2   6  -4  161.48    9.80
  -2   6  -4  158.58   10.60
  -2   6  -4  165.38   10.30
  -2   6  -4  187.48   12.50
   2  -6   4  160.98    7.40
   2  -6   4  156.48   12.20
   2  -6   4  147.59    9.00
   2  -6   4  173.88    8.80
  -3   6  -4  647.04   25.60
  -3   6  -4  636.44   22.10
  -3   6  -4  703.33   22.40
  -3   6  -4  692.93   22.70
  -3   6  -4  550.54   24.50
   3  -6   4  648.84   21.40
   3  -6   4  638.64   20.70
   3  -6   4  629.64   24.30
   3  -6   4  699.03   21.40
  -4   6  -4  133.69   11.10
  -4   6  -4  142.59   11.60
  -4   6  -4  127.59   11.90
  -4   6  -4  126.39   10.90
  -4   6  -4  138.09   16.00
   4  -6   4  152.08   14.30
   4  -6   4  121.69   10.20
   4  -6   4  141.89    9.20
   4  -6   4  131.59   10.10
  -5   6  -4    5.20    5.80
  -5   6  -4   -5.30    6.60
  -5   6  -4   -8.90   11.60
  -5   6  -4    0.10    7.10
   5  -6   4    6.40    5.50
   5  -6   4    2.90    5.50
   5  -6   4    8.80    6.80
   8   5  -4    5.10    6.20
   8   5  -4   -0.50    5.20
   8   5  -4   -1.60    4.00
  -8  -5   4   18.00   10.20
  -8  -5   4    2.10    3.90
   7   5  -4    4.30    5.40
   7   5  -4    5.40    3.90
   7   5  -4    4.00    5.00
   7   5  -4    5.00    3.20
  -7  -5   4    0.90    3.30
  -7  -5   4    5.90    3.70
  -7  -5   4    5.20    7.30
  -7  -5   4    8.90    3.60
   6   5  -4   12.10    6.10
   6   5  -4   12.80    4.30
   6   5  -4   25.00    3.10
   6   5  -4   22.70    3.50
   6   5  -4   24.60    5.40
  -6  -5   4   20.40    3.00
  -6  -5   4   17.80    4.30
  -6  -5   4   18.90    6.90
  -6  -5   4   17.10    4.20
   5   5  -4   14.20    2.20
   5   5  -4   14.50    4.30
   5   5  -4   12.80    4.70
   5   5  -4   12.30    3.50
  -5  -5   4   15.70    3.40
  -5  -5   4   10.80    3.70
  -5  -5   4   17.90    2.70
  -5  -5   4   14.60    5.50
   4   5  -4  117.29    4.70
   4   5  -4  131.59    7.60
   4   5  -4  117.59    7.20
   4   5  -4  115.49    5.10
   4   5  -4  127.69    9.00
  -4  -5   4  131.79    9.20
  -4  -5   4  118.79    5.00
  -4  -5   4  124.29    5.80
  -4  -5   4  126.69    7.70
   3   5  -4   64.89    3.30
   3   5  -4   58.19    5.50
   3   5  -4   62.59    5.00
   3   5  -4   55.79    3.00
   3   5  -4   61.49    3.90
   3   5  -4   59.89    6.90
   3   5  -4   64.29    3.60
  -3  -5   4   59.99    6.50
  -3  -5   4   57.79    5.10
  -3  -5   4   63.39    5.70
  -3  -5   4   54.29    3.70
   2   5  -4  220.68    7.80
   2   5  -4  216.68   10.60
   2   5  -4  222.18    7.90
   2   5  -4  201.08    7.60
   2   5  -4  208.18    7.10
  -2  -5   4  213.48    9.10
  -2  -5   4  211.38    9.50
  -2  -5   4  264.27   10.50
  -2  -5   4  209.38    9.60
   1   5  -4  590.94   16.80
   1   5  -4  589.64   17.40
   1   5  -4  559.04   16.40
   1   5  -4  586.14   16.30
   1   5  -4  571.94   19.20
  -1  -5   4  578.74   18.40
  -1  -5   4  591.84   16.20
  -1  -5   4  589.94   18.60
   0   5  -4  127.39    8.50
   0   5  -4  135.69    7.00
   0   5  -4  132.09    8.50
   0   5  -4  132.99    6.50
   0   5  -4  141.29    6.70
   0  -5   4  141.89    7.70
   0  -5   4  130.99    4.50
   0  -5   4  136.39    4.50
   0  -5   4  127.19    8.50
   0  -5   4  145.69    6.30
  -1   5  -4  334.37   13.30
  -1   5  -4  319.77   11.70
  -1   5  -4  314.07   11.80
  -1   5  -4  325.47   12.10
  -1   5  -4  326.47   14.20
   1  -5   4  341.77   12.60
   1  -5   4  307.47   10.30
   1  -5   4  322.27   11.20
   1  -5   4  330.77   14.00
   1  -5   4  323.77    9.80
  -2   5  -4    4.80    3.40
  -2   5  -4    7.10    5.20
  -2   5  -4    5.00    3.70
  -2   5  -4    1.00    2.90
  -2   5  -4    8.40    3.40
   2  -5   4    3.80    2.90
   2  -5   4    4.60    2.50
   2  -5   4    2.20    2.00
   2  -5   4    1.90    4.30
  -3   5  -4 1203.58   34.10
  -3   5  -4 1204.98   37.60
  -3   5  -4 1178.18   34.40
  -3   5  -4 1213.88   34.00
  -3   5  -4 1204.08   34.10
   3  -5   4 1208.28   31.60
   3  -5   4 1167.08   32.60
   3  -5   4 1230.68   33.10
   3  -5   4 1159.38   36.30
  -4   5  -4   -0.10    4.10
  -4   5  -4   -2.70    4.40
  -4   5  -4   11.10    7.60
  -4   5  -4    1.10    4.10
  -4   5  -4   -6.50    4.10
   4  -5   4   -0.10    4.00
   4  -5   4   -0.50    3.60
   4  -5   4   -0.40    3.80
   4  -5   4   -2.00    6.00
  -5   5  -4   22.10    5.80
  -5   5  -4   30.70    7.10
  -5   5  -4   28.10    5.90
  -5   5  -4   40.10    6.60
  -5   5  -4   23.20    9.20
   5  -5   4   15.70    7.60
   5  -5   4   25.90    6.50
   5  -5   4   28.20    5.50
   5  -5   4   20.90    5.20
  -6   5  -4   23.40   13.10
  -6   5  -4   24.20    7.20
  -6   5  -4    5.90    6.90
  -6   5  -4   12.00    5.50
   6  -5   4    8.90    6.30
   6  -5   4   16.50    7.30
   6  -5   4   10.40    5.60
   8   4  -4  124.49    9.60
   8   4  -4  122.09   10.40
   8   4  -4  119.09    8.60
  -8  -4   4  132.09    8.30
  -8  -4   4  138.69    9.40
   7   4  -4   18.50    4.30
   7   4  -4   13.50    4.60
   7   4  -4   14.50    3.40
   7   4  -4   12.70    5.10
  -7  -4   4   16.00    7.00
  -7  -4   4    7.70    3.10
  -7  -4   4    9.80    3.60
   6   4  -4  105.09    7.40
   6   4  -4  100.99    8.60
   6   4  -4  106.39    6.10
   6   4  -4  101.09    5.20
   6   4  -4  105.69    8.50
  -6  -4   4  114.19   11.30
  -6  -4   4  124.79    7.40
  -6  -4   4  102.99    4.90
  -6  -4   4  102.49    7.70
   5   4  -4   19.00    4.60
   5   4  -4   16.80    3.70
   5   4  -4   18.40    2.40
   5   4  -4   22.20    4.50
  -5  -4   4   10.80    3.40
  -5  -4   4   18.40    4.90
   4   4  -4  213.68    9.20
   4   4  -4  211.78   10.20
   4   4  -4  217.08    9.90
   4   4  -4  207.68    6.40
   4   4  -4  210.38    6.50
  -4  -4   4  233.68   11.30
  -4  -4   4  210.78    9.70
   3   4  -4  102.79    4.00
   3   4  -4  103.29    3.70
   3   4  -4  103.69    6.30
   3   4  -4  106.59    6.50
   3   4  -4  101.59    7.10
  -3  -4   4  103.59    6.60
  -3  -4   4  110.89    7.50
  -3  -4   4  105.59    4.40
  -3  -4   4  100.39    3.80
   2   4  -4   30.00    2.40
   2   4  -4   27.40    3.50
   2   4  -4   26.60    2.00
   2   4  -4   32.40    2.60
   2   4  -4   36.60    4.80
   2   4  -4   31.00    4.00
   2   4  -4   28.30    2.70
  -2  -4   4   29.00    2.30
  -2  -4   4   33.50    4.30
  -2  -4   4   33.40    3.70
  -2  -4   4   25.00    3.70
   1   4  -4   -0.30    1.10
   1   4  -4    0.40    1.60
   1   4  -4    2.70    2.00
   1   4  -4    3.40    1.50
   1   4  -4    5.20    1.60
   1   4  -4   -2.00    2.50
  -1  -4   4    1.90    2.40
  -1  -4   4    3.30    2.30
   0   4  -4 2397.06   60.69
   0   4  -4 2545.35   60.89
   0   4  -4 2424.36   60.39
   0   4  -4 2571.74   62.29
   0  -4   4 2514.65   60.19
   0  -4   4 2503.65   62.29
   0  -4   4 2465.15   62.39
  -1   4  -4  821.42   22.40
  -1   4  -4  792.92   22.70
  -1   4  -4  792.22   22.00
  -1   4  -4  799.92   24.20
   1  -4   4  775.82   26.00
   1  -4   4  777.72   20.70
   1  -4   4  808.62   20.30
   1  -4   4  785.52   23.10
   1  -4   4  808.42   21.70
  -2   4  -4    2.20    2.50
  -2   4  -4    4.50    2.60
  -2   4  -4    4.40    2.60
  -2   4  -4    8.40    4.20
   2  -4   4    1.50    2.10
   2  -4   4    1.10    1.90
   2  -4   4    3.70    3.50
   2  -4   4    3.20    1.60
  -3   4  -4   13.90    3.70
  -3   4  -4    9.70    3.50
  -3   4  -4   11.30    5.40
  -3   4  -4   14.00    3.80
   3  -4   4   17.60    3.30
   3  -4   4   14.20    2.90
   3  -4   4   13.70    3.20
   3  -4   4   12.20    4.30
  -4   4  -4  246.98   15.10
  -4   4  -4  239.98   12.00
  -4   4  -4  255.17   11.60
  -4   4  -4  242.58   12.00
   4  -4   4  242.38   10.90
   4  -4   4  250.07   10.10
   4  -4   4  257.07   11.20
   4  -4   4  250.47   13.90
  -5   4  -4  325.07   14.50
  -5   4  -4  318.27   14.90
  -5   4  -4  316.37   14.70
  -5   4  -4  349.47   18.50
  -5   4  -4  302.17   14.60
   5  -4   4  340.67   13.30
   5  -4   4  340.47   14.00
   5  -4   4  326.77   13.90
   5  -4   4  351.96   17.40
  -6   4  -4   -6.30    5.60
  -6   4  -4   10.60    5.80
  -6   4  -4   -8.50    8.40
  -6   4  -4    9.00    5.40
   6  -4   4   12.60    6.70
   6  -4   4   -1.10    4.30
   6  -4   4   -1.20    4.50
   6  -4   4    9.70    5.80
  -7   4  -4   17.90   11.80
  -7   4  -4   11.50    7.00
  -7   4  -4   16.30    7.40
   7  -4   4   25.80    6.80
   7  -4   4   15.30    7.20
   8   3  -4   30.70    5.60
   8   3  -4   39.00    5.30
   8   3  -4   31.80    4.20
   8   3  -4   33.00    3.70
  -8  -3   4   39.90    7.40
  -8  -3   4   27.90    6.20
  -8  -3   4   26.30    4.70
   7   3  -4  137.69    9.10
   7   3  -4  155.88    8.20
   7   3  -4  142.69    7.30
   7   3  -4  147.69   10.30
  -7  -3   4  147.49    7.20
  -7  -3   4  172.58   11.20
  -7  -3   4  153.88    8.40
   6   3  -4    9.80    2.80
   6   3  -4    5.70    3.90
   6   3  -4    9.60    3.30
   6   3  -4   10.90    2.40
  -6  -3   4   12.20    4.50
  -6  -3   4   12.50    2.40
  -6  -3   4   11.10    3.90
  -6  -3   4    8.80    2.80
   5   3  -4   14.60    3.60
   5   3  -4   15.40    1.90
   5   3  -4   15.20    2.20
   5   3  -4   13.00    3.80
   5   3  -4   10.40    3.20
  -5  -3   4   10.00    1.70
  -5  -3   4   10.10    4.40
  -5  -3   4   14.10    3.80
   4   3  -4  189.38    5.50
   4   3  -4  184.68    5.50
   4   3  -4  180.18    8.70
   4   3  -4  184.88    9.20
   4   3  -4  189.68    8.50
  -4  -3   4  186.08    8.90
  -4  -3   4  200.28   10.20
   3   3  -4   13.40    2.90
   3   3  -4   16.10    3.00
   3   3  -4   13.10    3.10
  -3  -3   4   16.90    3.20
  -3  -3   4   22.30    4.00
   2   3  -4   23.40    3.20
   2   3  -4   35.20    4.40
   2   3  -4   31.10    3.70
   2   3  -4   31.20    1.90
   2   3  -4   30.90    1.50
  -2  -3   4   30.10    2.30
  -2  -3   4   32.50    1.70
  -2  -3   4   35.20    3.90
   1   3  -4   84.59    3.90
   1   3  -4   84.29    5.70
   1   3  -4   80.49    3.20
   1   3  -4   82.19    3.60
   1   3  -4   79.09    4.40
  -1  -3   4   84.29    4.30
  -1  -3   4   78.89    5.40
   0   3  -4   16.20    2.00
   0   3  -4   15.20    2.90
   0   3  -4   20.70    2.50
   0   3  -4   17.50    1.90
   0   3  -4   20.90    3.60
   0   3  -4   17.70    2.30
   0  -3   4   14.80    2.80
   0  -3   4   15.10    2.00
   0  -3   4   22.30    3.60
  -1   3  -4  532.55   16.90
  -1   3  -4  556.24   15.60
  -1   3  -4  549.54   17.30
  -1   3  -4  524.45   15.20
  -1   3  -4  533.35   15.70
   1  -3   4  563.44   15.30
   1  -3   4  530.05   13.80
   1  -3   4  517.25   16.40
   1  -3   4  543.15   14.30
   1  -3   4  517.25   16.70
  -2   3  -4  307.97   11.40
  -2   3  -4  292.77   10.60
  -2   3  -4  303.77   12.60
  -2   3  -4  300.27   10.80
  -2   3  -4  287.77   10.40
   2  -3   4  299.57    9.20
   2  -3   4  292.77   11.90
   2  -3   4  299.27   10.30
   2  -3   4  286.97    9.70
  -3   3  -4   53.39    5.40
  -3   3  -4   49.99    5.20
  -3   3  -4   53.39    5.10
  -3   3  -4   45.90    5.00
  -3   3  -4   47.00    6.50
   3  -3   4   39.60    5.30
   3  -3   4   47.30    4.00
   3  -3   4   51.39    4.70
   3  -3   4   40.20    4.30
  -4   3  -4   48.50    6.00
  -4   3  -4   54.79    6.20
  -4   3  -4   50.69    6.20
  -4   3  -4   54.29    5.50
   4  -3   4   47.70    5.20
   4  -3   4   56.79    7.50
   4  -3   4   47.20    4.90
   4  -3   4   44.20    5.30
  -5   3  -4  546.65   22.00
  -5   3  -4  547.35   19.20
  -5   3  -4  526.65   19.50
  -5   3  -4  538.75   17.40
  -5   3  -4  574.94   19.20
   5  -3   4  564.64   18.80
   5  -3   4  568.54   18.40
   5  -3   4  537.65   18.10
   5  -3   4  551.54   21.10
  -6   3  -4   44.50    7.40
  -6   3  -4   38.10    6.10
  -6   3  -4   28.80    8.10
  -6   3  -4   41.50    4.80
  -6   3  -4   33.10    5.80
   6  -3   4   49.90    6.60
   6  -3   4   36.60    7.50
   6  -3   4   33.60    5.30
   6  -3   4   49.80    6.90
  -7   3  -4   49.90    7.70
  -7   3  -4   48.40    7.80
  -7   3  -4   53.79   10.70
  -7   3  -4   64.39    8.40
   7  -3   4   50.59    9.40
   7  -3   4   55.89    7.50
   7  -3   4   54.89    8.00
   7  -3   4   64.29    7.60
  -8   3  -4   -2.40    8.80
  -8   3  -4   -5.80   11.40
  -8   3  -4   -3.50    6.80
   8  -3   4   14.20    7.90
   8  -3   4   -3.20    5.90
   8   2  -4  101.19    8.50
   8   2  -4  110.69    7.60
   8   2  -4  110.49    7.50
   8   2  -4  122.99    6.20
  -8  -2   4  114.99    8.70
  -8  -2   4   94.49   12.20
  -8  -2   4  127.39   13.00
   7   2  -4   14.60    4.60
   7   2  -4    9.10    2.80
   7   2  -4   10.30    3.60
   7   2  -4   10.00    2.20
   7   2  -4    7.70    3.20
   7   2  -4   11.10    3.40
  -7  -2   4    2.40    4.80
  -7  -2   4   11.40    3.50
   6   2  -4  285.17    9.90
   6   2  -4  302.57    8.20
   6   2  -4  306.37   11.40
   6   2  -4  290.07    8.50
   6   2  -4  307.37   10.30
   6   2  -4  279.77   13.50
  -6  -2   4  283.97    9.80
  -6  -2   4  285.77   10.60
  -6  -2   4  291.77   13.10
   5   2  -4   -0.10    2.80
   5   2  -4    0.60    2.40
   5   2  -4    1.30    2.70
   5   2  -4   -1.60    1.50
  -5  -2   4    2.60    1.90
  -5  -2   4    0.10    1.50
  -5  -2   4    2.20    3.20
  -5  -2   4    0.80    2.50
   4   2  -4  670.83   19.80
   4   2  -4  636.44   22.20
   4   2  -4  674.93   16.90
   4   2  -4  664.83   16.70
   4   2  -4  677.33   20.00
  -4  -2   4  687.13   20.50
  -4  -2   4  688.03   20.50
   3   2  -4  187.68    8.20
   3   2  -4  199.28    8.30
   3   2  -4  196.28    8.80
  -3  -2   4  186.58    8.30
   2   2  -4 2501.95   62.19
   2   2  -4 2458.35   61.99
   2   2  -4 2487.65   62.09
  -2  -2   4 2576.04   62.59
   1   2  -4  228.58    8.30
   1   2  -4  226.38    6.00
   1   2  -4  233.58    6.10
   1   2  -4  212.28    8.90
   1   2  -4  232.58    8.90
   1   2  -4  243.18    6.20
   1   2  -4  240.38    6.20
  -1  -2   4  233.88    8.90
  -1  -2   4  224.28    6.10
  -1  -2   4  233.68    6.70
   0   2  -4  253.27    7.40
   0   2  -4  258.57    8.50
   0   2  -4  250.17    7.80
   0   2  -4  251.57    9.60
   0   2  -4  261.27    8.60
   0   2  -4  262.47    7.60
   0  -2   4  250.17    9.40
   0  -2   4  243.68    7.50
   0  -2   4  250.97    8.30
  -1   2  -4  580.54   16.70
  -1   2  -4  540.45   16.70
  -1   2  -4  534.45   15.40
  -1   2  -4  553.54   15.20
  -1   2  -4  539.05   14.20
  -1   2  -4  537.65   15.00
   1  -2   4  557.44   16.50
   1  -2   4  553.84   16.40
   1  -2   4  560.14   13.90
   1  -2   4  549.65   14.10
   1  -2   4  525.55   16.10
   1  -2   4  560.74   15.20
  -2   2  -4  907.61   25.50
  -2   2  -4  908.41   23.80
  -2   2  -4  899.31   24.70
  -2   2  -4  872.11   25.60
  -2   2  -4  883.71   23.80
   2  -2   4  879.11   23.70
   2  -2   4  878.31   22.60
   2  -2   4  869.81   22.90
   2  -2   4  877.61   25.00
   2  -2   4  878.91   24.30
  -3   2  -4 1465.15   38.90
  -3   2  -4 1400.66   36.40
  -3   2  -4 1356.96   36.60
  -3   2  -4 1393.06   36.60
  -3   2  -4 1362.06   36.90
   3  -2   4 1411.36   35.50
   3  -2   4 1423.16   36.40
   3  -2   4 1369.76   35.80
   3  -2   4 1391.96   38.10
   3  -2   4 1435.76   36.60
  -4   2  -4   51.99    5.40
  -4   2  -4   52.69    6.40
  -4   2  -4   56.29    4.80
  -4   2  -4   43.70    5.40
   4  -2   4   48.70    4.50
   4  -2   4   44.90    4.60
   4  -2   4   52.99    5.20
   4  -2   4   35.30    5.00
   4  -2   4   47.10    4.60
  -5   2  -4  681.63   21.50
  -5   2  -4  658.83   19.60
  -5   2  -4  627.24   30.70
  -5   2  -4  626.04   21.40
   5  -2   4  697.93   21.10
   5  -2   4  675.33   19.40
   5  -2   4  666.33   20.50
   5  -2   4  674.63   20.20
   5  -2   4  672.73   23.10
  -6   2  -4  743.93   23.60
  -6   2  -4  723.83   24.20
  -6   2  -4  743.83   27.30
  -6   2  -4  748.03   24.00
   6  -2   4  766.62   26.10
   6  -2   4  627.54   25.10
   6  -2   4  713.33   22.80
   6  -2   4  752.82   22.70
  -7   2  -4   -0.30    4.50
  -7   2  -4   12.80    6.20
  -7   2  -4   -0.30    5.10
  -7   2  -4   -5.00    7.70
   7  -2   4    0.70    4.10
   7  -2   4   11.50    4.20
   7  -2   4   -2.90    4.70
   7  -2   4    6.10    7.00
  -8   2  -4    8.40    6.70
  -8   2  -4   18.20    7.50
  -8   2  -4   16.30   10.50
  -8   2  -4   11.90    6.00
   8  -2   4    6.00    6.00
   8  -2   4   15.00    6.80
   8  -2   4   15.30    6.60
   8  -2   4   -1.00    6.90
  -9   2  -4   -5.10   15.60
  -9   2  -4    0.60    8.40
   9  -2   4   -5.80    8.40
   9  -2   4   12.10    9.00
   8   1  -4    6.60    2.80
   8   1  -4   14.90    4.80
   8   1  -4    7.10    4.20
   8   1  -4    7.00    4.70
   8   1  -4    8.10    3.20
  -8  -1   4   16.40    7.20
  -8  -1   4    3.40    4.70
  -8  -1   4   -1.50    6.30
   7   1  -4   42.70    5.00
   7   1  -4   42.70    5.10
   7   1  -4   40.90    6.20
   7   1  -4   40.50    4.80
   7   1  -4   39.00    4.50
  -7  -1   4   35.90    6.70
  -7  -1   4   41.40    6.40
  -7  -1   4   49.50    6.40
   6   1  -4    0.60    2.30
   6   1  -4    0.50    3.40
   6   1  -4    2.40    1.60
   6   1  -4   -0.70    2.30
   6   1  -4    2.70    2.60
  -6  -1   4    2.00    2.70
  -6  -1   4   -1.50    3.70
   5   1  -4  327.27   11.20
   5   1  -4  322.57    9.80
   5   1  -4  348.77   10.50
   5   1  -4  316.27   13.70
   5   1  -4  326.77   12.50
   5   1  -4  336.57   10.20
   5   1  -4  347.27    9.10
  -5  -1   4  323.57   12.40
  -5  -1   4  338.67   10.30
  -5  -1   4  281.77   10.80
  -5  -1   4  345.47   13.30
   4   1  -4  126.19    4.60
   4   1  -4  130.59    6.40
   4   1  -4  135.99    3.80
   4   1  -4  135.79    6.90
   4   1  -4  126.09    4.10
   4   1  -4  137.59    5.00
   4   1  -4  121.69   11.50
  -4  -1   4  141.59    7.70
  -4  -1   4  125.19    5.20
  -4  -1   4  130.19    4.80
  -4  -1   4  139.49    7.10
   3   1  -4    1.80    1.80
   3   1  -4    2.90    2.20
   3   1  -4    5.30    2.00
  -3  -1   4    1.50    1.80
  -3  -1   4    7.30    2.70
   2   1  -4  257.27    9.80
   2   1  -4  265.47    9.30
   2   1  -4  258.47    9.50
  -2  -1   4  251.67    9.60
   1   1  -4   78.89    4.60
   1   1  -4   75.49    4.50
   1   1  -4   76.49    4.60
  -1  -1   4   78.09    2.40
  -1  -1   4   81.09    4.80
  -1  -1   4   76.49    4.60
   0   1  -4  281.87    9.90
   0   1  -4  285.47    7.70
   0   1  -4  284.97    8.10
   0   1  -4  288.97    9.10
   0   1  -4  283.97    8.50
   0   1  -4  281.27    7.70
   0  -1   4  292.27    9.80
   0  -1   4  281.37    9.90
   0  -1   4  286.97    8.40
  -1   1  -4  423.06   12.30
  -1   1  -4  440.86   13.50
  -1   1  -4  435.46   13.00
  -1   1  -4  445.06   12.00
  -1   1  -4  413.56   13.10
   1  -1   4  440.46   13.30
   1  -1   4  435.66   11.00
   1  -1   4  419.36   12.20
   1  -1   4  439.16   13.40
   1  -1   4  442.06   11.00
   1  -1   4  424.76   12.70
  -2   1  -4 1488.45   38.40
  -2   1  -4 1496.05   38.10
  -2   1  -4 1534.75   38.00
  -2   1  -4 1468.85   38.80
  -2   1  -4 1583.64   39.60
   2  -1   4 1509.25   37.30
   2  -1   4 1546.95   38.90
   2  -1   4 1530.75   39.10
   2  -1   4 1521.15   38.20
   2  -1   4 1526.75   37.20
  -3   1  -4  163.78    7.50
  -3   1  -4  178.08    8.70
  -3   1  -4  181.48    7.20
  -3   1  -4  177.38    7.40
  -3   1  -4  181.48    7.50
   3  -1   4  170.08    6.70
   3  -1   4  175.28    7.30
   3  -1   4  164.68    7.90
   3  -1   4  178.28    6.80
   3  -1   4  168.58    7.30
  -4   1  -4  572.74   17.10
  -4   1  -4  581.44   19.50
  -4   1  -4  589.64   18.00
  -4   1  -4  573.14   17.60
  -4   1  -4  592.04   15.20
  -4   1  -4  585.24   18.40
   4  -1   4  587.54   17.20
   4  -1   4  573.14   17.10
   4  -1   4  584.34   17.10
   4  -1   4  607.94   18.00
   4  -1   4  548.85   18.80
  -5   1  -4  180.38    6.50
  -5   1  -4  191.48    9.00
  -5   1  -4  166.48    8.90
  -5   1  -4  183.68   11.00
  -5   1  -4  166.38    9.20
   5  -1   4  173.38   10.20
   5  -1   4  175.28    7.70
   5  -1   4  184.08    8.40
   5  -1   4  166.08    8.50
  -6   1  -4  107.69    8.30
  -6   1  -4  108.99    8.60
  -6   1  -4   99.89    5.70
  -6   1  -4  109.69    8.40
  -6   1  -4  103.79   16.00
   6  -1   4  117.79    9.10
   6  -1   4   92.59    8.70
   6  -1   4   96.29    7.40
   6  -1   4   98.49    6.10
   6  -1   4  101.59    8.20
  -7   1  -4 1254.17   33.90
  -7   1  -4 1376.16   37.10
  -7   1  -4 1277.07   37.30
  -7   1  -4 1259.47   40.40
  -7   1  -4 1264.77   38.10
   7  -1   4 1284.17   39.40
   7  -1   4 1316.67   36.40
   7  -1   4 1266.47   33.60
   7  -1   4 1296.67   36.90
   7  -1   4 1254.07   36.30
  -8   1  -4   76.09    9.40
  -8   1  -4   87.19   10.40
  -8   1  -4   62.59   11.20
  -8   1  -4   67.19    8.20
   8  -1   4   59.79    9.20
   8  -1   4   81.89    9.40
   8  -1   4   61.79    7.30
   8  -1   4   89.19   10.20
  -9   1  -4    2.20   12.00
  -9   1  -4   15.60    6.60
   9  -1   4    7.70    7.30
   9  -1   4   -5.30    7.30
   9  -1   4    6.40    8.70
   8   0  -4  135.19   10.10
   8   0  -4  119.89    7.70
   8   0  -4  130.99    9.70
   8   0  -4  146.19   10.40
  -8   0   4  142.59   10.10
  -8   0   4  129.89   13.90
  -8   0   4  123.99   13.60
   7   0  -4    4.20    4.70
   7   0  -4   -2.90    2.50
   7   0  -4    5.50    3.70
   7   0  -4    4.90    3.90
   7   0  -4    5.80    3.80
  -7   0   4   -2.40    3.70
  -7   0   4    1.70    5.30
  -7   0   4    3.10    5.70
   6   0  -4   59.89    5.50
   6   0  -4   65.39    5.80
   6   0  -4   60.09    5.60
   6   0  -4   69.99    4.30
   6   0  -4   71.29    8.20
   6   0  -4   68.99    4.50
  -6   0   4   60.49    7.90
  -6   0   4   74.99    8.30
  -6   0   4   66.19    5.80
   5   0  -4  561.74   15.90
   5   0  -4  525.95   16.00
   5   0  -4  533.85   15.80
   5   0  -4  572.34   19.50
   5   0  -4  553.84   14.80
   5   0  -4  544.45   15.50
  -5   0   4  554.94   17.30
  -5   0   4  540.65   17.60
  -5   0   4  537.75   16.00
  -5   0   4  557.84   18.50
   4   0  -4  500.25   14.00
   4   0  -4  500.55   14.30
   4   0  -4  512.35   14.80
   4   0  -4  514.15   13.30
   4   0  -4  515.55   16.20
   4   0  -4  513.15   14.10
  -4   0   4  518.65   16.90
  -4   0   4  507.05   14.20
  -4   0   4  502.85   16.10
   3   0  -4  189.18    7.30
   3   0  -4  196.88    8.20
   3   0  -4  200.58    6.30
   3   0  -4  200.08    5.60
   3   0  -4  198.88    5.90
   3   0  -4  195.18    6.10
   3   0  -4  199.58    9.00
  -3   0   4  201.88    8.30
  -3   0   4  198.58    8.60
  -3   0   4  185.58    6.60
  -3   0   4  197.38    6.10
   2   0  -4 1786.22   41.80
   2   0  -4 1768.02   41.90
   2   0  -4 1779.22   44.90
   2   0  -4 1751.52   45.40
   2   0  -4 1785.82   41.70
   2   0  -4 1787.62   44.20
  -2   0   4 1844.12   45.30
  -2   0   4 1750.22   44.80
  -2   0   4 1784.32   44.00
  -2   0   4 1711.03   42.10
  -2   0   4 1742.93   41.90
   1   0  -4  157.08    4.70
   1   0  -4  165.48    4.60
   1   0  -4  167.58    6.90
   1   0  -4  154.68    6.50
   1   0  -4  158.58    4.40
   1   0  -4  167.28    4.20
  -1   0   4  167.18    4.80
  -1   0   4  152.98    6.40
  -1   0   4  183.98    7.00
  -1   0   4  150.78    4.70
   0   0  -4 4702.23  107.39
   0   0  -4 4370.16  108.89
   0   0  -4 4551.64  109.19
   0   0  -4 4597.54  106.89
   0   0  -4 4519.95  107.09
   0   0   4 4695.63  108.99
   0   0   4 4561.54  109.09
  -1   0  -4  135.19    5.10
  -1   0  -4  136.99    4.90
  -1   0  -4  138.19    5.90
  -1   0  -4  138.19    5.40
  -1   0  -4  138.89    4.70
   1   0   4  132.09    5.80
   1   0   4  137.79    4.00
   1   0   4  140.99    6.00
   1   0   4  133.69    5.30
   1   0   4  136.29    4.20
   1   0   4  135.89    5.10
  -2   0  -4 1872.41   45.90
  -2   0  -4 1813.22   45.00
  -2   0  -4 1822.72   45.60
  -2   0  -4 1854.51   44.80
  -2   0  -4 1771.92   45.20
   2   0   4 1835.82   44.40
   2   0   4 1832.42   45.70
   2   0   4 1835.82   45.70
   2   0   4 1823.72   45.20
   2   0   4 1811.42   44.10
  -3   0  -4  131.19    6.90
  -3   0  -4  137.89    5.90
  -3   0  -4  126.39    5.90
  -3   0  -4  125.39    6.20
  -3   0  -4  127.39    5.80
   3   0   4  134.09    6.60
   3   0   4  135.49    6.20
   3   0   4  127.39    5.40
   3   0   4  132.49    6.00
   3   0   4  131.09    5.70
  -4   0  -4  754.72   19.00
  -4   0  -4  770.62   22.90
  -4   0  -4  739.73   21.70
  -4   0  -4  781.32   21.10
  -4   0  -4  715.73   21.20
   4   0   4  721.03   20.80
   4   0   4  735.23   20.70
   4   0   4  713.73   22.10
   4   0   4  753.32   21.50
   4   0   4  715.93   20.50
  -5   0  -4  640.74   20.20
  -5   0  -4  657.33   21.80
  -5   0  -4  677.53   19.90
  -5   0  -4  618.74   20.40
  -5   0  -4  677.93   18.00
   5   0   4  676.63   20.40
   5   0   4  669.83   19.10
   5   0   4  631.04   19.60
   5   0   4  670.83   21.50
   5   0   4  674.53   19.50
  -6   0  -4 1914.41   48.90
  -6   0  -4 1838.72   49.30
  -6   0  -4 1853.61   47.00
  -6   0  -4 1940.61   51.99
  -6   0  -4 1890.11   50.29
   6   0   4 1742.93   50.29
   6   0   4 1930.51   48.90
   6   0   4 1848.52   48.40
   6   0   4 1898.91   49.40
   6   0   4 1841.52   47.20
  -7   0  -4  976.30   29.90
  -7   0  -4  980.60   30.90
  -7   0  -4  984.30   32.90
  -7   0  -4 1026.90   29.70
  -7   0  -4  989.60   27.70
   7   0   4 1035.00   30.10
   7   0   4 1002.00   29.20
   7   0   4 1001.90   27.20
   7   0   4  994.20   31.70
   7   0   4  983.60   29.40
  -8   0  -4  233.08   14.20
  -8   0  -4  235.28   17.30
  -8   0  -4  239.38   13.20
  -8   0  -4  252.07   13.40
  -8   0  -4  237.18   11.40
   8   0   4  238.58   12.10
   8   0   4  238.68    9.70
   8   0   4  230.28   14.90
   8   0   4  264.17   13.10
   8   0   4  266.67   13.60
  -9   0  -4   -7.10   10.10
  -9   0  -4    2.00    5.90
  -9   0  -4    4.00    5.10
  -9   0  -4    3.30    6.20
  -9   0  -4   10.80    6.50
   9   0   4    4.10    3.20
   9   0   4    1.40    5.60
   9   0   4   14.40    6.10
   9   0   4    4.90    5.60
   9   0   4    2.70    7.10
 -10   0  -4    2.50    6.90
 -10   0  -4  -16.40   13.50
 -10   0  -4    5.80    8.20
  10   0   4   10.70    9.80
  10   0   4   -2.60    8.50
   8  -1  -4    5.20    4.00
   8  -1  -4    5.50    5.50
   8  -1  -4   -5.20    4.80
   8  -1  -4   -7.50    5.50
  -8   1   4    8.50    5.80
  -8   1   4    3.90    9.50
  -8   1   4    1.30    6.80
   7  -1  -4   18.90    5.80
   7  -1  -4   19.00    5.30
   7  -1  -4    9.60    3.50
   7  -1  -4   17.90    4.10
   7  -1  -4   16.00    4.70
  -7   1   4   16.10    6.40
  -7   1   4   18.00    6.60
  -7   1   4   18.20    4.90
   6  -1  -4    8.00    4.30
   6  -1  -4    4.60    2.50
   6  -1  -4    8.00    3.30
   6  -1  -4    1.50    2.90
   6  -1  -4    0.30    3.30
  -6   1   4    5.10    5.10
  -6   1   4   -3.50    3.10
  -6   1   4    6.70    4.90
   5  -1  -4   44.20    5.10
   5  -1  -4   42.00    5.80
   5  -1  -4   38.20    3.70
   5  -1  -4   44.30    4.50
   5  -1  -4   47.80    4.60
  -5   1   4   41.30    6.30
  -5   1   4   43.10    4.60
  -5   1   4   38.00    5.70
   4  -1  -4  221.98    7.30
   4  -1  -4  216.18    8.80
   4  -1  -4  231.48    7.90
   4  -1  -4  227.58    8.00
   4  -1  -4  217.78   10.60
  -4   1   4  220.38   10.00
  -4   1   4  219.48    8.00
  -4   1   4  218.18    9.00
  -4   1   4  216.58    9.50
   3  -1  -4  477.35   13.60
   3  -1  -4  467.55   14.20
   3  -1  -4  468.45   16.10
   3  -1  -4  504.75   13.30
   3  -1  -4  472.25   15.20
   3  -1  -4  494.15   12.90
   3  -1  -4  481.15   13.20
  -3   1   4  468.75   13.30
  -3   1   4  488.35   15.70
  -3   1   4  477.45   14.50
  -3   1   4  482.95   13.50
  -3   1   4  490.25   14.90
   2  -1  -4 1823.22   43.00
   2  -1  -4 1814.72   44.20
   2  -1  -4 1783.92   43.00
   2  -1  -4 1733.53   45.30
   2  -1  -4 1816.12   43.00
   2  -1  -4 1775.12   44.20
  -2   1   4 1826.42   45.10
  -2   1   4 1892.61   46.00
  -2   1   4 1696.23   44.00
  -2   1   4 1781.62   44.20
  -2   1   4 1794.62   43.10
   1  -1  -4   27.30    1.60
   1  -1  -4   22.30    2.90
   1  -1  -4   22.50    2.50
   1  -1  -4   24.30    1.90
   1  -1  -4   26.20    2.50
  -1   1   4   15.20    2.40
  -1   1   4   21.00    2.70
  -1   1   4   20.70    1.60
  -1   1   4   20.60    2.60
  -1   1   4   20.30    2.40
   0  -1  -4 4490.75  105.39
   0  -1  -4 4543.95  104.39
   0  -1  -4 4510.95  104.29
   0  -1  -4 4287.07  105.69
   0   1   4 4293.17  104.49
   0   1   4 4459.65  103.99
   0   1   4 4367.86  105.39
   0   1   4 4460.85  105.39
  -1  -1  -4  310.07   10.00
  -1  -1  -4  319.17    9.20
  -1  -1  -4  313.67    8.80
  -1  -1  -4  313.07    9.60
  -1  -1  -4  309.97    9.40
   1   1   4  322.27    8.30
   1   1   4  303.47    9.50
   1   1   4  320.17   10.00
   1   1   4  303.87    9.30
   1   1   4  309.07    8.70
   1   1   4  330.57   10.30
  -2  -1  -4  866.11   23.60
  -2  -1  -4  902.71   23.90
  -2  -1  -4  894.41   23.30
  -2  -1  -4  895.31   22.90
   2   1   4  891.31   23.70
   2   1   4  882.61   23.80
   2   1   4  896.31   22.50
   2   1   4  917.71   23.00
   2   1   4  913.81   23.70
  -3  -1  -4 3096.99   75.39
  -3  -1  -4 3265.97   75.19
  -3  -1  -4 3046.10   75.79
  -3  -1  -4 3210.28   76.49
   3   1   4 3104.69   75.09
   3   1   4 3053.09   74.49
   3   1   4 3158.98   75.89
   3   1   4 3053.99   75.99
   3   1   4 3048.20   75.39
  -4  -1  -4 1938.61   49.40
  -4  -1  -4 2021.20   49.10
  -4  -1  -4 1970.40   50.59
  -4  -1  -4 1947.81   49.90
   4   1   4 2077.99   49.30
   4   1   4 2024.70   49.90
   4   1   4 1935.91   48.80
   4   1   4 1893.91   48.50
   4   1   4 1833.12   49.90
  -5  -1  -4  240.38    9.30
  -5  -1  -4  213.18   10.40
  -5  -1  -4  208.88    9.30
  -5  -1  -4  225.38    9.90
  -5  -1  -4  229.68    8.00
   5   1   4  233.28   10.30
   5   1   4  227.68    8.70
   5   1   4  228.48    9.90
   5   1   4  231.18    9.30
   5   1   4  228.98    8.90
  -6  -1  -4  302.97   12.40
  -6  -1  -4  323.87   11.10
  -6  -1  -4  321.37   12.20
  -6  -1  -4  315.67   14.50
  -6  -1  -4  310.87   14.30
   6   1   4  318.37   13.60
   6   1   4  320.27   11.20
   6   1   4  331.97   13.10
   6   1   4  305.67   12.20
   6   1   4  310.67   11.80
  -7  -1  -4   20.30    3.60
  -7  -1  -4   14.70    4.20
  -7  -1  -4   24.20    6.50
  -7  -1  -4   19.80    3.90
  -7  -1  -4   17.30    5.10
   7   1   4   19.50    6.00
   7   1   4   22.60    3.70
   7   1   4   26.50    4.40
   7   1   4   21.30    5.40
   7   1   4   26.60    5.40
  -8  -1  -4  702.63   25.30
  -8  -1  -4  791.42   28.80
  -8  -1  -4  752.52   24.90
  -8  -1  -4  746.23   23.40
  -8  -1  -4  782.02   24.80
   8   1   4  735.73   24.00
   8   1   4  750.12   21.90
   8   1   4  795.32   25.40
   8   1   4  743.33   26.50
   8   1   4  784.52   24.80
  -9  -1  -4  298.27   16.20
  -9  -1  -4  300.47   15.10
  -9  -1  -4  311.57   15.60
  -9  -1  -4  305.77   21.00
  -9  -1  -4  311.97   14.60
   9   1   4  309.07   14.60
   9   1   4  319.07   15.40
   9   1   4  309.17   11.80
   9   1   4  319.97   17.60
 -10  -1  -4   33.40    8.70
 -10  -1  -4    6.40   13.00
 -10  -1  -4   29.90    8.20
  10   1   4   27.90    4.60
  10   1   4   31.50    8.50
  10   1   4   38.20    9.30
  10   1   4   25.20    8.20
   8  -2  -4   40.80    6.00
   8  -2  -4   48.10    7.50
   8  -2  -4   55.79    7.60
  -8   2   4   22.60   11.00
  -8   2   4   47.90   10.00
   7  -2  -4   55.59    7.60
   7  -2  -4   62.19    6.80
   7  -2  -4   73.89    9.10
   7  -2  -4   78.39    6.70
   7  -2  -4   68.59    8.20
  -7   2   4   80.69   10.20
  -7   2   4   63.99    8.40
  -7   2   4   62.19    4.50
  -7   2   4   63.99    4.10
  -7   2   4   59.99    6.80
   6  -2  -4  637.24   20.30
   6  -2  -4  628.04   21.70
   6  -2  -4  642.44   23.00
   6  -2  -4  664.33   20.70
   6  -2  -4  680.03   19.30
  -6   2   4  636.04   20.60
  -6   2   4  655.53   22.70
  -6   2   4  643.94   17.40
  -6   2   4  644.14   16.90
  -6   2   4  650.43   23.30
   5  -2  -4  584.24   18.40
   5  -2  -4  609.54   22.50
   5  -2  -4  598.94   17.60
   5  -2  -4  602.54   21.20
   5  -2  -4  603.44   18.10
  -5   2   4  589.24   16.20
  -5   2   4  618.04   18.60
  -5   2   4  600.44   20.70
  -5   2   4  612.24   15.80
  -5   2   4  610.34   20.50
   4  -2  -4    5.50    1.90
   4  -2  -4    2.80    2.80
   4  -2  -4    6.40    3.00
   4  -2  -4    3.80    2.00
   4  -2  -4    3.80    2.10
  -4   2   4    2.60    3.10
  -4   2   4    2.90    3.20
  -4   2   4    4.50    1.40
   3  -2  -4 1805.92   44.10
   3  -2  -4 1835.22   47.10
   3  -2  -4 1728.33   45.60
   3  -2  -4 1788.62   43.90
   3  -2  -4 1767.22   43.60
  -3   2   4 1772.42   46.30
  -3   2   4 1772.62   42.90
  -3   2   4 1792.32   45.00
  -3   2   4 1747.93   43.40
  -3   2   4 1789.32   45.80
  -3   2   4 1794.12   44.20
   2  -2  -4  526.35   15.70
   2  -2  -4  527.45   14.00
   2  -2  -4  515.45   14.10
   2  -2  -4  517.55   15.70
   2  -2  -4  517.85   14.00
  -2   2   4  508.55   16.00
  -2   2   4  508.25   15.40
  -2   2   4  515.05   13.30
  -2   2   4  511.05   13.30
  -2   2   4  487.85   14.90
  -2   2   4  523.85   14.10
  -2   2   4  520.45   14.40
   1  -2  -4 1656.73   41.70
   1  -2  -4 1633.94   40.20
   1  -2  -4 1654.33   40.00
   1  -2  -4 1699.53   40.40
   1  -2  -4 1626.94   41.90
  -1   2   4 1642.24   42.10
  -1   2   4 1665.43   39.70
  -1   2   4 1691.53   41.30
  -1   2   4 1620.04   39.60
  -1   2   4 1634.24   40.10
  -1   2   4 1670.03   41.00
  -1   2   4 1686.43   41.20
  -1  -2  -4  404.66   12.70
  -1  -2  -4  435.36   12.10
  -1  -2  -4  435.66   11.80
  -1  -2  -4  444.56   12.60
  -1  -2  -4  440.16   12.60
   1   2   4  426.56   12.70
   1   2   4  435.96   11.50
   1   2   4  452.45   12.60
   1   2   4  428.26   12.20
   1   2   4  432.76   12.00
   1   2   4  443.76   12.90
  -2  -2  -4 5631.14  131.19
  -2  -2  -4 5633.84  131.29
  -2  -2  -4 5369.36  130.69
  -2  -2  -4 5615.04  130.29
   2   2   4 5621.74  131.19
   2   2   4 5491.35  130.59
   2   2   4 5608.94  131.29
   2   2   4 5519.05  130.99
   2   2   4 5318.07  129.79
  -3  -2  -4   22.50    2.80
  -3  -2  -4   23.60    2.60
  -3  -2  -4   20.80    3.00
  -3  -2  -4   23.80    2.70
   3   2   4   24.80    2.90
   3   2   4   25.70    3.20
   3   2   4   20.10    2.90
   3   2   4   24.40    2.40
   3   2   4   23.50    2.80
  -4  -2  -4   34.40    4.40
  -4  -2  -4   26.90    3.50
  -4  -2  -4   28.10    3.40
  -4  -2  -4   31.70    3.60
   4   2   4   28.30    3.20
   4   2   4   26.40    3.60
   4   2   4   30.30    3.70
   4   2   4   25.30    2.90
   4   2   4   23.90    3.50
  -5  -2  -4   38.50    4.20
  -5  -2  -4   38.80    5.00
  -5  -2  -4   34.90    4.20
  -5  -2  -4   32.60    4.20
   5   2   4   34.90    3.70
   5   2   4   37.00    3.80
   5   2   4   34.70    4.40
   5   2   4   39.60    4.90
   5   2   4   37.10    4.30
  -6  -2  -4   10.00    4.20
  -6  -2  -4    3.60    2.30
  -6  -2  -4    6.50    3.40
  -6  -2  -4    4.90    2.70
  -6  -2  -4    4.70    3.40
   6   2   4    5.30    3.20
   6   2   4    4.30    3.10
   6   2   4    3.90    2.30
   6   2   4    5.60    2.50
   6   2   4    6.10    3.20
  -7  -2  -4 1008.40   31.50
  -7  -2  -4  966.80   28.80
  -7  -2  -4 1034.10   28.00
  -7  -2  -4 1016.60   30.10
  -7  -2  -4 1030.40   28.70
   7   2   4  967.50   28.20
   7   2   4  982.90   29.60
   7   2   4  916.31   31.70
   7   2   4  989.50   27.10
   7   2   4  964.40   30.10
  -8  -2  -4  904.01   37.20
  -8  -2  -4 1049.49   31.10
  -8  -2  -4 1063.39   30.80
  -8  -2  -4 1047.70   32.60
  -8  -2  -4 1064.49   30.60
   8   2   4 1086.89   30.80
   8   2   4 1058.69   31.40
   8   2   4 1041.80   32.90
   8   2   4 1076.39   31.90
   8   2   4 1065.89   28.80
  -9  -2  -4   13.80    5.90
  -9  -2  -4    4.00    4.40
  -9  -2  -4    1.20    8.50
  -9  -2  -4    1.90    5.50
  -9  -2  -4   -2.90    4.50
   9   2   4   11.80    6.20
   9   2   4    3.90    4.60
   9   2   4    2.60    3.60
   9   2   4   -0.90    4.30
   9   2   4  -15.50    5.70
 -10  -2  -4   10.40   11.70
 -10  -2  -4    6.80    5.70
 -10  -2  -4    5.80    6.90
 -10  -2  -4   15.90    6.80
  10   2   4   11.40    8.40
  10   2   4   -4.90    7.20
  10   2   4   13.10    4.70
  10   2   4   11.60    7.90
   7  -3  -4   41.50    6.50
   7  -3  -4   38.20    7.50
   7  -3  -4   49.30    5.80
   7  -3  -4   55.99    9.20
   7  -3  -4   54.49    6.70
  -7   3   4   53.29    5.60
  -7   3   4   45.20    5.30
  -7   3   4   62.59    9.40
  -7   3   4   44.00    9.80
  -7   3   4   59.49    7.60
   6  -3  -4   85.39    7.50
   6  -3  -4   89.69    9.90
   6  -3  -4   95.39   10.50
   6  -3  -4   98.69    8.50
   6  -3  -4   99.09    6.90
  -6   3   4   89.09    5.50
  -6   3   4   83.99    6.40
  -6   3   4  113.59   12.30
  -6   3   4   87.49    9.70
  -6   3   4  104.69    8.10
   5  -3  -4    1.20    2.50
   5  -3  -4    4.80    3.40
   5  -3  -4    0.10    3.10
   5  -3  -4    3.40    4.10
   5  -3  -4    0.00    4.20
  -5   3   4    2.70    2.00
  -5   3   4    5.00    2.70
  -5   3   4    7.70    5.20
  -5   3   4    1.20    4.10
   4  -3  -4  905.71   24.30
   4  -3  -4  924.91   24.60
   4  -3  -4  902.11   27.40
   4  -3  -4  870.21   25.10
   4  -3  -4  877.71   27.10
  -4   3   4  883.31   24.00
  -4   3   4  898.51   27.40
  -4   3   4  885.91   22.10
  -4   3   4  899.41   25.10
  -4   3   4  895.21   23.30
   3  -3  -4  367.66   11.20
   3  -3  -4  358.86   11.40
   3  -3  -4  345.87   13.50
   3  -3  -4  360.46   11.80
  -3   3   4  360.16   10.40
  -3   3   4  361.96   10.70
  -3   3   4  342.37   10.90
  -3   3   4  353.56   11.70
  -3   3   4  355.16   13.20
  -3   3   4  365.26   13.50
   2  -3  -4  602.24   16.90
   2  -3  -4  620.24   16.80
   2  -3  -4  637.24   17.20
   2  -3  -4  601.64   19.10
  -2   3   4  613.34   17.20
  -2   3   4  622.24   18.70
  -2   3   4  590.34   16.60
  -2   3   4  605.34   17.00
  -2   3   4  631.84   18.90
  -2   3   4  609.24   16.70
  -2   3   4  632.24   16.50
   1  -3  -4 5237.68  125.59
   1  -3  -4 5315.37  125.79
   1  -3  -4 5339.67  125.29
   1  -3  -4 5376.96  127.79
   1  -3  -4 5305.27  126.79
  -1   3   4 5340.27  125.79
  -1   3   4 5396.56  125.89
  -1   3   4 5204.88  125.49
  -1   3   4 5423.06  127.29
  -1   3   4 5250.38  125.19
  -1   3   4 5347.27  127.09
   0  -3  -4 1096.69   29.40
   0  -3  -4 1100.79   28.80
   0  -3  -4 1100.09   27.90
   0  -3  -4 1114.09   28.30
   0  -3  -4 1088.99   27.60
   0   3   4 1125.09   29.00
   0   3   4 1132.69   27.90
   0   3   4 1071.09   27.40
   0   3   4 1101.09   27.90
   0   3   4 1130.89   29.10
   0   3   4 1123.59   28.00
  -1  -3  -4  608.84   17.20
  -1  -3  -4  606.74   16.80
  -1  -3  -4  633.54   16.60
  -1  -3  -4  598.64   17.60
  -1  -3  -4  627.54   17.30
   1   3   4  620.64   16.20
   1   3   4  641.44   16.70
   1   3   4  646.44   17.70
   1   3   4  620.94   17.40
   1   3   4  617.14   16.80
   1   3   4  647.24   17.00
  -2  -3  -4 4465.55  104.69
  -2  -3  -4 4364.26  103.59
  -2  -3  -4 4335.17  104.59
  -2  -3  -4 4305.57  103.79
  -2  -3  -4 4368.96  103.89
   2   3   4 4442.96  104.79
   2   3   4 4436.36  104.09
   2   3   4 4361.26  104.19
   2   3   4 4261.27  103.09
  -3  -3  -4  402.06   13.10
  -3  -3  -4  431.26   12.40
  -3  -3  -4  406.26   12.50
  -3  -3  -4  427.06   13.50
   3   3   4  425.26   12.90
   3   3   4  440.46   13.60
   3   3   4  382.26   11.90
   3   3   4  420.16   13.00
  -4  -3  -4  283.47   10.00
  -4  -3  -4  288.17   10.80
  -4  -3  -4  288.57    9.90
  -4  -3  -4  281.57   10.90
   4   3   4  283.67    9.50
   4   3   4  303.17   10.50
   4   3   4  306.07   11.00
   4   3   4  279.07   10.50
  -5  -3  -4 1949.10   48.40
  -5  -3  -4 1884.91   48.50
  -5  -3  -4 1842.12   49.40
  -5  -3  -4 1927.81   49.99
   5   3   4 1987.20   49.80
   5   3   4 1871.31   47.90
   5   3   4 2002.50   49.10
   5   3   4 1840.62   49.30
  -6  -3  -4   55.29    6.10
  -6  -3  -4   67.09    5.60
  -6  -3  -4   63.19    6.60
  -6  -3  -4   70.29    5.20
  -6  -3  -4   55.09    6.20
   6   3   4   66.69    6.30
   6   3   4   66.39    6.00
   6   3   4   53.89    5.70
  -7  -3  -4  160.18    8.60
  -7  -3  -4  169.18   11.00
  -7  -3  -4  145.29    9.50
  -7  -3  -4  144.29    8.50
  -7  -3  -4  153.98    8.30
   7   3   4  140.89    8.20
   7   3   4  165.88   10.10
   7   3   4  145.89    9.30
  -8  -3  -4  305.77   13.30
  -8  -3  -4  334.37   13.80
  -8  -3  -4  337.07   16.80
   8   3   4  327.27   14.50
   8   3   4  331.57   15.00
   8   3   4  324.57   12.10
   8   3   4  305.97   13.30
   8   3   4  302.87   15.00
  -9  -3  -4    9.10    5.40
  -9  -3  -4    3.50    5.00
  -9  -3  -4   11.60    5.30
  -9  -3  -4    8.70    4.40
  -9  -3  -4    2.80    7.70
   9   3   4   14.30    5.50
   9   3   4   17.60    6.70
   9   3   4    1.40    4.00
   9   3   4   18.50    4.70
   9   3   4    6.00    6.10
 -10  -3  -4   73.89    9.20
 -10  -3  -4   68.19    8.90
 -10  -3  -4   71.79   12.80
 -10  -3  -4   48.90    6.80
  10   3   4   62.99    6.60
  10   3   4   62.59    9.30
  10   3   4   67.19    9.40
  10   3   4   54.39    9.30
  10   3   4   54.49    8.30
   7  -4  -4  110.69   13.20
   7  -4  -4   77.89    8.90
   7  -4  -4  120.89   10.30
   7  -4  -4   67.99   18.10
   7  -4  -4   81.29    9.70
  -7   4   4   86.79   11.20
  -7   4   4   90.09   13.20
  -7   4   4   71.19    7.50
  -7   4   4   96.79    8.00
   6  -4  -4   72.59    9.60
   6  -4  -4   68.29    6.90
   6  -4  -4   68.09    7.60
   6  -4  -4   69.09    8.50
   6  -4  -4   71.09    8.70
  -6   4   4   67.59    9.70
  -6   4   4   67.39    6.20
  -6   4   4   68.49    8.30
  -6   4   4   62.89    8.10
  -6   4   4   66.89    6.80
   5  -4  -4   -0.80    3.50
   5  -4  -4    1.60    4.50
   5  -4  -4    7.00    5.60
   5  -4  -4    0.10    3.10
   5  -4  -4    1.10    3.00
  -5   4   4    1.10    5.80
  -5   4   4   -1.70    4.30
  -5   4   4   -0.40    2.40
  -5   4   4   -1.70    3.50
  -5   4   4    4.40    3.60
   4  -4  -4 3105.99   78.29
   4  -4  -4 3094.69   75.29
   4  -4  -4 3081.89   75.69
   4  -4  -4 3076.69   76.29
   4  -4  -4 2974.40   78.79
  -4   4   4 3069.89   76.29
  -4   4   4 3018.00   72.09
  -4   4   4 3008.90   75.09
  -4   4   4 3035.40   74.39
  -4   4   4 3132.99   79.19
  -4   4   4 3093.79   77.79
   3  -4  -4  619.14   17.70
   3  -4  -4  618.04   17.70
   3  -4  -4  615.84   18.40
   3  -4  -4  596.14   20.70
  -3   4   4  598.44   18.10
  -3   4   4  604.54   17.20
  -3   4   4  607.84   20.70
  -3   4   4  599.24   17.70
  -3   4   4  605.54   16.30
  -3   4   4  590.64   19.50
   2  -4  -4 1201.78   31.60
   2  -4  -4 1190.88   34.30
   2  -4  -4 1270.97   31.20
   2  -4  -4 1177.28   31.30
  -2   4   4 1206.18   32.90
  -2   4   4 1218.28   33.70
  -2   4   4 1179.48   31.10
  -2   4   4 1214.18   30.90
  -2   4   4 1197.78   31.50
  -2   4   4 1218.48   30.60
   1  -4  -4 3993.20   96.19
   1  -4  -4 4018.80   95.69
   1  -4  -4 3937.51   96.09
   1  -4  -4 4100.99   98.99
  -1   4   4 3963.10   95.79
  -1   4   4 4194.78   98.19
  -1   4   4 3981.00   95.29
  -1   4   4 4033.90   97.39
  -1   4   4 4001.80   95.99
  -1   4   4 3946.51   95.69
   0  -4  -4    1.70    1.10
   0  -4  -4    0.90    1.30
   0  -4  -4    0.10    1.20
   0  -4  -4    0.60    2.00
   0  -4  -4    1.50    1.50
   0   4   4    1.30    1.90
   0   4   4    1.90    1.50
   0   4   4    3.60    1.60
   0   4   4    1.30    1.40
   0   4   4    3.40    1.30
   0   4   4   -0.10    1.10
  -1  -4  -4 3909.01   94.79
  -1  -4  -4 4024.70   94.59
  -1  -4  -4 3979.50   94.89
  -1  -4  -4 3932.81   96.39
  -1  -4  -4 3965.80   95.39
   1   4   4 3935.41   94.89
   1   4   4 4035.10   93.89
   1   4   4 3941.91   95.19
   1   4   4 3996.20   94.99
   1   4   4 3981.00   94.29
   1   4   4 4047.70   96.19
  -2  -4  -4 3084.79   75.99
  -2  -4  -4 3025.70   74.49
  -2  -4  -4 3070.59   75.59
  -2  -4  -4 3080.89   74.79
  -2  -4  -4 3063.29   74.29
   2   4   4 3086.49   74.19
   2   4   4 3167.48   73.69
   2   4   4 3113.09   75.09
   2   4   4 3255.77   76.19
   2   4   4 3109.59   75.09
  -3  -4  -4  853.61   22.50
  -3  -4  -4  768.82   24.20
  -3  -4  -4  849.52   23.50
  -3  -4  -4  829.82   23.40
   3   4   4  786.52   21.80
   3   4   4  874.81   23.00
   3   4   4  849.41   23.70
   3   4   4  859.71   23.00
  -4  -4  -4 4002.60   99.99
  -4  -4  -4 4178.28  100.39
  -4  -4  -4 4158.38   98.89
  -4  -4  -4 4058.49   98.89
   4   4   4 4030.00   98.39
   4   4   4 4239.78  100.49
   4   4   4 4058.59   99.59
   4   4   4 4217.28   99.59
  -5  -4  -4   84.09    5.90
  -5  -4  -4   82.59    5.30
  -5  -4  -4   85.69    6.60
  -5  -4  -4   79.19    5.30
   5   4   4   71.69    5.40
   5   4   4   78.69    5.00
   5   4   4   89.69    6.10
   5   4   4   94.49    6.60
  -6  -4  -4    8.20    3.70
  -6  -4  -4   13.60    4.30
  -6  -4  -4   20.90    3.30
  -6  -4  -4   12.70    3.10
   6   4   4   14.90    3.00
   6   4   4   11.10    3.20
   6   4   4   14.00    3.50
   6   4   4   15.10    3.90
  -7  -4  -4   -0.40    3.10
  -7  -4  -4    0.50    3.20
  -7  -4  -4    1.60    4.50
  -7  -4  -4   -0.90    2.80
  -7  -4  -4    6.10    2.70
   7   4   4    0.60    3.70
   7   4   4    0.40    2.70
  -8  -4  -4   28.40    5.70
  -8  -4  -4   43.60    6.00
  -8  -4  -4   48.90    5.70
  -8  -4  -4   40.90    5.40
  -8  -4  -4   44.80    7.60
   8   4   4   40.10    6.20
   8   4   4   43.60    6.90
   8   4   4   32.60    5.90
  -9  -4  -4   32.10    9.60
  -9  -4  -4   32.80    6.40
  -9  -4  -4   33.80    5.30
  -9  -4  -4   22.50    6.10
  -9  -4  -4   23.20    6.10
   9   4   4   31.60    5.10
   9   4   4   32.10    6.60
   9   4   4   32.40    6.60
   9   4   4   26.70    6.30
 -10  -4  -4  133.49   12.60
 -10  -4  -4  118.29    9.60
 -10  -4  -4  149.19   12.60
 -10  -4  -4  137.79   15.30
  10   4   4  125.39    9.90
  10   4   4  140.49   12.00
  10   4   4  111.09   12.90
  10   4   4  127.09   13.20
  10   4   4  144.19   13.00
 -11  -4  -4   -9.60    7.70
 -11  -4  -4   -5.00    6.40
 -11  -4  -4    7.40   12.40
 -11  -4  -4    5.70    7.70
  11   4   4  -15.80    8.10
   6  -5  -4    3.70    5.70
   6  -5  -4    5.60    4.50
   6  -5  -4    8.20    4.90
   6  -5  -4   -7.00    8.20
   6  -5  -4    1.90    5.70
  -6   5   4    3.30    5.10
  -6   5   4    4.00    7.20
  -6   5   4    8.90    4.50
   5  -5  -4    6.80    4.30
   5  -5  -4   11.60    7.10
   5  -5  -4    3.10    3.40
   5  -5  -4   -1.10    3.60
   5  -5  -4    3.20    5.00
  -5   5   4    6.60    4.10
  -5   5   4    6.40    3.40
  -5   5   4    3.30    6.90
  -5   5   4    5.60    4.10
  -5   5   4   -0.70    5.10
   4  -5  -4  139.59   11.60
   4  -5  -4  131.09   10.10
   4  -5  -4  128.89    8.10
   4  -5  -4  137.79    9.10
   4  -5  -4  136.19    7.70
  -4   5   4  121.09    9.60
  -4   5   4  129.09    4.90
  -4   5   4  126.29    8.30
  -4   5   4  137.29    8.60
  -4   5   4  141.49    7.60
  -4   5   4  147.79   11.70
   3  -5  -4 1174.68   31.40
   3  -5  -4 1146.79   32.10
   3  -5  -4 1110.09   35.00
  -3   5   4 1180.88   29.40
  -3   5   4 1165.78   30.90
  -3   5   4 1145.19   31.80
  -3   5   4 1156.68   34.70
  -3   5   4 1175.68   33.30
   2  -5  -4  580.54   16.80
   2  -5  -4  580.64   17.20
   2  -5  -4  534.75   17.90
   2  -5  -4  549.85   20.30
  -2   5   4  558.44   17.00
  -2   5   4  577.64   19.80
  -2   5   4  561.04   18.30
  -2   5   4  581.94   16.80
  -2   5   4  542.25   17.00
   1  -5  -4   10.20    3.80
   1  -5  -4   13.80    2.60
   1  -5  -4    9.90    2.30
   1  -5  -4    9.60    2.40
  -1   5   4   11.60    2.40
  -1   5   4    7.20    2.20
  -1   5   4   16.50    3.70
  -1   5   4   11.70    2.60
  -1   5   4   14.20    3.20
   0  -5  -4    1.20    1.30
   0  -5  -4    4.40    2.90
   0  -5  -4    0.00    1.70
   0  -5  -4    3.00    2.10
   0   5   4    2.30    1.60
   0   5   4    5.70    2.80
   0   5   4    0.80    1.20
   0   5   4    1.10    1.30
   0   5   4    1.60    1.90
   0   5   4    0.80    2.00
  -1  -5  -4 2008.30   51.19
  -1  -5  -4 2011.50   53.29
  -1  -5  -4 2118.89   50.89
  -1  -5  -4 2071.69   51.79
   1   5   4 2102.29   49.10
   1   5   4 2078.09   51.29
   1   5   4 2099.29   52.79
   1   5   4 2030.20   50.69
   1   5   4 2066.59   51.29
   1   5   4 2092.39   51.39
  -2  -5  -4    0.70    2.00
  -2  -5  -4    1.70    1.40
  -2  -5  -4    1.60    1.20
  -2  -5  -4    2.60    1.40
  -2  -5  -4    2.70    2.20
   2   5   4    4.00    1.50
   2   5   4    0.30    1.60
   2   5   4   -2.30    1.80
   2   5   4    1.20    1.10
   2   5   4   -0.50    1.10
   2   5   4    1.00    1.60
  -3  -5  -4  141.39    5.20
  -3  -5  -4  146.89    7.00
  -3  -5  -4  140.69    6.20
  -3  -5  -4  138.09    7.40
  -3  -5  -4  137.59    6.20
   3   5   4  135.09    6.50
   3   5   4  137.99    6.70
   3   5   4  134.69    7.10
   3   5   4  131.49    5.70
  -4  -5  -4  582.54   17.20
  -4  -5  -4  579.44   15.40
  -4  -5  -4  590.64   18.50
  -4  -5  -4  577.84   17.10
  -4  -5  -4  602.64   18.60
   4   5   4  604.84   18.00
   4   5   4  558.54   16.70
   4   5   4  563.84   17.60
   4   5   4  636.14   19.10
  -5  -5  -4   17.40    2.20
  -5  -5  -4   17.40    3.80
  -5  -5  -4   16.70    3.70
  -5  -5  -4   12.50    2.60
   5   5   4   16.00    4.00
   5   5   4   14.30    3.10
   5   5   4   13.80    3.10
   5   5   4   12.80    2.50
  -6  -5  -4   -1.00    3.10
  -6  -5  -4   -1.00    3.80
  -6  -5  -4   -0.70    2.40
  -6  -5  -4   -2.70    2.30
   6   5   4    1.80    3.40
   6   5   4    0.50    2.60
   6   5   4    1.00    3.10
   6   5   4   -2.00    1.80
  -7  -5  -4  286.97   11.60
  -7  -5  -4  302.57   13.30
  -7  -5  -4  309.57   12.10
  -7  -5  -4  283.27   13.60
   7   5   4  300.27   13.30
   7   5   4  319.77   13.40
   7   5   4  301.47   11.80
   7   5   4  296.97   12.90
  -8  -5  -4  106.79    8.80
  -8  -5  -4   78.39    8.80
  -8  -5  -4   97.39    8.60
  -8  -5  -4   97.69    7.50
  -8  -5  -4  111.19   11.40
   8   5   4  108.89    9.60
   8   5   4  102.49    7.80
   8   5   4   93.29    9.00
   8   5   4   87.09    9.00
  -9  -5  -4   58.59    6.60
  -9  -5  -4   56.29    7.40
  -9  -5  -4   37.90    6.30
  -9  -5  -4   51.29    7.00
  -9  -5  -4   58.29   10.10
   9   5   4   45.80    7.20
   9   5   4   47.40    7.40
   9   5   4   45.40    7.10
   9   5   4   57.69    6.80
 -10  -5  -4   -1.40    4.30
 -10  -5  -4    2.70    5.90
 -10  -5  -4   18.70    9.90
 -10  -5  -4    7.20    6.30
  10   5   4   15.40    7.20
  10   5   4    0.20    6.60
  10   5   4    4.50    6.90
  10   5   4    1.60    5.60
 -11  -5  -4   69.59    9.80
 -11  -5  -4   58.59    7.70
 -11  -5  -4   68.79   11.80
 -11  -5  -4   52.19   13.40
  11   5   4   52.69   10.50
   6  -6  -4  167.78   12.10
   6  -6  -4  146.19   14.30
   6  -6  -4  172.08   13.00
   6  -6  -4  184.78   19.50
  -6   6   4  198.48   18.20
  -6   6   4  170.48   12.30
  -6   6   4  193.98   22.60
  -6   6   4  176.88   11.70
   5  -6  -4   66.89    7.30
   5  -6  -4   52.59    8.30
   5  -6  -4   61.99   10.00
   5  -6  -4   77.29    8.20
   5  -6  -4   62.79    8.10
  -5   6   4   43.20    7.00
  -5   6   4   75.89    9.40
  -5   6   4   92.39   11.90
  -5   6   4   61.49    6.80
  -5   6   4   65.29    7.40
   4  -6  -4  169.58   14.30
   4  -6  -4  155.98    9.10
   4  -6  -4  152.68    9.10
   4  -6  -4  149.19   11.60
   4  -6  -4  145.89   10.10
  -4   6   4  143.99    9.80
  -4   6   4  147.59   11.20
  -4   6   4  148.49    9.10
  -4   6   4  158.88   14.20
  -4   6   4  147.19    5.80
  -4   6   4  150.58    9.50
   3  -6  -4   48.00    6.00
   3  -6  -4   49.90    5.80
   3  -6  -4   62.19    6.20
   3  -6  -4   50.69   10.10
  -3   6   4   51.29    6.20
  -3   6   4   52.79    6.40
  -3   6   4   46.70    6.40
  -3   6   4   46.30    5.50
  -3   6   4   50.39    8.10
   2  -6  -4 1817.72   51.89
   2  -6  -4 1877.61   47.80
   2  -6  -4 1828.62   48.30
   2  -6  -4 1916.31   47.40
  -2   6   4 1813.22   47.60
  -2   6   4 1874.01   48.10
  -2   6   4 1898.71   51.09
  -2   6   4 1897.51   47.50
  -2   6   4 1710.43   49.80
   1  -6  -4  149.39    7.90
   1  -6  -4  167.48    7.40
   1  -6  -4  170.78   11.20
   1  -6  -4  160.98    8.00
  -1   6   4  167.08    7.60
  -1   6   4  155.88   10.10
  -1   6   4  163.48    7.70
  -1   6   4  161.18    8.40
  -1   6   4  159.78    7.70
   0  -6  -4  511.15   19.10
   0  -6  -4  553.94   14.20
   0  -6  -4  525.05   16.40
   0  -6  -4  518.85   15.60
   0   6   4  504.95   15.90
   0   6   4  523.95   18.20
   0   6   4  519.15   15.70
   0   6   4  515.45   16.30
  -1  -6  -4 1957.00   49.80
  -1  -6  -4 1936.21   52.59
  -1  -6  -4 1972.60   49.30
  -1  -6  -4 2054.59   50.59
   1   6   4 1950.30   49.60
   1   6   4 1942.71   49.20
   1   6   4 2013.30   49.90
   1   6   4 1970.70   49.50
   1   6   4 2019.10   51.79
  -2  -6  -4  334.57   13.50
  -2  -6  -4  360.36   12.60
  -2  -6  -4  355.86   11.50
  -2  -6  -4  337.17   11.60
   2   6   4  349.17   13.00
   2   6   4  352.96   11.20
   2   6   4  355.56   11.00
   2   6   4  334.27   11.50
  -3  -6  -4  396.26   14.80
  -3  -6  -4  406.06   13.00
  -3  -6  -4  409.56   14.20
  -3  -6  -4  452.75   13.30
   3   6   4  407.96   12.60
   3   6   4  398.26   13.10
   3   6   4  397.86   13.50
   3   6   4  408.76   14.50
   3   6   4  388.06   10.70
  -4  -6  -4  155.08    7.10
  -4  -6  -4  152.18    4.90
  -4  -6  -4  160.98    8.60
  -4  -6  -4  159.28    7.40
  -4  -6  -4  155.88    8.60
   4   6   4  147.39    7.20
   4   6   4  159.58    6.90
   4   6   4  157.88    7.80
   4   6   4  154.18    8.40
  -5  -6  -4  259.47   10.00
  -5  -6  -4  246.38   11.00
  -5  -6  -4  235.88    6.60
  -5  -6  -4  254.67   11.20
   5   6   4  242.98   10.70
   5   6   4  267.37   11.70
   5   6   4  222.28    9.80
   5   6   4  250.37    9.40
  -6  -6  -4  819.92   23.30
  -6  -6  -4  813.22   25.30
  -6  -6  -4  766.72   22.60
  -6  -6  -4  782.22   24.60
   6   6   4  751.82   23.50
   6   6   4  821.82   24.40
   6   6   4  754.22   22.60
   6   6   4  819.52   25.30
  -7  -6  -4   -0.50    3.30
  -7  -6  -4    2.10    2.80
  -7  -6  -4   -1.70    4.40
  -7  -6  -4   -3.10    3.50
  -7  -6  -4   -1.10    3.10
   7   6   4    4.70    4.40
   7   6   4    1.30    3.40
   7   6   4   -2.60    2.50
   7   6   4    1.30    3.70
  -8  -6  -4    8.50    4.60
  -8  -6  -4    8.60    4.70
  -8  -6  -4   10.80    4.50
  -8  -6  -4    3.60    5.40
  -8  -6  -4    9.10    3.70
   8   6   4    3.10    4.30
   8   6   4   16.80    5.00
   8   6   4    9.50    5.30
   8   6   4    9.60    3.60
  -9  -6  -4   47.90    7.00
  -9  -6  -4   61.69    6.70
  -9  -6  -4   44.70    4.40
  -9  -6  -4   63.29    8.20
  -9  -6  -4   40.70    6.50
  -9  -6  -4   43.80   11.00
   9   6   4   61.19    8.20
   9   6   4   52.29    7.70
   9   6   4   35.30    5.00
   9   6   4   55.99    7.90
 -10  -6  -4    0.70    6.10
 -10  -6  -4    0.80    5.00
 -10  -6  -4    4.50    3.60
 -10  -6  -4   15.90   10.00
 -10  -6  -4    0.50    6.60
  10   6   4    7.40    7.20
  10   6   4   -0.60    5.30
  10   6   4   11.10    7.00
  10   6   4   -6.30    6.90
   5  -7  -4    9.00   10.60
   5  -7  -4    5.10    6.30
   5  -7  -4   24.10    7.00
   5  -7  -4   13.90    6.20
  -5   7   4    6.70    6.40
  -5   7   4   17.60    8.90
  -5   7   4    5.50   11.70
  -5   7   4   18.20    6.40
   4  -7  -4   18.30    5.00
   4  -7  -4   12.80    4.70
   4  -7  -4   24.80    6.60
   4  -7  -4   18.40    5.80
   4  -7  -4   18.40    9.40
  -4   7   4   12.10    5.20
  -4   7   4   15.90    9.30
  -4   7   4   11.60    3.00
  -4   7   4    6.50    5.10
  -4   7   4   16.40    6.20
  -4   7   4   10.90    5.80
   3  -7  -4   -2.60    3.80
   3  -7  -4    2.80    3.20
   3  -7  -4    2.80    6.90
   3  -7  -4    0.70    3.70
  -3   7   4   -0.90    4.30
  -3   7   4    6.70    4.30
  -3   7   4    0.90    4.00
  -3   7   4   -6.80    3.80
  -3   7   4    5.20    7.60
   2  -7  -4   93.89    6.80
   2  -7  -4   89.69   10.50
   2  -7  -4   85.49    8.20
   2  -7  -4   78.89    6.80
  -2   7   4   83.89    7.90
  -2   7   4   97.19    7.50
  -2   7   4   86.59    7.40
  -2   7   4   95.79    7.60
  -2   7   4  102.19   11.60
   1  -7  -4  124.19    8.00
   1  -7  -4  111.19    6.80
   1  -7  -4  114.09    7.10
   1  -7  -4  114.39   11.40
  -1   7   4   91.59    8.30
  -1   7   4  103.59    7.80
  -1   7   4  109.39   10.00
  -1   7   4  104.29    7.10
  -1   7   4  106.69    6.80
   0  -7  -4   35.00    4.40
   0  -7  -4   30.40    7.50
   0  -7  -4   33.20    3.10
   0  -7  -4   35.50    4.60
   0   7   4   39.90    6.60
   0   7   4   33.00    4.20
   0   7   4   35.30    4.30
   0   7   4   37.90    5.00
   0   7   4   32.20    4.20
  -1  -7  -4  100.09    6.00
  -1  -7  -4   99.19   13.20
  -1  -7  -4   87.99    6.20
  -1  -7  -4   97.19    6.80
   1   7   4   95.99    6.50
   1   7   4   95.29    6.00
   1   7   4  114.69    8.40
   1   7   4   96.59    5.80
   1   7   4   92.89    6.00
  -2  -7  -4   75.39    5.40
  -2  -7  -4   69.29    5.70
  -2  -7  -4   51.99    5.00
   2   7   4   57.49    5.10
   2   7   4   70.39    6.50
   2   7   4   67.69    5.60
   2   7   4   66.89    4.90
   2   7   4   65.69    4.50
  -3  -7  -4  811.32   24.20
  -3  -7  -4  780.52   26.20
  -3  -7  -4  804.52   23.10
  -3  -7  -4  845.12   23.30
   3   7   4  841.22   23.80
   3   7   4  777.72   22.40
   3   7   4  830.52   23.40
   3   7   4  786.32   21.30
   3   7   4  845.92   25.20
  -4  -7  -4  117.19    6.50
  -4  -7  -4  115.49    7.50
  -4  -7  -4  122.29    8.20
  -4  -7  -4  123.79    7.10
   4   7   4  117.19    4.30
   4   7   4  112.89    6.80
   4   7   4  106.39    6.10
   4   7   4  111.99    7.20
   4   7   4  109.19    8.20
  -5  -7  -4  106.09    6.50
  -5  -7  -4  128.39    7.30
  -5  -7  -4   92.79    7.50
  -5  -7  -4  118.19    8.60
   5   7   4  106.79    8.20
   5   7   4  113.99    6.50
   5   7   4  120.49    8.10
   5   7   4  110.39    7.10
  -6  -7  -4   86.19    7.00
  -6  -7  -4   78.09    6.20
  -6  -7  -4   83.09    7.40
  -6  -7  -4   94.49    8.70
   6   7   4   79.09    6.80
   6   7   4  103.09    7.90
   6   7   4   79.09    6.00
   6   7   4  103.89    8.90
  -7  -7  -4    8.80    4.20
  -7  -7  -4   12.30    5.00
  -7  -7  -4    9.00    4.80
  -7  -7  -4    7.10    4.40
  -7  -7  -4   12.20    3.60
   7   7   4    5.20    3.10
   7   7   4    1.80    4.60
   7   7   4    4.60    3.70
  -8  -7  -4   -1.30    5.80
  -8  -7  -4    5.40    4.60
  -8  -7  -4    3.00    5.00
  -8  -7  -4   -2.90    4.30
  -8  -7  -4    5.60    3.70
   8   7   4    1.50    3.80
   8   7   4   -1.00    4.20
   8   7   4   -1.60    4.80
   8   7   4   -8.70    4.40
  -9  -7  -4   69.89   10.50
  -9  -7  -4   75.09    8.90
  -9  -7  -4   66.59    7.90
  -9  -7  -4   70.09    7.90
  -9  -7  -4   76.79    9.10
   9   7   4   62.09    8.30
   9   7   4   62.39    6.50
   9   7   4   60.29    7.70
   9   7   4   76.59    9.30
 -10  -7  -4   44.10    7.60
 -10  -7  -4   52.89   12.30
 -10  -7  -4   55.39    6.80
 -10  -7  -4   46.30    8.30
  10   7   4   50.59   10.10
  10   7   4   44.40   10.10
  10   7   4   64.59    9.00
   4  -8  -4  112.79   12.70
   4  -8  -4   87.29    9.70
   4  -8  -4   91.09   13.10
   4  -8  -4  110.79   11.20
  -4   8   4   84.89   10.00
  -4   8   4   91.59   10.90
  -4   8   4   90.69   11.50
  -4   8   4  114.19   15.50
   3  -8  -4   23.50    6.30
   3  -8  -4   21.50    8.60
   3  -8  -4   24.20    5.70
   3  -8  -4   20.70    5.00
  -3   8   4   35.80    9.80
  -3   8   4   28.20    6.20
  -3   8   4   28.50    6.50
  -3   8   4   19.90    5.30
  -3   8   4   31.30    6.10
   2  -8  -4    1.30    3.50
   2  -8  -4    1.90    4.10
   2  -8  -4   -0.90    4.20
   2  -8  -4    6.40    8.40
  -2   8   4   -3.70    4.10
  -2   8   4   -1.00    5.10
  -2   8   4    2.40    3.90
  -2   8   4   -1.90    7.30
  -2   8   4   -4.60    3.80
   1  -8  -4  294.27   17.90
   1  -8  -4  312.47   12.20
   1  -8  -4  310.27   13.60
   1  -8  -4  307.57   13.40
  -1   8   4  298.67   17.10
  -1   8   4  298.07   13.30
  -1   8   4  320.77   13.10
  -1   8   4  297.57   12.90
  -1   8   4  306.17   13.10
   0  -8  -4  881.21   25.30
   0  -8  -4  864.51   30.70
   0  -8  -4  876.11   26.40
   0  -8  -4  882.81   26.40
   0   8   4  881.21   26.00
   0   8   4  885.31   26.00
   0   8   4  865.71   25.60
   0   8   4  882.61   25.90
   0   8   4  893.41   28.90
  -1  -8  -4  113.39    7.00
  -1  -8  -4  108.19    8.20
  -1  -8  -4  122.29   11.20
  -1  -8  -4  103.09    7.50
   1   8   4  103.29    6.90
   1   8   4  100.79    6.80
   1   8   4  110.69    7.50
   1   8   4  106.29    6.80
   1   8   4  115.29   10.30
  -2  -8  -4  383.26   17.30
  -2  -8  -4  387.76   13.60
  -2  -8  -4  383.86   13.90
  -2  -8  -4  374.06   14.50
   2   8   4  383.16   13.30
   2   8   4  389.46   13.80
   2   8   4  389.96   12.80
   2   8   4  389.66   14.30
  -3  -8  -4   78.19    6.40
  -3  -8  -4   92.29    9.20
  -3  -8  -4   85.59    7.80
   3   8   4   70.39    6.20
   3   8   4   88.29    5.90
   3   8   4   92.19    5.00
   3   8   4   87.29    8.90
  -4  -8  -4  306.57   12.50
  -4  -8  -4  319.67   13.90
  -4  -8  -4  316.17   11.80
  -4  -8  -4  304.17   14.50
   4   8   4  311.47   11.50
   4   8   4  303.37   11.80
   4   8   4  312.77   14.20
   4   8   4  311.27   12.80
  -5  -8  -4   39.00    6.00
  -5  -8  -4   44.20    5.00
  -5  -8  -4   59.69    7.60
  -5  -8  -4   42.00    6.40
   5   8   4   34.40    5.40
   5   8   4   39.70    4.40
   5   8   4   48.10    5.30
   5   8   4   34.20    5.40
   5   8   4   39.60    6.30
  -6  -8  -4    6.70    4.90
  -6  -8  -4   10.30    5.90
  -6  -8  -4   14.40    3.50
   6   8   4   13.60    3.70
   6   8   4   12.60    4.50
   6   8   4   16.30    4.90
   6   8   4   11.20    3.50
  -7  -8  -4  187.88    9.80
  -7  -8  -4  185.78   11.30
  -7  -8  -4  209.78   10.90
  -7  -8  -4  206.88   11.50
  -7  -8  -4  220.68   13.60
   7   8   4  206.48   11.80
   7   8   4  161.08    9.40
   7   8   4  194.68   10.80
   7   8   4  208.68   12.70
  -8  -8  -4   68.79    7.40
  -8  -8  -4   84.59    9.80
  -8  -8  -4   68.39    8.50
  -8  -8  -4   63.49    7.80
  -8  -8  -4   61.09   10.70
   8   8   4   64.19    7.20
   8   8   4   81.69    8.90
   8   8   4   98.59   10.20
   8   8   4   89.39   10.60
  -9  -8  -4    4.30    5.60
  -9  -8  -4   11.90    8.00
  -9  -8  -4   -8.70    8.40
  -9  -8  -4    7.30    7.30
  -9  -8  -4   -3.10    4.60
   9   8   4    6.40    6.90
   9   8   4    2.20    4.70
   9   8   4    7.60    5.80
   9   8   4   13.10    6.60
 -10  -8  -4   12.40    7.00
 -10  -8  -4   -9.40   11.60
 -10  -8  -4    1.20    8.30
 -10  -8  -4   -5.10    5.00
  10   8   4    4.40    7.10
  10   8   4    7.70    9.00
  10   8   4   -3.10    8.70
   3  -9  -4    3.20    6.30
   3  -9  -4    9.50    7.00
   3  -9  -4    7.30   11.10
  -3   9   4   -8.50    6.70
  -3   9   4    1.90    7.50
  -3   9   4   25.50   12.60
   2  -9  -4   39.20   10.80
   2  -9  -4   55.09    7.40
   2  -9  -4   41.50    6.60
  -2   9   4   57.39    8.10
  -2   9   4   41.30    7.60
  -2   9   4   61.09    8.10
  -2   9   4   67.89   12.20
  -2   9   4   58.69    7.80
   1  -9  -4   26.50    5.60
   1  -9  -4   28.00    5.70
   1  -9  -4   21.60    4.50
   1  -9  -4   46.50   10.00
  -1   9   4   31.90    6.50
  -1   9   4   34.60    9.20
  -1   9   4   24.80    5.30
  -1   9   4   31.90    6.00
  -1   9   4   28.60    5.50
   0  -9  -4  826.02   25.90
   0  -9  -4  826.32   24.40
   0  -9  -4  733.53   25.00
   0  -9  -4  790.32   30.90
   0   9   4  881.01   25.60
   0   9   4  853.81   29.30
   0   9   4  804.62   24.80
   0   9   4  736.73   24.60
   0   9   4  800.72   25.40
  -1  -9  -4    7.60    3.40
  -1  -9  -4    9.70    4.80
  -1  -9  -4    7.30    6.70
  -1  -9  -4    3.30    4.40
   1   9   4    2.90    3.40
   1   9   4   10.60    3.60
   1   9   4   -0.20    3.30
   1   9   4    5.30    6.20
   1   9   4    3.00    3.90
  -2  -9  -4   22.60    4.90
  -2  -9  -4   12.70    6.40
  -2  -9  -4   12.70    4.10
  -2  -9  -4   19.80    4.80
   2   9   4   15.80    3.70
   2   9   4   22.90    5.10
   2   9   4   13.70    3.80
   2   9   4   19.80    5.90
   2   9   4   22.70    3.90
  -3  -9  -4   39.60    7.60
  -3  -9  -4   54.89    7.10
  -3  -9  -4   54.39    6.90
  -3  -9  -4   62.49    6.80
   3   9   4   51.99    5.80
   3   9   4   52.39    7.40
   3   9   4   53.49    4.80
   3   9   4   61.39    6.20
   3   9   4   39.80    5.40
  -4  -9  -4   31.40    4.60
  -4  -9  -4   28.50    6.20
  -4  -9  -4   33.30    4.90
   4   9   4   26.70    5.10
   4   9   4   27.70    6.40
   4   9   4   16.60    3.60
   4   9   4   27.80    4.70
  -5  -9  -4  708.93   21.80
  -5  -9  -4  653.03   24.50
  -5  -9  -4  668.63   24.20
  -5  -9  -4  656.73   20.80
   5   9   4  698.23   22.60
   5   9   4  661.23   20.70
   5   9   4  657.33   21.30
   5   9   4  670.63   23.80
  -6  -9  -4    8.20    4.90
  -6  -9  -4  -12.20    6.70
  -6  -9  -4    1.20    3.40
  -6  -9  -4    8.20    4.20
   6   9   4   -0.90    5.20
   6   9   4    3.70    3.10
   6   9   4   -0.80    4.20
   6   9   4    1.30    4.20
  -7  -9  -4  129.79   11.50
  -7  -9  -4  130.29    8.70
  -7  -9  -4  149.19   10.50
  -7  -9  -4  141.29   10.90
  -7  -9  -4  129.09   15.20
   7   9   4  141.89   11.70
   7   9   4  138.69    9.70
   7   9   4  135.09   12.00
   7   9   4  121.09    8.30
  -8  -9  -4   19.70    7.30
  -8  -9  -4   11.50    4.50
  -8  -9  -4   15.20    5.50
  -8  -9  -4   13.20    7.60
  -8  -9  -4   24.10    7.70
   8   9   4   18.70    6.10
   8   9   4   14.30    7.20
   8   9   4   19.40    7.20
   8   9   4   14.60    4.70
  -9  -9  -4    4.10    6.70
  -9  -9  -4    0.80    4.80
  -9  -9  -4   -1.80    9.50
  -9  -9  -4   12.00    8.30
   9   9   4   18.40    8.10
   9   9   4    3.40    6.50
   9   9   4    8.20    8.30
   2 -10  -4   35.40    9.70
  -2  10   4   45.00    9.00
  -2  10   4   38.30   14.60
  -2  10   4   47.00    9.20
   1 -10  -4   -1.40    5.70
   1 -10  -4   17.00   10.90
   1 -10  -4   -3.00    6.60
  -1  10   4    2.80    6.10
  -1  10   4   19.30    9.20
  -1  10   4   -6.20    8.60
   0 -10  -4    3.20    4.50
   0 -10  -4    9.40    9.40
   0 -10  -4   17.00    6.10
   0 -10  -4    1.70    5.80
   0  10   4   -5.70    8.10
   0  10   4    9.80    5.90
   0  10   4    5.20    5.30
   0  10   4   -2.70    5.50
   0  10   4    3.10    5.10
  -1 -10  -4   55.69    8.10
  -1 -10  -4   33.60    6.20
  -1 -10  -4   37.70    6.00
  -1 -10  -4   24.70    9.70
   1  10   4   40.10    5.80
   1  10   4   33.20    5.50
   1  10   4   37.80    5.70
   1  10   4   40.30    6.50
   1  10   4   38.30    8.50
  -2 -10  -4  279.57   12.90
  -2 -10  -4  264.17   12.90
  -2 -10  -4  251.27   13.70
  -2 -10  -4  256.77   17.40
   2  10   4  280.67   13.90
   2  10   4  297.47   16.70
   2  10   4  248.08   11.80
   2  10   4  270.97   11.40
   2  10   4  276.97   12.90
  -3 -10  -4  319.47   17.70
  -3 -10  -4  306.67   13.60
  -3 -10  -4  310.57   13.90
  -3 -10  -4  321.47   15.80
   3  10   4  321.67   11.40
   3  10   4  335.77   17.10
   3  10   4  313.67   12.90
   3  10   4  303.57   13.20
   3  10   4  306.77   14.50
  -4 -10  -4  410.56   20.30
  -4 -10  -4  433.66   16.40
  -4 -10  -4  463.45   19.10
  -4 -10  -4  455.65   16.90
   4  10   4  440.36   19.60
   4  10   4  437.66   15.70
   4  10   4  411.16   15.90
  -5 -10  -4   89.49    8.50
  -5 -10  -4   89.99   11.00
  -5 -10  -4   90.69   10.10
  -5 -10  -4   84.29    9.50
   5  10   4   88.29   10.10
   5  10   4   95.39    7.60
   5  10   4   87.99    8.30
   5  10   4  115.59   10.30
  -6 -10  -4    5.00    4.20
  -6 -10  -4   10.20    6.90
  -6 -10  -4   19.90    7.20
  -6 -10  -4   -3.90    5.00
   6  10   4    9.90    4.90
   6  10   4    5.00    4.10
   6  10   4   12.80    5.00
   6  10   4    8.20    6.30
  -7 -10  -4   -0.60    5.20
  -7 -10  -4    1.10    4.40
  -7 -10  -4    7.40    8.20
  -7 -10  -4   10.70    9.80
  -7 -10  -4    7.30    5.80
   7  10   4    2.60    5.20
   7  10   4   -1.00    7.00
   7  10   4   -5.70    6.10
   7  10   4    1.00    3.90
  -8 -10  -4   14.80    9.80
  -8 -10  -4   16.80    7.80
  -8 -10  -4    2.40    6.40
  -8 -10  -4    1.80    4.60
   8  10   4   12.20    6.40
   8  10   4   25.30    8.50
   8  10   4   -4.80    8.00
   0 -11  -4  108.19   12.70
   0 -11  -4   97.59   12.20
   0  11   4  106.09   14.80
   0  11   4  102.49   15.50
   0  11   4   97.79   10.40
  -1 -11  -4   31.00    6.80
  -1 -11  -4   33.90    9.20
   1  11   4   50.79   12.60
   1  11   4   52.39    9.10
   1  11   4   47.30    7.30
   1  11   4   40.50    7.20
  -2 -11  -4  307.97   17.60
  -2 -11  -4  315.57   15.10
  -2 -11  -4  278.37   16.80
   2  11   4  317.77   13.30
   2  11   4  312.27   19.80
   2  11   4  272.47   16.40
   2  11   4  286.67   14.30
  -3 -11  -4   87.69    9.00
  -3 -11  -4   84.69   10.50
  -3 -11  -4   87.89   10.50
   3  11   4  102.79   10.50
   3  11   4   85.79    8.20
   3  11   4   77.29    7.20
   3  11   4   80.79   11.80
  -4 -11  -4  156.58   14.50
  -4 -11  -4  156.38   12.20
  -4 -11  -4  152.58   11.70
   4  11   4  180.58   15.70
   4  11   4  156.98   10.90
  -5 -11  -4   98.89    9.90
  -5 -11  -4   93.29   11.10
  -5 -11  -4   76.09    9.50
   5  11   4   75.69    9.50
   5  11   4   77.39    9.60
   5  11   4   91.49   11.40
  -6 -11  -4   -0.60    6.00
  -6 -11  -4    7.80    5.40
  -6 -11  -4   20.70    9.50
   6  11   4  -14.00    7.90
   6  11   4   -7.70    5.20
   6  11   4   -0.60    6.60
  -7 -11  -4   60.29    6.90
  -7 -11  -4   60.99    8.50
  -7 -11  -4   41.60   10.50
  -7 -11  -4   55.19    9.40
   7  11   4   56.49   10.30
   7  11   4   38.40    7.50
   7  11   4   47.50   11.20
   4   8  -5   22.30    4.50
   4   8  -5   25.20    5.40
   4   8  -5   23.20    6.60
  -4  -8   5   21.30    6.60
  -4  -8   5   12.50    4.80
   3   8  -5   57.19    7.70
   3   8  -5   69.39    8.10
   3   8  -5   68.99    8.70
   3   8  -5   65.09    6.30
  -3  -8   5   72.39    8.40
  -3  -8   5   65.49    7.80
   2   8  -5   93.89   10.20
   2   8  -5   79.49    8.50
   2   8  -5   81.59    9.90
  -2  -8   5   66.89    8.30
  -2  -8   5   86.89    8.90
  -2  -8   5   77.09    9.00
   1   8  -5   54.39    9.70
   1   8  -5   58.29    8.00
   1   8  -5   77.79    9.10
   1   8  -5   60.99    7.70
  -1  -8   5   48.90    6.90
  -1  -8   5   55.59    8.60
  -1  -8   5   61.39    7.80
   0   8  -5   -1.40    5.90
   0   8  -5   15.90    5.40
   0   8  -5   11.90    7.10
   0  -8   5    8.90    5.10
   0  -8   5    2.70    5.10
  -1   8  -5   66.59    8.60
  -1   8  -5   56.39    8.20
  -1   8  -5   70.69   11.10
   1  -8   5   53.29    7.20
   1  -8   5   57.49    7.60
   6   7  -5   21.50    5.60
   6   7  -5   14.10    4.60
  -6  -7   5    5.70    4.00
   5   7  -5   61.09    7.00
   5   7  -5   65.49    5.40
   5   7  -5   61.49    6.60
  -5  -7   5   52.99    7.40
   4   7  -5   24.30    8.30
   4   7  -5   23.40    3.40
   4   7  -5   18.70    5.60
   4   7  -5   17.70    3.80
  -4  -7   5   18.50    5.20
  -4  -7   5   18.20    4.60
  -4  -7   5   14.80    3.70
   3   7  -5   -5.90    4.20
   3   7  -5   -1.60    3.00
   3   7  -5    4.80    3.00
   3   7  -5   -2.60    6.00
   3   7  -5    0.70    3.50
   3   7  -5    2.50    3.00
  -3  -7   5   -1.40    3.30
  -3  -7   5   -2.00    3.80
  -3  -7   5    1.20    4.80
   2   7  -5   62.29    7.30
   2   7  -5   69.59    6.60
   2   7  -5   84.99   10.80
   2   7  -5   67.79    6.30
   2   7  -5   75.59    7.30
  -2  -7   5   83.29    6.50
  -2  -7   5   67.69    8.90
  -2  -7   5   74.59    9.30
   1   7  -5  105.19    7.70
   1   7  -5  107.69   11.00
   1   7  -5  104.69    9.60
   1   7  -5  107.69    7.60
   1   7  -5  123.09    9.00
  -1  -7   5   92.99    7.00
  -1  -7   5   93.59   10.40
  -1  -7   5   93.49    8.50
   0   7  -5  497.75   17.80
   0   7  -5  494.55   20.60
   0   7  -5  501.95   17.60
   0   7  -5  501.35   17.50
   0   7  -5  518.65   19.10
   0  -7   5  500.45   18.50
   0  -7   5  490.45   19.70
   0  -7   5  515.75   16.60
  -1   7  -5  164.78   13.60
  -1   7  -5  150.78   12.80
  -1   7  -5  159.38   10.90
  -1   7  -5  138.29   10.60
  -1   7  -5  166.38   11.30
   1  -7   5  153.58    6.40
   1  -7   5  170.68    9.60
   1  -7   5  147.29   13.20
   1  -7   5  147.59    6.80
  -2   7  -5   10.00    5.60
  -2   7  -5    2.90    6.60
  -2   7  -5   -8.50    7.80
  -2   7  -5    1.40    5.40
  -2   7  -5   14.80    6.10
   2  -7   5   11.50    5.10
   2  -7   5    4.80    4.80
   2  -7   5    5.10    3.20
   2  -7   5   -2.30   12.00
  -3   7  -5   20.60    7.60
  -3   7  -5   30.30    8.50
  -3   7  -5   19.10   10.60
  -3   7  -5   35.20    7.90
   3  -7   5   40.40    6.40
   3  -7   5   35.90    5.20
   3  -7   5   28.00    6.10
   3  -7   5   33.80    6.80
   7   6  -5   -6.40    7.60
   6   6  -5   33.90    4.50
   6   6  -5   43.80    8.10
   6   6  -5   24.30    5.50
   6   6  -5   44.30    4.70
  -6  -6   5   25.70    5.00
   5   6  -5   41.90    4.90
   5   6  -5   42.90    6.00
   5   6  -5   42.90    4.10
   5   6  -5   48.50    7.50
  -5  -6   5   34.60    5.50
   4   6  -5    4.60    2.60
   4   6  -5    9.00    4.40
   4   6  -5    0.70    5.20
   4   6  -5    5.90    2.10
  -4  -6   5    7.20    3.90
   3   6  -5   75.19    4.70
   3   6  -5   61.59    7.30
   3   6  -5   90.49    7.90
   3   6  -5   83.79    5.60
  -3  -6   5   79.19    7.50
  -3  -6   5   86.29    6.80
  -3  -6   5   79.89    5.00
   2   6  -5   15.10    3.30
   2   6  -5   15.20    3.00
   2   6  -5   15.10    3.40
   2   6  -5   12.90    5.00
   2   6  -5   17.30    3.20
  -2  -6   5   18.60    4.70
  -2  -6   5   14.70    4.30
   1   6  -5  241.78   12.90
   1   6  -5  262.47   10.20
   1   6  -5  283.47   11.00
   1   6  -5  273.87   10.40
   1   6  -5  262.87   13.40
  -1  -6   5  276.27   12.30
  -1  -6   5  268.97    9.80
  -1  -6   5  278.57   12.80
   0   6  -5   99.69    9.10
   0   6  -5  110.99    7.30
   0   6  -5  105.29    7.20
   0   6  -5  126.09   10.20
   0   6  -5  108.79    8.00
   0  -6   5   95.49    8.10
   0  -6   5  101.89    6.40
   0  -6   5  109.29    9.60
  -1   6  -5   14.40    4.30
  -1   6  -5   13.70    6.20
  -1   6  -5   13.10    5.50
  -1   6  -5   12.80    4.40
  -1   6  -5    9.20    3.80
   1  -6   5   17.40    4.80
   1  -6   5   14.90    4.00
   1  -6   5   10.90    2.40
   1  -6   5   10.50    2.20
   1  -6   5    2.10    5.30
  -2   6  -5   22.20    5.50
  -2   6  -5   16.20    7.10
  -2   6  -5   12.50    5.20
  -2   6  -5   33.30    6.70
  -2   6  -5   12.10    4.80
   2  -6   5   24.80    4.10
   2  -6   5   28.20    4.90
   2  -6   5   23.20    3.40
   2  -6   5   24.50    6.50
   2  -6   5   23.20    5.30
  -3   6  -5    1.10    4.80
  -3   6  -5   -2.70    5.10
  -3   6  -5    4.80    5.60
  -3   6  -5    2.10    5.60
  -3   6  -5   14.40    7.40
   3  -6   5    3.10    4.00
   3  -6   5    7.30    6.90
   3  -6   5    1.80    3.00
   3  -6   5    3.20    4.00
   3  -6   5    2.60    4.50
  -4   6  -5   12.70    6.80
  -4   6  -5   33.10    8.10
  -4   6  -5   32.90    7.30
  -4   6  -5   22.00   10.10
  -4   6  -5   20.00    6.80
   4  -6   5   16.90    6.20
   4  -6   5   21.10    5.10
   4  -6   5   26.20    5.90
  -5   6  -5    5.30    6.50
  -5   6  -5    6.30    7.60
  -5   6  -5   -3.00    7.80
  -5   6  -5    9.20   18.30
   5  -6   5    5.50    5.40
   5  -6   5    0.10    5.90
   5  -6   5    5.40    7.30
   7   5  -5   41.20    7.10
   7   5  -5   45.60    5.30
   7   5  -5   49.80    5.40
   7   5  -5   55.59    6.50
  -7  -5   5   34.50    5.50
   6   5  -5   13.40    5.50
   6   5  -5   17.00    4.90
   6   5  -5   11.40    4.90
   6   5  -5   15.40    3.50
   6   5  -5   19.50    2.90
  -6  -5   5   20.00    4.70
   5   5  -5  168.48    6.00
   5   5  -5  168.68    9.90
   5   5  -5  173.78   10.30
   5   5  -5  161.28   11.70
  -5  -5   5  165.98    9.70
   4   5  -5   81.39    7.60
   4   5  -5   65.39    6.90
   4   5  -5   69.89    8.50
   4   5  -5   81.89    4.20
   4   5  -5   82.29    3.70
  -4  -5   5   75.49    8.60
   3   5  -5   64.09    4.20
   3   5  -5   71.89    6.90
   3   5  -5   61.49    3.50
   3   5  -5   66.39    5.90
   3   5  -5   55.89    6.70
  -3  -5   5   63.59    3.50
  -3  -5   5   57.89    6.60
  -3  -5   5   61.19    4.30
   2   5  -5    2.80    1.80
   2   5  -5    3.40    2.00
   2   5  -5    2.10    4.10
   2   5  -5    4.90    1.80
   2   5  -5    4.40    3.40
   2   5  -5    5.00    2.20
   2   5  -5    2.30    2.30
  -2  -5   5    6.30    2.00
  -2  -5   5    1.60    2.80
  -2  -5   5    0.10    2.90
   1   5  -5   10.40    2.50
   1   5  -5    7.50    3.10
   1   5  -5    6.60    2.60
   1   5  -5   11.00    4.30
   1   5  -5    9.80    2.80
  -1  -5   5    6.40    2.30
  -1  -5   5    6.40    3.60
  -1  -5   5   11.00    4.10
   0   5  -5  352.06   13.60
   0   5  -5  367.56   15.00
   0   5  -5  331.07   11.90
   0   5  -5  340.57   11.80
   0   5  -5  342.07   12.10
   0  -5   5  359.26   11.30
   0  -5   5  349.57   13.70
   0  -5   5  332.97   13.70
  -1   5  -5  122.59    7.80
  -1   5  -5  105.39    7.70
  -1   5  -5  101.29    9.10
  -1   5  -5  109.99    9.80
  -1   5  -5  100.29    7.30
   1  -5   5  110.59    8.00
   1  -5   5  115.99    4.50
   1  -5   5  119.89    9.40
   1  -5   5  118.79    4.70
   1  -5   5  119.79    6.50
  -2   5  -5  164.58   10.90
  -2   5  -5  161.38    9.40
  -2   5  -5  183.38   12.10
  -2   5  -5  174.68    9.70
  -2   5  -5  152.48    9.30
   2  -5   5  185.48    8.70
   2  -5   5  175.48    6.90
   2  -5   5  175.58   11.40
   2  -5   5  169.08    9.60
   2  -5   5  165.88    7.50
  -3   5  -5  114.49   11.80
  -3   5  -5   94.99    9.30
  -3   5  -5  113.89    9.10
  -3   5  -5  125.09    9.90
  -3   5  -5  104.59    9.30
   3  -5   5  115.49    6.60
   3  -5   5  123.79    8.40
   3  -5   5  114.89    7.70
   3  -5   5   84.39   10.30
  -4   5  -5   -0.20    4.70
  -4   5  -5   -7.40    7.50
  -4   5  -5   11.20    5.20
  -4   5  -5   -2.00    4.70
  -4   5  -5   -5.50    4.90
   4  -5   5   -8.70    5.90
   4  -5   5   -2.30    3.60
   4  -5   5   -5.50    3.80
   4  -5   5   -0.40    4.20
  -5   5  -5   24.10    6.80
  -5   5  -5    9.60    9.60
  -5   5  -5    5.10    6.40
  -5   5  -5   13.50    5.90
  -5   5  -5   19.50    7.00
   5  -5   5   -4.10    9.20
   5  -5   5    8.30    4.90
   5  -5   5   18.30    5.10
   5  -5   5    6.60    6.00
  -6   5  -5    6.10    6.30
  -6   5  -5    7.30    7.30
  -6   5  -5    7.80    8.50
  -6   5  -5    8.70   12.80
   6  -5   5   16.10    6.20
   6  -5   5    2.00    6.90
   6  -5   5   20.40    6.90
   8   4  -5   14.90    6.70
   7   4  -5  121.79   12.60
   7   4  -5  138.09    8.30
   7   4  -5  134.09   11.20
   7   4  -5  157.08    7.30
  -7  -4   5  139.99    9.40
   6   4  -5   31.60    3.20
   6   4  -5   27.00    5.20
   6   4  -5   32.60    3.80
   6   4  -5   31.20    6.20
   6   4  -5   29.10    5.30
  -6  -4   5   28.80    5.30
   5   4  -5    4.50    3.70
   5   4  -5    2.10    1.50
   5   4  -5    6.30    4.30
   5   4  -5    3.10    1.90
   5   4  -5    6.00    3.90
  -5  -4   5    0.70    3.10
   4   4  -5  119.39    4.20
   4   4  -5  111.39    4.00
   4   4  -5  118.59    8.00
   4   4  -5  109.39    7.90
   4   4  -5  114.49    8.90
  -4  -4   5  117.59    7.90
   3   4  -5  116.59    8.50
   3   4  -5  100.69   10.90
   3   4  -5  118.89    4.40
   3   4  -5  116.59    9.10
   3   4  -5  117.59    4.00
  -3  -4   5  114.59    7.70
   2   4  -5   18.20    2.30
   2   4  -5   16.90    3.60
   2   4  -5   20.10    2.50
   2   4  -5   15.90    4.20
   2   4  -5   16.00    3.00
  -2  -4   5   16.10    4.00
  -2  -4   5   19.70    2.50
  -2  -4   5   17.00    2.10
   1   4  -5    0.70    1.90
   1   4  -5    0.90    2.50
   1   4  -5   -0.20    1.80
   1   4  -5    0.80    3.20
   1   4  -5    5.70    2.10
   1   4  -5    5.40    1.50
  -1  -4   5    5.20    3.10
  -1  -4   5    6.10    2.50
   0   4  -5  104.89    5.80
   0   4  -5  121.89    8.10
   0   4  -5  121.99    4.70
   0   4  -5  114.59    5.60
   0   4  -5  128.09    7.20
   0   4  -5  118.99    6.10
   0  -4   5  118.69    5.50
   0  -4   5  122.79    7.50
   0  -4   5  109.69    7.10
  -1   4  -5    4.90    2.50
  -1   4  -5    4.60    2.60
  -1   4  -5    3.40    2.40
  -1   4  -5    4.00    3.70
  -1   4  -5    2.80    3.30
   1  -4   5    0.60    3.40
   1  -4   5    6.40    1.40
   1  -4   5    0.80    2.60
   1  -4   5    2.10    1.20
   1  -4   5    3.60    2.10
  -2   4  -5  242.98   10.70
  -2   4  -5  274.47   11.00
  -2   4  -5  267.77   12.10
   2  -4   5  255.47    8.90
   2  -4   5  240.38   12.20
   2  -4   5  257.97    9.90
   2  -4   5  252.97   11.10
   2  -4   5  253.07    8.30
  -3   4  -5  295.07   12.60
  -3   4  -5  297.07   12.70
  -3   4  -5  315.77   15.60
  -3   4  -5  297.87   13.00
  -3   4  -5  313.47   13.00
   3  -4   5  304.57   14.40
   3  -4   5  310.57   10.40
   3  -4   5  304.07   11.20
   3  -4   5  297.37   12.00
  -4   4  -5   32.20    7.40
  -4   4  -5   28.50    5.50
  -4   4  -5   29.80    5.20
  -4   4  -5   42.50    6.20
  -4   4  -5   32.00    5.70
   4  -4   5   45.70    6.10
   4  -4   5   28.50    6.40
   4  -4   5   36.70    5.00
   4  -4   5   35.50    4.60
  -5   4  -5  243.18   11.90
  -5   4  -5  186.88   16.00
  -5   4  -5  230.08   13.60
  -5   4  -5  201.28   12.10
  -5   4  -5  220.18   12.30
   5  -4   5  224.88   12.30
   5  -4   5  230.58   14.20
   5  -4   5  225.08   10.80
   5  -4   5  220.88   11.60
  -6   4  -5  337.57   17.90
  -6   4  -5  367.36   17.40
  -6   4  -5  387.36   15.50
  -6   4  -5  381.76   18.50
  -6   4  -5  374.66   23.10
   6  -4   5  355.46   15.70
   6  -4   5  404.96   15.80
   6  -4   5  359.56   20.00
   6  -4   5  363.96   17.00
  -7   4  -5    4.30   13.10
  -7   4  -5    4.90    8.50
  -7   4  -5   -7.80    7.60
   7  -4   5    1.90    6.50
   7  -4   5    1.50    7.70
   8   3  -5    4.50    5.40
   8   3  -5    2.40    4.50
   8   3  -5   -3.00    4.60
  -8  -3   5    3.90    3.50
   7   3  -5   73.09    6.50
   7   3  -5   72.89    6.00
   7   3  -5   59.29    8.40
   7   3  -5   74.99    8.80
   6   3  -5   41.40    3.90
   6   3  -5   41.90    5.60
   6   3  -5   40.40    3.90
   6   3  -5   34.00    6.00
   6   3  -5   42.30    6.00
  -6  -3   5   33.10    5.70
   5   3  -5  196.88   10.00
   5   3  -5  204.38   10.90
   5   3  -5  187.18    6.50
   5   3  -5  183.98    6.00
   5   3  -5  192.38    9.70
  -5  -3   5  141.79   11.60
   4   3  -5  176.28    9.50
   4   3  -5  208.28   10.20
   4   3  -5  174.28    9.70
  -4  -3   5  196.88    9.60
   3   3  -5  716.63   22.40
   3   3  -5  726.23   22.20
   3   3  -5  739.23   22.10
  -3  -3   5  715.93   22.40
   2   3  -5   30.80    1.70
   2   3  -5   31.30    4.60
   2   3  -5   34.90    4.50
   2   3  -5   35.40    2.20
   2   3  -5   28.80    3.80
  -2  -3   5   19.90    3.50
   1   3  -5  148.49    6.70
   1   3  -5  147.69    8.30
   1   3  -5  146.99    5.10
   1   3  -5  144.09    4.90
   1   3  -5  144.39    5.20
   1   3  -5  140.39    4.90
  -1  -3   5  141.99    5.60
  -1  -3   5  140.09    4.60
  -1  -3   5  141.59    7.70
   0   3  -5   55.39    3.70
   0   3  -5   50.79    4.70
   0   3  -5   53.09    3.50
   0   3  -5   50.09    5.60
   0   3  -5   59.99    3.90
   0   3  -5   55.99    3.80
   0  -3   5   59.19    4.60
   0  -3   5   54.99    3.30
   0  -3   5   53.89    5.20
  -1   3  -5   37.90    2.40
  -1   3  -5   39.00    3.90
  -1   3  -5   34.60    4.00
  -1   3  -5   33.50    3.80
  -1   3  -5   43.30    5.40
  -1   3  -5   35.70    4.70
   1  -3   5   37.30    2.10
   1  -3   5   35.20    4.40
   1  -3   5   40.50    2.00
   1  -3   5   38.50    3.90
   1  -3   5   53.49    5.10
  -2   3  -5   56.49    6.90
  -2   3  -5   57.29    5.10
  -2   3  -5   55.69    6.00
  -2   3  -5   68.69    5.30
  -2   3  -5   58.99    5.30
   2  -3   5   66.69    4.80
   2  -3   5   64.09    3.90
   2  -3   5   80.69    6.90
   2  -3   5   64.09    3.60
  -3   3  -5  141.59    8.40
  -3   3  -5  136.59   10.00
  -3   3  -5  138.99    8.10
  -3   3  -5  132.89    7.80
  -3   3  -5  133.09    7.80
   3  -3   5  140.19    6.20
   3  -3   5  134.59    6.60
   3  -3   5  129.59    8.90
   3  -3   5  142.49    7.60
  -4   3  -5  483.45   16.90
  -4   3  -5  452.95   17.10
  -4   3  -5  468.85   16.70
  -4   3  -5  466.55   19.60
  -4   3  -5  467.75   16.90
   4  -3   5  479.85   18.50
   4  -3   5  489.35   15.20
   4  -3   5  493.55   16.40
   4  -3   5  487.85   15.80
  -5   3  -5   30.10    5.80
  -5   3  -5   28.70    7.20
  -5   3  -5   23.50    4.70
  -5   3  -5   18.90    4.70
  -5   3  -5   15.40    4.80
   5  -3   5   23.50    4.90
   5  -3   5   15.40    5.50
   5  -3   5   12.80    4.50
   5  -3   5   22.30    4.40
  -6   3  -5   20.70    4.80
  -6   3  -5   29.80    7.00
  -6   3  -5   26.00    5.60
  -6   3  -5   31.00    9.20
  -6   3  -5   35.90    6.80
   6  -3   5    8.70    6.30
   6  -3   5   29.70    5.70
   6  -3   5   20.60    5.60
   6  -3   5   23.90    5.40
  -7   3  -5  113.69   14.20
  -7   3  -5  118.89   12.60
  -7   3  -5  112.79   12.70
  -7   3  -5  118.19   14.60
   7  -3   5  129.69   11.10
   7  -3   5  130.19   15.80
   7  -3   5   92.19   11.80
   7  -3   5  116.09   11.00
  -8   3  -5    6.00   13.70
  -8   3  -5   15.80   11.40
  -8   3  -5   11.00    9.90
   8  -3   5   15.60    7.70
   8  -3   5   21.10    8.60
   8   2  -5    0.90    4.60
   8   2  -5   -1.60    4.70
  -8  -2   5    4.30    8.70
  -8  -2   5   -8.50    4.00
   7   2  -5   73.89    8.70
   7   2  -5   91.49    6.80
   7   2  -5   86.79    9.20
   7   2  -5  102.09    7.40
  -7  -2   5  103.69   12.20
  -7  -2   5   87.29    6.00
  -7  -2   5   90.69    6.90
   6   2  -5   24.70    3.30
   6   2  -5   22.40    3.20
   6   2  -5   26.30    4.90
   6   2  -5   25.30    5.10
   6   2  -5   23.50    5.30
  -6  -2   5   21.20    2.40
  -6  -2   5   22.60    5.60
  -6  -2   5   28.00    4.80
   5   2  -5   54.29    3.50
   5   2  -5   61.69    6.50
   5   2  -5   55.09    7.40
   5   2  -5   50.39    6.20
   5   2  -5   50.89    3.80
  -5  -2   5   52.99    6.70
   4   2  -5   88.79    7.50
   4   2  -5   93.89    7.00
   4   2  -5   95.59    6.90
  -4  -2   5   86.39    6.70
   3   2  -5   28.40    4.20
   3   2  -5   30.70    4.30
   3   2  -5   28.10    4.10
  -3  -2   5   35.50    4.90
   2   2  -5  576.14   18.30
   2   2  -5  597.44   18.20
   2   2  -5  600.04   18.50
  -2  -2   5  571.64   18.50
   1   2  -5   85.69    3.10
   1   2  -5   85.19    5.90
   1   2  -5   88.59    5.20
   1   2  -5   84.09    2.90
   1   2  -5   86.49    6.20
  -1  -2   5   86.69    5.90
  -1  -2   5   82.29    2.80
  -1  -2   5   83.79    3.30
   0   2  -5  162.78    5.60
   0   2  -5  153.88    5.70
   0   2  -5  165.58    6.50
   0   2  -5  164.88    8.00
   0   2  -5  156.98    5.50
   0   2  -5  155.08    6.40
   0  -2   5  159.88    7.80
   0  -2   5  156.58    6.20
  -1   2  -5    7.00    1.90
  -1   2  -5    7.90    2.80
  -1   2  -5    4.40    1.60
  -1   2  -5    3.10    1.50
  -1   2  -5    3.80    2.40
  -1   2  -5    5.90    1.90
   1  -2   5    8.40    2.60
   1  -2   5    2.90    2.60
   1  -2   5    6.00    2.20
   1  -2   5    5.20    1.80
  -2   2  -5   -0.40    1.80
  -2   2  -5    0.10    1.90
  -2   2  -5   -1.40    2.60
  -2   2  -5    3.80    2.80
  -2   2  -5    0.30    1.70
  -2   2  -5    0.20    0.90
   2  -2   5   -0.40    1.00
   2  -2   5   -0.50    2.00
   2  -2   5   -0.40    1.80
   2  -2   5    1.60    2.40
   2  -2   5   -0.30    1.30
  -3   2  -5  102.99    6.50
  -3   2  -5  101.59    6.30
  -3   2  -5  103.09    6.80
  -3   2  -5  102.79    6.30
  -3   2  -5  113.19    8.40
   3  -2   5  104.99    5.10
   3  -2   5  110.59    6.20
   3  -2   5   85.39    6.80
   3  -2   5  100.39    6.50
   3  -2   5   99.39    5.30
  -4   2  -5  520.85   17.20
  -4   2  -5  511.35   17.60
  -4   2  -5  519.25   17.40
  -4   2  -5  533.45   19.70
  -4   2  -5  526.75   17.00
   4  -2   5  530.55   17.10
   4  -2   5  514.65   15.80
   4  -2   5  513.05   16.70
   4  -2   5  519.15   16.20
   4  -2   5  508.35   18.50
  -5   2  -5 1197.78   35.60
  -5   2  -5 1229.08   35.30
  -5   2  -5 1258.97   34.20
  -5   2  -5 1243.78   38.10
  -5   2  -5 1236.78   34.90
   5  -2   5 1246.18   34.00
   5  -2   5 1291.47   35.10
   5  -2   5 1269.47   33.80
   5  -2   5 1247.58   33.70
   5  -2   5 1222.88   37.00
  -6   2  -5  411.76   16.40
  -6   2  -5  433.26   17.50
  -6   2  -5  404.26   16.90
  -6   2  -5  409.86   20.00
   6  -2   5  420.76   15.70
   6  -2   5  394.16   17.80
   6  -2   5  405.06   15.30
   6  -2   5  395.36   16.90
  -7   2  -5  400.06   17.30
  -7   2  -5  374.86   21.40
  -7   2  -5  381.56   17.60
  -7   2  -5  363.06   17.00
   7  -2   5  393.16   15.80
   7  -2   5  395.66   17.30
   7  -2   5  363.16   18.10
   7  -2   5  397.16   16.10
  -8   2  -5   50.79    9.20
  -8   2  -5   63.39   13.70
  -8   2  -5   73.09    9.80
   8  -2   5   61.09    9.70
   8  -2   5   55.49    7.90
   8  -2   5   64.89   11.50
   8   1  -5   19.70    5.40
   8   1  -5   15.70    3.20
   8   1  -5   12.80    5.20
  -8  -1   5   14.50    4.90
  -8  -1   5   20.60    9.60
   7   1  -5    8.70    3.80
   7   1  -5   10.00    5.20
   7   1  -5   13.00    2.40
   7   1  -5   15.60    4.00
   7   1  -5   10.50    3.20
   7   1  -5   14.30    3.80
  -7  -1   5    2.50    6.30
  -7  -1   5    0.50    4.70
  -7  -1   5   11.50    4.10
   6   1  -5   52.69    6.00
   6   1  -5   53.89    7.20
   6   1  -5   55.39    5.20
   6   1  -5   54.29    3.50
   6   1  -5   61.49    5.10
   6   1  -5   58.19    3.00
  -6  -1   5   52.59    6.00
  -6  -1   5   52.89    5.70
  -6  -1   5   53.29    4.90
  -6  -1   5   71.69    9.60
   5   1  -5  810.12   25.80
   5   1  -5  795.52   22.80
   5   1  -5  787.62   20.80
   5   1  -5  772.92   20.70
   5   1  -5  833.42   24.20
  -5  -1   5  753.42   20.50
  -5  -1   5  768.82   20.20
  -5  -1   5  788.82   24.20
   4   1  -5   87.79    7.50
   4   1  -5   94.49    3.70
   4   1  -5   92.99    6.30
   4   1  -5   95.09    6.80
   4   1  -5   97.99    4.10
  -4  -1   5   96.09    7.50
  -4  -1   5   93.79    6.60
   3   1  -5  233.28    9.50
   3   1  -5  255.97   10.20
   3   1  -5  222.68   10.40
  -3  -1   5  223.88    9.70
   2   1  -5  274.37   10.30
   2   1  -5  262.17   10.60
   2   1  -5  262.57   10.40
  -2  -1   5  266.77   10.40
   1   1  -5 2140.49   52.89
   1   1  -5 2085.89   49.20
   1   1  -5 1991.30   53.09
   1   1  -5 2166.38   53.19
  -1  -1   5 2150.18   49.30
  -1  -1   5 2112.79   53.29
  -1  -1   5 1977.50   49.20
  -1  -1   5 2175.08   52.89
   0   1  -5    2.40    1.00
   0   1  -5   -1.70    1.90
   0   1  -5    1.60    1.60
   0   1  -5    3.50    1.20
   0   1  -5    0.10    1.40
   0   1  -5    0.90    1.00
   0  -1   5    2.10    2.10
   0  -1   5   -0.20    1.20
   0  -1   5   -0.20    2.00
  -1   1  -5 1325.37   34.90
  -1   1  -5 1269.67   33.00
  -1   1  -5 1379.76   33.90
  -1   1  -5 1385.56   32.80
  -1   1  -5 1265.57   32.70
   1  -1   5 1317.07   34.70
   1  -1   5 1272.87   34.70
   1  -1   5 1307.37   32.90
   1  -1   5 1286.77   33.50
  -2   1  -5 2852.71   69.29
  -2   1  -5 2787.32   67.69
  -2   1  -5 2866.41   69.39
  -2   1  -5 2780.92   68.29
  -2   1  -5 2757.72   67.89
   2  -1   5 2718.63   66.49
   2  -1   5 2812.72   69.09
   2  -1   5 2817.72   67.99
   2  -1   5 2763.52   66.39
   2  -1   5 2758.82   68.79
  -3   1  -5  194.08    9.60
  -3   1  -5  202.58    8.20
  -3   1  -5  203.58    8.80
  -3   1  -5  201.68    8.50
  -3   1  -5  210.18    8.90
   3  -1   5  210.68    7.50
   3  -1   5  205.98    7.50
   3  -1   5  210.88    8.90
   3  -1   5  197.98    9.40
   3  -1   5  204.68    8.40
  -4   1  -5    3.90    3.60
  -4   1  -5    3.50    2.60
  -4   1  -5   -2.10    2.20
  -4   1  -5    1.60    1.20
  -4   1  -5   -2.90    2.10
  -4   1  -5    2.00    2.40
   4  -1   5    0.00    2.20
   4  -1   5    0.50    2.60
   4  -1   5    2.90    2.40
   4  -1   5    5.00    2.30
   4  -1   5   -0.30    2.50
  -5   1  -5   27.50    5.90
  -5   1  -5   35.90    5.40
  -5   1  -5   29.90    4.80
  -5   1  -5   33.60    4.60
  -5   1  -5   28.20    3.10
   5  -1   5   27.20    3.90
   5  -1   5   39.10    4.70
   5  -1   5   42.40    5.10
   5  -1   5   22.70    4.90
  -6   1  -5  255.77   12.30
  -6   1  -5  253.17    8.80
  -6   1  -5  258.67   15.40
  -6   1  -5  252.67   12.50
  -6   1  -5  249.68   12.90
   6  -1   5  257.37   11.90
   6  -1   5  243.48   10.50
   6  -1   5  256.17   11.40
   6  -1   5  252.57   11.40
   6  -1   5  244.58   13.70
  -7   1  -5  363.96   17.30
  -7   1  -5  401.16   20.10
  -7   1  -5  382.66   12.70
  -7   1  -5  417.36   17.00
  -7   1  -5  392.96   16.50
   7  -1   5  379.36   15.40
   7  -1   5  388.96   16.20
   7  -1   5  409.36   15.70
   7  -1   5  363.96   18.10
   7  -1   5  383.36   13.90
  -8   1  -5   18.70    4.40
  -8   1  -5   20.90    6.80
  -8   1  -5   11.90    6.60
  -8   1  -5    3.10    6.00
  -8   1  -5   20.00    9.90
   8  -1   5   12.70    7.20
   8  -1   5   19.70    5.90
   8  -1   5   17.00    6.20
   8  -1   5   17.50    4.20
   8  -1   5   16.00    6.70
  -9   1  -5   17.40    8.60
  -9   1  -5    6.50   11.70
   9  -1   5   43.40    9.20
   9  -1   5   48.30    8.90
   8   0  -5  200.68    9.00
   8   0  -5  191.18   12.30
   8   0  -5  192.28   12.10
  -8   0   5  243.98   18.00
  -8   0   5  186.38   11.60
   7   0  -5   59.19    5.10
   7   0  -5   55.79    6.40
   7   0  -5   61.39    6.80
   7   0  -5   52.59    8.40
   7   0  -5   67.49    7.10
  -7   0   5   47.60    6.90
  -7   0   5   61.29    7.40
  -7   0   5   60.49    9.10
   6   0  -5  179.58    8.40
   6   0  -5  183.18    8.10
   6   0  -5  181.28    6.60
   6   0  -5  172.28    7.70
   6   0  -5  169.78   11.40
  -6   0   5  158.88    9.80
  -6   0   5  180.28    8.40
  -6   0   5  187.98   12.50
   5   0  -5    1.60    2.30
   5   0  -5    4.80    2.20
   5   0  -5    1.80    2.20
   5   0  -5   -1.40    2.20
   5   0  -5   -0.40    3.20
   5   0  -5    2.00    3.90
   5   0  -5    1.90    1.60
  -5   0   5    2.90    4.20
  -5   0   5    1.10    2.20
  -5   0   5   -0.20    2.40
   4   0  -5  242.88   10.60
   4   0  -5  246.28    7.90
   4   0  -5  254.27    7.00
   4   0  -5  244.48   11.80
   4   0  -5  246.98    9.40
   4   0  -5  234.88    7.50
   4   0  -5  252.27    7.90
  -4   0   5  239.18    7.80
  -4   0   5  238.98   10.30
  -4   0   5  257.17   11.60
  -4   0   5  237.48    8.30
   3   0  -5  243.88    7.00
   3   0  -5  226.38   12.20
   3   0  -5  253.27   10.30
   3   0  -5  257.77    9.40
   3   0  -5  252.47    7.20
  -3   0   5  236.68    7.20
  -3   0   5  243.08   10.60
  -3   0   5  242.98    7.00
  -3   0   5  244.48   10.00
   2   0  -5   11.50    3.00
   2   0  -5   12.60    2.70
   2   0  -5    9.10    2.40
   2   0  -5   13.10    1.40
   2   0  -5   12.20    1.30
  -2   0   5    8.80    1.20
  -2   0   5   12.30    1.20
  -2   0   5   12.30    2.60
  -2   0   5    8.90    2.70
  -2   0   5   13.40    3.00
   1   0  -5 1060.29   24.90
   1   0  -5 1012.10   28.50
   1   0  -5 1078.29   25.10
   1   0  -5 1053.19   28.20
   1   0  -5 1065.79   25.20
   1   0  -5 1037.10   25.20
  -1   0   5 1005.00   25.40
  -1   0   5 1055.29   28.00
  -1   0   5 1043.80   25.10
  -1   0   5 1038.70   28.50
   0   0  -5 1191.18   29.70
   0   0  -5 1188.28   32.10
   0   0  -5 1198.48   32.40
   0   0  -5 1242.68   29.40
   0   0  -5 1203.78   29.80
   0   0  -5 1250.07   30.20
   0   0   5 1230.58   32.30
   0   0   5 1221.58   29.90
   0   0   5 1225.58   32.10
  -1   0  -5  271.97    8.70
  -1   0  -5  273.97    9.10
  -1   0  -5  259.97    9.80
  -1   0  -5  263.27    9.30
  -1   0  -5  269.47    8.20
   1   0   5  282.67   10.20
   1   0   5  262.27    8.80
   1   0   5  269.97    8.70
   1   0   5  274.27    6.80
   1   0   5  278.47   10.00
   1   0   5  275.37    6.90
  -2   0  -5   44.20    4.00
  -2   0  -5   45.30    3.40
  -2   0  -5   48.40    3.60
  -2   0  -5   42.70    3.70
  -2   0  -5   46.00    4.10
   2   0   5   46.10    4.30
   2   0   5   46.30    3.90
   2   0   5   44.90    3.70
   2   0   5   45.10    2.90
   2   0   5   44.50    2.60
  -3   0  -5    3.80    1.90
  -3   0  -5    5.40    2.30
  -3   0  -5    3.00    1.80
  -3   0  -5    7.10    2.80
  -3   0  -5    3.10    1.80
   3   0   5    3.30    2.20
   3   0   5    5.30    1.60
   3   0   5    0.30    1.90
   3   0   5   -1.80    2.00
   3   0   5    2.80    1.80
  -4   0  -5  732.33   22.60
  -4   0  -5  718.43   20.70
  -4   0  -5  690.33   21.40
  -4   0  -5  702.53   21.00
   4   0   5  719.63   21.30
   4   0   5  683.03   19.90
   4   0   5  739.63   20.30
   4   0   5  734.93   21.00
   4   0   5  713.03   22.00
  -5   0  -5  127.29    8.90
  -5   0  -5  124.79    7.80
  -5   0  -5  130.49    5.40
  -5   0  -5  124.39    7.60
  -5   0  -5  128.99    7.30
   5   0   5  127.19    7.60
   5   0   5  113.89    7.90
   5   0   5  115.69    7.00
   5   0   5  116.49    8.40
   5   0   5  123.89    6.90
  -6   0  -5   25.00    4.70
  -6   0  -5   25.80    5.00
  -6   0  -5   20.20    5.00
  -6   0  -5   26.90    7.00
  -6   0  -5   25.50    3.40
   6   0   5   39.30    5.70
   6   0   5   25.90    5.60
   6   0   5   17.20    4.10
   6   0   5   30.90    4.70
   6   0   5   17.50    3.70
  -7   0  -5 1575.84   44.40
  -7   0  -5 1630.34   43.90
  -7   0  -5 1594.04   45.30
  -7   0  -5 1594.34   41.20
  -7   0  -5 1578.94   47.20
   7   0   5 1621.14   46.30
   7   0   5 1553.34   43.10
   7   0   5 1587.64   43.50
   7   0   5 1591.44   41.80
   7   0   5 1621.74   44.40
  -8   0  -5   44.10    7.00
  -8   0  -5   60.79    7.00
  -8   0  -5   53.29    7.40
  -8   0  -5   78.49   10.70
  -8   0  -5   56.89    8.70
   8   0   5   55.49    5.70
   8   0   5   76.19    8.90
   8   0   5   50.79    7.90
   8   0   5   55.29    7.30
   8   0   5   49.00    6.30
  -9   0  -5    2.70    4.90
  -9   0  -5  -15.70    6.90
  -9   0  -5   27.80   11.40
  -9   0  -5    0.60    6.80
   9   0   5   -6.20    3.90
   9   0   5  -14.20    5.60
   9   0   5   -4.90    6.60
   9   0   5  -11.50    7.80
   8  -1  -5  281.67   15.20
   8  -1  -5  304.37   12.30
   8  -1  -5  329.37   14.60
  -8   1   5  318.07   21.20
  -8   1   5  288.07   15.80
   7  -1  -5  159.28    9.90
   7  -1  -5  152.58   13.50
   7  -1  -5  146.49   10.20
   7  -1  -5  144.79    9.30
   7  -1  -5  146.89    7.70
  -7   1   5  160.88   13.70
  -7   1   5  159.58   12.80
  -7   1   5  154.98    9.60
   6  -1  -5  155.18   11.20
   6  -1  -5  141.79   10.20
   6  -1  -5  158.18    8.20
   6  -1  -5  154.38    6.80
   6  -1  -5  158.68    8.80
  -6   1   5  136.99   11.50
  -6   1   5  165.58    8.70
  -6   1   5  155.18   10.50
   5  -1  -5  132.69    6.90
   5  -1  -5  148.29    6.70
   5  -1  -5  135.99    9.90
   5  -1  -5  145.49    6.00
   5  -1  -5  126.79    7.30
  -5   1   5  138.59    7.90
  -5   1   5  145.49    8.60
  -5   1   5  150.78   10.10
  -5   1   5  132.89    7.00
   4  -1  -5  421.66   12.70
   4  -1  -5  420.86   16.20
   4  -1  -5  411.96   12.30
   4  -1  -5  429.66   14.90
   4  -1  -5  398.46   13.00
   4  -1  -5  409.86   12.40
   4  -1  -5  424.96   11.70
  -4   1   5  417.86   12.50
  -4   1   5  389.26   14.20
  -4   1   5  390.46   14.10
  -4   1   5  433.76   15.90
   3  -1  -5 2619.34   64.19
   3  -1  -5 2544.95   62.89
   3  -1  -5 2559.14   63.59
   3  -1  -5 2537.65   67.79
   3  -1  -5 2629.14   62.89
   3  -1  -5 2551.14   62.49
  -3   1   5 2573.34   62.99
  -3   1   5 3051.89   67.59
  -3   1   5 2651.03   66.59
  -3   1   5 2666.43   64.19
  -3   1   5 2543.65   65.49
   2  -1  -5 1198.48   30.50
   2  -1  -5 1235.08   29.50
   2  -1  -5 1217.08   31.50
   2  -1  -5 1222.48   29.60
   2  -1  -5 1200.98   29.60
   2  -1  -5 1187.38   32.50
   2  -1  -5 1201.18   33.30
  -2   1   5 1165.98   29.50
  -2   1   5 1203.98   32.20
  -2   1   5 1216.18   31.40
  -2   1   5 1246.28   33.20
   1  -1  -5  684.23   16.60
   1  -1  -5  627.24   18.60
   1  -1  -5  657.83   17.60
   1  -1  -5  657.53   19.50
   1  -1  -5  663.83   16.90
   1  -1  -5  679.53   17.10
  -1   1   5  665.93   19.30
  -1   1   5  655.93   16.70
  -1   1   5  680.93   19.00
  -1   1   5  648.44   19.70
   0  -1  -5  393.86   11.10
   0  -1  -5  383.46   11.00
   0  -1  -5  385.56   12.70
   0  -1  -5  380.26   10.80
   0  -1  -5  403.86   10.30
   0  -1  -5  365.46   12.20
   0   1   5  381.06   12.40
   0   1   5  383.06   12.40
   0   1   5  384.96   10.70
  -1  -1  -5  528.75   14.60
  -1  -1  -5  534.15   14.20
  -1  -1  -5  524.25   15.00
  -1  -1  -5  538.45   16.10
  -1  -1  -5  523.45   15.80
  -1  -1  -5  516.85   14.70
   1   1   5  553.24   15.90
   1   1   5  533.35   15.00
   1   1   5  538.55   13.20
   1   1   5  531.45   13.50
   1   1   5  519.45   15.90
   1   1   5  520.25   14.70
  -2  -1  -5  823.32   21.50
  -2  -1  -5  817.12   22.20
  -2  -1  -5  855.21   22.80
  -2  -1  -5  794.62   21.90
   2   1   5  824.62   20.70
   2   1   5  817.62   21.20
   2   1   5  823.82   22.30
   2   1   5  787.62   22.20
   2   1   5  835.02   23.00
  -3  -1  -5  611.04   18.60
  -3  -1  -5  596.44   18.00
  -3  -1  -5  612.34   17.30
  -3  -1  -5  587.74   17.60
   3   1   5  625.14   18.10
   3   1   5  624.94   17.20
   3   1   5  614.34   16.70
   3   1   5  630.74   18.20
   3   1   5  598.04   18.10
  -4  -1  -5 3481.25   82.39
  -4  -1  -5 3394.26   83.39
  -4  -1  -5 3446.66   84.19
  -4  -1  -5 3414.26   82.89
   4   1   5 3351.16   83.09
   4   1   5 3401.86   82.69
   4   1   5 3359.56   82.09
   4   1   5 3346.57   83.59
   4   1   5 3254.07   81.49
  -5  -1  -5   76.49    5.70
  -5  -1  -5   77.89    6.30
  -5  -1  -5   75.99    7.30
  -5  -1  -5   68.49    6.00
   5   1   5   75.49    5.80
   5   1   5   70.69    5.60
   5   1   5   69.39    6.30
   5   1   5   58.79    5.80
   5   1   5   71.49    5.20
  -6  -1  -5   73.39    6.90
  -6  -1  -5   68.69    4.90
  -6  -1  -5   75.29    6.50
  -6  -1  -5   58.29    7.70
   6   1   5   63.19    5.70
   6   1   5   66.49    6.50
   6   1   5   67.79    7.00
   6   1   5   63.89    6.60
   6   1   5   65.39    5.70
  -7  -1  -5  100.89    8.70
  -7  -1  -5  100.19    8.60
  -7  -1  -5   92.19    9.00
  -7  -1  -5   94.69    6.80
  -7  -1  -5   93.89   10.20
   7   1   5  100.09    7.00
   7   1   5  100.19    9.30
   7   1   5   99.39    8.50
   7   1   5   94.29    8.90
   7   1   5   96.69    7.50
  -8  -1  -5   28.50    9.20
  -8  -1  -5   27.90    6.60
  -8  -1  -5   25.20    6.00
  -8  -1  -5   30.00    6.40
  -8  -1  -5   33.60    5.20
   8   1   5   24.30    5.40
   8   1   5   29.50    7.10
   8   1   5   39.70    5.30
   8   1   5   22.20    4.60
   8   1   5   34.30    6.50
  -9  -1  -5   70.29   11.30
  -9  -1  -5   62.79    8.70
  -9  -1  -5   52.19    8.80
  -9  -1  -5   70.39    9.30
  -9  -1  -5   49.99    8.10
   9   1   5   64.29    7.60
   9   1   5   67.39    8.60
   9   1   5   53.79    7.40
   9   1   5   52.79    8.20
   9   1   5   74.29    9.00
 -10  -1  -5   75.99    9.40
 -10  -1  -5   76.99   16.50
 -10  -1  -5   84.29   12.00
  10   1   5   61.49   10.70
  10   1   5   72.39   10.60
  10   1   5   70.79    8.30
  10   1   5   69.79   10.30
   7  -2  -5   81.89    7.30
   7  -2  -5   87.89   11.20
   7  -2  -5   61.59   10.60
   7  -2  -5   77.19    9.50
   7  -2  -5   97.29    9.10
  -7   2   5  117.09   13.80
  -7   2   5   93.49    9.60
  -7   2   5  116.19   13.70
   6  -2  -5  457.55   18.80
   6  -2  -5  449.06   14.20
   6  -2  -5  442.76   16.00
   6  -2  -5  431.06   15.30
   6  -2  -5  430.96   16.60
  -6   2   5  447.66   18.10
  -6   2   5  454.45   19.20
  -6   2   5  436.96   15.80
   5  -2  -5 1093.79   31.30
   5  -2  -5 1097.19   29.30
   5  -2  -5 1084.09   33.70
   5  -2  -5 1138.59   29.70
   5  -2  -5 1074.89   30.10
  -5   2   5 1105.49   30.20
  -5   2   5 1140.19   33.40
  -5   2   5 1115.49   32.10
   4  -2  -5  580.44   16.20
   4  -2  -5  574.94   17.00
   4  -2  -5  591.04   16.70
   4  -2  -5  570.74   18.10
   4  -2  -5  574.44   20.30
  -4   2   5  577.24   20.00
  -4   2   5  585.04   17.00
  -4   2   5  586.14   18.70
  -4   2   5  536.95   17.80
   3  -2  -5  114.89    5.10
   3  -2  -5  109.19    6.40
   3  -2  -5  118.69    5.10
   3  -2  -5  103.59    5.10
   3  -2  -5  106.89    7.90
   3  -2  -5  102.99    6.70
  -3   2   5  112.19    6.20
  -3   2   5  116.09    6.40
  -3   2   5  110.39    5.40
  -3   2   5  113.79    7.70
  -3   2   5  106.99    5.20
   2  -2  -5   18.30    2.30
   2  -2  -5   21.50    2.40
   2  -2  -5   17.30    3.00
   2  -2  -5   19.30    2.40
   2  -2  -5   16.40    3.20
  -2   2   5   18.20    2.30
  -2   2   5   20.70    2.90
  -2   2   5   20.30    3.20
  -2   2   5   19.70    3.40
  -2   2   5   16.60    2.90
   1  -2  -5   30.60    2.70
   1  -2  -5   34.90    2.30
   1  -2  -5   29.90    3.70
   1  -2  -5   31.10    2.40
   1  -2  -5   30.20    3.40
  -1   2   5   34.60    3.40
  -1   2   5   37.00    3.50
  -1   2   5   32.50    3.50
  -1   2   5   29.00    2.40
  -1   2   5   33.90    4.20
   0  -2  -5 1670.23   40.30
   0  -2  -5 1620.04   39.80
   0  -2  -5 1668.93   39.40
   0  -2  -5 1635.04   40.70
   0  -2  -5 1534.75   41.50
   0   2   5 1630.84   41.30
   0   2   5 1684.13   40.50
   0   2   5 1622.14   41.90
   0   2   5 1635.64   39.00
   0   2   5 1574.14   38.60
   0   2   5 1594.24   39.70
   0   2   5 1645.44   41.10
  -1  -2  -5  450.95   11.90
  -1  -2  -5  435.86   13.50
  -1  -2  -5  411.46   12.70
  -1  -2  -5  415.26   12.30
  -1  -2  -5  439.36   12.80
   1   2   5  437.66   11.50
   1   2   5  433.56   12.90
   1   2   5  409.36   13.20
   1   2   5  423.46   13.10
   1   2   5  420.36   12.30
   1   2   5  418.06   11.80
  -2  -2  -5 1266.47   32.10
  -2  -2  -5 1236.48   32.60
  -2  -2  -5 1275.77   31.60
  -2  -2  -5 1215.38   32.30
   2   2   5 1205.48   32.20
   2   2   5 1278.87   32.70
   2   2   5 1258.97   32.80
   2   2   5 1274.77   31.70
   2   2   5 1297.07   32.40
   2   2   5 1237.68   30.90
  -3  -2  -5   17.60    2.40
  -3  -2  -5   17.50    3.00
  -3  -2  -5   16.60    2.70
  -3  -2  -5   17.50    2.70
   3   2   5   18.60    2.60
   3   2   5   19.00    2.40
   3   2   5   16.40    2.80
   3   2   5   13.20    2.60
   3   2   5   17.90    2.90
  -4  -2  -5   19.80    2.80
  -4  -2  -5   25.50    4.10
  -4  -2  -5   18.20    3.20
  -4  -2  -5   21.80    3.60
   4   2   5   23.20    3.30
   4   2   5   17.70    2.50
   4   2   5   25.60    3.90
   4   2   5   25.60    3.80
   4   2   5   20.90    3.30
  -5  -2  -5   51.19    5.40
  -5  -2  -5   55.89    4.80
  -5  -2  -5   45.40    5.10
  -5  -2  -5   51.29    5.70
   5   2   5   47.10    5.40
   5   2   5   45.30    4.20
   5   2   5   39.80    5.00
   5   2   5   54.99    4.90
   5   2   5   42.00    4.80
  -6  -2  -5  303.77   13.10
  -6  -2  -5  317.07   10.60
  -6  -2  -5  301.07   12.30
  -6  -2  -5  296.57   13.50
  -6  -2  -5  306.57   11.90
   6   2   5  300.57   12.80
   6   2   5  287.97   12.10
   6   2   5  286.47   12.90
   6   2   5  314.57   11.60
   6   2   5  313.07   11.50
  -7  -2  -5    7.60   10.00
  -7  -2  -5   22.00    5.30
  -7  -2  -5   30.30    4.20
  -7  -2  -5   26.40    5.10
  -7  -2  -5   20.40    4.30
   7   2   5   27.90    4.20
   7   2   5   34.20    5.50
   7   2   5   30.20    6.00
   7   2   5   30.20    4.70
  -8  -2  -5   84.29    8.80
  -8  -2  -5   92.39    9.00
  -8  -2  -5   73.79   10.00
  -8  -2  -5   96.19    8.10
  -8  -2  -5   79.69    9.10
   8   2   5   95.89   10.20
   8   2   5   81.79    7.30
   8   2   5   91.59    8.30
   8   2   5   96.89   10.30
   8   2   5   93.29    9.00
  -9  -2  -5  364.46   16.70
  -9  -2  -5  384.46   21.40
  -9  -2  -5  344.67   17.70
  -9  -2  -5  346.67   15.90
  -9  -2  -5  378.76   15.80
   9   2   5  347.57   16.70
   9   2   5  360.86   14.30
   9   2   5  367.46   18.50
   9   2   5  348.87   16.70
 -10  -2  -5   21.60    7.20
 -10  -2  -5    6.70   12.20
 -10  -2  -5    9.30    7.70
  10   2   5   30.90    8.60
  10   2   5   -7.10    7.70
  10   2   5   16.90    5.60
  10   2   5    4.30    7.20
   7  -3  -5  114.29   10.20
   7  -3  -5  104.19   10.90
   7  -3  -5   91.19   11.90
   7  -3  -5  112.89    8.40
  -7   3   5  131.89   16.10
  -7   3   5  113.99   14.60
   6  -3  -5  262.37   10.70
   6  -3  -5  241.08   13.90
   6  -3  -5  257.67   12.70
   6  -3  -5  242.48   14.70
   6  -3  -5  263.77   11.90
  -6   3   5  276.77   15.60
  -6   3   5  227.18    9.10
  -6   3   5  254.17   14.80
  -6   3   5  244.98   11.80
   5  -3  -5  310.67   13.90
   5  -3  -5  300.87   12.30
   5  -3  -5  267.87   13.70
   5  -3  -5  306.97   11.20
   5  -3  -5  291.87   14.90
  -5   3   5  309.77    9.50
  -5   3   5  303.87   14.50
  -5   3   5  317.77   14.80
   4  -3  -5 1621.44   42.60
   4  -3  -5 1709.53   46.20
   4  -3  -5 1669.33   42.00
   4  -3  -5 1527.35   51.89
  -4   3   5 1657.93   42.70
  -4   3   5 1623.14   45.10
  -4   3   5 1625.44   40.50
  -4   3   5 1701.33   44.80
  -4   3   5 1661.73   40.20
  -4   3   5 1678.03   40.50
   3  -3  -5 1148.99   29.40
   3  -3  -5 1129.89   29.40
   3  -3  -5 1132.29   29.90
   3  -3  -5 1139.39   31.90
  -3   3   5 1154.58   29.20
  -3   3   5 1141.29   29.80
  -3   3   5 1117.99   28.40
  -3   3   5 1113.79   28.20
  -3   3   5 1133.99   32.30
  -3   3   5 1133.89   31.50
  -3   3   5 1105.79   30.30
   2  -3  -5  464.35   13.30
   2  -3  -5  430.96   14.90
   2  -3  -5  453.05   13.00
   2  -3  -5  429.86   13.20
   2  -3  -5  436.26   15.10
  -2   3   5  452.35   14.00
  -2   3   5  445.26   13.40
  -2   3   5  449.95   15.50
  -2   3   5  457.75   12.40
  -2   3   5  425.66   12.30
  -2   3   5  448.76   13.10
  -2   3   5  441.16   14.60
   1  -3  -5 1248.98   31.10
   1  -3  -5 1221.88   32.40
   1  -3  -5 1206.68   30.40
   1  -3  -5 1207.58   30.80
   1  -3  -5 1223.18   32.80
  -1   3   5 1219.48   31.50
  -1   3   5 1185.18   30.60
  -1   3   5 1204.18   31.90
  -1   3   5 1244.18   30.30
  -1   3   5 1214.78   31.50
  -1   3   5 1176.08   30.00
  -1   3   5 1231.78   33.00
   0  -3  -5 1288.67   33.60
   0  -3  -5 1274.37   31.70
   0  -3  -5 1261.57   32.00
   0  -3  -5 1274.17   32.50
   0  -3  -5 1292.27   33.60
   0   3   5 1210.38   31.20
   0   3   5 1286.37   31.90
   0   3   5 1232.98   31.90
   0   3   5 1296.27   33.10
   0   3   5 1275.87   33.00
   0   3   5 1298.07   32.80
   0   3   5 1316.97   33.90
  -1  -3  -5   29.00    3.30
  -1  -3  -5   30.20    3.20
  -1  -3  -5   33.10    3.40
  -1  -3  -5   33.40    2.70
   1   3   5   30.10    3.30
   1   3   5   33.40    2.30
   1   3   5   33.50    2.90
   1   3   5   32.00    3.50
   1   3   5   26.70    2.70
   1   3   5   33.80    3.20
  -2  -3  -5 1539.75   38.60
  -2  -3  -5 1454.05   38.10
  -2  -3  -5 1471.65   38.30
  -2  -3  -5 1439.96   37.70
  -2  -3  -5 1545.95   37.40
   2   3   5 1537.15   37.80
   2   3   5 1494.15   38.60
   2   3   5 1529.85   37.70
   2   3   5 1455.75   36.70
   2   3   5 1496.55   37.90
  -3  -3  -5  155.98    7.50
  -3  -3  -5  166.98    6.50
  -3  -3  -5  149.99    6.60
  -3  -3  -5  153.58    7.00
   3   3   5  159.18    6.00
   3   3   5  154.88    6.80
   3   3   5  148.59    6.80
   3   3   5  164.08    7.40
  -4  -3  -5  306.67   11.80
  -4  -3  -5  294.37   10.70
  -4  -3  -5  288.17   11.10
  -4  -3  -5  302.07   10.50
   4   3   5  297.07   11.30
   4   3   5  297.27    9.90
   4   3   5  298.67   11.20
   4   3   5  310.07   10.90
  -5  -3  -5  369.06   12.50
  -5  -3  -5  325.67   12.40
  -5  -3  -5  366.96   13.50
  -5  -3  -5  362.26   14.00
   5   3   5  341.47   11.80
   5   3   5  362.16   13.60
   5   3   5  349.57   13.20
   5   3   5  357.16   12.70
  -6  -3  -5  389.56   14.50
  -6  -3  -5  433.86   14.70
  -6  -3  -5  427.46   16.10
  -6  -3  -5  421.86   16.50
   6   3   5  403.96   13.90
   6   3   5  436.16   15.90
   6   3   5  417.86   14.10
   6   3   5  419.26   15.10
  -7  -3  -5    2.80    3.30
  -7  -3  -5   12.30    3.10
  -7  -3  -5   12.20    3.90
  -7  -3  -5   15.60    4.70
  -7  -3  -5   15.80    5.80
   7   3   5    6.10    3.00
   7   3   5   12.90    3.30
   7   3   5    9.40    3.90
   7   3   5    5.00    4.40
  -8  -3  -5   24.90    5.60
  -8  -3  -5   25.90    4.90
  -8  -3  -5   29.50    7.50
  -8  -3  -5   22.20    5.00
  -8  -3  -5   22.20    5.20
   8   3   5   18.40    5.80
   8   3   5   28.80    5.80
   8   3   5   28.70    5.80
   8   3   5   18.40    4.60
   8   3   5   19.40    4.30
  -9  -3  -5  153.78   10.90
  -9  -3  -5  169.68   11.70
  -9  -3  -5  154.08   11.60
  -9  -3  -5  183.88   12.10
  -9  -3  -5  194.98   17.00
   9   3   5  196.38   13.30
   9   3   5  192.08   13.70
   9   3   5  188.88   11.40
   9   3   5  196.58   12.70
   9   3   5  181.28   10.30
 -10  -3  -5   34.90    7.50
 -10  -3  -5   20.70   10.40
 -10  -3  -5   27.20    6.70
 -10  -3  -5   33.10    8.60
  10   3   5   29.40    8.50
  10   3   5   37.30    6.50
  10   3   5   36.80    7.70
  10   3   5   37.90    9.10
   7  -4  -5   86.59   11.00
   7  -4  -5  122.09   14.80
   7  -4  -5  112.69   10.30
  -7   4   5  102.99   13.70
   6  -4  -5   48.50    6.00
   6  -4  -5   54.39    7.00
   6  -4  -5   32.40    8.10
   6  -4  -5   62.19    7.10
   6  -4  -5   53.89    8.90
  -6   4   5   28.00    8.20
  -6   4   5   45.40    5.40
  -6   4   5   38.90    6.50
  -6   4   5   43.60    4.50
  -6   4   5   54.09    9.50
   5  -4  -5   14.00    4.70
   5  -4  -5    6.70    3.30
   5  -4  -5   14.30    3.70
   5  -4  -5   19.50    6.40
   5  -4  -5    7.90    5.30
  -5   4   5   10.30    2.60
  -5   4   5   12.10    4.10
  -5   4   5   -1.80    5.40
  -5   4   5   10.50    6.20
  -5   4   5   12.40    3.50
   4  -4  -5    0.70    4.70
   4  -4  -5    7.90    4.70
   4  -4  -5    9.30    3.70
   4  -4  -5   12.40    3.60
   4  -4  -5    8.00    2.90
  -4   4   5    5.10    4.90
  -4   4   5    5.90    2.40
  -4   4   5    2.70    4.50
  -4   4   5    6.10    2.00
  -4   4   5   10.80    2.80
  -4   4   5    2.90    3.40
   3  -4  -5  438.56   14.20
   3  -4  -5  434.06   13.80
   3  -4  -5  432.96   16.90
  -3   4   5  428.96   16.20
  -3   4   5  427.06   13.00
  -3   4   5  438.16   16.40
  -3   4   5  441.36   13.00
  -3   4   5  433.76   13.40
  -3   4   5  426.36   14.20
   2  -4  -5   17.10    2.80
   2  -4  -5   15.50    2.60
   2  -4  -5   16.00    3.90
   2  -4  -5   16.40    2.50
  -2   4   5   16.60    2.70
  -2   4   5   17.00    3.70
  -2   4   5   20.30    2.60
  -2   4   5   13.60    3.60
  -2   4   5   17.40    2.70
  -2   4   5   18.30    3.00
   1  -4  -5  232.68    9.40
   1  -4  -5  249.18    8.90
   1  -4  -5  234.38    8.60
   1  -4  -5  230.98   10.60
   1  -4  -5  232.28    8.20
  -1   4   5  242.98    8.20
  -1   4   5  244.78    8.40
  -1   4   5  249.78   10.10
  -1   4   5  245.48    8.50
  -1   4   5  237.48    8.50
  -1   4   5  252.57   10.10
  -1   4   5  248.08    8.90
   0  -4  -5  259.47    9.30
   0  -4  -5  258.27    8.90
   0  -4  -5  266.77    8.60
   0  -4  -5  246.18   10.40
   0  -4  -5  256.97    9.60
   0   4   5  263.47   10.10
   0   4   5  253.77    8.30
   0   4   5  261.37    8.70
   0   4   5  259.57   10.00
   0   4   5  258.67    8.70
   0   4   5  271.27    8.90
  -1  -4  -5  502.35   14.40
  -1  -4  -5  507.35   15.20
  -1  -4  -5  482.25   14.60
  -1  -4  -5  505.45   15.30
  -1  -4  -5  498.15   16.00
   1   4   5  521.45   14.90
   1   4   5  503.05   14.70
   1   4   5  503.55   15.40
   1   4   5  500.25   14.00
   1   4   5  513.35   15.80
   1   4   5  521.05   14.30
  -2  -4  -5  202.18    7.30
  -2  -4  -5  204.88    8.30
  -2  -4  -5  199.28    8.40
  -2  -4  -5  190.68    7.40
  -2  -4  -5  191.98    7.50
   2   4   5  185.88    8.30
   2   4   5  193.88    7.50
   2   4   5  196.78    7.70
   2   4   5  204.98    7.10
   2   4   5  189.98    6.80
  -3  -4  -5   -0.60    1.60
  -3  -4  -5    1.00    1.90
  -3  -4  -5    0.60    1.40
  -3  -4  -5   -0.90    1.80
  -3  -4  -5   -0.80    1.30
   3   4   5    1.60    1.70
   3   4   5    0.50    1.80
   3   4   5    0.80    1.40
   3   4   5    0.80    2.10
  -4  -4  -5 1054.79   27.80
  -4  -4  -5  990.00   28.60
  -4  -4  -5 1005.50   26.90
  -4  -4  -5 1037.70   29.10
  -4  -4  -5 1019.00   27.90
   4   4   5 1055.99   28.60
   4   4   5 1000.50   28.90
   4   4   5 1071.49   28.40
   4   4   5 1039.90   27.10
  -5  -4  -5   21.80    3.70
  -5  -4  -5   21.60    3.10
  -5  -4  -5   25.40    4.60
  -5  -4  -5   21.20    3.10
   5   4   5   22.30    3.60
   5   4   5   26.50    3.40
   5   4   5   23.10    3.90
   5   4   5   23.00    3.90
  -6  -4  -5   79.49    8.40
  -6  -4  -5   78.49    7.90
  -6  -4  -5   78.89    6.00
  -6  -4  -5   87.49    6.60
   6   4   5   89.39    7.20
   6   4   5   78.69    7.20
   6   4   5   91.59    7.80
   6   4   5   87.79    5.90
  -7  -4  -5    8.20    3.20
  -7  -4  -5   -1.50    4.70
  -7  -4  -5    3.90    4.70
  -7  -4  -5    5.00    3.70
  -7  -4  -5    6.60    3.20
   7   4   5    6.50    3.20
   7   4   5   10.60    3.90
   7   4   5    6.40    5.20
   7   4   5    1.90    3.80
  -8  -4  -5   44.30    6.10
  -8  -4  -5   31.40    4.90
  -8  -4  -5   49.20    8.00
  -8  -4  -5   50.09    6.80
  -8  -4  -5   61.19    7.10
   8   4   5   56.39    7.70
   8   4   5   54.29    7.40
   8   4   5   44.00    5.60
   8   4   5   44.20    6.30
  -9  -4  -5   59.29    7.70
  -9  -4  -5   65.89   10.80
  -9  -4  -5   43.60    5.80
  -9  -4  -5   50.79    7.40
  -9  -4  -5   48.00    7.30
   9   4   5   56.59    6.90
   9   4   5   50.69    7.60
   9   4   5   58.89    8.20
   9   4   5   66.19    8.50
   9   4   5   63.39    8.20
 -10  -4  -5   82.69    9.50
 -10  -4  -5   94.69   10.10
 -10  -4  -5  101.69   13.90
 -10  -4  -5  108.99   12.20
  10   4   5  101.29   10.40
  10   4   5  100.89   13.00
  10   4   5   99.29   11.70
  10   4   5  119.49   13.40
   6  -5  -5   46.90    6.50
   6  -5  -5   54.79    7.20
   6  -5  -5   48.60    9.10
   6  -5  -5   48.60    7.80
  -6   5   5   53.09    9.90
  -6   5   5   43.80   10.80
  -6   5   5   52.59    6.80
  -6   5   5   60.59    6.00
   5  -5  -5    6.70    3.60
   5  -5  -5   -2.50    6.80
   5  -5  -5    6.80    3.70
   5  -5  -5    3.60    4.20
   5  -5  -5   -0.90    5.20
  -5   5   5    6.50    7.40
  -5   5   5   -2.40    4.30
  -5   5   5    1.90    3.20
  -5   5   5   14.50    6.10
  -5   5   5    4.90    4.20
   4  -5  -5  509.85   18.10
   4  -5  -5  520.45   17.10
   4  -5  -5  523.65   21.20
   4  -5  -5  516.05   16.80
   4  -5  -5  511.25   20.20
  -4   5   5  517.65   14.10
  -4   5   5  503.55   17.80
  -4   5   5  522.75   20.60
  -4   5   5  498.85   15.80
  -4   5   5  477.75   17.00
  -4   5   5  522.25   19.80
   3  -5  -5  215.68    9.20
   3  -5  -5  193.68   12.80
   3  -5  -5  201.38    9.90
   3  -5  -5  209.08    9.20
  -3   5   5  198.28   11.30
  -3   5   5  209.18   11.90
  -3   5   5  201.38    8.50
  -3   5   5  211.68    9.10
  -3   5   5  202.78    9.50
  -3   5   5  215.08    8.00
   2  -5  -5 1889.21   47.00
   2  -5  -5 1836.52   47.60
   2  -5  -5 1838.12   50.99
   2  -5  -5 1777.92   48.90
  -2   5   5 1885.21   46.70
  -2   5   5 1795.12   46.80
  -2   5   5 1913.61   46.50
  -2   5   5 1898.61   47.50
  -2   5   5 1875.71   49.90
  -2   5   5 1856.51   49.20
   1  -5  -5   29.60    5.20
   1  -5  -5   28.30    3.60
   1  -5  -5   33.90    4.10
   1  -5  -5   31.30    3.80
  -1   5   5   32.80    3.80
  -1   5   5   36.00    3.90
  -1   5   5   41.30    5.20
  -1   5   5   46.20    5.90
  -1   5   5   37.50    3.30
  -1   5   5   44.30    4.20
   0  -5  -5   17.20    2.70
   0  -5  -5   18.10    3.00
   0  -5  -5   18.20    4.20
   0  -5  -5   15.90    2.70
   0  -5  -5   25.00    3.10
   0   5   5   19.30    2.50
   0   5   5   19.80    2.70
   0   5   5   20.00    3.30
   0   5   5   14.20    2.60
   0   5   5   21.60    4.10
   0   5   5   18.80    2.80
  -1  -5  -5 1589.24   40.90
  -1  -5  -5 1613.64   40.60
  -1  -5  -5 1628.94   41.70
  -1  -5  -5 1665.13   43.40
  -1  -5  -5 1578.64   40.90
   1   5   5 1594.94   41.50
   1   5   5 1664.53   41.20
   1   5   5 1622.74   41.00
   1   5   5 1564.64   40.20
   1   5   5 1608.94   42.50
   1   5   5 1626.64   39.60
  -2  -5  -5  542.55   17.10
  -2  -5  -5  569.94   16.30
  -2  -5  -5  549.35   17.90
  -2  -5  -5  533.45   16.30
  -2  -5  -5  557.84   16.10
   2   5   5  554.04   16.40
   2   5   5  536.65   16.40
   2   5   5  563.14   15.70
   2   5   5  565.34   16.70
   2   5   5  581.54   15.20
   2   5   5  577.54   17.90
  -3  -5  -5   19.20    2.50
  -3  -5  -5   13.50    2.50
  -3  -5  -5   12.80    2.50
  -3  -5  -5   20.00    3.80
  -3  -5  -5   18.30    3.10
   3   5   5   14.50    2.10
   3   5   5   11.50    2.80
   3   5   5   17.40    3.20
   3   5   5   22.80    2.60
   3   5   5   16.00    3.40
  -4  -5  -5  179.78    6.80
  -4  -5  -5  194.98    9.40
  -4  -5  -5  179.58    8.00
  -4  -5  -5  193.68    8.10
  -4  -5  -5  185.38    8.80
   4   5   5  180.58    7.40
   4   5   5  190.68    8.30
   4   5   5  195.58    8.70
   4   5   5  191.28    9.50
  -5  -5  -5    2.00    2.30
  -5  -5  -5    5.60    3.30
  -5  -5  -5    2.80    2.70
  -5  -5  -5    5.70    1.80
  -5  -5  -5   10.20    3.30
   5   5   5    5.50    3.00
   5   5   5    3.20    2.50
   5   5   5    7.70    2.50
   5   5   5    6.80    3.70
  -6  -5  -5   69.79    7.60
  -6  -5  -5   62.69    6.20
  -6  -5  -5   55.59    5.60
  -6  -5  -5   63.89    6.40
   6   5   5   75.69    7.00
   6   5   5   68.99    9.10
   6   5   5   62.99    7.20
   6   5   5   72.09    5.50
  -7  -5  -5  196.48   10.30
  -7  -5  -5  181.48   10.70
  -7  -5  -5  204.58   11.20
  -7  -5  -5  204.28   11.80
  -7  -5  -5  201.68    9.90
   7   5   5  214.68   11.20
   7   5   5  210.08    9.70
   7   5   5  204.98   10.90
   7   5   5  198.88   11.70
  -8  -5  -5  117.39    8.90
  -8  -5  -5   97.09    9.00
  -8  -5  -5   95.79    9.50
  -8  -5  -5  121.09   12.50
  -8  -5  -5  108.89    8.20
   8   5   5  113.59   10.20
   8   5   5   91.09    7.80
   8   5   5  100.09    8.90
   8   5   5  106.19   10.10
  -9  -5  -5   21.10    8.60
  -9  -5  -5    5.10    4.30
  -9  -5  -5    3.30    5.30
  -9  -5  -5    3.00    5.70
  -9  -5  -5   -1.10    4.70
   9   5   5   -3.30    3.40
   9   5   5    8.50    5.50
   9   5   5    4.40    5.90
   9   5   5    3.00    5.50
 -10  -5  -5   88.19    9.70
 -10  -5  -5   92.29    9.80
 -10  -5  -5  120.19   12.30
 -10  -5  -5   75.49   12.70
  10   5   5   82.39   10.40
  10   5   5  112.19   13.70
  10   5   5   89.19   10.50
   5  -6  -5   12.40    5.20
   5  -6  -5   13.30    4.90
   5  -6  -5    6.30    6.50
   5  -6  -5   24.60    9.60
   5  -6  -5   11.90    6.20
  -5   6   5   18.70    4.80
  -5   6   5   26.00    5.80
  -5   6   5   35.30   10.00
  -5   6   5   31.50    8.60
   4  -6  -5   10.60    4.20
   4  -6  -5   16.90    5.30
   4  -6  -5   12.30    6.10
   4  -6  -5   13.60    4.10
   4  -6  -5   31.60    8.60
  -4   6   5   13.60    5.50
  -4   6   5   13.00    7.40
  -4   6   5    9.30    2.60
  -4   6   5   14.80    4.70
  -4   6   5    5.50    4.40
   3  -6  -5   12.70    3.40
   3  -6  -5   14.80    4.60
   3  -6  -5   22.20    7.10
   3  -6  -5   10.30    3.50
  -3   6   5   13.70    3.00
  -3   6   5   14.30    3.80
  -3   6   5   12.90    5.40
  -3   6   5   19.40    6.80
  -3   6   5   11.30    3.90
  -3   6   5    9.50    3.90
   2  -6  -5  100.09   10.40
   2  -6  -5  108.09    7.80
   2  -6  -5  115.09    7.50
   2  -6  -5  108.49    6.80
  -2   6   5  101.79    7.00
  -2   6   5  102.79    6.80
  -2   6   5  101.59    8.40
  -2   6   5  119.89    9.90
  -2   6   5  113.49    7.00
   1  -6  -5   30.00    6.00
   1  -6  -5   30.90    4.40
   1  -6  -5   29.20    5.10
   1  -6  -5   29.10    3.80
  -1   6   5   31.50    4.30
  -1   6   5   34.50    5.60
  -1   6   5   35.90    4.30
  -1   6   5   36.20    4.50
  -1   6   5   40.60    5.20
   0  -6  -5   39.40    4.70
   0  -6  -5   31.40    4.10
   0  -6  -5   31.20    5.70
   0  -6  -5   31.10    3.70
   0   6   5   33.70    5.50
   0   6   5   33.20    4.40
   0   6   5   34.10    4.10
   0   6   5   36.70    4.30
   0   6   5   25.90    3.40
  -1  -6  -5   49.99    5.20
  -1  -6  -5   44.60    6.00
  -1  -6  -5   51.29    4.40
   1   6   5   47.10    4.80
   1   6   5   48.60    4.10
   1   6   5   44.10    2.80
   1   6   5   48.20    4.70
   1   6   5   45.60    4.30
   1   6   5   54.99    6.30
  -2  -6  -5 1498.05   39.90
  -2  -6  -5 1434.96   41.20
  -2  -6  -5 1504.15   38.10
  -2  -6  -5 1472.45   38.80
  -2  -6  -5 1553.14   40.20
   2   6   5 1549.14   36.60
   2   6   5 1570.44   41.00
   2   6   5 1505.35   38.80
   2   6   5 1479.95   39.00
   2   6   5 1538.55   39.50
   2   6   5 1511.35   38.40
  -3  -6  -5  252.77    8.60
  -3  -6  -5  262.27   11.50
  -3  -6  -5  261.27    9.90
  -3  -6  -5  261.77   10.80
   3   6   5  265.17   11.40
   3   6   5  269.07    8.10
   3   6   5  250.17   10.00
   3   6   5  268.07   10.40
  -4  -6  -5  402.36   13.50
  -4  -6  -5  415.96   15.10
  -4  -6  -5  400.36   11.70
  -4  -6  -5  378.96   14.60
  -4  -6  -5  407.26   13.60
   4   6   5  401.96   15.00
   4   6   5  401.06   13.00
   4   6   5  389.56   13.90
   4   6   5  420.26   14.30
  -5  -6  -5   23.40    4.40
  -5  -6  -5   24.60    4.00
  -5  -6  -5   20.90    3.50
  -5  -6  -5   20.30    4.20
   5   6   5   27.20    4.50
   5   6   5   28.20    4.40
   5   6   5   19.80    3.00
   5   6   5   27.20    4.90
  -6  -6  -5  748.73   21.90
  -6  -6  -5  761.52   24.10
  -6  -6  -5  723.13   23.20
  -6  -6  -5  715.73   21.40
   6   6   5  698.83   21.00
   6   6   5  673.43   22.30
   6   6   5  689.53   25.30
   6   6   5  649.04   24.30
  -7  -6  -5   -1.30    3.50
  -7  -6  -5    6.50    5.30
  -7  -6  -5    4.50    4.40
   7   6   5   -0.10    2.90
   7   6   5   -2.70    4.00
   7   6   5   -2.40    3.70
   7   6   5    2.80    4.80
  -8  -6  -5    6.00    4.50
  -8  -6  -5    8.60    6.40
  -8  -6  -5    7.00    4.50
  -8  -6  -5    2.50    4.80
   8   6   5    7.00    3.60
   8   6   5    4.80    4.80
   8   6   5    5.00    4.80
   8   6   5    2.80    4.60
  -9  -6  -5   14.20    5.60
  -9  -6  -5   20.60    9.30
  -9  -6  -5   20.20    6.30
  -9  -6  -5   14.50    5.90
   9   6   5   24.80    7.00
   9   6   5   24.70    7.10
   9   6   5    8.20    4.30
   9   6   5   19.10    6.50
 -10  -6  -5   79.09   10.40
 -10  -6  -5   59.79   11.80
 -10  -6  -5   85.29    9.40
  10   6   5   69.79    9.80
  10   6   5   52.89    9.70
  10   6   5   62.19   10.50
   5  -7  -5  159.98   12.90
   5  -7  -5  142.29   15.90
   5  -7  -5  147.19   19.40
  -5   7   5  170.08   20.40
  -5   7   5  151.48   11.60
  -5   7   5  152.28   12.20
   4  -7  -5    4.20    6.00
   4  -7  -5    4.90    5.00
   4  -7  -5   -7.60    4.70
   4  -7  -5   -9.30    5.60
   4  -7  -5   -1.70    9.30
  -4   7   5    2.20    5.90
  -4   7   5    3.80    4.70
  -4   7   5  -16.80    8.70
  -4   7   5    2.60    2.90
  -4   7   5    8.40    5.40
   3  -7  -5   29.00    5.30
   3  -7  -5   24.00    4.60
   3  -7  -5   20.70    5.00
   3  -7  -5   33.60    8.80
  -3   7   5   28.60    5.40
  -3   7   5   18.60    5.00
  -3   7   5   24.50    3.60
  -3   7   5   19.30    6.10
  -3   7   5   27.20    5.30
  -3   7   5   27.10    8.00
   2  -7  -5  342.67   12.60
   2  -7  -5  309.97   17.80
   2  -7  -5  351.06   13.60
   2  -7  -5  324.27   14.00
  -2   7   5  326.27   16.80
  -2   7   5  314.47   13.20
  -2   7   5  335.47   13.40
  -2   7   5  311.97   14.60
  -2   7   5  329.27   13.00
   1  -7  -5 1307.87   34.60
   1  -7  -5 1201.78   39.30
   1  -7  -5 1231.38   34.50
   1  -7  -5 1233.08   33.40
  -1   7   5 1246.08   33.80
  -1   7   5 1163.78   36.50
  -1   7   5 1285.87   37.30
  -1   7   5 1209.58   33.90
   0  -7  -5  613.54   26.20
   0  -7  -5  673.03   20.00
   0  -7  -5  673.63   21.00
   0  -7  -5  668.13   20.70
   0   7   5  705.93   20.20
   0   7   5  659.13   20.20
   0   7   5  669.93   20.50
   0   7   5  708.73   23.30
   0   7   5  663.93   20.90
  -1  -7  -5  745.83   25.90
  -1  -7  -5  778.52   23.30
  -1  -7  -5  667.93   26.40
  -1  -7  -5  778.02   22.60
   1   7   5  789.52   22.60
   1   7   5  777.12   22.40
   1   7   5  752.32   24.30
   1   7   5  773.02   21.80
   1   7   5  788.02   22.70
  -2  -7  -5  113.49    9.20
  -2  -7  -5  114.99    6.70
  -2  -7  -5  107.09    6.60
  -2  -7  -5  115.69    7.60
   2   7   5  110.09    6.40
   2   7   5  112.69    6.20
   2   7   5  113.29    7.20
   2   7   5  113.89    6.40
   2   7   5  110.49    8.60
  -3  -7  -5   63.89    8.80
  -3  -7  -5   69.19    5.50
  -3  -7  -5   74.99    6.00
  -3  -7  -5   60.09    6.70
   3   7   5   72.39    6.40
   3   7   5   69.29    5.30
   3   7   5   70.19    5.10
   3   7   5   69.19    4.80
   3   7   5   70.59    7.50
   3   7   5   73.59    2.80
  -4  -7  -5  883.51   25.10
  -4  -7  -5  915.81   25.50
  -4  -7  -5  839.62   27.20
  -4  -7  -5  895.41   27.10
   4   7   5  889.21   27.20
   4   7   5  885.11   26.00
   4   7   5  884.51   22.20
   4   7   5  877.71   24.50
   4   7   5  884.21   25.50
  -5  -7  -5   14.10    5.00
  -5  -7  -5   22.30    4.90
  -5  -7  -5   12.10    3.40
  -5  -7  -5   27.20    4.50
   5   7   5   15.00    3.00
   5   7   5   23.60    4.70
   5   7   5   24.50    4.40
   5   7   5   24.00    6.20
  -6  -7  -5  112.69    8.10
  -6  -7  -5  124.29    9.40
  -6  -7  -5  115.69    7.60
  -6  -7  -5  104.69    9.10
   6   7   5  112.69    8.80
   6   7   5  116.09    7.80
   6   7   5  119.89    9.00
   6   7   5  123.29    7.20
  -7  -7  -5   11.80    5.00
  -7  -7  -5   15.00    6.80
  -7  -7  -5   13.70    3.90
  -7  -7  -5   14.80    4.50
   7   7   5    8.70    5.90
   7   7   5   11.90    3.40
   7   7   5   13.20    4.60
   7   7   5   18.70    4.80
  -8  -7  -5   23.00    6.10
  -8  -7  -5   32.50    7.60
  -8  -7  -5   29.70    5.90
  -8  -7  -5   38.10    5.50
  -8  -7  -5   28.60    5.80
   8   7   5   16.50    5.30
   8   7   5   32.60    6.60
   8   7   5   33.40    7.00
   8   7   5   19.80    4.50
  -9  -7  -5   35.40    6.70
  -9  -7  -5   36.00    3.40
  -9  -7  -5   42.00    5.90
  -9  -7  -5   35.40    7.20
  -9  -7  -5   24.50    7.10
  -9  -7  -5   36.50   10.00
   9   7   5   28.50    5.50
   9   7   5   48.00    8.20
   9   7   5   36.50    7.90
   9   7   5   36.70    7.50
 -10  -7  -5    2.20    8.40
 -10  -7  -5    6.80    6.50
 -10  -7  -5   -6.50   10.10
 -10  -7  -5    0.50    2.50
 -10  -7  -5    8.90    5.40
  10   7   5  -10.10    8.80
  10   7   5   -1.60    8.10
  10   7   5    6.10    7.40
   4  -8  -5    0.10    6.10
   4  -8  -5   -9.50   11.00
  -4   8   5    8.50   11.80
  -4   8   5    3.10    6.70
  -4   8   5    5.20    5.80
  -4   8   5    0.40    8.30
   3  -8  -5   -1.90    4.30
   3  -8  -5    4.90    8.40
   3  -8  -5  -17.10    9.10
   3  -8  -5    3.20    5.30
  -3   8   5   -6.50    4.90
  -3   8   5   -4.10    9.40
  -3   8   5   -2.70    5.70
  -3   8   5    4.70    5.10
   2  -8  -5    2.40    4.70
   2  -8  -5    1.90    4.90
   2  -8  -5    1.70    3.90
   2  -8  -5    0.20    8.20
  -2   8   5    6.20    4.20
  -2   8   5   -0.90    5.10
  -2   8   5   -2.10    4.50
  -2   8   5   -3.40    4.40
  -2   8   5   -2.60    7.90
   1  -8  -5    4.60    4.40
   1  -8  -5   -1.20    3.00
   1  -8  -5    5.00    6.90
   1  -8  -5   -0.60    3.80
  -1   8   5    4.50    3.80
  -1   8   5   -6.00    6.10
  -1   8   5    0.40    3.80
  -1   8   5   -0.10    4.40
  -1   8   5   -1.00    3.40
   0  -8  -5   13.40    7.20
   0  -8  -5   19.10    4.40
   0  -8  -5   16.50    4.70
   0  -8  -5   15.90    4.20
   0   8   5   21.50    4.70
   0   8   5   15.50    4.20
   0   8   5   14.70    3.90
   0   8   5   18.90    6.60
   0   8   5   17.20    4.50
  -1  -8  -5   -2.20    2.90
  -1  -8  -5    1.50    2.70
  -1  -8  -5    3.80    5.60
  -1  -8  -5    3.70    3.50
   1   8   5    1.80    2.90
   1   8   5    1.80    2.80
   1   8   5    4.20    3.30
   1   8   5    2.30   10.30
   1   8   5    4.60    3.50
  -2  -8  -5   35.20    4.60
  -2  -8  -5   35.00    5.20
  -2  -8  -5   37.90    4.90
  -2  -8  -5   19.40    5.50
   2   8   5   38.80    5.00
   2   8   5   35.50    4.70
   2   8   5   27.70    3.80
  -3  -8  -5  209.58    9.60
  -3  -8  -5  201.78    9.50
  -3  -8  -5  179.58   11.50
   3   8   5  194.98    9.20
   3   8   5  208.88   13.70
   3   8   5  200.18    8.90
   3   8   5  197.08    8.20
   3   8   5  212.88   10.30
  -4  -8  -5 1351.46   40.30
  -4  -8  -5 1367.56   37.30
  -4  -8  -5 1385.76   40.10
  -4  -8  -5 1405.56   37.60
   4   8   5 1419.26   36.90
   4   8   5 1383.26   37.60
   4   8   5 1414.56   38.50
  -5  -8  -5    2.40    2.90
  -5  -8  -5   10.70    5.20
  -5  -8  -5    7.00    4.30
  -5  -8  -5    5.10    3.50
   5   8   5    9.90    4.50
   5   8   5    9.90    3.90
   5   8   5   14.80    5.80
   5   8   5    4.20    2.70
  -6  -8  -5   67.19    7.50
  -6  -8  -5   66.29    6.60
  -6  -8  -5   52.29    7.00
   6   8   5   76.89    8.80
   6   8   5   58.79    6.30
   6   8   5   67.09    8.40
   6   8   5   52.99    6.30
  -7  -8  -5   50.89    5.80
  -7  -8  -5   61.19    7.20
  -7  -8  -5   32.20    7.30
  -7  -8  -5   56.89    7.90
   7   8   5   51.79    6.40
   7   8   5   46.60    7.60
   7   8   5   61.09    7.80
   7   8   5   44.90    6.20
  -8  -8  -5  321.37   16.40
  -8  -8  -5  339.77   14.20
  -8  -8  -5  342.97   18.80
  -8  -8  -5  373.16   16.20
  -8  -8  -5  332.17   15.40
   8   8   5  320.07   15.20
   8   8   5  360.56   17.40
   8   8   5  354.06   16.80
   8   8   5  310.17   13.40
  -9  -8  -5   -3.90    8.60
  -9  -8  -5   -0.70    5.80
  -9  -8  -5  -11.90    6.30
  -9  -8  -5   -0.70    4.60
   9   8   5   -7.70    6.20
   9   8   5   -7.10    7.00
   9   8   5    9.00    5.20
   9   8   5    4.10    6.10
 -10  -8  -5   39.70   10.90
 -10  -8  -5   33.90    6.50
 -10  -8  -5   37.70    8.40
 -10  -8  -5   24.90   12.00
  10   8   5   31.20    8.60
  10   8   5   47.10   10.80
  10   8   5   24.10    9.10
   3  -9  -5  154.28   20.10
  -3   9   5  144.99   13.50
  -3   9   5  164.48   21.00
  -3   9   5  128.89   15.20
   2  -9  -5    7.40    6.30
   2  -9  -5   10.90    6.20
   2  -9  -5   13.00   10.00
  -2   9   5   30.90   11.70
  -2   9   5    8.50    5.90
  -2   9   5    8.40    6.40
  -2   9   5   -1.70    5.80
   1  -9  -5   15.50    5.20
   1  -9  -5   19.30    4.70
   1  -9  -5    9.50    8.30
   1  -9  -5   20.50    6.30
  -1   9   5   28.70    6.40
  -1   9   5   22.70    5.00
  -1   9   5   21.40    6.10
  -1   9   5   15.40    4.80
  -1   9   5   31.60    8.60
   0  -9  -5   11.50    5.60
   0  -9  -5   16.00    4.30
   0  -9  -5   16.10    5.30
   0  -9  -5   31.40    9.60
   0   9   5   15.90    7.20
   0   9   5   20.00    5.10
   0   9   5    7.30    4.10
   0   9   5   12.60    4.00
   0   9   5   22.50    5.40
  -1  -9  -5  536.05   19.00
  -1  -9  -5  548.25   20.20
  -1  -9  -5  553.24   18.60
  -1  -9  -5  574.94   24.40
   1   9   5  582.44   22.70
   1   9   5  551.54   18.60
   1   9   5  559.34   19.50
   1   9   5  542.05   18.50
   1   9   5  538.25   18.80
  -2  -9  -5  550.64   19.10
  -2  -9  -5  581.84   20.50
  -2  -9  -5  561.94   18.70
  -2  -9  -5  545.55   23.40
   2   9   5  540.15   18.30
   2   9   5  583.04   22.50
   2   9   5  558.84   19.00
   2   9   5  575.74   18.10
   2   9   5  579.94   19.80
  -3  -9  -5  626.34   24.80
  -3  -9  -5  650.03   20.60
  -3  -9  -5  658.93   22.60
  -3  -9  -5  605.84   20.40
   3   9   5  635.14   19.90
   3   9   5  631.74   20.60
   3   9   5  653.23   21.50
   3   9   5  646.84   18.70
   3   9   5  643.54   23.60
  -4  -9  -5   58.29    7.90
  -4  -9  -5   50.69    6.10
  -4  -9  -5   38.80    5.00
  -4  -9  -5   45.40    8.30
   4   9   5   55.79    8.20
   4   9   5   51.49    6.00
   4   9   5   55.19    6.40
   4   9   5   53.39    6.20
  -5  -9  -5   72.39    8.50
  -5  -9  -5   68.39    7.10
  -5  -9  -5   68.59    7.00
  -5  -9  -5   71.09    9.40
   5   9   5   80.29    9.10
   5   9   5   68.49    6.60
   5   9   5   69.09    8.50
   5   9   5   68.69    7.40
  -6  -9  -5   44.90    8.10
  -6  -9  -5   35.60    5.00
  -6  -9  -5   47.10    7.70
  -6  -9  -5   39.10    6.20
   6   9   5   28.30    6.20
   6   9   5   40.90    5.70
   6   9   5   40.10    5.00
   6   9   5   42.80    7.70
  -7  -9  -5    2.00    5.30
  -7  -9  -5   -2.40    7.50
  -7  -9  -5    8.10    6.40
  -7  -9  -5    5.60    4.10
   7   9   5    4.50    4.90
   7   9   5    2.70    6.80
   7   9   5   -1.00    5.20
   7   9   5    1.50    3.40
  -8  -9  -5   53.39    9.40
  -8  -9  -5   62.99    7.90
  -8  -9  -5   73.89    9.20
  -8  -9  -5   52.79    6.20
  -8  -9  -5   50.19   10.70
   8   9   5   47.90    8.70
   8   9   5   45.10    7.40
   8   9   5   53.29    7.50
   8   9   5   49.00    6.60
  -9  -9  -5    0.10    5.10
  -9  -9  -5    8.40    6.50
  -9  -9  -5   13.70    7.80
  -9  -9  -5   11.80   10.20
   9   9   5   -2.10    7.80
   9   9   5   10.70    8.50
   9   9   5    8.60    6.90
   1 -10  -5   13.90   11.90
   1 -10  -5   22.20    7.80
   1 -10  -5   20.40    6.90
  -1  10   5    3.00    6.70
  -1  10   5   10.80    7.40
  -1  10   5    4.60    9.60
   0 -10  -5    8.00    4.90
   0 -10  -5   23.40   10.20
   0 -10  -5   18.30    6.60
   0  10   5   10.70    9.80
   0  10   5   -2.70    5.20
   0  10   5    3.30    5.90
   0  10   5    2.00    5.40
   0  10   5   -7.20    5.10
  -1 -10  -5   33.00    6.20
  -1 -10  -5   44.00   10.00
  -1 -10  -5   16.20    6.20
  -1 -10  -5   34.90    6.70
   1  10   5   20.80    6.10
   1  10   5   29.60    5.90
   1  10   5   41.80    9.60
   1  10   5   17.50    5.10
   1  10   5   23.80    5.00
  -2 -10  -5   16.50    6.30
  -2 -10  -5   26.80    5.40
  -2 -10  -5   11.70    7.90
  -2 -10  -5   26.00    5.40
   2  10   5   13.40    4.10
   2  10   5   23.70    6.30
   2  10   5   33.10    5.50
   2  10   5   22.10    4.80
   2  10   5   36.00    8.70
  -3 -10  -5  177.08   10.80
  -3 -10  -5  168.38   10.50
  -3 -10  -5  162.98   12.50
  -3 -10  -5  149.79   14.20
   3  10   5  177.18    8.60
   3  10   5  154.98   10.20
   3  10   5  167.78    9.60
   3  10   5  193.18   14.80
  -4 -10  -5  278.97   15.70
  -4 -10  -5  236.38   12.00
  -4 -10  -5  244.68   16.10
  -4 -10  -5  252.37   12.90
   4  10   5  238.38   14.50
   4  10   5  255.47   12.40
   4  10   5  251.07   13.50
   4  10   5  260.17   11.60
  -5 -10  -5   16.70    5.60
  -5 -10  -5   25.50    7.60
  -5 -10  -5   13.60    6.20
  -5 -10  -5   14.50    4.30
   5  10   5   18.10    4.30
   5  10   5   10.70    5.30
   5  10   5   16.20    6.80
   5  10   5   23.00    5.20
  -6 -10  -5  161.48    9.70
  -6 -10  -5  167.78   14.70
  -6 -10  -5  175.88   12.10
  -6 -10  -5  156.58   13.80
   6  10   5  167.78   10.90
   6  10   5  138.49   14.00
   6  10   5  172.08   12.90
   6  10   5  149.59    9.60
  -7 -10  -5    1.00   12.40
  -7 -10  -5    1.60    4.30
  -7 -10  -5    1.00    5.90
  -7 -10  -5    0.60    8.60
   7  10   5    0.60    5.70
   7  10   5    2.30    4.70
   7  10   5    8.30    7.90
   7  10   5    3.60    7.10
  -8 -10  -5   66.49   11.80
  -8 -10  -5   62.29    9.60
  -8 -10  -5   74.79    8.90
  -8 -10  -5   66.29    7.20
   8  10   5   51.79    9.40
   8  10   5   76.79    9.10
   8  10   5   48.50   10.20
  -9 -10  -5   18.60    6.20
  -9 -10  -5   36.60   12.70
  -9 -10  -5   18.70    8.00
  -1 -11  -5    0.30    6.20
  -1 -11  -5    1.80    8.30
   1  11   5    4.80    7.30
   1  11   5   13.40   11.20
   1  11   5    3.30    6.50
  -2 -11  -5  -10.80    6.80
  -2 -11  -5   -5.00    5.50
   2  11   5   -4.50    5.10
   2  11   5   -1.70    6.50
   2  11   5    0.30    5.10
   2  11   5   -9.70    9.50
  -3 -11  -5   -3.10   10.00
  -3 -11  -5   24.90    6.60
  -3 -11  -5   23.20    7.80
  -3 -11  -5   26.80    8.80
   3  11   5   27.20   10.20
   3  11   5   35.30    6.50
   3  11   5   30.60    5.10
  -4 -11  -5  150.28   12.10
  -4 -11  -5  159.58   12.50
  -4 -11  -5  160.38   14.70
   4  11   5  148.69    9.90
   4  11   5  157.68   16.00
   4  11   5  169.78   13.70
  -5 -11  -5  479.35   19.80
  -5 -11  -5  482.05   18.90
  -5 -11  -5  522.45   23.30
   5  11   5  496.25   23.10
   5  11   5  471.85   18.50
   5  11   5  471.85   20.70
  -6 -11  -5   10.90    5.70
  -6 -11  -5   24.20   10.50
  -6 -11  -5   31.10    7.50
   6  11   5   19.10    7.00
   6  11   5   15.80   10.10
   6  11   5   18.30    6.40
  -7 -11  -5   31.90    7.90
  -7 -11  -5   33.90    6.80
  -7 -11  -5   25.60   11.30
   7  11   5   32.90   10.60
   7  11   5   25.00    6.90
   7  11   5   18.30   10.00
   4   7  -6   90.09   11.20
   4   7  -6   54.99    6.90
  -4  -7   6   55.29    7.70
   3   7  -6   10.10    4.10
   3   7  -6   13.50    6.00
   3   7  -6    5.60    4.50
  -3  -7   6    2.10    3.90
  -3  -7   6   17.20    4.80
   2   7  -6    2.10    3.70
   2   7  -6    5.60    4.30
   2   7  -6    4.30    4.00
   2   7  -6   12.90    6.30
   2   7  -6    4.60    5.60
  -2  -7   6    7.30    4.70
  -2  -7   6    6.90    5.70
   1   7  -6   -6.90    4.20
   1   7  -6    2.30    4.10
   1   7  -6    6.80    5.00
   1   7  -6   -1.90    4.90
  -1  -7   6    2.10    4.20
  -1  -7   6    2.40    3.80
  -1  -7   6    9.50    5.80
   0   7  -6   66.79    7.20
   0   7  -6   62.59    7.90
   0   7  -6   61.59    7.20
   0   7  -6   63.89    8.30
   0  -7   6   62.29    7.20
   0  -7   6   64.09    8.80
   0  -7   6   50.59    8.40
  -1   7  -6   44.60    7.60
  -1   7  -6   41.00    7.50
  -1   7  -6   54.59    7.30
  -1   7  -6   33.60    8.30
   1  -7   6   34.80    5.80
   1  -7   6   40.60   14.00
   1  -7   6   37.90    6.60
  -2   7  -6   -1.10    6.40
  -2   7  -6   11.70    6.30
  -2   7  -6   13.30    9.80
   2  -7   6    5.30    5.60
   2  -7   6   -2.10    4.70
   5   6  -6   27.60    5.60
   5   6  -6   37.90    4.30
   5   6  -6   34.80    6.90
   5   6  -6   32.50    3.70
  -5  -6   6   38.30    6.30
   4   6  -6    1.60    5.00
   4   6  -6   -0.40    2.30
   4   6  -6    0.00    2.90
   4   6  -6    4.50    7.20
  -4  -6   6   -1.00    3.70
   3   6  -6   59.89    5.70
   3   6  -6   39.50    7.50
   3   6  -6   38.90    6.60
   3   6  -6   62.29    4.90
  -3  -6   6   48.50    4.00
  -3  -6   6   62.39    7.60
   2   6  -6    7.30    2.60
   2   6  -6    4.60    3.50
   2   6  -6   12.00    6.10
   2   6  -6   10.50    2.70
   2   6  -6   12.50    3.10
   2   6  -6    9.90    5.50
  -2  -6   6   10.80    2.90
  -2  -6   6    8.40    4.10
  -2  -6   6    6.50    4.40
   1   6  -6    7.20    5.90
   1   6  -6    9.50    3.90
   1   6  -6    1.90    3.90
   1   6  -6    5.90    4.20
   1   6  -6    5.00    5.60
  -1  -6   6    4.60    4.80
  -1  -6   6    9.70    3.00
  -1  -6   6    4.90    4.20
   0   6  -6   29.50    7.10
   0   6  -6   26.10    4.70
   0   6  -6   35.30    5.40
   0   6  -6   22.40    6.00
   0   6  -6   31.80    4.70
   0  -6   6   31.40    4.20
   0  -6   6   29.20    6.20
   0  -6   6   37.80    6.00
  -1   6  -6  213.18   13.80
  -1   6  -6  210.18   11.10
  -1   6  -6  208.58   13.10
  -1   6  -6  203.78   11.80
  -1   6  -6  198.68   11.40
   1  -6   6  218.98   10.10
   1  -6   6  206.78   12.10
   1  -6   6  193.08   13.00
  -2   6  -6   38.50    6.70
  -2   6  -6   43.50    6.90
  -2   6  -6   32.20    6.30
  -2   6  -6   32.40    8.10
  -2   6  -6   31.20    7.60
   2  -6   6   45.90    6.90
   2  -6   6   34.30    4.20
   2  -6   6   33.60    5.30
   2  -6   6   36.30    7.90
   2  -6   6   35.80    3.80
  -3   6  -6   58.59    8.20
  -3   6  -6   49.40    7.60
  -3   6  -6   46.60    8.00
  -3   6  -6   64.89    9.20
  -3   6  -6   67.29   10.70
   3  -6   6   57.29    5.90
   3  -6   6   60.99    8.10
   3  -6   6   74.69    8.90
   3  -6   6   59.19    6.10
  -4   6  -6   27.20    8.40
  -4   6  -6    6.30    7.60
  -4   6  -6    8.90   11.40
  -4   6  -6   11.60    7.00
   4  -6   6   12.70    5.00
   4  -6   6   13.10    5.90
   4  -6   6   18.60    4.60
   4  -6   6    6.80    6.60
   6   5  -6   61.29    6.20
   6   5  -6   65.29    7.90
   6   5  -6   56.49    8.60
   6   5  -6   55.39    8.60
  -6  -5   6   54.59    7.40
   5   5  -6   61.09    3.90
   5   5  -6   82.09    9.30
   5   5  -6   77.09    8.70
   5   5  -6   64.49    8.10
  -5  -5   6   72.99    7.70
   4   5  -6   -1.90    4.20
   4   5  -6    2.90    4.70
   4   5  -6   -4.20    2.00
   4   5  -6   -2.00    5.20
   4   5  -6    3.30    1.60
  -4  -5   6   -4.00    3.40
   3   5  -6    6.50    1.90
   3   5  -6    7.20    2.40
   3   5  -6    6.90    5.20
   3   5  -6    8.30    3.60
   3   5  -6   10.30    4.80
  -3  -5   6    6.50    4.00
   2   5  -6  145.79    6.80
   2   5  -6  142.29    7.60
   2   5  -6  153.58   10.10
   2   5  -6  144.79   10.70
   2   5  -6  137.49    6.10
  -2  -5   6  143.89    5.60
  -2  -5   6  143.89    6.70
   1   5  -6  178.18   11.90
   1   5  -6  181.68    7.80
   1   5  -6  183.68    8.00
   1   5  -6  184.38    7.70
   1   5  -6  194.78    8.40
  -1  -5   6  190.38   10.80
  -1  -5   6  183.58    9.20
   0   5  -6   11.70    3.60
   0   5  -6   12.00    5.20
   0   5  -6    8.50    3.10
   0   5  -6   11.90    5.30
   0   5  -6    8.40    3.10
   0  -5   6   10.90    2.80
   0  -5   6    4.20    4.30
   0  -5   6    6.40    3.90
  -1   5  -6  164.48    9.10
  -1   5  -6  165.28   10.10
  -1   5  -6  156.48   11.40
  -1   5  -6  164.58    9.00
  -1   5  -6  157.58   11.10
   1  -5   6  153.98   10.40
   1  -5   6  162.78   10.90
   1  -5   6  168.68    7.90
  -2   5  -6    3.20    4.10
  -2   5  -6    3.00    5.20
  -2   5  -6    9.00    4.40
  -2   5  -6    2.30    4.30
  -2   5  -6    1.50    5.90
   2  -5   6    3.90    5.50
   2  -5   6    7.30    4.30
   2  -5   6    1.10    3.40
   2  -5   6    3.90    2.40
   2  -5   6    2.50    2.10
  -3   5  -6    2.80    5.00
  -3   5  -6   -1.30    5.40
  -3   5  -6   -3.20    4.40
  -3   5  -6   -5.20    4.80
  -3   5  -6    0.00    6.90
   3  -5   6    0.00    2.60
   3  -5   6    0.00    6.00
   3  -5   6    7.90    4.00
   3  -5   6    0.90    3.30
   3  -5   6   -0.10    4.10
  -4   5  -6   45.10    7.10
  -4   5  -6   47.30    7.10
  -4   5  -6   33.60    7.10
  -4   5  -6   27.00    7.10
  -4   5  -6   30.80    9.70
   4  -5   6   36.60    9.00
   4  -5   6   32.40    5.70
   4  -5   6   38.00    5.70
   4  -5   6   33.10    6.20
  -5   5  -6   26.50    6.90
  -5   5  -6   32.90   12.10
  -5   5  -6    2.40    7.70
  -5   5  -6   37.90    8.30
   5  -5   6   24.40    6.10
   5  -5   6   32.50    7.50
   5  -5   6   27.40    5.90
   7   4  -6    4.00    6.40
   7   4  -6    8.00    5.20
  -7  -4   6    7.80    4.10
   6   4  -6    0.90    6.20
   6   4  -6    1.90    2.20
   6   4  -6  -12.50    4.50
   6   4  -6   -4.60    5.40
   6   4  -6    1.40    3.10
  -6  -4   6    0.30    3.90
   5   4  -6   -1.20    4.50
   5   4  -6    1.50    4.50
   5   4  -6   -3.20    4.90
   5   4  -6   -1.70    2.10
   5   4  -6    1.50    1.50
  -5  -4   6    0.40    3.50
   4   4  -6   43.90    2.80
   4   4  -6   41.80    6.00
   4   4  -6   39.00    6.50
   4   4  -6   33.80    5.50
   4   4  -6   40.00    2.30
  -4  -4   6   38.60    6.00
   3   4  -6  124.19   10.00
   3   4  -6  134.59    9.20
   3   4  -6  135.19    5.10
   3   4  -6  143.99    8.70
   3   4  -6  131.89    4.50
   2   4  -6   -0.60    1.90
   2   4  -6    3.80    4.50
   2   4  -6    2.20    1.50
   2   4  -6    1.10    3.40
   2   4  -6    2.70    2.70
  -2  -4   6    5.80    3.50
   1   4  -6    4.20    2.60
   1   4  -6    6.80    2.20
   1   4  -6    5.90    4.00
   1   4  -6    3.70    2.00
   1   4  -6    7.80    2.40
   1   4  -6    6.70    1.90
  -1  -4   6    6.70    2.70
  -1  -4   6    4.00    1.60
  -1  -4   6    6.00    3.50
   0   4  -6   46.10    5.60
   0   4  -6   40.50    6.20
   0   4  -6   50.09    5.20
   0   4  -6   35.70    4.30
   0   4  -6   41.10    3.70
   0   4  -6   45.30    4.60
   0  -4   6   45.40    5.60
   0  -4   6   47.70    6.50
   0  -4   6   41.30    3.70
  -1   4  -6   -2.00    2.80
  -1   4  -6    0.70    2.80
  -1   4  -6    3.70    2.70
  -1   4  -6   -0.30    4.00
  -1   4  -6    0.60    3.80
   1  -4   6    2.20    3.50
   1  -4   6   -1.90    2.20
   1  -4   6    2.00    3.50
  -2   4  -6   86.79    8.60
  -2   4  -6   86.39    9.20
  -2   4  -6   80.39    7.30
  -2   4  -6   76.49    7.00
  -2   4  -6   77.29    7.20
   2  -4   6   79.59    3.90
   2  -4   6   80.29    4.30
   2  -4   6   85.79    7.40
   2  -4   6   79.59    6.30
   2  -4   6   84.59    8.40
  -3   4  -6  443.16   16.90
  -3   4  -6  470.75   20.10
  -3   4  -6  489.45   17.30
  -3   4  -6  475.85   18.30
  -3   4  -6  453.05   17.10
   3  -4   6  449.46   18.70
   3  -4   6  463.35   14.50
   3  -4   6  472.75   13.80
   3  -4   6  467.25   15.90
  -4   4  -6   18.50    5.30
  -4   4  -6   20.90    7.60
  -4   4  -6   25.00    6.10
  -4   4  -6   24.40    6.00
  -4   4  -6   26.30    6.10
   4  -4   6   28.60    4.20
   4  -4   6   33.40    6.70
   4  -4   6   33.80    5.90
   4  -4   6   27.80    4.70
  -5   4  -6   67.79    9.10
  -5   4  -6   49.20   10.40
  -5   4  -6   61.89    8.40
  -5   4  -6   61.69    7.80
  -5   4  -6   47.00    7.20
   5  -4   6   45.60    5.60
   5  -4   6   43.90    6.20
   5  -4   6   59.39    7.50
   5  -4   6   30.40    7.80
  -6   4  -6  112.89   13.50
  -6   4  -6   81.49   13.50
  -6   4  -6  110.49   14.20
  -6   4  -6  133.09   11.40
   6  -4   6  119.59   12.40
   6  -4   6  130.19   10.80
   6  -4   6  111.99   10.60
   7   3  -6    7.60    5.10
   7   3  -6   -4.00    3.90
   7   3  -6    5.80    5.90
  -7  -3   6    1.50    3.60
   6   3  -6   98.69   10.00
   6   3  -6   88.69    9.20
   6   3  -6   87.79    5.00
   6   3  -6   90.49   10.30
   6   3  -6  102.99    5.90
  -6  -3   6   93.79    8.00
   5   3  -6   47.30    6.30
   5   3  -6   34.20    2.70
   5   3  -6   25.50    5.40
   5   3  -6   37.00    6.00
   5   3  -6   30.50    3.40
  -5  -3   6   20.50    4.80
   4   3  -6   29.70    5.20
   4   3  -6   27.30    5.00
   4   3  -6   43.00    5.70
  -4  -3   6   45.80    6.10
   3   3  -6   98.39    7.80
   3   3  -6   84.49    8.00
   3   3  -6   96.09    7.80
  -3  -3   6   87.59    7.20
   2   3  -6   56.69    2.60
   2   3  -6   56.69    7.10
   2   3  -6   56.79    5.90
   2   3  -6   54.09    3.00
   2   3  -6   56.59    6.50
  -2  -3   6   52.39    6.20
   1   3  -6    1.70    3.90
   1   3  -6    6.50    3.30
   1   3  -6    6.80    1.70
   1   3  -6    8.10    2.80
  -1  -3   6    3.00    3.00
  -1  -3   6    5.80    1.20
  -1  -3   6    7.10    1.90
   0   3  -6  202.18   10.40
   0   3  -6  203.68    7.50
   0   3  -6  206.38    7.70
   0   3  -6  194.08    8.10
   0   3  -6  203.38    7.90
   0   3  -6  197.78    7.40
   0  -3   6  204.68   10.10
   0  -3   6  203.38    8.30
   0  -3   6  207.48    7.00
  -1   3  -6  597.54   17.90
  -1   3  -6  613.64   18.10
  -1   3  -6  624.34   19.60
  -1   3  -6  618.14   20.70
  -1   3  -6  624.44   18.10
   1  -3   6  617.94   17.40
   1  -3   6  639.74   20.60
   1  -3   6  609.84   19.10
  -2   3  -6  419.46   16.70
  -2   3  -6  436.46   14.80
  -2   3  -6  444.36   14.70
  -2   3  -6  444.06   16.50
   2  -3   6  454.15   11.80
   2  -3   6  442.66   14.10
   2  -3   6  434.06   16.00
   2  -3   6  447.76   16.00
   2  -3   6  433.56   12.10
  -3   3  -6 1212.48   36.00
  -3   3  -6 1200.18   33.60
  -3   3  -6 1180.28   33.80
  -3   3  -6 1225.98   34.80
  -3   3  -6 1234.88   33.60
   3  -3   6 1182.48   30.60
   3  -3   6 1238.68   32.80
   3  -3   6 1165.58   31.10
   3  -3   6 1206.78   35.00
  -4   3  -6   89.69    8.40
  -4   3  -6  100.89    8.50
  -4   3  -6   81.99   10.70
  -4   3  -6   81.79    8.20
  -4   3  -6   77.49    8.20
   4  -3   6   86.89    6.00
   4  -3   6   84.19    8.90
   4  -3   6   91.19    7.30
   4  -3   6   69.09    6.40
  -5   3  -6   12.10    8.00
  -5   3  -6   28.70    5.70
  -5   3  -6   25.50    5.40
  -5   3  -6   25.10    6.60
  -5   3  -6   15.10    5.20
   5  -3   6   28.70    5.00
   5  -3   6   26.40    4.60
   5  -3   6   11.10    5.90
   5  -3   6   19.60    5.10
  -6   3  -6  144.89   12.10
  -6   3  -6  178.28   11.10
  -6   3  -6  157.08   15.80
  -6   3  -6  141.79   12.30
  -6   3  -6  163.48   13.00
   6  -3   6  164.78   10.80
   6  -3   6  161.08   13.90
   6  -3   6  169.68   12.40
   6  -3   6  154.08   10.70
  -7   3  -6   84.29   10.50
  -7   3  -6   81.09   15.20
  -7   3  -6  112.29   14.00
   7  -3   6  120.99   11.80
   7  -3   6  121.69   12.80
   7  -3   6  108.39   11.20
   7   2  -6   -8.50    5.00
   7   2  -6    2.70    3.60
   7   2  -6    5.00    3.90
   6   2  -6  196.18   11.20
   6   2  -6  193.58    7.50
   6   2  -6  180.08   11.10
   6   2  -6  180.88    7.60
   6   2  -6  165.58   12.40
  -6  -2   6  172.28   10.10
   5   2  -6    7.20    4.10
   5   2  -6    4.20    1.90
   5   2  -6    2.00    4.00
   5   2  -6    4.30    1.90
   5   2  -6    4.40    4.50
  -5  -2   6    7.90    3.80
   4   2  -6   18.40    5.10
   4   2  -6   14.50    4.20
   4   2  -6   16.00    4.20
   3   2  -6   29.00    4.90
   3   2  -6   23.70    4.40
   3   2  -6   22.80    4.30
  -3  -2   6   21.60    4.30
   2   2  -6  284.57   11.60
   2   2  -6  276.47   12.00
   2   2  -6  280.47   12.00
  -2  -2   6  283.87   12.00
   1   2  -6   15.90    4.20
   1   2  -6   15.00    3.20
   1   2  -6   15.40    1.70
   1   2  -6   14.10    1.70
   1   2  -6   15.10    3.60
  -1  -2   6   17.10    1.90
  -1  -2   6   11.90    3.40
  -1  -2   6   11.80    1.30
   0   2  -6   41.30    5.10
   0   2  -6   44.20    4.20
   0   2  -6   46.50    3.50
   0   2  -6   43.70    4.10
   0   2  -6   43.60    3.20
   0   2  -6   36.30    3.70
   0  -2   6   39.30    5.10
   0  -2   6   38.40    3.60
  -1   2  -6    3.80    1.90
  -1   2  -6    2.90    1.90
  -1   2  -6    2.40    2.00
  -1   2  -6    2.90    2.70
  -1   2  -6    8.00    2.80
  -1   2  -6    5.60    2.10
   1  -2   6    7.40    3.10
   1  -2   6    5.00    3.30
   1  -2   6    5.60    2.50
   1  -2   6    6.30    2.20
  -2   2  -6  125.99    8.00
  -2   2  -6  121.79    6.70
  -2   2  -6  139.19    8.50
  -2   2  -6  130.09    6.60
  -2   2  -6  123.69    6.60
  -2   2  -6  120.49    4.90
   2  -2   6  122.39    4.60
   2  -2   6  124.29    6.40
   2  -2   6  127.49    4.50
   2  -2   6  118.79    7.50
   2  -2   6  134.69    8.10
   2  -2   6  129.99    7.70
  -3   2  -6  139.59    7.90
  -3   2  -6  134.29    7.70
  -3   2  -6  137.29    8.60
  -3   2  -6  153.18    9.50
  -3   2  -6  143.49    7.80
   3  -2   6  144.69    8.60
   3  -2   6  140.79    7.30
   3  -2   6  135.69    8.90
   3  -2   6  135.59    6.10
   3  -2   6  146.19    6.00
  -4   2  -6  376.96   16.20
  -4   2  -6  363.06   14.30
  -4   2  -6  355.16   14.10
  -4   2  -6  354.96   14.40
   4  -2   6  364.36   13.60
   4  -2   6  366.56   12.60
   4  -2   6  348.57   15.30
   4  -2   6  368.96   14.20
   4  -2   6  372.56   12.20
  -5   2  -6  399.16   15.10
  -5   2  -6  388.36   18.50
  -5   2  -6  387.86   15.80
  -5   2  -6  383.96   16.20
  -5   2  -6  407.16   15.90
   5  -2   6  367.16   17.00
   5  -2   6  389.06   15.00
   5  -2   6  394.16   14.20
   5  -2   6  376.26   15.00
   5  -2   6  413.16   14.10
  -6   2  -6  426.36   17.70
  -6   2  -6  440.76   17.70
  -6   2  -6  409.96   20.70
  -6   2  -6  430.76   18.50
   6  -2   6  467.05   18.00
   6  -2   6  447.66   16.20
   6  -2   6  424.36   16.30
   6  -2   6  421.06   18.50
  -7   2  -6   43.40    8.00
  -7   2  -6   33.00    9.50
  -7   2  -6   26.10    7.00
  -7   2  -6   21.70    6.80
   7  -2   6   34.20    6.10
   7  -2   6   24.90    7.30
   7  -2   6   12.80    8.10
   7  -2   6   44.10    6.70
  -8   2  -6   -3.70    7.30
  -8   2  -6   11.20    8.60
  -8   2  -6   15.70   12.20
   8  -2   6   18.90    7.20
   8  -2   6    6.80    8.60
   7   1  -6   86.39    7.80
   7   1  -6   85.89    8.30
   7   1  -6   92.49    7.40
  -7  -1   6  110.49   14.40
  -7  -1   6   90.69    6.40
   6   1  -6    0.00    5.30
   6   1  -6    5.10    2.90
   6   1  -6    2.50    2.90
  -6  -1   6    0.10    2.10
  -6  -1   6    7.80    3.40
  -6  -1   6    1.10    2.00
  -6  -1   6   -3.80    6.00
   5   1  -6  188.58   12.10
   5   1  -6  193.18   10.80
   5   1  -6  190.88    6.90
   5   1  -6  191.48    7.00
  -5  -1   6  175.48   10.00
  -5  -1   6  202.28   12.60
   4   1  -6  792.42   19.90
   4   1  -6  817.72   24.80
   4   1  -6  797.92   25.70
   4   1  -6  781.22   19.80
   4   1  -6  767.02   28.80
  -4  -1   6  799.92   24.80
   3   1  -6  192.88    9.80
   3   1  -6  200.98   10.40
   3   1  -6  201.78   10.00
  -3  -1   6  194.38    9.60
   2   1  -6  388.36   13.80
   2   1  -6  371.86   14.00
   2   1  -6  362.56   13.80
  -2  -1   6  356.16   13.60
   1   1  -6  321.97    8.50
   1   1  -6  313.47    8.60
   1   1  -6  321.57   13.20
   1   1  -6  322.27   12.00
   1   1  -6  314.07   12.30
  -1  -1   6  329.37    8.20
  -1  -1   6  311.77    8.10
  -1  -1   6  323.97   12.20
  -1  -1   6  318.27   12.40
   0   1  -6  470.95   16.40
   0   1  -6  477.65   13.20
   0   1  -6  491.65   13.00
   0   1  -6  485.25   16.40
   0   1  -6  488.85   13.10
   0   1  -6  501.15   13.70
   0   1  -6  476.75   15.10
   0  -1   6  500.05   13.50
   0  -1   6  478.45   16.10
   0  -1   6  482.55   16.30
  -1   1  -6    9.50    2.70
  -1   1  -6   11.60    2.10
  -1   1  -6   12.10    2.10
  -1   1  -6   13.90    3.30
  -1   1  -6    9.40    2.10
   1  -1   6    9.20    3.00
   1  -1   6    9.40    2.80
   1  -1   6   12.20    2.50
   1  -1   6   10.80    2.10
  -2   1  -6  112.59    7.10
  -2   1  -6  119.79    6.00
  -2   1  -6  110.29    6.00
  -2   1  -6  110.29    5.80
   2  -1   6  120.29    6.50
   2  -1   6  107.59    6.80
   2  -1   6  123.59    7.20
   2  -1   6  111.69    4.10
   2  -1   6  112.39    5.90
  -3   1  -6  817.22   23.70
  -3   1  -6  826.72   24.10
  -3   1  -6  848.62   25.40
  -3   1  -6  848.22   23.40
  -3   1  -6  788.62   25.90
   3  -1   6  859.71   22.00
   3  -1   6  798.52   21.90
   3  -1   6  837.52   23.60
   3  -1   6  827.62   24.60
   3  -1   6  842.22   24.50
  -4   1  -6 1050.59   31.40
  -4   1  -6 1036.30   28.90
  -4   1  -6  990.60   29.50
  -4   1  -6 1041.00   29.40
  -4   1  -6 1030.20   29.40
   4  -1   6 1053.49   30.40
   4  -1   6 1027.00   29.10
   4  -1   6 1016.70   27.60
   4  -1   6 1027.90   29.30
   4  -1   6 1019.00   27.50
  -5   1  -6  283.97   14.30
  -5   1  -6  287.27   12.90
  -5   1  -6  292.37    8.70
  -5   1  -6  301.57   12.60
  -5   1  -6  288.77   13.10
  -5   1  -6  287.97   11.90
   5  -1   6  285.37   12.10
   5  -1   6  281.57   11.30
   5  -1   6  275.17   11.20
   5  -1   6  293.77   13.30
  -6   1  -6   92.09   12.10
  -6   1  -6  102.59    5.20
  -6   1  -6  100.89    9.40
  -6   1  -6  103.59   10.00
  -6   1  -6   97.69    9.00
   6  -1   6  106.29    9.50
   6  -1   6  109.49    8.20
   6  -1   6   96.19    7.90
   6  -1   6  107.49    9.70
   6  -1   6  110.69    8.40
  -7   1  -6  175.28   12.10
  -7   1  -6  201.38   13.60
  -7   1  -6  181.98    7.70
  -7   1  -6  168.78   15.80
  -7   1  -6  198.08   12.70
   7  -1   6  184.08   13.40
   7  -1   6  195.88   11.70
   7  -1   6  179.38   10.50
   7  -1   6  200.28   12.90
   7  -1   6  175.38   10.70
  -8   1  -6  207.98   19.40
  -8   1  -6  195.48   15.00
  -8   1  -6  160.88   13.70
   8  -1   6  211.78   15.90
   8  -1   6  189.78   12.90
   8  -1   6  170.38   13.20
   8  -1   6  207.88   15.00
  -9   1  -6   11.10   15.70
   9  -1   6   28.70   10.20
   9  -1   6   22.20    9.40
   7   0  -6   20.60    3.80
   7   0  -6   18.30    5.10
  -7   0   6   13.40    8.10
  -7   0   6   11.10    4.70
  -7   0   6   14.50    6.10
   6   0  -6    0.50    2.30
   6   0  -6   -2.50    5.50
   6   0  -6    1.90    1.80
   6   0  -6   -1.90    3.00
   6   0  -6   -3.90    3.30
   6   0  -6    0.70    3.10
  -6   0   6   -0.70    3.10
  -6   0   6    8.10    6.10
  -6   0   6    1.20    3.30
  -6   0   6   -2.10    2.60
   5   0  -6  376.36   11.90
   5   0  -6  394.86   11.80
   5   0  -6  377.46   16.80
   5   0  -6  393.76   13.60
   5   0  -6  380.76   15.20
  -5   0   6  403.86   17.20
  -5   0   6  343.67   14.60
  -5   0   6  379.36   11.70
  -5   0   6  382.66   11.50
   4   0  -6  817.22   21.30
   4   0  -6  830.02   23.90
   4   0  -6  825.82   26.80
   4   0  -6  837.42   25.50
   4   0  -6  839.92   21.30
  -4   0   6  811.12   20.80
  -4   0   6  884.01   26.70
  -4   0   6  816.92   25.20
  -4   0   6  800.12   20.80
   3   0  -6  272.37    7.70
   3   0  -6  267.27    7.60
   3   0  -6  276.77   11.70
   3   0  -6  275.87   10.70
   3   0  -6  266.17   12.40
  -3   0   6  260.57    7.20
  -3   0   6  270.57   12.40
  -3   0   6  251.87   11.10
  -3   0   6  259.97    7.20
   2   0  -6  459.25   11.90
   2   0  -6  456.15   15.20
   2   0  -6  449.66   16.60
   2   0  -6  448.36   15.90
   2   0  -6  466.85   11.70
  -2   0   6  450.15   11.50
  -2   0   6  475.45   15.20
  -2   0   6  448.06   15.70
  -2   0   6  474.15   11.40
   1   0  -6  476.35   12.50
   1   0  -6  465.15   15.50
   1   0  -6  480.55   15.80
   1   0  -6  494.45   12.10
   1   0  -6  460.65   15.90
  -1   0   6  458.35   12.30
  -1   0   6  486.95   12.00
  -1   0   6  480.65   15.50
  -1   0   6  446.26   15.60
   0   0  -6 2403.56   59.69
   0   0  -6 2316.67   59.89
   0   0  -6 2382.66   56.29
   0   0  -6 2352.86   56.69
   0   0  -6 2404.06   56.89
   0   0   6 2418.46   59.59
   0   0   6 2313.57   59.69
   0   0   6 2301.17   56.49
  -1   0  -6  164.08    6.90
  -1   0  -6  160.58    6.00
  -1   0  -6  168.98    8.00
  -1   0  -6  160.08    6.20
  -1   0  -6  165.68    6.40
   1   0   6  163.48    6.50
   1   0   6  150.18    7.80
   1   0   6  158.78    8.00
   1   0   6  167.08    6.60
  -2   0  -6   38.60    4.50
  -2   0  -6   43.20    3.60
  -2   0  -6   46.20    3.90
  -2   0  -6   41.00    3.80
  -2   0  -6   45.10    4.80
   2   0   6   35.50    4.60
   2   0   6   37.30    4.20
   2   0   6   42.60    4.30
   2   0   6   42.10    2.70
   2   0   6   42.80    4.10
   2   0   6   37.00    3.30
  -3   0  -6    1.50    2.80
  -3   0  -6    2.40    2.30
  -3   0  -6    7.10    2.50
  -3   0  -6    5.50    2.40
  -3   0  -6    4.30    2.80
   3   0   6    5.00    1.70
   3   0   6    1.30    2.20
   3   0   6    7.50    2.90
   3   0   6    6.30    1.60
   3   0   6   -1.50    2.20
  -4   0  -6   -0.40    2.40
  -4   0  -6    4.40    2.70
  -4   0  -6    3.80    3.80
  -4   0  -6    3.00    2.60
  -4   0  -6    4.30    2.80
   4   0   6    2.60    2.00
   4   0   6    3.10    2.80
   4   0   6    1.40    2.70
   4   0   6   -1.20    2.80
   4   0   6    1.80    2.20
  -5   0  -6    2.60    3.00
  -5   0  -6   -0.30    3.30
  -5   0  -6    0.70    3.20
  -5   0  -6    0.70    1.80
   5   0   6    4.90    3.30
   5   0   6    1.90    3.70
   5   0   6   -0.30    2.50
   5   0   6   10.10    4.00
   5   0   6    4.10    2.50
  -6   0  -6  231.68   12.20
  -6   0  -6  260.17   14.80
  -6   0  -6  248.58    9.00
  -6   0  -6  236.28   12.50
  -6   0  -6  266.17   12.10
   6   0   6  236.08   10.80
   6   0   6  265.47   12.50
   6   0   6  232.08   12.90
   6   0   6  251.37   11.30
  -7   0  -6   23.60    7.50
  -7   0  -6   25.90    5.60
  -7   0  -6   24.20    3.90
  -7   0  -6   19.70    5.20
  -7   0  -6   16.60    6.00
   7   0   6   21.80    6.40
   7   0   6   25.60    5.20
   7   0   6   20.90    6.40
   7   0   6   21.20    4.80
   7   0   6   16.70    5.20
  -8   0  -6   58.89   11.10
  -8   0  -6   72.99    8.90
  -8   0  -6   58.89    8.60
  -8   0  -6   48.50    8.10
  -8   0  -6   67.59    7.10
   8   0   6   64.29    8.30
   8   0   6   71.59    8.10
   8   0   6   70.49    8.90
   8   0   6   67.09    9.50
  -9   0  -6   35.40    9.40
  -9   0  -6   35.90    8.80
  -9   0  -6   30.30   12.60
  -9   0  -6   30.20    5.90
   9   0   6   37.20    8.50
   9   0   6   24.70    6.40
   9   0   6   39.80    9.10
   7  -1  -6  270.97   10.40
   7  -1  -6  268.57   13.10
   7  -1  -6  272.77   12.60
  -7   1   6  289.77   19.20
  -7   1   6  234.18   11.80
   6  -1  -6  177.78    8.80
   6  -1  -6  170.28   12.70
   6  -1  -6  179.98    7.60
  -6   1   6  174.08   12.70
  -6   1   6  184.88   14.10
  -6   1   6  188.18    9.50
   5  -1  -6  811.32   21.90
   5  -1  -6  772.32   22.00
   5  -1  -6  796.32   20.70
   5  -1  -6  783.22   26.90
   5  -1  -6  753.92   22.10
  -5   1   6  787.12   24.60
  -5   1   6  843.42   27.00
  -5   1   6  768.02   21.80
   4  -1  -6  306.57   10.10
   4  -1  -6  313.67   10.30
   4  -1  -6  310.07   13.00
   4  -1  -6  316.17   14.60
   4  -1  -6  318.07    9.30
   4  -1  -6  306.37    9.90
  -4   1   6  344.67   14.60
  -4   1   6  280.97   12.30
  -4   1   6  301.87   10.00
   3  -1  -6  847.72   22.20
   3  -1  -6  889.61   21.60
   3  -1  -6  845.62   21.90
   3  -1  -6  848.62   21.80
   3  -1  -6  861.61   26.70
   3  -1  -6  830.12   25.40
   3  -1  -6  853.41   23.90
  -3   1   6  877.01   23.90
  -3   1   6  801.22   22.20
  -3   1   6  886.31   26.60
  -3   1   6  856.11   21.90
  -3   1   6  848.12   25.30
   2  -1  -6  918.41   23.50
   2  -1  -6  894.51   21.90
   2  -1  -6  922.41   22.10
   2  -1  -6  801.42   26.70
   2  -1  -6  901.91   24.70
   2  -1  -6  885.91   22.60
   2  -1  -6  870.41   25.80
  -2   1   6  881.01   21.90
  -2   1   6  882.11   26.20
  -2   1   6  895.21   24.60
  -2   1   6  825.72   25.20
  -2   1   6  859.51   22.50
   1  -1  -6    0.90    0.90
   1  -1  -6   -0.80    1.10
   1  -1  -6    1.40    2.10
   1  -1  -6    1.60    1.40
   1  -1  -6    2.30    2.60
  -1   1   6    0.80    0.90
  -1   1   6    1.60    2.20
  -1   1   6   -2.10    1.90
   0  -1  -6    4.80    1.70
   0  -1  -6    7.40    1.80
   0  -1  -6    6.60    1.30
   0  -1  -6    2.30    1.90
   0  -1  -6    3.60    1.70
   0  -1  -6    4.00    2.20
   0   1   6    1.90    1.30
   0   1   6    6.60    2.60
   0   1   6    5.20    2.90
  -1  -1  -6 1202.88   30.90
  -1  -1  -6 1239.68   31.40
  -1  -1  -6 1211.98   32.60
  -1  -1  -6 1195.68   30.90
  -1  -1  -6 1232.38   30.40
  -1  -1  -6 1184.98   32.80
   1   1   6 1203.98   30.90
   1   1   6 1221.98   31.30
   1   1   6 1219.88   32.70
   1   1   6 1220.48   32.80
  -2  -1  -6  733.83   19.70
  -2  -1  -6  726.63   21.20
  -2  -1  -6  694.43   20.10
  -2  -1  -6  720.73   20.40
  -2  -1  -6  740.23   20.90
   2   1   6  722.03   18.40
   2   1   6  714.63   21.40
   2   1   6  740.73   21.30
   2   1   6  738.73   18.90
   2   1   6  718.03   20.40
   2   1   6  730.33   20.50
  -3  -1  -6  256.77    9.30
  -3  -1  -6  250.17    9.70
  -3  -1  -6  248.38   10.50
  -3  -1  -6  262.27   10.00
   3   1   6  263.17   10.50
   3   1   6  253.97    8.80
   3   1   6  259.47   10.10
   3   1   6  260.17   10.00
   3   1   6  252.47    8.30
  -4  -1  -6  220.08    9.80
  -4  -1  -6  220.68    9.60
  -4  -1  -6  236.58   10.80
  -4  -1  -6  222.78    9.10
   4   1   6  231.68   10.00
   4   1   6  237.98    9.90
   4   1   6  213.18    8.80
   4   1   6  217.58    8.30
  -5  -1  -6  149.99    8.60
  -5  -1  -6  162.88    8.80
  -5  -1  -6  166.98    8.60
  -5  -1  -6  160.28   10.10
   5   1   6  147.29    8.30
   5   1   6  173.78    9.20
   5   1   6  152.08    8.60
   5   1   6  154.08    9.30
   5   1   6  165.68    8.30
  -6  -1  -6  396.56   15.50
  -6  -1  -6  418.76   12.80
  -6  -1  -6  387.46   14.90
  -6  -1  -6  386.86   17.50
   6   1   6  424.76   16.10
   6   1   6  384.96   14.10
   6   1   6  418.56   14.90
   6   1   6  381.06   16.20
   6   1   6  403.66   14.60
  -7  -1  -6  225.88    9.50
  -7  -1  -6  213.58   12.60
  -7  -1  -6  214.98   12.30
  -7  -1  -6  223.18   11.60
  -7  -1  -6  240.08   15.30
   7   1   6  224.88   11.60
   7   1   6  199.18   10.60
   7   1   6  192.28   12.40
   7   1   6  212.08   12.00
   7   1   6  206.98   10.90
  -8  -1  -6   42.40    6.50
  -8  -1  -6   56.89    8.70
  -8  -1  -6   48.40    6.00
  -8  -1  -6   51.59    7.00
  -8  -1  -6   67.69   11.10
   8   1   6   51.29    7.80
   8   1   6   38.20    5.90
   8   1   6   48.60    6.60
   8   1   6   42.80    6.10
   8   1   6   49.30    8.40
  -9  -1  -6    4.40    7.50
  -9  -1  -6    1.60    7.30
  -9  -1  -6    3.10   10.40
  -9  -1  -6    2.50    5.10
  -9  -1  -6   -2.80   10.40
   9   1   6    9.00    7.50
   9   1   6   -4.10    7.30
   9   1   6    0.70    6.50
   9   1   6   -7.40    5.60
   9   1   6    5.30    5.40
 -10  -1  -6    0.10   10.30
 -10  -1  -6   21.20   15.50
  10   1   6    3.90    9.80
   7  -2  -6   23.20    4.70
   7  -2  -6   16.00    5.80
   7  -2  -6   24.20    6.40
  -7   2   6   21.70    9.40
  -7   2   6   23.00    6.10
   6  -2  -6   76.19    7.70
   6  -2  -6   75.79    7.20
   6  -2  -6   63.29    8.10
   6  -2  -6   75.39    6.10
   6  -2  -6   60.99    8.20
  -6   2   6   78.09   10.10
  -6   2   6   67.69    7.50
  -6   2   6   73.69    9.80
   5  -2  -6  308.67   11.20
   5  -2  -6  298.57   14.90
   5  -2  -6  294.47   12.10
   5  -2  -6  289.97   12.20
   5  -2  -6  321.87   10.60
  -5   2   6  299.27   15.20
  -5   2   6  307.17   11.70
  -5   2   6  304.57   13.00
   4  -2  -6    3.30    2.20
   4  -2  -6    1.10    3.10
   4  -2  -6    0.90    4.00
   4  -2  -6    0.30    2.10
   4  -2  -6    4.70    3.50
   4  -2  -6    3.90    2.60
  -4   2   6    2.10    2.80
  -4   2   6   -1.80    2.40
  -4   2   6    1.10    4.40
  -4   2   6   -1.00    3.40
   3  -2  -6  218.38    9.20
   3  -2  -6  216.18    8.00
   3  -2  -6  223.88    7.80
   3  -2  -6  229.78    7.80
   3  -2  -6  220.48   10.40
   3  -2  -6  203.78   11.50
  -3   2   6  223.28    8.00
  -3   2   6  221.28    9.90
  -3   2   6  222.38    9.00
  -3   2   6  215.88   12.10
  -3   2   6  244.98    9.20
   2  -2  -6  170.48    6.50
   2  -2  -6  168.98    8.70
   2  -2  -6  163.78    7.60
   2  -2  -6  182.48    6.20
   2  -2  -6  169.38    6.30
  -2   2   6  173.98    7.30
  -2   2   6  185.58    9.70
  -2   2   6  170.78    6.20
  -2   2   6  165.68    8.00
  -2   2   6  183.18    8.00
   1  -2  -6   67.89    4.00
   1  -2  -6   65.29    3.60
   1  -2  -6   69.29    3.50
   1  -2  -6   69.69    4.80
   1  -2  -6   69.09    5.70
  -1   2   6   66.99    5.00
  -1   2   6   63.79    3.40
  -1   2   6   73.09    4.50
  -1   2   6   69.09    5.30
  -1   2   6   70.59    5.80
   0  -2  -6 1740.93   43.00
   0  -2  -6 1704.13   45.40
   0  -2  -6 1738.33   43.90
   0  -2  -6 1770.22   43.50
   0  -2  -6 1752.72   42.50
   0   2   6 1788.32   45.00
   0   2   6 1690.73   44.80
   0   2   6 1771.92   42.80
   0   2   6 1802.92   43.80
  -1  -2  -6  310.67    9.20
  -1  -2  -6  300.67   10.10
  -1  -2  -6  280.07   10.90
  -1  -2  -6  283.87    9.80
  -1  -2  -6  281.27    9.50
   1   2   6  301.17   10.20
   1   2   6  296.57    8.10
   1   2   6  302.57   11.10
   1   2   6  303.57   10.80
   1   2   6  294.67    8.60
   1   2   6  298.67    9.60
  -2  -2  -6  992.40   26.80
  -2  -2  -6 1018.40   28.00
  -2  -2  -6 1015.60   26.30
  -2  -2  -6 1031.70   27.60
  -2  -2  -6 1017.60   27.10
   2   2   6 1007.30   27.40
   2   2   6  994.70   28.00
   2   2   6 1006.00   25.20
   2   2   6 1024.20   26.00
   2   2   6 1004.30   27.50
   2   2   6 1010.70   27.00
  -3  -2  -6 1140.69   31.30
  -3  -2  -6 1110.59   30.70
  -3  -2  -6 1144.19   29.90
  -3  -2  -6 1140.09   30.40
   3   2   6 1158.78   30.80
   3   2   6 1134.99   28.80
   3   2   6 1122.49   29.70
   3   2   6 1146.69   30.90
   3   2   6 1157.78   31.30
  -4  -2  -6  153.98    7.20
  -4  -2  -6  147.89    8.00
  -4  -2  -6  163.98    8.70
  -4  -2  -6  164.38    7.90
   4   2   6  166.68    8.00
   4   2   6  152.78    8.00
   4   2   6  167.18    8.40
   4   2   6  161.08    6.70
   4   2   6  161.18    7.40
  -5  -2  -6  347.97   13.00
  -5  -2  -6  313.27   12.90
  -5  -2  -6  339.57   12.40
  -5  -2  -6  322.87   14.10
   5   2   6  341.77   12.70
   5   2   6  350.36   12.50
   5   2   6  316.47   11.40
   5   2   6  340.27   13.40
   5   2   6  327.57   13.40
  -6  -2  -6  262.97   14.70
  -6  -2  -6  335.67   13.30
  -6  -2  -6  246.08   21.20
  -6  -2  -6  281.27   14.70
   6   2   6  302.77   11.60
   6   2   6  337.37   13.90
   6   2   6  329.77   12.80
   6   2   6  328.57   13.70
   6   2   6  325.47   12.60
  -7  -2  -6   71.39    9.50
  -7  -2  -6   65.39    8.00
  -7  -2  -6   80.09    6.20
  -7  -2  -6   69.39    7.70
  -7  -2  -6   67.39    8.00
   7   2   6   79.69    8.70
   7   2   6   74.59    7.40
   7   2   6   79.59    7.00
   7   2   6   70.99    8.90
   7   2   6   76.99    8.10
  -8  -2  -6  233.78   12.70
  -8  -2  -6  228.98   11.10
  -8  -2  -6  197.98   13.50
  -8  -2  -6  247.78   16.60
  -8  -2  -6  224.78   12.50
   8   2   6  229.58   14.10
   8   2   6  235.78   12.80
   8   2   6  248.98   13.80
   8   2   6  215.88   11.50
   8   2   6  242.18   11.90
  -9  -2  -6   19.70    6.50
  -9  -2  -6   20.00    6.10
  -9  -2  -6   26.30    6.60
  -9  -2  -6    4.60    9.90
  -9  -2  -6   23.20    7.40
   9   2   6   31.80    8.00
   9   2   6   28.60    7.90
   9   2   6   34.20    7.80
   9   2   6   41.50    7.10
 -10  -2  -6    0.50    8.90
 -10  -2  -6    2.40   13.20
 -10  -2  -6    4.30    6.80
  10   2   6   11.20    6.20
  10   2   6  -12.70    9.40
  10   2   6    6.60    9.50
  10   2   6    5.00    8.50
   6  -3  -6    4.00    9.80
   6  -3  -6    4.70    4.60
   6  -3  -6    1.10    3.60
   6  -3  -6   -8.30    4.00
   6  -3  -6    1.20    7.20
  -6   3   6   -0.40    6.90
  -6   3   6    8.20    4.90
  -6   3   6    4.40    6.50
   5  -3  -6  149.29   11.80
   5  -3  -6  140.49    9.00
   5  -3  -6  139.09    7.70
   5  -3  -6  157.38   10.40
   5  -3  -6  140.79    8.10
  -5   3   6  138.29   10.80
  -5   3   6  151.18   12.20
  -5   3   6  142.49    8.60
   4  -3  -6  136.99    6.90
   4  -3  -6  134.29    6.80
   4  -3  -6  123.09    8.70
   4  -3  -6  116.39   10.50
   4  -3  -6  133.09   11.00
  -4   3   6  138.29    9.10
  -4   3   6  117.99    7.50
  -4   3   6  129.19    7.30
  -4   3   6  131.89    6.30
  -4   3   6  138.29   10.60
   3  -3  -6 2921.71   74.79
   3  -3  -6 3004.70   72.49
   3  -3  -6 3056.79   75.29
   3  -3  -6 3003.60   72.39
   3  -3  -6 2946.51   72.79
   3  -3  -6 3035.80   77.09
  -3   3   6 2969.60   72.69
  -3   3   6 2971.40   72.79
  -3   3   6 3034.60   76.39
  -3   3   6 2864.61   74.09
  -3   3   6 3038.80   74.39
   2  -3  -6  245.68    8.30
   2  -3  -6  238.18    8.60
   2  -3  -6  229.18   10.40
   2  -3  -6  249.88    8.80
   2  -3  -6  237.98   10.40
  -2   3   6  233.58   11.20
  -2   3   6  244.98    9.90
  -2   3   6  236.78    9.70
  -2   3   6  247.78    6.70
  -2   3   6  248.08    9.40
   1  -3  -6  176.48    7.10
   1  -3  -6  187.28    8.40
   1  -3  -6  173.98    6.70
   1  -3  -6  173.38    6.40
  -1   3   6  177.68    7.80
  -1   3   6  184.88    8.00
  -1   3   6  174.38    6.60
  -1   3   6  179.28    9.10
  -1   3   6  170.58    5.50
  -1   3   6  169.68    5.70
  -1   3   6  171.48    7.70
   0  -3  -6   89.59    4.60
   0  -3  -6   92.39    6.10
   0  -3  -6   96.89    5.30
   0  -3  -6   91.99    5.70
   0  -3  -6   96.39    4.40
   0   3   6   95.89    4.70
   0   3   6   95.39    4.00
   0   3   6   92.19    5.50
   0   3   6   99.49    4.40
   0   3   6  101.59    6.00
   0   3   6  103.09    6.40
   0   3   6   98.59    5.60
  -1  -3  -6  541.75   16.10
  -1  -3  -6  529.15   16.20
  -1  -3  -6  537.95   15.50
  -1  -3  -6  564.64   15.20
  -1  -3  -6  543.25   16.90
   1   3   6  546.25   16.40
   1   3   6  540.45   16.80
   1   3   6  531.75   15.00
   1   3   6  527.55   16.20
   1   3   6  543.15   15.50
   1   3   6  534.35   14.30
  -2  -3  -6  111.69    6.10
  -2  -3  -6  101.39    5.80
  -2  -3  -6  102.89    5.90
  -2  -3  -6  106.59    5.40
  -2  -3  -6  108.29    5.20
   2   3   6  107.09    4.40
   2   3   6  102.89    5.50
   2   3   6  106.79    6.20
   2   3   6  109.79    5.40
   2   3   6  108.89    6.10
   2   3   6  104.99    5.70
  -3  -3  -6  106.39    6.00
  -3  -3  -6  114.29    6.50
  -3  -3  -6  122.49    5.90
  -3  -3  -6  127.69    7.00
  -3  -3  -6  104.69    6.10
   3   3   6  121.79    5.20
   3   3   6  118.89    6.10
   3   3   6  110.79    6.20
   3   3   6  117.99    6.70
   3   3   6  122.39    7.00
  -4  -3  -6  568.64   17.50
  -4  -3  -6  582.94   19.20
  -4  -3  -6  594.84   18.10
  -4  -3  -6  575.34   18.50
   4   3   6  576.74   18.40
   4   3   6  592.44   16.90
   4   3   6  596.34   18.50
   4   3   6  601.34   18.90
   4   3   6  621.54   18.10
  -5  -3  -6  205.58    9.50
  -5  -3  -6  220.48   10.70
  -5  -3  -6  226.28    9.50
  -5  -3  -6  205.58   10.10
   5   3   6  218.78    9.70
   5   3   6  203.08   10.20
   5   3   6  231.88   10.80
   5   3   6  207.78    8.90
   5   3   6  220.28    9.70
  -6  -3  -6  130.99    9.40
  -6  -3  -6  141.39    8.50
  -6  -3  -6  121.69    9.50
   6   3   6  126.69    8.50
   6   3   6  116.69    7.10
   6   3   6  125.59    8.90
   6   3   6  144.39    9.50
   6   3   6  135.69    7.90
  -7  -3  -6    5.50    4.50
  -7  -3  -6    8.50    3.80
  -7  -3  -6    7.50    3.10
  -7  -3  -6    5.10    5.70
  -7  -3  -6    7.50    4.60
   7   3   6    4.70    3.20
   7   3   6   -0.90    4.30
   7   3   6   10.80    5.00
   7   3   6    1.80    3.60
   7   3   6    3.30    3.70
  -8  -3  -6  275.27   13.20
  -8  -3  -6  258.27   13.30
  -8  -3  -6  297.07   17.20
  -8  -3  -6  261.17   14.50
  -8  -3  -6  251.67   13.80
   8   3   6  246.28   14.00
   8   3   6  281.97   14.90
   8   3   6  265.67   12.30
   8   3   6  278.57   14.00
   8   3   6  282.77   13.00
  -9  -3  -6   44.70   10.20
  -9  -3  -6   19.20    5.60
  -9  -3  -6   39.90    6.90
  -9  -3  -6   45.90    7.60
  -9  -3  -6   41.00    7.00
   9   3   6   47.70    8.40
   9   3   6   31.10    6.70
   9   3   6   41.50    8.00
   9   3   6   28.50    6.30
   9   3   6   33.40    6.50
 -10  -3  -6  258.17   16.70
 -10  -3  -6  294.67   23.80
 -10  -3  -6  272.57   16.30
  10   3   6  265.87   14.90
  10   3   6  226.28   17.70
  10   3   6  276.47   19.00
  10   3   6  254.47   17.50
   6  -4  -6    3.90    4.40
   6  -4  -6  -15.40    6.80
   6  -4  -6    2.50    4.90
   6  -4  -6   10.50    5.00
  -6   4   6   13.80    9.20
  -6   4   6   14.30    8.70
   5  -4  -6   -0.40    4.10
   5  -4  -6    2.70    5.70
   5  -4  -6   -5.40    3.60
   5  -4  -6   -1.80    3.30
   5  -4  -6  -12.20    5.20
  -5   4   6    5.90    6.60
  -5   4   6    2.10    2.30
  -5   4   6    1.00    4.00
  -5   4   6    5.80    6.20
  -5   4   6    3.10    2.40
   4  -4  -6   75.29   10.10
   4  -4  -6   87.89    6.70
   4  -4  -6   96.09    7.40
   4  -4  -6  103.79    9.60
   4  -4  -6   95.79    6.80
  -4   4   6   90.89    5.60
  -4   4   6   93.59   10.00
  -4   4   6   93.79    4.90
  -4   4   6   95.89    7.40
  -4   4   6   93.89    9.30
  -4   4   6   99.39    5.30
   3  -4  -6  434.16   16.90
   3  -4  -6  452.15   14.00
   3  -4  -6  431.76   14.60
   3  -4  -6  444.56   14.20
  -3   4   6  421.96   14.40
  -3   4   6  420.86   12.70
  -3   4   6  417.66   12.50
  -3   4   6  423.86   14.30
  -3   4   6  445.26   17.30
  -3   4   6  438.76   16.20
  -3   4   6  418.46   13.50
   2  -4  -6  309.67   10.20
   2  -4  -6  294.17   10.60
   2  -4  -6  278.57   12.70
   2  -4  -6  290.07   10.50
   2  -4  -6  301.77   11.90
  -2   4   6  283.27    9.40
  -2   4   6  299.47   12.10
  -2   4   6  279.47    9.40
  -2   4   6  294.57   10.80
  -2   4   6  295.47   10.80
  -2   4   6  296.87   10.40
   1  -4  -6    3.70    2.10
   1  -4  -6    1.80    1.70
   1  -4  -6    2.60    2.40
   1  -4  -6    4.20    3.20
   1  -4  -6    0.90    1.90
  -1   4   6    2.40    1.90
  -1   4   6    4.00    1.70
  -1   4   6    3.50    1.90
  -1   4   6    3.90    2.10
  -1   4   6    4.20    3.10
  -1   4   6    5.40    2.60
  -1   4   6    9.40    3.00
   0  -4  -6  967.50   26.90
   0  -4  -6  961.70   27.50
   0  -4  -6  959.60   25.90
   0  -4  -6  931.81   25.30
   0  -4  -6  965.10   25.00
   0   4   6  953.40   26.60
   0   4   6  945.51   24.50
   0   4   6  965.30   25.80
   0   4   6  936.81   25.20
   0   4   6  952.60   27.30
   0   4   6  956.70   25.10
   0   4   6  951.40   26.40
  -1  -4  -6   97.29    6.20
  -1  -4  -6   97.99    5.70
  -1  -4  -6  100.39    5.00
  -1  -4  -6   94.39    5.10
  -1  -4  -6   99.99    6.10
   1   4   6   97.99    6.20
   1   4   6  101.59    4.50
   1   4   6  107.79    5.30
   1   4   6   92.99    5.20
   1   4   6   99.79    5.20
   1   4   6   91.49    5.90
   1   4   6  104.89    6.20
  -2  -4  -6    3.40    2.40
  -2  -4  -6    5.40    2.30
  -2  -4  -6    3.90    1.80
  -2  -4  -6   13.20    2.60
   2   4   6    3.70    2.00
   2   4   6    5.90    2.00
   2   4   6    1.30    1.80
   2   4   6    3.20    1.40
   2   4   6    6.60    2.70
  -3  -4  -6   15.40    3.30
  -3  -4  -6   16.80    2.70
  -3  -4  -6    9.40    2.50
  -3  -4  -6   14.30    2.80
  -3  -4  -6   13.30    2.60
   3   4   6   15.50    3.00
   3   4   6   18.30    2.90
   3   4   6   13.20    2.20
   3   4   6   15.50    3.60
   3   4   6   15.60    2.90
  -4  -4  -6  133.29    6.80
  -4  -4  -6  129.59    6.90
  -4  -4  -6  132.19    8.10
  -4  -4  -6  140.59    7.70
  -4  -4  -6  130.29    6.60
   4   4   6  137.69    7.40
   4   4   6  134.59    8.30
   4   4   6  145.79    7.60
   4   4   6  136.69    6.20
  -5  -4  -6  578.04   19.20
  -5  -4  -6  519.75   18.10
  -5  -4  -6  558.84   17.30
  -5  -4  -6  514.05   17.20
   5   4   6  535.45   17.90
   5   4   6  577.64   18.90
   5   4   6  563.04   17.90
   5   4   6  474.05   17.40
  -6  -4  -6  154.08    9.80
  -6  -4  -6  150.48   10.10
  -6  -4  -6  164.98   10.20
  -6  -4  -6  153.58    8.50
   6   4   6  161.28    7.90
   6   4   6  153.08    9.40
   6   4   6  153.68    9.40
   6   4   6  154.68    9.40
  -7  -4  -6  623.94   20.60
  -7  -4  -6  620.84   20.40
  -7  -4  -6  624.84   23.20
  -7  -4  -6  595.54   21.60
   7   4   6  613.44   21.60
   7   4   6  595.34   19.40
   7   4   6  631.04   21.20
   7   4   6  602.74   20.10
  -8  -4  -6  399.26   15.30
  -8  -4  -6  422.16   16.50
  -8  -4  -6  369.96   15.80
  -8  -4  -6  402.16   17.70
  -8  -4  -6  414.86   19.90
   8   4   6  409.06   15.60
   8   4   6  398.86   16.90
   8   4   6  374.16   16.80
   8   4   6  372.46   14.80
  -9  -4  -6   -7.00    4.50
  -9  -4  -6   -5.50    4.70
  -9  -4  -6    4.70    8.50
  -9  -4  -6    1.00    4.80
  -9  -4  -6   -1.30    5.40
   9   4   6    0.40    6.80
   9   4   6    2.60    4.30
   9   4   6   -6.90    4.60
   9   4   6    1.70    6.00
   9   4   6   10.90    6.40
 -10  -4  -6   90.69   11.90
 -10  -4  -6  100.09   14.30
 -10  -4  -6  107.59   11.20
  10   4   6  103.09   11.70
  10   4   6   89.89   10.80
  10   4   6   79.19   11.60
  10   4   6   74.39   10.80
   5  -5  -6   41.10    6.30
   5  -5  -6   45.40    8.50
   5  -5  -6   39.30    5.70
   5  -5  -6   42.90    6.60
   5  -5  -6   39.90    9.30
  -5   5   6   56.39    7.00
  -5   5   6   29.80    6.50
  -5   5   6   31.50    8.10
  -5   5   6   47.00    8.70
   4  -5  -6   34.00    7.50
   4  -5  -6   25.00    5.30
   4  -5  -6   28.70    4.90
   4  -5  -6   30.20    4.90
   4  -5  -6   35.70    6.60
  -4   5   6   31.70    7.10
  -4   5   6   28.90    3.40
  -4   5   6   37.20    5.10
  -4   5   6   37.90    7.00
  -4   5   6   32.40    4.30
   3  -5  -6   27.70    4.80
   3  -5  -6   30.90    4.20
   3  -5  -6   29.10    4.40
   3  -5  -6   27.60    6.40
  -3   5   6   26.00    5.90
  -3   5   6   36.80    6.30
  -3   5   6   26.90    3.60
  -3   5   6   26.70    3.80
  -3   5   6   28.60    3.80
  -3   5   6   23.80    4.40
   2  -5  -6  207.18    9.00
   2  -5  -6  191.28   11.80
   2  -5  -6  203.08    8.70
   2  -5  -6  200.88    9.30
  -2   5   6  197.38    8.40
  -2   5   6  212.58    8.40
  -2   5   6  204.38   11.00
  -2   5   6  203.68    8.90
  -2   5   6  193.18   11.10
  -2   5   6  209.78    8.70
  -2   5   6  211.08    8.30
   1  -5  -6  639.14   22.20
   1  -5  -6  642.74   19.60
   1  -5  -6  650.63   20.10
   1  -5  -6  654.13   18.70
  -1   5   6  644.54   18.60
  -1   5   6  654.73   19.40
  -1   5   6  657.93   19.10
  -1   5   6  625.14   18.40
  -1   5   6  669.83   18.80
  -1   5   6  674.93   21.40
  -1   5   6  679.13   21.20
   0  -5  -6 1844.02   46.40
   0  -5  -6 1831.52   45.40
   0  -5  -6 1769.32   47.10
   0  -5  -6 1751.62   48.40
   0  -5  -6 1795.52   45.80
   0   5   6 1825.22   47.50
   0   5   6 1792.42   45.50
   0   5   6 1790.82   45.60
   0   5   6 1818.12   45.00
   0   5   6 1864.61   47.60
   0   5   6 1787.22   45.00
  -1  -5  -6   68.59    5.20
  -1  -5  -6   81.39    5.60
  -1  -5  -6   64.29    4.80
  -1  -5  -6   71.59    4.80
  -1  -5  -6   64.09    6.30
   1   5   6   54.19    5.30
   1   5   6   64.49    6.00
   1   5   6   69.09    4.40
   1   5   6   66.49    4.20
   1   5   6   77.59    5.30
   1   5   6   71.99    5.70
  -2  -5  -6   74.69    5.20
  -2  -5  -6   90.39    6.60
  -2  -5  -6   81.59    5.30
  -2  -5  -6   81.49    5.00
  -2  -5  -6   86.69    6.10
   2   5   6   89.99    5.80
   2   5   6   83.69    5.30
   2   5   6   80.49    6.30
   2   5   6   83.89    4.50
   2   5   6   80.39    4.60
  -3  -5  -6   25.90    4.30
  -3  -5  -6   15.40    2.80
  -3  -5  -6   16.80    3.00
  -3  -5  -6   26.40    3.90
  -3  -5  -6   22.10    3.10
   3   5   6   19.40    3.50
   3   5   6   19.70    2.80
   3   5   6   19.90    3.60
   3   5   6   25.60    3.00
   3   5   6   24.70    4.00
  -4  -5  -6  196.98    8.80
  -4  -5  -6  198.48   10.00
  -4  -5  -6  204.98    8.20
  -4  -5  -6  209.88    9.70
  -4  -5  -6  197.28   10.00
   4   5   6  201.38    8.10
   4   5   6  215.68   10.50
   4   5   6  211.88    9.40
  -5  -5  -6  193.38    8.20
  -5  -5  -6  219.58   10.80
  -5  -5  -6  198.28   10.40
  -5  -5  -6  235.18    9.80
  -5  -5  -6  213.18    9.50
   5   5   6  220.98   10.20
   5   5   6  215.28   10.80
   5   5   6  197.78    9.50
   5   5   6  203.68    8.50
  -6  -5  -6   84.69    8.60
  -6  -5  -6   93.69    9.30
  -6  -5  -6   86.89    8.20
  -6  -5  -6   84.69    6.50
   6   5   6   94.89    6.30
   6   5   6   94.29    7.70
   6   5   6   85.39    7.90
  -7  -5  -6  130.69    9.20
  -7  -5  -6  131.59    9.30
  -7  -5  -6  130.99   11.50
  -7  -5  -6  132.69    8.50
   7   5   6  133.29    9.90
   7   5   6  129.89    7.90
   7   5   6  138.39    9.60
   7   5   6  123.49    9.60
  -8  -5  -6   42.80    6.10
  -8  -5  -6   24.90    7.30
  -8  -5  -6   31.50    5.80
  -8  -5  -6   41.00    6.20
  -8  -5  -6   39.50    7.00
   8   5   6   26.80    6.10
   8   5   6   30.30    6.70
   8   5   6   27.90    4.60
   8   5   6   27.90    6.30
  -9  -5  -6   82.79   12.30
  -9  -5  -6   92.69   10.10
  -9  -5  -6   76.49    9.60
  -9  -5  -6   80.49    8.30
  -9  -5  -6   98.49   10.50
   9   5   6   77.39    8.90
   9   5   6   68.19    8.30
   9   5   6   82.59   10.00
   9   5   6   68.69    9.30
 -10  -5  -6   88.39   10.30
 -10  -5  -6   98.39   12.50
 -10  -5  -6   57.99    8.10
 -10  -5  -6   85.99   13.90
  10   5   6   70.59    8.90
  10   5   6   64.59    8.80
  10   5   6   94.39   11.90
  10   5   6   81.29   10.90
   5  -6  -6   24.70    8.40
   5  -6  -6    4.00    5.80
   5  -6  -6    5.60    9.70
   5  -6  -6    0.30    5.60
  -5   6   6   12.40    9.80
  -5   6   6   -2.60    5.50
  -5   6   6    5.50    4.50
  -5   6   6   -8.70    7.90
   4  -6  -6   70.99    7.60
   4  -6  -6   55.09    8.70
   4  -6  -6   71.19   10.40
   4  -6  -6   72.59    8.00
   4  -6  -6   78.69    7.70
  -4   6   6   69.99    9.30
  -4   6   6   77.69    7.20
  -4   6   6   73.59    8.80
  -4   6   6   80.69    5.60
  -4   6   6   71.49    8.10
  -4   6   6   84.79   10.60
   3  -6  -6   33.60    5.50
   3  -6  -6   40.40    5.10
   3  -6  -6   42.10    5.20
   3  -6  -6   29.70    7.60
  -3   6   6   30.50    5.00
  -3   6   6   38.10    4.80
  -3   6   6   34.40    4.20
  -3   6   6   36.30    5.00
  -3   6   6   39.70    6.90
  -3   6   6   37.10    7.30
   2  -6  -6   -5.20    3.20
   2  -6  -6    8.00    3.80
   2  -6  -6   -3.90    2.60
   2  -6  -6    7.70    6.00
  -2   6   6   -1.00    4.10
  -2   6   6    0.10    3.00
  -2   6   6   10.10    5.00
  -2   6   6    4.20    3.00
  -2   6   6   -1.30    3.10
   1  -6  -6  769.42   22.70
   1  -6  -6  757.62   26.70
   1  -6  -6  778.42   23.40
   1  -6  -6  816.52   23.80
  -1   6   6  776.12   23.10
  -1   6   6  827.02   22.90
  -1   6   6  799.62   25.60
  -1   6   6  844.22   25.80
   0  -6  -6   74.69    8.20
   0  -6  -6   94.69    6.20
   0  -6  -6   82.89    7.80
   0  -6  -6   87.69    5.70
   0   6   6   82.49    7.60
   0   6   6   76.59    7.00
   0   6   6   85.59    6.10
   0   6   6   89.89    5.70
   0   6   6   89.09    4.80
   0   6   6   87.69    5.80
  -1  -6  -6    3.20    2.60
  -1  -6  -6    3.10    2.40
  -1  -6  -6    3.30    3.90
  -1  -6  -6    2.60    2.60
  -1  -6  -6    5.00    2.50
   1   6   6   -1.40    1.90
   1   6   6    1.70    2.10
   1   6   6    1.70    2.60
   1   6   6    1.40    3.50
   1   6   6    1.30    2.60
   1   6   6    4.70    1.90
  -2  -6  -6  233.68    9.70
  -2  -6  -6  242.98   11.40
  -2  -6  -6  242.68    9.40
  -2  -6  -6  269.27   11.10
  -2  -6  -6  243.38    9.60
   2   6   6  253.57    8.20
   2   6   6  224.28   10.00
   2   6   6  249.68    9.90
   2   6   6  259.47    9.90
   2   6   6  245.48   10.00
   2   6   6  237.58   11.40
  -3  -6  -6  920.21   25.10
  -3  -6  -6  909.11   25.90
  -3  -6  -6  929.01   27.30
  -3  -6  -6  949.90   26.00
  -3  -6  -6  902.81   27.60
   3   6   6  970.40   24.40
   3   6   6  961.50   27.90
   3   6   6  939.21   26.60
   3   6   6  898.41   26.10
   3   6   6  911.91   25.40
  -4  -6  -6   -0.30    3.70
  -4  -6  -6    2.30    3.30
  -4  -6  -6   -0.80    1.90
  -4  -6  -6   -1.30    2.30
  -4  -6  -6   -1.60    2.30
   4   6   6    3.10    3.50
   4   6   6   -0.40    2.60
   4   6   6   -2.20    1.90
   4   6   6    3.80    2.60
  -5  -6  -6   22.00    4.80
  -5  -6  -6   18.20    4.40
  -5  -6  -6   19.30    4.20
  -5  -6  -6   24.00    4.20
  -5  -6  -6   24.00    3.00
   5   6   6   22.90    4.30
   5   6   6   20.50    5.00
   5   6   6   22.60    4.90
   5   6   6   17.90    3.00
  -6  -6  -6    5.90    3.60
  -6  -6  -6   10.80    2.50
  -6  -6  -6   11.90    8.60
  -6  -6  -6    2.80    3.70
   6   6   6    4.10    2.60
   6   6   6    4.30    3.40
   6   6   6    3.60    3.60
  -7  -6  -6  439.96   19.00
  -7  -6  -6  416.76   16.10
  -7  -6  -6  416.56   17.40
  -7  -6  -6  439.46   15.90
  -7  -6  -6  424.76   13.40
   7   6   6  434.16   17.30
   7   6   6  423.36   18.10
   7   6   6  417.76   15.10
   7   6   6  423.06   16.50
  -8  -6  -6   50.79    9.50
  -8  -6  -6   31.60    6.90
  -8  -6  -6   43.10    6.30
  -8  -6  -6   47.90    6.40
  -8  -6  -6   37.20    6.00
   8   6   6   42.80    7.40
   8   6   6   30.60    6.30
   8   6   6   40.90    5.80
   8   6   6   40.10    6.70
  -9  -6  -6  524.05   23.70
  -9  -6  -6  489.75   19.30
  -9  -6  -6  483.55   18.90
  -9  -6  -6  430.06   19.70
  -9  -6  -6  448.16   17.60
   9   6   6  421.26   17.30
   9   6   6  455.05   20.50
   9   6   6  453.15   19.80
   9   6   6  462.55   20.10
 -10  -6  -6  153.58   13.60
 -10  -6  -6  140.39   12.40
 -10  -6  -6  148.69   16.80
 -10  -6  -6  135.49   13.80
  10   6   6  120.29   13.20
  10   6   6  133.69   16.30
  10   6   6  147.39   16.30
   4  -7  -6    8.60    5.20
   4  -7  -6    7.00    6.10
   4  -7  -6   -3.10    7.90
   4  -7  -6   -0.30   10.00
  -4   7   6   13.30    7.70
  -4   7   6    7.50    5.70
  -4   7   6    6.30    3.50
  -4   7   6    0.50    9.40
  -4   7   6   10.60    5.30
   3  -7  -6    9.80    8.50
   3  -7  -6    0.90    3.60
   3  -7  -6    9.90    5.20
   3  -7  -6    5.80    4.20
  -3   7   6   -5.00    3.10
  -3   7   6    8.10    5.70
  -3   7   6   -5.70    4.00
  -3   7   6   -1.90    4.20
  -3   7   6    2.40    4.60
   2  -7  -6    5.20    3.40
   2  -7  -6   -0.70    4.20
   2  -7  -6   14.90    7.60
   2  -7  -6    1.30    4.00
  -2   7   6    0.50    3.80
  -2   7   6    3.50    4.00
  -2   7   6    5.20    3.40
  -2   7   6    6.80    5.60
  -2   7   6    2.00    6.20
  -2   7   6    2.90    3.50
   1  -7  -6  100.59    8.10
   1  -7  -6  104.59    7.40
   1  -7  -6  105.79    8.10
   1  -7  -6  112.99   16.70
  -1   7   6  113.79   10.40
  -1   7   6  106.19    8.10
  -1   7   6  119.79    9.50
  -1   7   6  103.69    7.40
  -1   7   6  103.69    7.40
   0  -7  -6  565.54   22.30
   0  -7  -6  575.84   18.60
   0  -7  -6  565.74   17.90
   0  -7  -6  572.94   19.00
   0   7   6  582.84   18.30
   0   7   6  559.24   20.30
   0   7   6  570.74   17.80
   0   7   6  576.64   19.60
   0   7   6  562.04   18.40
  -1  -7  -6  475.35   19.60
  -1  -7  -6  474.45   15.90
  -1  -7  -6  485.25   17.20
  -1  -7  -6  498.35   16.50
   1   7   6  504.45   17.00
   1   7   6  482.05   15.60
   1   7   6  514.65   18.70
   1   7   6  507.35   13.40
   1   7   6  515.35   16.40
   1   7   6  507.55   16.70
  -2  -7  -6  636.34   19.70
  -2  -7  -6  620.44   22.60
  -2  -7  -6  627.64   19.50
  -2  -7  -6  624.84   21.20
   2   7   6  667.03   21.90
   2   7   6  647.74   16.60
   2   7   6  649.24   18.90
   2   7   6  643.34   20.20
   2   7   6  636.34   19.50
   2   7   6  640.14   19.50
  -3  -7  -6  186.78   15.40
  -3  -7  -6  173.18   13.20
  -3  -7  -6  203.88   10.20
  -3  -7  -6  213.48    9.50
  -3  -7  -6  221.18    8.30
   3   7   6  219.18   10.50
   3   7   6  230.78   11.90
   3   7   6  226.68    9.80
   3   7   6  214.08    8.90
   3   7   6  218.58    7.10
  -4  -7  -6  893.81   24.40
  -4  -7  -6  920.61   31.00
  -4  -7  -6  869.61   28.30
  -4  -7  -6  956.80   26.60
  -4  -7  -6  958.30   26.70
   4   7   6  942.51   23.90
   4   7   6  904.71   25.50
   4   7   6  968.30   29.10
   4   7   6  889.91   26.50
  -5  -7  -6   18.70    2.70
  -5  -7  -6   16.00    4.90
  -5  -7  -6   28.00    4.80
  -5  -7  -6   16.50    4.00
   5   7   6   20.70    5.00
   5   7   6   24.10    4.60
   5   7   6   21.60    3.70
  -6  -7  -6    3.40    3.30
  -6  -7  -6    3.60    2.00
  -6  -7  -6    2.00    3.50
  -6  -7  -6   -0.90    5.40
  -6  -7  -6    2.30    4.50
   6   7   6    4.10    4.10
   6   7   6   -1.80    3.40
   6   7   6   -0.90    2.80
   6   7   6   -4.60    4.40
  -7  -7  -6  197.28   14.00
  -7  -7  -6  205.58   11.50
  -7  -7  -6  196.98   10.70
  -7  -7  -6  204.28    7.30
  -7  -7  -6  193.98   12.40
   7   7   6  199.88    9.90
   7   7   6  208.78   13.30
   7   7   6  212.98   12.10
   7   7   6  197.88   11.50
  -8  -7  -6   28.40    3.30
  -8  -7  -6   25.30    5.50
  -8  -7  -6   18.80    4.70
  -8  -7  -6   21.00    7.50
  -8  -7  -6    6.70    5.70
  -8  -7  -6   13.50    5.90
   8   7   6   29.50    7.50
   8   7   6   16.10    5.20
   8   7   6   19.10    5.70
   8   7   6   32.50    5.30
  -9  -7  -6   53.79    8.10
  -9  -7  -6   65.69   12.30
  -9  -7  -6   50.59    5.40
  -9  -7  -6   65.49    8.70
  -9  -7  -6   70.39    8.80
  -9  -7  -6   39.60    7.40
   9   7   6   61.69    8.90
   9   7   6   69.89    9.60
   9   7   6   44.90    8.50
   9   7   6   48.50    7.20
 -10  -7  -6   12.70    8.20
 -10  -7  -6   16.90    7.40
 -10  -7  -6   17.40    7.40
 -10  -7  -6   32.00   11.80
  10   7   6   13.20    6.70
  10   7   6    5.10    9.90
  10   7   6   23.60   10.10
   3  -8  -6   39.30    6.90
   3  -8  -6   37.10   11.80
   3  -8  -6   32.30    7.30
  -3   8   6   27.60    6.40
  -3   8   6   42.30    8.60
  -3   8   6   22.40   11.40
  -3   8   6   35.20    6.10
  -3   8   6   30.20    5.40
   2  -8  -6  135.59   11.00
   2  -8  -6  144.69   10.30
   2  -8  -6  137.59    9.40
   2  -8  -6  118.79   14.20
  -2   8   6  139.79   10.10
  -2   8   6  134.29   10.40
  -2   8   6  135.99   12.30
  -2   8   6  131.09   14.40
  -2   8   6   98.99    9.30
   1  -8  -6   30.80    5.50
   1  -8  -6   18.20    4.40
   1  -8  -6   21.20    5.20
   1  -8  -6   19.30    8.30
  -1   8   6   20.20    5.30
  -1   8   6   28.70    5.90
  -1   8   6   28.40    5.20
  -1   8   6   15.10    7.10
  -1   8   6   21.90    4.70
   0  -8  -6   87.09    8.10
   0  -8  -6   69.99    7.80
   0  -8  -6   90.89    7.30
   0  -8  -6   87.79   10.90
   0   8   6   83.59    8.70
   0   8   6   92.89   11.60
   0   8   6   83.69    7.20
   0   8   6  100.09    7.60
  -1  -8  -6 1265.67   33.90
  -1  -8  -6 1233.38   38.90
  -1  -8  -6 1211.88   35.20
  -1  -8  -6 1209.78   34.40
   1   8   6 1282.77   34.80
   1   8   6 1241.68   34.20
   1   8   6 1177.58   33.30
   1   8   6 1228.58   34.60
  -2  -8  -6  120.99   10.60
  -2  -8  -6  134.19    8.10
  -2  -8  -6  153.98    9.80
  -2  -8  -6  131.29    8.20
   2   8   6  120.89    7.60
   2   8   6  124.09    7.30
   2   8   6  129.49    7.90
   2   8   6  120.59    8.70
  -3  -8  -6  431.66   15.60
  -3  -8  -6  470.65   17.60
  -3  -8  -6  442.86   18.40
  -3  -8  -6  452.85   15.70
   3   8   6  431.56   18.70
   3   8   6  435.46   15.50
   3   8   6  431.86   14.50
   3   8   6  433.16   14.80
   3   8   6  469.75   16.70
  -4  -8  -6   13.20    3.40
  -4  -8  -6    7.00    3.80
  -4  -8  -6    2.90    4.90
  -4  -8  -6    7.80    4.60
   4   8   6   12.10    3.00
   4   8   6   14.50    5.50
   4   8   6   17.10    5.00
   4   8   6   16.20    2.60
   4   8   6   13.50    4.10
  -5  -8  -6   12.40    3.50
  -5  -8  -6   10.00    4.30
  -5  -8  -6    0.00    5.00
  -5  -8  -6   14.00    5.60
   5   8   6    8.70    2.40
   5   8   6    3.90    2.90
   5   8   6    7.00    4.00
   5   8   6   26.90    5.60
   5   8   6   10.00    5.20
  -6  -8  -6   58.79    8.10
  -6  -8  -6   50.49    6.00
  -6  -8  -6   66.49    8.90
  -6  -8  -6   64.59    7.40
   6   8   6   59.19    7.70
   6   8   6   68.29    8.00
   6   8   6   58.89    6.30
   6   8   6   69.29    8.70
  -7  -8  -6    0.90    4.30
  -7  -8  -6   -7.60    6.40
  -7  -8  -6   -7.00    5.10
  -7  -8  -6    2.20    3.80
   7   8   6    2.10    5.20
   7   8   6   -2.50    2.90
   7   8   6    1.10    4.90
   7   8   6    7.60    5.10
  -8  -8  -6  138.09   15.00
  -8  -8  -6  132.99    9.60
  -8  -8  -6  127.69   12.20
  -8  -8  -6  138.59   11.40
   8   8   6  143.59   12.10
   8   8   6  130.69    9.10
   8   8   6  135.69   11.90
   8   8   6  116.79   10.90
  -9  -8  -6  104.29   10.50
  -9  -8  -6  102.09   12.30
  -9  -8  -6  105.79   12.70
  -9  -8  -6  114.79   14.50
   9   8   6  132.79   15.20
   9   8   6  135.99   13.10
   9   8   6   95.69   11.80
 -10  -8  -6   69.29   13.80
 -10  -8  -6   68.39   11.20
 -10  -8  -6   64.89   10.20
  10   8   6   81.89   10.40
   2  -9  -6   20.70    7.20
   2  -9  -6   19.30    7.10
   2  -9  -6   20.70   10.80
  -2   9   6   13.50   11.10
  -2   9   6   19.60    8.10
  -2   9   6    4.70    6.20
  -2   9   6   18.60    6.40
   1  -9  -6   -1.00    9.80
   1  -9  -6    3.90    6.50
   1  -9  -6   12.60    6.10
   1  -9  -6    7.20    5.20
  -1   9   6   16.90    6.30
  -1   9   6    4.80    5.00
  -1   9   6   12.80    9.40
  -1   9   6    8.10    5.80
  -1   9   6   14.70    5.70
   0  -9  -6   15.30    5.40
   0  -9  -6   16.30    5.50
   0  -9  -6   21.20    9.80
   0  -9  -6   19.20    4.70
   0   9   6   17.60    4.80
   0   9   6   26.80    6.10
   0   9   6   16.50    8.40
   0   9   6   13.90    4.40
   0   9   6   30.90    6.40
  -1  -9  -6   57.59    7.40
  -1  -9  -6   88.29    9.30
  -1  -9  -6   75.59    7.90
  -1  -9  -6   62.69   10.40
   1   9   6   52.89   11.80
   1   9   6   60.29    6.50
   1   9   6   62.59    6.90
   1   9   6   66.69    9.60
  -2  -9  -6   92.59    8.30
  -2  -9  -6  116.19   10.20
  -2  -9  -6  105.19    8.10
  -2  -9  -6  113.49   13.30
   2   9   6  102.49    8.00
   2   9   6  112.19    8.30
   2   9   6  107.69   11.90
   2   9   6  111.29    7.70
   2   9   6  113.69    9.50
  -3  -9  -6  529.55   18.10
  -3  -9  -6  532.65   20.10
  -3  -9  -6  482.45   17.60
  -3  -9  -6  515.05   21.80
   3   9   6  497.25   17.10
   3   9   6  502.05   20.60
   3   9   6  512.55   16.60
   3   9   6  501.85   17.70
   3   9   6  547.85   19.10
  -4  -9  -6  761.92   26.00
  -4  -9  -6  709.13   23.10
  -4  -9  -6  740.93   23.50
  -4  -9  -6  721.03   26.70
   4   9   6  800.62   24.80
   4   9   6  710.73   23.10
   4   9   6  731.03   22.40
   4   9   6  783.22   27.10
  -5  -9  -6  399.46   19.00
  -5  -9  -6  425.16   18.80
  -5  -9  -6  408.26   16.40
  -5  -9  -6  407.06   15.40
   5   9   6  390.66   14.60
   5   9   6  439.16   17.50
   5   9   6  432.66   19.10
   5   9   6  390.56   15.70
  -6  -9  -6  145.39   13.40
  -6  -9  -6  131.29   10.50
  -6  -9  -6  135.69    9.00
  -6  -9  -6  159.68   12.40
   6   9   6  147.99    9.50
   6   9   6  157.48   12.30
   6   9   6  119.09    8.10
   6   9   6  147.39   11.70
  -7  -9  -6   96.79   10.80
  -7  -9  -6   86.19    8.20
  -7  -9  -6   94.89   10.30
  -7  -9  -6   82.39   10.70
   7   9   6   71.39    8.20
   7   9   6   95.79    9.60
   7   9   6   66.39    9.80
   7   9   6   83.39    7.90
  -8  -9  -6   28.70    8.30
  -8  -9  -6   31.50    7.40
  -8  -9  -6   36.80    6.10
  -8  -9  -6   17.30    8.40
   8   9   6   44.20    8.90
   8   9   6   27.10    6.30
   8   9   6   36.50    7.10
   8   9   6   28.80    9.10
  -9  -9  -6   -7.50    9.60
  -9  -9  -6    9.00    8.10
  -9  -9  -6   14.80    6.50
  -9  -9  -6    4.50    6.90
   9   9   6   13.20    9.70
   9   9   6    5.40    6.40
   9   9   6    7.40    9.50
   1 -10  -6   13.30   12.60
   1 -10  -6    6.80    9.30
  -1  10   6    8.20    8.20
  -1  10   6   -0.60    7.60
  -1  10   6   18.10   10.20
   0 -10  -6   79.39   13.30
   0 -10  -6   95.99   10.90
   0 -10  -6   97.99   12.90
   0  10   6  110.29   11.80
   0  10   6  120.09   14.80
   0  10   6  101.89   13.50
   0  10   6  103.49   11.60
  -1 -10  -6   40.40    6.90
  -1 -10  -6   34.50    7.50
  -1 -10  -6   31.00    8.60
  -1 -10  -6   25.40    7.20
   1  10   6   30.10    8.50
   1  10   6   36.30    7.00
   1  10   6   35.60    6.20
   1  10   6   37.40    5.80
  -2 -10  -6  124.99   14.60
  -2 -10  -6   98.79    9.90
  -2 -10  -6  114.39    9.80
  -2 -10  -6  128.59   11.00
   2  10   6  113.19   13.90
   2  10   6  116.49    9.50
   2  10   6  116.99   11.00
   2  10   6  117.69    9.20
   2  10   6  106.79    8.60
  -3 -10  -6  154.88   13.30
  -3 -10  -6  180.18   11.10
  -3 -10  -6  178.38   12.00
  -3 -10  -6  145.69   10.50
   3  10   6  154.68    9.80
   3  10   6  156.08    9.10
   3  10   6  150.88   11.90
   3  10   6  170.28    9.90
   3  10   6  181.78   13.70
  -4 -10  -6  156.88   13.90
  -4 -10  -6  173.68   12.60
  -4 -10  -6  140.69   10.10
  -4 -10  -6  137.39   11.00
   4  10   6  147.39    9.30
   4  10   6  170.58   11.70
   4  10   6  137.19    9.90
   4  10   6  155.88   14.20
  -5 -10  -6  308.37   17.40
  -5 -10  -6  322.57   15.10
  -5 -10  -6  307.27   17.20
  -5 -10  -6  281.37   13.40
   5  10   6  295.37   15.30
   5  10   6  299.27   16.80
   5  10   6  294.77   13.40
   5  10   6  309.57   13.00
  -6 -10  -6  168.88   14.00
  -6 -10  -6  183.68   16.00
  -6 -10  -6  170.48   10.90
  -6 -10  -6  161.68   12.30
   6  10   6  194.28   15.10
   6  10   6  196.98   14.20
   6  10   6  170.58   11.30
   6  10   6  166.08   10.50
  -7 -10  -6    3.00    6.50
  -7 -10  -6    2.30    8.20
  -7 -10  -6   -3.20    5.00
   7  10   6    6.90    8.00
   7  10   6    7.40    5.50
   7  10   6   12.90    7.10
  -8 -10  -6   -3.30   10.40
  -8 -10  -6    1.40    6.80
  -8 -10  -6    4.40    5.60
   8  10   6   -5.50    7.20
   8  10   6   -1.40    5.20
   8  10   6    1.80    9.80
  -1 -11  -6    4.70    8.10
  -1 -11  -6   10.00    8.20
   1  11   6   -3.10    8.10
   1  11   6   -5.30   11.30
   1  11   6    5.00    6.60
  -2 -11  -6    7.50    7.30
  -2 -11  -6    9.20   17.80
  -2 -11  -6    1.50    6.30
   2  11   6   -7.50    5.90
   2  11   6    9.30   10.20
  -3 -11  -6    2.20    6.40
  -3 -11  -6    8.70   11.80
  -3 -11  -6   -0.70    7.00
   3  11   6   -7.60    5.50
   3  11   6   -0.70    9.00
   3  11   6    0.40    4.60
   3  11   6   -8.30    6.40
  -4 -11  -6   21.60    8.10
  -4 -11  -6   12.90    6.10
  -4 -11  -6   29.90   19.70
   4  11   6   27.20   10.00
   4  11   6   11.80    7.20
   4  11   6   12.90    5.30
  -5 -11  -6  121.69   13.10
  -5 -11  -6  145.39   15.40
   5  11   6  115.49   10.60
   5  11   6  145.79   16.50
   5  11   6  117.59   14.30
  -6 -11  -6  143.09   17.70
  -6 -11  -6  138.99   13.30
   6  11   6  103.49   13.70
   6  11   6  118.09   11.40
   6  11   6   92.79   11.10
  -7 -11  -6   -6.20    7.50
  -7 -11  -6    5.40   10.80
   7  11   6    3.50   10.10
   7  11   6    8.00   13.80
   7  11   6   -1.60    6.50
   4   6  -7    4.80    6.40
  -4  -6   7   -4.30    3.90
   3   6  -7    3.40    3.80
   3   6  -7    4.20    3.30
   3   6  -7   -0.90    5.90
  -3  -6   7    5.70    4.10
   2   6  -7   32.40    5.10
   2   6  -7   39.40    4.90
   2   6  -7   26.90    6.50
  -2  -6   7   34.20    4.40
  -2  -6   7   33.50    5.90
   1   6  -7   77.29   10.90
   1   6  -7   79.59    8.00
   1   6  -7   75.99    6.90
   1   6  -7   81.69    7.00
  -1  -6   7   68.39    6.20
  -1  -6   7   70.09    9.00
  -1  -6   7   72.79    8.40
   0   6  -7   63.89    7.40
   0   6  -7   40.30    6.20
   0   6  -7   46.20    6.70
   0   6  -7   49.20    5.80
   0  -6   7   53.99    6.20
   0  -6   7   57.59    7.00
   0  -6   7   39.00    6.80
  -1   6  -7   -1.60    5.40
  -1   6  -7   -2.20    6.90
  -1   6  -7    4.10    6.00
  -1   6  -7    2.30    5.10
   1  -6   7    4.40    4.20
   1  -6   7   10.80    6.70
   1  -6   7   -3.70    4.10
  -2   6  -7   50.09    7.20
  -2   6  -7   44.50    7.90
  -2   6  -7   60.39    9.80
   2  -6   7   39.20    6.40
   2  -6   7   32.40    6.90
  -3   6  -7   -0.40    8.50
  -3   6  -7    1.80    7.40
  -3   6  -7   -3.90   10.50
   3  -6   7    2.30    5.80
   5   5  -7   52.69   11.40
   5   5  -7   60.49    8.10
  -5  -5   7   49.20    7.50
   4   5  -7   -0.10    7.20
   4   5  -7    5.70    5.10
   4   5  -7   -3.00    5.70
   4   5  -7    4.20    2.40
   4   5  -7    5.40    2.60
  -4  -5   7   -3.70    3.60
   3   5  -7    8.00    4.40
   3   5  -7    4.60    2.50
   3   5  -7    6.40    5.40
   3   5  -7   -8.20    6.20
   3   5  -7    5.80    2.80
  -3  -5   7    5.50    3.90
   2   5  -7   52.69    7.80
   2   5  -7   50.39    6.70
   2   5  -7   50.29    4.90
   2   5  -7   55.89    5.60
   2   5  -7   62.99    8.00
  -2  -5   7   40.90    6.20
   1   5  -7   68.29    6.90
   1   5  -7   70.09    5.70
   1   5  -7   72.69    4.80
   1   5  -7   75.89    4.70
   1   5  -7   92.19   10.50
   1   5  -7   76.89    6.20
   1   5  -7   70.99    8.60
  -1  -5   7   72.79    7.00
  -1  -5   7   74.69    8.20
  -1  -5   7   70.09    4.70
   0   5  -7   73.89    7.80
   0   5  -7   86.69    7.80
   0   5  -7   80.69    6.70
   0   5  -7   88.79   10.80
   0  -5   7   76.19    5.80
   0  -5   7   77.89    8.70
   0  -5   7   89.49    8.70
  -1   5  -7  154.78    9.80
  -1   5  -7  114.29   12.00
  -1   5  -7  143.59   10.10
  -1   5  -7  159.58    9.10
  -1   5  -7  168.68   11.90
   1  -5   7  164.18   11.20
   1  -5   7  131.69    7.80
   1  -5   7  150.88   10.90
  -2   5  -7  265.47   13.60
  -2   5  -7  265.67   13.10
  -2   5  -7  273.87   15.50
  -2   5  -7  281.87   15.70
  -2   5  -7  260.67   13.60
   2  -5   7  251.87   14.30
   2  -5   7  271.67   13.80
   2  -5   7  280.67   11.80
  -3   5  -7   19.80    8.40
  -3   5  -7   12.20    5.60
  -3   5  -7   12.00    6.70
  -3   5  -7   20.80    6.30
  -3   5  -7   17.40    6.00
   3  -5   7   18.70    5.20
   3  -5   7   15.40    3.10
   3  -5   7   14.40    7.50
   3  -5   7   13.40    5.20
   3  -5   7   17.10    3.50
  -4   5  -7   -3.00    6.90
  -4   5  -7    7.40    6.70
  -4   5  -7   -2.50   10.80
  -4   5  -7    0.70    6.30
  -4   5  -7    4.40    8.30
   4  -5   7    0.40    4.20
   4  -5   7   -0.30    3.50
   4  -5   7    2.60    4.50
   4  -5   7   12.40    6.10
   6   4  -7   11.20    6.00
   6   4  -7  -13.10    6.60
   5   4  -7    4.70    6.30
   5   4  -7   -3.10    5.10
   5   4  -7    2.10    5.50
  -5  -4   7    3.90    4.10
   4   4  -7    4.20    5.30
   4   4  -7    0.50    5.30
   4   4  -7   10.00    5.10
  -4  -4   7    4.60    3.60
   3   4  -7  138.49   10.90
   3   4  -7  139.59    5.40
   3   4  -7  127.99    4.80
   3   4  -7  148.99    9.80
   3   4  -7  133.59   11.00
  -3  -4   7  125.19    9.50
   2   4  -7   12.80    4.70
   2   4  -7   13.00    5.30
   2   4  -7   15.50    4.00
   2   4  -7   10.20    2.10
   2   4  -7    9.30    2.70
  -2  -4   7    6.80    4.20
   1   4  -7   61.29    8.50
   1   4  -7   72.59    6.20
   1   4  -7   78.59    5.10
   1   4  -7   70.19    9.00
   1   4  -7   67.49    5.50
  -1  -4   7   57.79    6.00
  -1  -4   7   67.69    7.60
  -1  -4   7   70.09    3.70
   0   4  -7  113.59    7.40
   0   4  -7  110.99    6.80
   0   4  -7  111.79    9.80
   0   4  -7  100.09    6.90
   0   4  -7  130.79    7.30
   0   4  -7  115.69    6.10
   0  -4   7  132.99    7.00
   0  -4   7  103.29    8.90
   0  -4   7  116.49    7.70
  -1   4  -7  117.29    7.90
  -1   4  -7  100.59    6.90
  -1   4  -7   88.59    9.30
  -1   4  -7   99.49    9.60
   1  -4   7  109.69    8.80
   1  -4   7  106.29    9.20
   1  -4   7  100.39    6.30
  -2   4  -7  234.58   11.70
  -2   4  -7  225.88   13.30
  -2   4  -7  248.18   11.80
  -2   4  -7  243.08   13.90
  -2   4  -7  241.88   11.70
   2  -4   7  223.48   12.60
   2  -4   7  247.78   10.30
   2  -4   7  234.68   12.50
  -3   4  -7   97.39    9.80
  -3   4  -7  102.49   12.40
  -3   4  -7   79.79    9.10
  -3   4  -7  103.69    9.90
  -3   4  -7   85.89    9.00
   3  -4   7   98.59    5.70
   3  -4   7   99.99    8.10
   3  -4   7   90.89    8.70
   3  -4   7   89.79   10.10
   3  -4   7   94.29    5.00
  -4   4  -7   14.10    6.20
  -4   4  -7   17.70    6.20
  -4   4  -7    8.40    4.90
  -4   4  -7   26.00    6.20
  -4   4  -7   15.00    9.00
   4  -4   7   17.50    4.20
   4  -4   7   21.40    3.50
   4  -4   7    5.50    4.50
   4  -4   7    7.40    5.00
   4  -4   7   27.30    7.10
  -5   4  -7   87.49   13.40
  -5   4  -7   68.79    8.70
  -5   4  -7  110.39   12.50
  -5   4  -7   79.69   10.00
  -5   4  -7   59.29    9.20
   5  -4   7  107.79    8.20
   5  -4   7   88.69   10.60
   5  -4   7   85.69    9.30
  -6   4  -7   58.99    9.00
  -6   4  -7   74.59   11.50
  -6   4  -7   88.89   12.70
   6  -4   7   70.69    8.10
   6  -4   7   79.39   10.30
   6  -4   7   97.59   10.80
   6   3  -7   25.10    6.60
   6   3  -7   26.30    6.50
   5   3  -7   65.49    8.20
   5   3  -7   59.69    8.20
   5   3  -7   70.09    8.30
  -5  -3   7   62.89    7.30
   4   3  -7   89.89    9.40
   4   3  -7   86.79    9.60
   4   3  -7   85.89    9.50
  -4  -3   7   85.89    7.90
   3   3  -7   96.39    9.20
   3   3  -7  105.99    9.70
   3   3  -7  102.09    8.90
  -3  -3   7   88.99    8.00
   2   3  -7   -0.20    1.80
   2   3  -7    5.00    4.00
   2   3  -7    1.20    1.40
   2   3  -7   -1.20    3.40
   2   3  -7   -3.40    4.10
  -2  -3   7    1.10    3.30
   1   3  -7   47.00    5.90
   1   3  -7   36.60    6.10
   1   3  -7   55.69    7.50
   1   3  -7   43.10    3.70
   1   3  -7   46.50    4.00
  -1  -3   7   30.00    6.80
  -1  -3   7   47.70    2.40
  -1  -3   7   49.40    3.40
   0   3  -7  483.85   14.70
   0   3  -7  514.55   14.80
   0   3  -7  491.05   18.50
   0   3  -7  481.65   13.90
   0   3  -7  477.35   14.60
   0   3  -7  468.35   15.10
   0  -3   7  487.25   18.10
  -1   3  -7  257.07    9.90
  -1   3  -7  231.58    9.40
  -1   3  -7  235.48    8.40
  -1   3  -7  230.98    9.70
  -1   3  -7  233.78   12.40
  -1   3  -7  234.68   11.30
   1  -3   7  236.28    8.90
   1  -3   7  248.38   10.60
   1  -3   7  231.18   11.90
  -2   3  -7   25.70    6.10
  -2   3  -7   37.90    2.50
  -2   3  -7   43.00    5.20
  -2   3  -7   26.90    5.60
  -2   3  -7   40.20    6.30
  -2   3  -7   37.50    4.90
   2  -3   7   38.50    5.60
   2  -3   7   35.80    4.30
  -3   3  -7  305.47   13.20
  -3   3  -7  303.57   14.40
  -3   3  -7  315.57   15.70
  -3   3  -7  308.57   13.10
  -3   3  -7  291.77   13.10
   3  -3   7  285.97   13.40
   3  -3   7  302.27    9.30
   3  -3   7  296.37    9.70
   3  -3   7  296.17   14.40
   3  -3   7  301.77   12.00
  -4   3  -7  170.28   11.10
  -4   3  -7  190.78   14.00
  -4   3  -7  161.58   11.60
  -4   3  -7  160.88   10.80
  -4   3  -7  167.38   11.40
   4  -3   7  160.58    9.80
   4  -3   7  164.38   11.70
   4  -3   7  182.98    7.80
  -5   3  -7    9.30    5.50
  -5   3  -7    1.00    6.00
  -5   3  -7   24.00    8.20
  -5   3  -7    9.60    5.70
  -5   3  -7   12.00    5.00
   5  -3   7   -5.10    6.20
   5  -3   7    4.30    5.20
   5  -3   7    4.00    4.10
  -6   3  -7    7.70    9.20
  -6   3  -7    9.40    5.70
  -6   3  -7   13.50   10.60
  -6   3  -7   18.20    7.60
  -6   3  -7    7.00    7.00
   6  -3   7   10.40    5.60
   6  -3   7    2.20    5.00
   6  -3   7    3.60    7.30
  -7   3  -7  157.28   15.70
   7  -3   7  146.89   15.10
   7  -3   7  144.69   13.60
   7  -3   7  176.08   13.30
   6   2  -7    4.00    5.10
   6   2  -7   -3.50    2.70
   6   2  -7    0.70    2.80
   6   2  -7   -4.80    5.80
  -6  -2   7    1.30    3.20
   5   2  -7  215.68   12.20
   5   2  -7  207.48    6.80
   5   2  -7  195.78    6.70
   5   2  -7  210.88   12.40
   5   2  -7  212.88   13.20
  -5  -2   7  183.78   10.90
   4   2  -7    3.80    4.60
   4   2  -7    0.20    4.70
   4   2  -7    5.20    5.20
  -4  -2   7   -0.90    3.20
   3   2  -7    6.70    4.20
   3   2  -7    6.90    4.30
   3   2  -7    8.80    4.50
  -3  -2   7    0.80    3.50
   2   2  -7  161.58    9.90
   2   2  -7  155.88    4.80
   2   2  -7  155.98    9.50
   2   2  -7  158.68    9.90
  -2  -2   7  156.58    9.70
   1   2  -7 1125.69   28.60
   1   2  -7 1105.19   33.30
   1   2  -7 1182.48   33.70
   1   2  -7 1170.88   28.60
   1   2  -7 1161.28   32.10
  -1  -2   7 1160.48   33.50
   0   2  -7    2.40    1.90
   0   2  -7    1.60    2.50
   0   2  -7    1.50    1.70
   0   2  -7    2.80    2.10
   0   2  -7    1.40    2.30
   0   2  -7    3.30    3.60
   0   2  -7   -3.10    3.10
   0  -2   7    4.00    3.30
   0  -2   7   -1.60    1.90
   0  -2   7    1.20    1.50
  -1   2  -7  607.94   21.00
  -1   2  -7  627.44   19.10
  -1   2  -7  619.64   17.90
  -1   2  -7  582.44   17.90
  -1   2  -7  597.84   17.90
  -1   2  -7  643.54   17.90
   1  -2   7  623.44   20.90
   1  -2   7  624.94   20.60
   1  -2   7  615.14   17.50
   1  -2   7  640.94   18.70
  -2   2  -7  664.83   20.00
  -2   2  -7  638.34   19.80
  -2   2  -7  671.23   22.20
  -2   2  -7  650.93   18.10
  -2   2  -7  689.23   19.80
  -2   2  -7  664.23   21.60
   2  -2   7  674.13   22.10
   2  -2   7  655.83   20.70
   2  -2   7  666.43   19.40
   2  -2   7  661.93   21.70
  -3   2  -7  241.48   12.50
  -3   2  -7  237.38   10.50
  -3   2  -7  221.38    6.90
  -3   2  -7  224.78   10.70
  -3   2  -7  227.58   11.60
  -3   2  -7  209.38   10.30
   3  -2   7  215.28    7.70
   3  -2   7  220.38   10.00
   3  -2   7  236.48   11.70
   3  -2   7  224.48    7.60
   3  -2   7  216.78   11.20
   3  -2   7  244.08   11.70
  -4   2  -7  189.18   12.30
  -4   2  -7  171.68    9.90
  -4   2  -7  183.88   11.10
  -4   2  -7  169.58   10.20
  -4   2  -7  181.78   10.50
   4  -2   7  177.28    8.00
   4  -2   7  185.88   11.70
   4  -2   7  172.68    9.50
   4  -2   7  165.38   10.50
   4  -2   7  179.78    7.70
  -5   2  -7   73.89    9.20
  -5   2  -7   87.59   10.50
  -5   2  -7   73.39    9.10
  -5   2  -7   71.29    8.60
  -5   2  -7   88.69    9.40
   5  -2   7   74.29    7.00
   5  -2   7   78.69    6.90
   5  -2   7   57.89    7.00
   5  -2   7   74.39    9.30
   5  -2   7   85.59    8.50
  -6   2  -7  133.69   11.90
  -6   2  -7  106.29   14.20
  -6   2  -7  128.09   12.10
  -6   2  -7  116.89   11.50
   6  -2   7  117.79    9.60
   6  -2   7  126.99   10.50
   6  -2   7  146.19    9.80
   6  -2   7  159.78   12.00
   6  -2   7  147.49   12.50
  -7   2  -7   11.90    7.70
  -7   2  -7   19.20    8.20
  -7   2  -7   23.80   10.40
   7  -2   7    0.50    7.40
   7  -2   7   13.70    6.20
   7  -2   7   13.00    5.80
   6   1  -7  319.67   10.60
   6   1  -7  311.87   14.10
   6   1  -7  320.67   15.20
   6   1  -7  289.57   10.90
  -6  -1   7  299.17   14.10
   5   1  -7    9.50    4.80
   5   1  -7   -6.70    4.70
   5   1  -7    5.30    2.30
   5   1  -7    4.20    2.20
   5   1  -7   -5.40    4.20
  -5  -1   7    1.20    3.30
   4   1  -7  548.15   19.80
   4   1  -7  558.54   19.10
   4   1  -7  555.54   20.80
   4   1  -7  524.35   14.10
   4   1  -7  567.04   14.10
  -4  -1   7  519.15   19.50
   3   1  -7   39.90    5.80
   3   1  -7   40.50    5.80
   3   1  -7   36.70    6.10
  -3  -1   7   26.40    5.90
   2   1  -7    0.30    3.10
   2   1  -7   -0.60    3.60
   2   1  -7    1.30    0.90
   2   1  -7   -2.60    3.00
  -2  -1   7   -0.30    2.50
   1   1  -7   52.59    6.50
   1   1  -7   68.39    6.60
   1   1  -7   74.69    6.80
   1   1  -7   57.89    3.10
   1   1  -7   57.29    3.40
  -1  -1   7   52.79    6.60
  -1  -1   7   51.39    6.00
   0   1  -7   27.90    3.70
   0   1  -7   34.00    5.50
   0   1  -7   29.90    3.10
   0   1  -7   32.70    3.30
   0   1  -7   41.70    5.40
   0   1  -7   26.50    2.90
   0   1  -7   32.30    4.40
   0  -1   7   35.80    5.20
   0  -1   7   29.20    3.20
   0  -1   7   27.10    4.40
  -1   1  -7   24.10    3.10
  -1   1  -7   25.70    3.80
  -1   1  -7   33.20    5.00
  -1   1  -7   34.10    3.80
  -1   1  -7   26.80    3.30
  -1   1  -7   26.90    3.80
   1  -1   7   25.00    3.40
   1  -1   7   30.40    4.90
   1  -1   7   24.80    4.30
   1  -1   7   27.70    3.10
  -2   1  -7  683.83   20.50
  -2   1  -7  708.63   21.70
  -2   1  -7  703.03   22.40
  -2   1  -7  682.23   20.40
  -2   1  -7  705.03   20.10
   2  -1   7  725.93   22.60
   2  -1   7  698.83   20.20
   2  -1   7  708.33   21.10
  -3   1  -7  168.38    8.70
  -3   1  -7  168.78    8.30
  -3   1  -7  172.08    8.80
  -3   1  -7  174.08    9.90
  -3   1  -7  169.98   10.00
   3  -1   7  173.58    6.30
   3  -1   7  172.98    6.30
   3  -1   7  129.79   10.40
   3  -1   7  170.68    8.50
   3  -1   7  172.78    9.30
   3  -1   7  158.88    9.40
  -4   1  -7  219.48   11.20
  -4   1  -7  228.08   11.10
  -4   1  -7  233.68   11.50
  -4   1  -7  255.87   12.90
   4  -1   7  229.08   11.70
   4  -1   7  231.98   11.50
   4  -1   7  235.28    8.90
   4  -1   7  227.28    8.90
   4  -1   7  231.58   10.80
  -5   1  -7   51.69    6.40
  -5   1  -7   55.99    6.30
  -5   1  -7   66.39    8.60
  -5   1  -7   59.99    7.90
  -5   1  -7   49.00    3.50
  -5   1  -7   47.10    6.20
   5  -1   7   64.69    7.10
   5  -1   7   52.29    6.10
   5  -1   7   47.30    6.00
   5  -1   7   59.59    7.80
  -6   1  -7   53.89    7.80
  -6   1  -7   61.39    4.20
  -6   1  -7   61.39    7.50
  -6   1  -7   47.70    9.00
  -6   1  -7   75.79    8.70
   6  -1   7   55.89    7.00
   6  -1   7   56.99    7.30
   6  -1   7   61.69    7.30
   6  -1   7   62.19    7.20
   6  -1   7   58.89    8.30
  -7   1  -7   -6.70    8.60
  -7   1  -7    8.20    2.90
  -7   1  -7   11.40    6.50
  -7   1  -7   11.30    6.40
  -7   1  -7   21.90    6.50
   7  -1   7   25.70    7.70
   7  -1   7   12.20    7.60
   7  -1   7   11.30    5.20
   7  -1   7    8.60    4.80
   7  -1   7   16.90    5.70
  -8   1  -7   -3.40    8.00
  -8   1  -7   15.80    8.60
  -8   1  -7   22.80   12.80
   8  -1   7   15.10    6.70
   8  -1   7    6.20    8.70
   8  -1   7   15.00    6.50
   8  -1   7   11.10    7.60
   6   0  -7  100.89    6.90
   6   0  -7   92.19   10.20
   6   0  -7  100.49    7.40
  -6   0   7   94.29    5.60
  -6   0   7  101.69    5.80
  -6   0   7   90.69    8.00
  -6   0   7  116.39   14.20
   5   0  -7    4.80    4.20
   5   0  -7    0.90    5.30
   5   0  -7    6.30    2.70
   5   0  -7    7.90    4.20
   5   0  -7    6.00    2.50
  -5   0   7    6.90    3.70
  -5   0   7    7.80    6.60
   4   0  -7   43.60    7.00
   4   0  -7   42.60    3.50
   4   0  -7   42.20    5.70
   4   0  -7   43.30    3.50
   4   0  -7   46.50    6.30
  -4   0   7   40.30    6.00
   3   0  -7    3.00    4.00
   3   0  -7    7.70    1.60
   3   0  -7    9.20    1.60
   3   0  -7    4.20    3.90
   3   0  -7   10.80    3.50
  -3   0   7    7.00    3.80
   2   0  -7    1.60    1.10
   2   0  -7   -0.80    1.20
   2   0  -7   -0.40    3.40
   2   0  -7    4.00    3.10
   2   0  -7   -1.80    3.30
  -2   0   7   -2.50    3.00
  -2   0   7    0.70    2.80
   1   0  -7   16.70    3.80
   1   0  -7   25.30    2.60
   1   0  -7   29.20    4.50
   1   0  -7   24.60    2.20
   1   0  -7   26.60    5.30
  -1   0   7   28.80    4.60
  -1   0   7   16.30    3.70
  -1   0   7   26.70    2.30
  -1   0   7   28.10    2.00
   0   0  -7 1421.66   34.50
   0   0  -7 1373.66   34.90
   0   0  -7 1420.86   34.50
   0   0  -7 1405.66   38.20
   0   0  -7 1371.46   38.50
   0   0  -7 1435.06   35.00
   0   0   7 1328.47   38.20
   0   0   7 1441.86   38.20
   0   0   7 1404.16   34.60
  -1   0  -7  533.45   18.20
  -1   0  -7  574.24   15.70
  -1   0  -7  565.74   18.80
  -1   0  -7  555.34   16.00
  -1   0  -7  544.55   15.80
  -1   0  -7  565.84   16.60
   1   0   7  565.74   18.50
   1   0   7  560.64   16.00
   1   0   7  547.25   16.00
   1   0   7  542.55   18.60
  -2   0  -7  129.19    6.70
  -2   0  -7  125.99    6.50
  -2   0  -7  144.59    7.70
  -2   0  -7  134.59    8.10
  -2   0  -7  143.49    6.50
   2   0   7  124.89    8.20
   2   0   7  131.59    6.80
   2   0   7  137.59    4.10
   2   0   7  134.49    4.20
   2   0   7  123.09    8.00
   2   0   7  120.39    6.80
  -3   0  -7 1103.19   31.90
  -3   0  -7 1122.79   31.00
  -3   0  -7 1136.09   30.40
  -3   0  -7 1108.79   30.90
  -3   0  -7 1149.39   32.20
   3   0   7 1124.59   28.60
   3   0   7 1128.39   32.10
   3   0   7 1115.49   28.40
   3   0   7 1123.69   31.40
   3   0   7 1120.69   32.10
   3   0   7 1179.78   31.00
  -4   0  -7 1223.88   34.00
  -4   0  -7 1242.58   33.20
  -4   0  -7 1050.29   39.60
  -4   0  -7 1151.38   33.40
  -4   0  -7 1225.48   33.90
   4   0   7 1210.58   31.30
   4   0   7 1253.37   31.60
   4   0   7 1228.48   34.40
   4   0   7 1242.88   33.60
   4   0   7 1187.08   34.10
  -5   0  -7  493.05   17.90
  -5   0  -7  494.35   17.10
  -5   0  -7  510.85   19.60
  -5   0  -7  475.65   17.90
   5   0   7  488.35   16.00
   5   0   7  492.05   15.80
   5   0   7  507.35   17.70
   5   0   7  493.65   18.60
  -6   0  -7  207.28    8.10
  -6   0  -7  232.38   12.80
  -6   0  -7  225.98   14.20
  -6   0  -7  189.38   11.10
  -6   0  -7  215.68   12.30
   6   0   7  192.28   12.50
   6   0   7  206.48   10.20
   6   0   7  219.88   11.80
   6   0   7  223.18   12.10
   6   0   7  205.08   10.80
  -7   0  -7   19.90    3.60
  -7   0  -7   14.40    8.60
  -7   0  -7   16.90    5.40
  -7   0  -7   13.20    5.50
  -7   0  -7   10.60    6.50
   7   0   7   15.60    5.50
   7   0   7    4.80    5.80
   7   0   7   20.90    5.40
   7   0   7   13.80    6.80
   7   0   7   13.00    4.80
  -8   0  -7   30.30    7.50
  -8   0  -7   38.70    5.10
  -8   0  -7   35.20   10.50
  -8   0  -7   45.60    8.60
   8   0   7   22.10    8.60
   8   0   7   24.70    7.10
   8   0   7   37.30    6.60
   8   0   7   44.10    7.10
  -9   0  -7   -6.60   10.50
  -9   0  -7   -7.50   13.60
  -9   0  -7    3.30    5.20
   9   0   7    3.80    8.70
   9   0   7   -4.50    6.60
   9   0   7   -5.80    8.00
   6  -1  -7   11.50    3.30
   6  -1  -7   10.50    4.10
   6  -1  -7    8.50    4.40
   6  -1  -7    9.20    4.50
  -6   1   7   15.70    4.10
  -6   1   7   10.20    7.80
  -6   1   7   12.70    4.30
   5  -1  -7   56.09    3.90
   5  -1  -7   57.79    5.30
   5  -1  -7   49.60    5.60
   5  -1  -7   77.19    9.40
   5  -1  -7   60.39    8.10
   5  -1  -7   54.89    4.60
  -5   1   7   50.49    5.40
  -5   1   7   54.29    5.60
  -5   1   7   64.89    8.90
  -5   1   7   50.89    6.60
   4  -1  -7 1320.57   33.50
   4  -1  -7 1308.67   33.90
   4  -1  -7 1332.97   38.20
   4  -1  -7 1305.17   39.60
   4  -1  -7 1396.06   32.30
  -4   1   7 1407.56   39.60
  -4   1   7 1303.67   33.50
  -4   1   7 1288.97   37.60
   3  -1  -7   12.30    4.60
   3  -1  -7   14.30    3.70
   3  -1  -7   18.90    2.40
   3  -1  -7   14.00    5.00
   3  -1  -7   13.10    2.20
  -3   1   7   18.50    5.80
  -3   1   7   17.70    2.30
  -3   1   7   13.50    3.70
  -3   1   7   13.80    2.40
  -3   1   7   12.70    3.50
   2  -1  -7   96.59    4.00
   2  -1  -7   98.19    4.30
   2  -1  -7  111.19    8.40
   2  -1  -7   85.59    7.50
   2  -1  -7   81.99    6.70
   2  -1  -7   91.99    4.00
   2  -1  -7   86.99    4.30
  -2   1   7   93.89    3.80
  -2   1   7   92.69    7.00
  -2   1   7   94.69    6.90
  -2   1   7   85.49    4.40
   1  -1  -7  587.24   16.00
   1  -1  -7  615.54   15.90
   1  -1  -7  596.84   16.30
   1  -1  -7  609.54   15.50
   1  -1  -7  587.64   19.60
   1  -1  -7  559.74   20.40
  -1   1   7  577.34   16.10
  -1   1   7  598.44   18.90
  -1   1   7  570.34   19.10
  -1   1   7  611.24   15.40
   0  -1  -7   16.60    2.60
   0  -1  -7   16.50    2.10
   0  -1  -7   13.30    2.40
   0  -1  -7   19.20    3.90
   0  -1  -7   13.50    2.30
   0   1   7   11.50    3.30
   0   1   7   15.60    2.10
   0   1   7   11.50    3.20
   0   1   7   12.40    2.60
  -1  -1  -7    0.70    1.60
  -1  -1  -7    3.50    2.90
  -1  -1  -7    1.20    2.00
  -1  -1  -7    0.20    1.80
  -1  -1  -7   -1.60    2.40
  -1  -1  -7    0.40    2.10
   1   1   7    4.00    1.90
   1   1   7    2.60    2.30
   1   1   7   -2.70    2.70
   1   1   7   -2.00    2.70
  -2  -1  -7  111.39    6.60
  -2  -1  -7  107.39    5.90
  -2  -1  -7  115.59    5.70
  -2  -1  -7  105.09    6.80
  -2  -1  -7   95.49    5.70
   2   1   7  103.79    4.40
   2   1   7  106.19    6.20
   2   1   7  103.49    6.00
   2   1   7  105.59    4.20
   2   1   7   99.59    6.80
   2   1   7  111.29    7.30
  -3  -1  -7  736.13   22.30
  -3  -1  -7  718.73   20.60
  -3  -1  -7  709.83   21.40
  -3  -1  -7  720.23   21.20
   3   1   7  716.63   22.00
   3   1   7  722.13   22.40
   3   1   7  696.93   21.50
   3   1   7  736.63   21.50
   3   1   7  715.73   19.50
   3   1   7  710.93   18.90
  -4  -1  -7 1049.40   31.00
  -4  -1  -7 1140.29   30.50
  -4  -1  -7 1116.49   32.30
   4   1   7 1093.59   31.60
   4   1   7 1120.79   29.40
   4   1   7 1077.69   28.70
   4   1   7 1110.19   31.50
   4   1   7 1114.19   31.10
  -5  -1  -7  112.89    8.30
  -5  -1  -7  114.29    8.40
  -5  -1  -7  126.19    9.90
   5   1   7  107.59    8.50
   5   1   7  115.19    6.60
   5   1   7  116.69    8.60
   5   1   7  119.09    8.40
   5   1   7  122.29    7.30
  -6  -1  -7  515.65   20.30
  -6  -1  -7  570.34   21.80
  -6  -1  -7  548.95   19.50
  -6  -1  -7  551.04   18.80
   6   1   7  546.85   19.40
   6   1   7  529.35   20.00
   6   1   7  502.15   24.20
   6   1   7  482.65   23.70
   6   1   7  537.95   17.40
  -7  -1  -7   56.09    7.10
  -7  -1  -7   57.89    7.90
  -7  -1  -7   58.59    9.00
  -7  -1  -7   47.90    6.20
  -7  -1  -7   64.89    6.10
   7   1   7   55.79    6.90
   7   1   7   73.29    7.60
   7   1   7   70.19    8.60
   7   1   7   55.79    7.60
   7   1   7   78.59    8.90
  -8  -1  -7   -0.90    4.00
  -8  -1  -7   -1.60    6.20
  -8  -1  -7    6.00    5.30
  -8  -1  -7    0.20    8.40
  -8  -1  -7    5.80    6.10
   8   1   7   -5.60    6.00
   8   1   7    2.70    6.10
   8   1   7   -3.50    5.30
   8   1   7   -8.40    4.70
   8   1   7   -5.40    4.70
  -9  -1  -7   26.30   12.60
  -9  -1  -7  -10.30    8.40
  -9  -1  -7   -0.20    5.20
  -9  -1  -7    6.80    7.70
   9   1   7   -6.30    6.10
   9   1   7   -5.50    8.50
   9   1   7   20.70    7.50
   6  -2  -7   65.69    7.00
   6  -2  -7   72.79    7.00
   6  -2  -7   62.69    7.10
  -6   2   7   78.19    7.70
  -6   2   7   91.39   12.20
   5  -2  -7   34.60    7.80
   5  -2  -7   34.80    3.90
   5  -2  -7   45.40    4.70
   5  -2  -7   36.00    5.30
  -5   2   7   44.20    8.60
  -5   2   7   35.50    5.30
  -5   2   7   40.60    4.90
  -5   2   7   35.30    5.40
   4  -2  -7  621.34   17.30
   4  -2  -7  617.44   17.60
   4  -2  -7  619.84   21.30
   4  -2  -7  619.54   18.30
   4  -2  -7  603.64   22.90
  -4   2   7  604.94   20.60
  -4   2   7  652.53   23.20
   3  -2  -7   44.90    7.20
   3  -2  -7   35.70    5.90
   3  -2  -7   41.10    4.00
   3  -2  -7   42.90    3.90
   3  -2  -7   37.50    5.60
   3  -2  -7   40.10    4.00
  -3   2   7   42.70    5.00
  -3   2   7   43.20    5.80
  -3   2   7   40.50    4.20
  -3   2   7   45.60    6.90
  -3   2   7   52.39    5.60
   2  -2  -7  816.92   21.50
   2  -2  -7  837.02   25.20
   2  -2  -7  794.92   22.50
   2  -2  -7  782.42   21.40
   2  -2  -7  806.52   21.10
  -2   2   7  812.62   25.70
  -2   2   7  806.42   23.60
  -2   2   7  816.22   24.30
  -2   2   7  815.42   21.10
   1  -2  -7   26.00    3.00
   1  -2  -7   23.30    2.80
   1  -2  -7   23.90    4.10
   1  -2  -7   20.90    2.60
   1  -2  -7   25.20    3.50
  -1   2   7   23.00    3.90
  -1   2   7   15.70    3.70
  -1   2   7   17.30    2.80
  -1   2   7   22.40    2.40
   0  -2  -7   49.99    4.40
   0  -2  -7   41.10    3.60
   0  -2  -7   52.89    5.60
   0  -2  -7   52.69    3.50
   0  -2  -7   53.89    4.20
   0   2   7   49.30    5.50
   0   2   7   42.80    3.40
   0   2   7   45.10    4.90
   0   2   7   43.80    4.40
  -1  -2  -7    9.10    2.00
  -1  -2  -7    8.40    2.20
  -1  -2  -7    7.00    2.50
  -1  -2  -7    8.70    2.40
   1   2   7   12.90    3.30
   1   2   7    9.40    3.30
   1   2   7    9.30    1.00
   1   2   7    9.30    1.20
   1   2   7    9.00    2.20
   1   2   7    7.60    2.60
  -2  -2  -7  117.69    7.30
  -2  -2  -7  113.69    6.90
  -2  -2  -7  123.19    6.40
  -2  -2  -7  131.89    6.00
  -2  -2  -7  128.39    6.40
   2   2   7  133.09    7.10
   2   2   7  123.59    6.40
   2   2   7  122.89    7.70
   2   2   7  133.19    4.60
   2   2   7  127.39    7.10
   2   2   7  129.19    5.20
  -3  -2  -7   46.80    4.40
  -3  -2  -7   42.60    4.80
  -3  -2  -7   42.10    5.10
  -3  -2  -7   38.60    4.60
   3   2   7   45.10    5.50
   3   2   7   43.10    4.90
   3   2   7   40.40    5.10
   3   2   7   35.90    6.90
   3   2   7   40.30    3.20
   3   2   7   42.30    4.10
  -4  -2  -7  206.08   10.00
  -4  -2  -7  215.58   10.40
  -4  -2  -7  213.18   10.60
  -4  -2  -7  215.48    9.20
   4   2   7  203.98   10.10
   4   2   7  210.48    8.90
   4   2   7  207.58    9.80
   4   2   7  214.68    8.00
   4   2   7  203.08    9.80
  -5  -2  -7  813.42   25.80
  -5  -2  -7  850.71   25.50
  -5  -2  -7  885.11   25.20
  -5  -2  -7  777.82   30.00
   5   2   7  872.11   24.70
   5   2   7  829.32   25.60
   5   2   7  878.31   26.00
   5   2   7  827.32   23.90
   5   2   7  854.01   26.10
  -6  -2  -7 1095.49   33.20
  -6  -2  -7 1039.10   30.90
  -6  -2  -7 1081.39   30.50
   6   2   7 1006.70   28.90
   6   2   7 1073.19   31.40
   6   2   7 1006.20   36.80
   6   2   7 1016.40   30.40
   6   2   7 1006.40   31.40
  -7  -2  -7  337.97   17.30
  -7  -2  -7  310.47   15.20
  -7  -2  -7  302.87   14.50
  -7  -2  -7  304.87   11.60
  -7  -2  -7  325.97   14.10
   7   2   7  296.67   12.70
   7   2   7  305.37   14.20
   7   2   7  323.77   14.20
   7   2   7  282.67   14.70
   7   2   7  308.17   15.60
  -8  -2  -7   82.79    9.80
  -8  -2  -7   86.59   11.60
  -8  -2  -7   99.39   10.00
  -8  -2  -7   72.89    8.00
  -8  -2  -7   76.69    7.90
   8   2   7   75.89    9.50
   8   2   7   90.09   10.50
   8   2   7   74.29    9.10
   8   2   7   64.69    8.50
   8   2   7   74.59    8.00
  -9  -2  -7   15.70    5.90
  -9  -2  -7    2.40    9.00
  -9  -2  -7    5.30    6.60
  -9  -2  -7    6.10    7.50
   9   2   7   -7.60    6.50
   9   2   7    2.30    6.10
   9   2   7   -2.80    7.00
   9   2   7    2.10    7.10
   9   2   7   -3.80    7.90
   6  -3  -7   -2.50    4.30
   6  -3  -7    3.10    4.50
   6  -3  -7    4.60    5.70
  -6   3   7    6.00   10.70
  -6   3   7    8.60    5.70
   5  -3  -7    4.00    3.60
   5  -3  -7    6.70    4.50
   5  -3  -7   -2.60    3.20
   5  -3  -7   -4.00    6.20
   5  -3  -7   -0.40    4.70
  -5   3   7    1.20    3.70
  -5   3   7   -7.20    6.70
  -5   3   7    4.20    5.50
   4  -3  -7   -1.90    2.80
   4  -3  -7    6.50    3.50
   4  -3  -7   -8.30    4.50
   4  -3  -7    3.00    4.00
   4  -3  -7    0.40    2.80
  -4   3   7    0.40    3.00
  -4   3   7   -0.70    4.10
  -4   3   7    2.40    3.00
  -4   3   7   -2.00    5.60
  -4   3   7    3.90    3.10
   3  -3  -7  115.89    6.10
   3  -3  -7  111.99   10.10
   3  -3  -7  105.49    7.70
   3  -3  -7  102.69    8.30
   3  -3  -7  109.59    6.40
   3  -3  -7  111.79    6.50
  -3   3   7  107.79    7.60
  -3   3   7  115.79    7.50
  -3   3   7  111.49    6.30
  -3   3   7  113.89   10.30
  -3   3   7  117.99    7.20
   2  -3  -7  588.94   16.10
   2  -3  -7  551.84   19.30
   2  -3  -7  559.14   18.30
   2  -3  -7  560.44   16.50
   2  -3  -7  572.14   16.60
  -2   3   7  573.34   16.30
  -2   3   7  576.64   18.00
  -2   3   7  552.44   18.30
  -2   3   7  564.94   20.20
  -2   3   7  569.24   17.50
   1  -3  -7  414.36   13.00
   1  -3  -7  387.96   14.10
   1  -3  -7  403.06   12.50
   1  -3  -7  420.16   15.20
   1  -3  -7  408.36   12.10
  -1   3   7  419.16   16.10
  -1   3   7  399.16   13.40
  -1   3   7  404.36   14.30
  -1   3   7  399.76   14.20
   0  -3  -7  366.46   12.00
   0  -3  -7  362.86   13.60
   0  -3  -7  350.16   12.60
   0  -3  -7  365.96   11.00
   0  -3  -7  348.97   11.30
   0   3   7  349.17   12.10
   0   3   7  355.66    9.60
   0   3   7  345.97    9.40
   0   3   7  370.36   13.30
   0   3   7  353.06   12.80
   0   3   7  364.46   11.20
  -1  -3  -7  551.64   16.40
  -1  -3  -7  557.14   21.30
  -1  -3  -7  563.54   17.40
  -1  -3  -7  584.44   16.10
  -1  -3  -7  570.94   17.20
   1   3   7  563.14   15.30
   1   3   7  565.04   14.70
   1   3   7  555.14   17.30
   1   3   7  561.64   18.20
   1   3   7  576.14   16.30
   1   3   7  553.84   17.60
  -2  -3  -7  509.05   16.10
  -2  -3  -7  488.05   16.60
  -2  -3  -7  504.25   15.90
  -2  -3  -7  500.25   15.00
  -2  -3  -7  487.25   15.30
   2   3   7  510.55   13.70
   2   3   7  502.35   16.10
   2   3   7  481.75   16.10
   2   3   7  507.45   14.60
   2   3   7  495.05   16.70
   2   3   7  517.75   15.50
  -3  -3  -7  220.08    9.60
  -3  -3  -7  216.98    8.50
  -3  -3  -7  193.98    8.80
  -3  -3  -7  213.88    9.90
  -3  -3  -7  203.88    9.20
   3   3   7  206.18    7.30
   3   3   7  210.28    9.00
   3   3   7  188.18    9.40
   3   3   7  212.08    9.80
   3   3   7  215.08    8.40
   3   3   7  222.18    9.70
  -4  -3  -7   19.20    4.20
  -4  -3  -7   25.60    3.80
  -4  -3  -7   31.30    4.80
   4   3   7   30.40    4.20
   4   3   7   28.50    4.40
   4   3   7   27.90    4.30
   4   3   7   27.60    4.70
   4   3   7   22.70    2.90
  -5  -3  -7  884.51   30.90
  -5  -3  -7  932.21   26.50
  -5  -3  -7  909.81   26.90
  -5  -3  -7  916.31   27.60
   5   3   7  903.41   25.20
   5   3   7  968.80   28.00
   5   3   7  925.71   27.50
   5   3   7  907.91   26.40
   5   3   7  893.71   27.10
  -6  -3  -7 1053.79   31.50
  -6  -3  -7 1029.30   32.90
  -6  -3  -7 1067.19   33.20
  -6  -3  -7 1106.09   31.10
   6   3   7 1102.59   30.00
   6   3   7 1102.39   31.90
   6   3   7 1080.09   32.40
   6   3   7 1133.49   32.70
  -7  -3  -7  184.68   13.00
  -7  -3  -7  193.98   11.30
  -7  -3  -7  186.58   11.30
  -7  -3  -7  196.48   11.90
   7   3   7  169.38   11.70
   7   3   7  204.78   11.60
   7   3   7  196.48    9.90
   7   3   7  196.58   11.00
   7   3   7  208.98   12.90
  -8  -3  -7  155.78   13.20
  -8  -3  -7  183.98   11.90
  -8  -3  -7  158.68   13.20
  -8  -3  -7  174.28   11.30
   8   3   7  193.18   12.20
   8   3   7  164.88    9.80
   8   3   7  159.18   12.60
   8   3   7  159.08   11.10
   8   3   7  198.58   14.30
  -9  -3  -7   -2.60    6.30
  -9  -3  -7   -1.10    5.40
  -9  -3  -7   -8.20    7.60
  -9  -3  -7   -8.40    5.50
  -9  -3  -7   -0.70    5.90
   9   3   7   -4.40    6.90
   9   3   7    6.60    5.20
   9   3   7    1.00    5.60
   9   3   7  -10.30    7.50
   9   3   7    8.50    6.30
 -10  -3  -7   70.09   11.00
 -10  -3  -7   60.39    9.50
 -10  -3  -7   61.29   15.60
  10   3   7   70.69   12.10
  10   3   7   38.30    9.50
  10   3   7   48.60    8.90
   5  -4  -7   38.40    6.40
   5  -4  -7   35.20    5.70
   5  -4  -7   43.90    6.00
   5  -4  -7   40.20    7.50
  -5   4   7   41.50    8.20
  -5   4   7   35.00    8.40
   4  -4  -7   49.90    6.20
   4  -4  -7   43.80    8.30
   4  -4  -7   45.50    5.80
   4  -4  -7   30.60   10.90
   4  -4  -7   42.20    5.00
  -4   4   7   52.99    7.20
  -4   4   7   40.90    5.30
  -4   4   7   53.09    8.20
  -4   4   7   46.90    5.60
   3  -4  -7   12.20    3.10
   3  -4  -7    9.30    3.50
   3  -4  -7   12.20    3.60
   3  -4  -7    6.00    4.80
  -3   4   7   15.70    3.50
  -3   4   7   14.20    3.50
  -3   4   7    6.40    5.90
  -3   4   7   16.60    3.80
  -3   4   7   14.00    4.70
   2  -4  -7  445.56   16.30
   2  -4  -7  424.56   14.70
   2  -4  -7  435.06   13.70
   2  -4  -7  432.36   14.40
   2  -4  -7  439.36   16.70
  -2   4   7  435.16   15.10
  -2   4   7  448.36   15.60
  -2   4   7  440.56   15.00
  -2   4   7  468.05   17.90
  -2   4   7  434.76   12.00
  -2   4   7  451.95   14.10
  -2   4   7  441.46   12.10
   1  -4  -7   -0.30    2.40
   1  -4  -7    9.80    3.60
   1  -4  -7    0.00    1.80
   1  -4  -7    7.30    3.50
   1  -4  -7    0.80    2.00
  -1   4   7    1.20    2.80
  -1   4   7    1.10    1.40
  -1   4   7    3.50    1.90
  -1   4   7   -0.60    2.20
  -1   4   7    5.50    2.30
  -1   4   7    0.10    3.80
  -1   4   7    1.20    3.00
   0  -4  -7  152.58    6.70
   0  -4  -7  137.89   10.00
   0  -4  -7  156.58    8.60
   0  -4  -7  156.98    7.00
   0  -4  -7  161.58    7.80
   0   4   7  154.68    5.90
   0   4   7  162.88    9.20
   0   4   7  158.58    6.90
   0   4   7  163.58    8.40
   0   4   7  161.18    8.10
   0   4   7  158.38    7.60
   0   4   7  162.38    6.40
  -1  -4  -7   98.69    5.70
  -1  -4  -7  106.19    6.90
  -1  -4  -7  111.69    6.80
  -1  -4  -7  114.59    5.70
   1   4   7  110.59    7.20
   1   4   7  103.49    6.10
   1   4   7  106.19    4.70
   1   4   7  104.49    5.80
   1   4   7  109.89    6.80
   1   4   7  105.09    5.50
  -2  -4  -7   65.99    5.70
  -2  -4  -7   63.79    5.60
  -2  -4  -7   60.19    5.90
  -2  -4  -7   64.89    5.00
  -2  -4  -7   72.29    4.90
   2   4   7   63.79    5.00
   2   4   7   65.69    6.10
   2   4   7   64.19    3.90
   2   4   7   63.29    4.80
   2   4   7   70.09    6.10
   2   4   7   60.59    5.10
  -3  -4  -7  549.65   17.80
  -3  -4  -7  568.94   18.60
  -3  -4  -7  555.04   18.30
  -3  -4  -7  566.34   17.50
  -3  -4  -7  587.14   17.20
   3   4   7  574.84   16.00
   3   4   7  550.04   17.50
   3   4   7  571.54   18.70
   3   4   7  556.94   17.30
   3   4   7  561.94   17.30
   3   4   7  572.64   18.60
  -4  -4  -7  272.07   10.90
  -4  -4  -7  269.77   11.70
  -4  -4  -7  266.87   12.00
  -4  -4  -7  285.17   10.90
  -4  -4  -7  263.97   10.90
   4   4   7  292.47   12.00
   4   4   7  283.27   11.20
   4   4   7  289.37   12.30
   4   4   7  269.77    9.70
   4   4   7  267.27   11.20
  -5  -4  -7    2.40    4.80
  -5  -4  -7    5.80    3.30
  -5  -4  -7    1.90    3.40
  -5  -4  -7    6.10    3.20
   5   4   7    0.90    3.90
   5   4   7    3.60    2.40
   5   4   7    3.50    3.60
   5   4   7    2.40    3.20
   5   4   7    5.70    3.50
  -6  -4  -7  520.65   18.20
  -6  -4  -7  534.75   18.10
  -6  -4  -7  527.95   20.10
  -6  -4  -7  524.05   19.30
   6   4   7  531.65   19.60
   6   4   7  490.95   18.50
   6   4   7  541.15   18.50
   6   4   7  517.05   16.80
  -7  -4  -7  310.77   16.50
  -7  -4  -7  308.97   15.20
  -7  -4  -7  324.17   14.00
  -7  -4  -7  321.67   13.90
   7   4   7  307.27   15.50
   7   4   7  302.77   12.70
   7   4   7  332.57   14.80
   7   4   7  327.27   14.00
  -8  -4  -7  855.71   25.30
  -8  -4  -7  785.52   26.20
  -8  -4  -7  853.41   30.40
  -8  -4  -7  792.02   28.00
  -8  -4  -7  834.82   27.00
   8   4   7  819.62   25.40
   8   4   7  860.61   27.50
   8   4   7  804.92   26.30
   8   4   7  850.71   28.90
   8   4   7  815.62   28.10
  -9  -4  -7   88.99   10.90
  -9  -4  -7   90.79   10.50
  -9  -4  -7  125.89   12.60
  -9  -4  -7   93.59   12.40
  -9  -4  -7   83.99   10.40
   9   4   7   90.69   10.60
   9   4   7   93.09    9.60
   9   4   7  100.59   12.20
   9   4   7  119.09   13.50
   9   4   7   95.29   10.80
 -10  -4  -7    5.40    8.30
 -10  -4  -7    4.70    6.80
 -10  -4  -7   17.10   12.20
  10   4   7   -4.00    7.20
  10   4   7    2.90    8.80
  10   4   7  -12.70   10.10
  10   4   7   -6.70    9.70
   5  -5  -7   26.70    6.00
   5  -5  -7   28.70    6.60
   5  -5  -7   20.50    6.10
  -5   5   7   23.70    9.90
  -5   5   7   44.00    9.70
   4  -5  -7    9.80    4.80
   4  -5  -7    2.30    7.00
   4  -5  -7   14.50    7.30
   4  -5  -7   -1.50    3.90
   4  -5  -7    8.00    4.40
  -4   5   7    2.80    3.30
  -4   5   7   10.60    3.10
  -4   5   7   10.10    3.00
  -4   5   7    6.30    6.60
  -4   5   7    2.60    6.00
  -4   5   7    0.40    4.20
   3  -5  -7    3.80    3.90
   3  -5  -7    2.30    6.00
   3  -5  -7    0.40    2.90
   3  -5  -7   -0.40    3.60
  -3   5   7    2.70    3.30
  -3   5   7    4.00    2.80
  -3   5   7    4.70    4.80
  -3   5   7   -5.20    4.90
  -3   5   7   -0.80    3.30
  -3   5   7    2.50    2.80
   2  -5  -7   26.00    5.90
   2  -5  -7   13.70    3.50
   2  -5  -7   18.10    3.50
   2  -5  -7   24.30    4.30
  -2   5   7   13.30    3.00
  -2   5   7   18.30    3.60
  -2   5   7   19.00    3.10
  -2   5   7   19.40    4.90
  -2   5   7   16.90    3.90
  -2   5   7   29.40    5.90
  -2   5   7   13.40    3.50
   1  -5  -7 1419.26   37.50
   1  -5  -7 1401.46   37.20
   1  -5  -7 1432.46   36.70
   1  -5  -7 1428.06   38.80
   1  -5  -7 1418.16   40.50
  -1   5   7 1390.56   36.10
  -1   5   7 1410.76   38.80
  -1   5   7 1377.36   35.70
  -1   5   7 1420.86   36.90
  -1   5   7 1382.66   37.60
  -1   5   7 1431.96   39.90
  -1   5   7 1392.26   36.90
   0  -5  -7  459.25   17.30
   0  -5  -7  481.45   16.60
   0  -5  -7  456.65   17.50
   0  -5  -7  488.95   14.90
   0   5   7  472.05   14.80
   0   5   7  498.55   16.80
   0   5   7  476.45   16.10
   0   5   7  489.05   15.10
   0   5   7  485.35   14.20
   0   5   7  485.55   15.10
   0   5   7  497.35   17.40
  -1  -5  -7  356.76   13.30
  -1  -5  -7  358.36   14.30
  -1  -5  -7  352.76   13.40
  -1  -5  -7  333.27   14.40
  -1  -5  -7  367.16   12.20
   1   5   7  374.06   12.30
   1   5   7  373.46   14.10
   1   5   7  354.56   12.20
   1   5   7  364.66   13.50
   1   5   7  374.56   13.90
   1   5   7  365.46   12.40
   1   5   7  364.76   11.30
  -2  -5  -7  304.57   11.10
  -2  -5  -7  314.87   12.90
  -2  -5  -7  318.27   12.50
  -2  -5  -7  309.97   11.90
   2   5   7  314.17   11.10
   2   5   7  309.57   11.60
   2   5   7  314.47   12.40
   2   5   7  311.77   11.30
   2   5   7  327.97   12.80
   2   5   7  316.27   10.30
  -3  -5  -7 2366.86   60.29
  -3  -5  -7 2422.46   61.79
  -3  -5  -7 2445.86   60.09
  -3  -5  -7 2352.16   61.69
  -3  -5  -7 2401.86   60.49
   3   5   7 2464.85   61.99
   3   5   7 2398.46   60.49
   3   5   7 2406.86   58.89
   3   5   7 2408.86   59.79
   3   5   7 2344.17   60.39
  -4  -5  -7 2336.37   59.19
  -4  -5  -7 2386.06   61.29
  -4  -5  -7 2275.17   59.39
  -4  -5  -7 2383.26   59.39
  -4  -5  -7 2343.17   60.89
   4   5   7 2329.87   58.59
   4   5   7 2354.96   59.99
   4   5   7 2283.67   58.09
   4   5   7 2403.06   61.29
   4   5   7 2422.96   59.99
  -5  -5  -7   -0.70    2.70
  -5  -5  -7    2.40    2.80
  -5  -5  -7    0.80    3.10
  -5  -5  -7   -1.90    5.00
  -5  -5  -7    2.70    3.60
   5   5   7    3.50    3.80
   5   5   7    2.70    3.40
   5   5   7   -0.30    2.20
   5   5   7    1.00    3.30
  -6  -5  -7   77.89    7.10
  -6  -5  -7   78.79    9.20
  -6  -5  -7   74.19    7.60
  -6  -5  -7   67.89    8.20
   6   5   7   68.99    6.20
   6   5   7   65.29    7.70
   6   5   7   83.49    8.40
   6   5   7   71.09    8.20
  -7  -5  -7  422.76   18.00
  -7  -5  -7  451.55   16.90
  -7  -5  -7  383.76   15.80
  -7  -5  -7  425.86   19.30
   7   5   7  426.26   17.30
   7   5   7  408.26   15.20
   7   5   7  430.96   17.20
   7   5   7  433.26   18.50
  -8  -5  -7  270.07   12.30
  -8  -5  -7  269.07   13.70
  -8  -5  -7  221.88   12.00
  -8  -5  -7  247.68   15.90
  -8  -5  -7  247.38   14.00
   8   5   7  249.18   13.20
   8   5   7  263.67   14.40
   8   5   7  239.78   11.50
   8   5   7  257.37   15.30
   8   5   7  251.17   14.30
  -9  -5  -7  132.09   16.40
  -9  -5  -7  115.79   12.70
  -9  -5  -7  127.89   10.80
  -9  -5  -7  145.79   12.30
  -9  -5  -7  125.19   11.20
   9   5   7  124.49   12.50
   9   5   7  134.79   14.00
   9   5   7  132.19   12.80
   9   5   7  132.29   12.00
   9   5   7  128.09   10.20
 -10  -5  -7   31.70    8.20
 -10  -5  -7   34.10   11.50
 -10  -5  -7   43.60    8.70
  10   5   7   40.80    8.60
  10   5   7   43.00   10.30
  10   5   7   36.20    9.00
  10   5   7   39.50    9.50
   4  -6  -7   23.20    9.40
   4  -6  -7   37.40    5.60
   4  -6  -7   33.60    6.60
   4  -6  -7   30.70    6.00
  -4   6   7   23.30    8.80
  -4   6   7   28.60    4.50
  -4   6   7   23.20    4.60
  -4   6   7   40.40    9.30
  -4   6   7   28.20    6.50
   3  -6  -7   63.99    7.10
   3  -6  -7   76.89    8.00
   3  -6  -7   84.19    7.20
   3  -6  -7   81.59   10.60
  -3   6   7   87.99   11.00
  -3   6   7   73.59    8.40
  -3   6   7   54.19    7.30
  -3   6   7   69.29    8.00
  -3   6   7   65.89    6.50
  -3   6   7   63.49    6.90
   2  -6  -7  304.37   12.10
   2  -6  -7  328.67   13.20
   2  -6  -7  320.27   17.10
   2  -6  -7  285.07   12.90
  -2   6   7  317.67   14.90
  -2   6   7  304.97   15.00
  -2   6   7  295.07   11.40
  -2   6   7  317.77   12.20
  -2   6   7  307.47   12.20
  -2   6   7  308.67   12.10
   1  -6  -7   23.00    3.70
   1  -6  -7   21.70    6.30
   1  -6  -7   16.70    4.00
   1  -6  -7   18.80    4.20
  -1   6   7   18.40    5.10
  -1   6   7   14.00    4.20
  -1   6   7   20.60    3.40
  -1   6   7   15.60    3.50
  -1   6   7   21.10    3.80
  -1   6   7   26.90    5.90
  -1   6   7   26.30    3.80
   0  -6  -7  330.17   15.50
   0  -6  -7  340.27   12.00
   0  -6  -7  329.37   12.40
   0  -6  -7  327.77   13.10
   0  -6  -7  334.37   13.00
   0   6   7  333.47   11.30
   0   6   7  343.47   14.30
   0   6   7  330.17   13.10
   0   6   7  338.97   12.10
   0   6   7  276.97   15.50
   0   6   7  331.17   12.20
   0   6   7  347.27   11.70
  -1  -6  -7  465.05   16.90
  -1  -6  -7  493.35   16.30
  -1  -6  -7  480.95   16.60
  -1  -6  -7  467.75   18.40
  -1  -6  -7  486.15   15.80
   1   6   7  474.75   16.90
   1   6   7  462.65   15.30
   1   6   7  498.25   17.60
   1   6   7  492.55   15.90
   1   6   7  465.65   14.90
   1   6   7  485.05   14.60
  -2  -6  -7 1089.99   29.30
  -2  -6  -7 1062.69   31.30
  -2  -6  -7 1044.20   31.70
  -2  -6  -7 1083.69   29.50
  -2  -6  -7 1068.79   29.50
   2   6   7 1064.69   29.30
   2   6   7 1103.59   28.30
   2   6   7  972.40   29.30
   2   6   7 1077.59   29.70
   2   6   7 1077.69   31.20
  -3  -6  -7  757.02   24.10
  -3  -6  -7  736.03   23.30
  -3  -6  -7  753.22   22.10
  -3  -6  -7  600.84   28.30
  -3  -6  -7  772.72   21.90
   3   6   7  744.53   22.20
   3   6   7  763.12   20.80
   3   6   7  741.63   22.60
   3   6   7  781.82   24.20
   3   6   7  744.33   20.90
  -4  -6  -7   -1.40    2.90
  -4  -6  -7   -0.10    3.80
  -4  -6  -7   -0.60    2.40
  -4  -6  -7    3.80    4.00
  -4  -6  -7    5.70    3.00
   4   6   7    6.90    4.10
   4   6   7    2.30    2.70
   4   6   7    1.70    3.20
   4   6   7    3.30    2.60
   4   6   7    2.10    2.30
  -5  -6  -7    5.50    4.50
  -5  -6  -7    2.00    4.20
  -5  -6  -7    5.00    3.30
  -5  -6  -7    1.00    2.50
  -5  -6  -7   -1.70    3.10
   5   6   7   -0.80    4.00
   5   6   7    6.90    3.70
   5   6   7    1.20    2.50
   5   6   7   -2.50    4.60
  -6  -6  -7  331.37   15.60
  -6  -6  -7  314.87   14.60
  -6  -6  -7  299.27   11.30
  -6  -6  -7  283.97   12.70
  -6  -6  -7  315.67   13.10
   6   6   7  286.27   11.70
   6   6   7  333.77   15.70
   6   6   7  295.77   13.50
   6   6   7  328.37   14.30
  -7  -6  -7  256.77   15.50
  -7  -6  -7  240.28   13.20
  -7  -6  -7  236.58   11.90
  -7  -6  -7  222.38    9.90
  -7  -6  -7  239.28   12.30
   7   6   7  252.07   13.00
   7   6   7  234.68   14.40
   7   6   7  242.88   13.30
   7   6   7  229.98   10.90
  -8  -6  -7  343.97   14.90
  -8  -6  -7  399.36   19.80
  -8  -6  -7  356.96   17.30
  -8  -6  -7  388.86   16.60
   8   6   7  355.46   16.90
   8   6   7  359.56   18.10
   8   6   7  353.36   17.00
   8   6   7  346.97   14.30
  -9  -6  -7  125.39   14.90
  -9  -6  -7  119.29   11.30
  -9  -6  -7  121.19   10.90
  -9  -6  -7  130.59   13.10
  -9  -6  -7  131.89   12.50
   9   6   7  120.29   13.90
   9   6   7  103.39   10.80
   9   6   7  115.69   10.30
   9   6   7  126.49   13.80
 -10  -6  -7  200.68   21.30
 -10  -6  -7  220.18   16.70
 -10  -6  -7  223.48   15.90
  10   6   7  211.08   16.30
  10   6   7  172.08   14.50
  10   6   7  191.98   18.70
  10   6   7  203.68   18.40
   4  -7  -7   13.90   11.10
   4  -7  -7   20.50    5.70
   4  -7  -7   22.10    8.50
  -4   7   7   21.70   10.70
  -4   7   7   24.20    6.60
   3  -7  -7   80.09    9.20
   3  -7  -7   65.99    8.20
   3  -7  -7   95.09   13.00
   3  -7  -7   71.09    7.30
  -3   7   7   81.89    9.30
  -3   7   7   99.39   11.80
  -3   7   7  107.99   13.20
  -3   7   7  104.79    8.20
  -3   7   7   85.79   11.10
   2  -7  -7    0.50    4.30
   2  -7  -7   -1.00    4.40
   2  -7  -7    5.70    3.80
  -2   7   7    1.30    3.80
  -2   7   7    3.20    3.70
  -2   7   7   -6.90    6.40
  -2   7   7   -3.50    3.70
  -2   7   7    2.90    4.00
  -2   7   7   -6.30    5.50
   1  -7  -7    5.10    4.00
   1  -7  -7   15.30    3.80
   1  -7  -7   17.70    4.40
   1  -7  -7   10.40    7.10
  -1   7   7   15.50    4.40
  -1   7   7    9.20    6.00
  -1   7   7   11.70    3.90
  -1   7   7    5.50    3.50
  -1   7   7    5.70    5.20
  -1   7   7    8.10    4.20
   0  -7  -7  115.89    8.30
   0  -7  -7  102.99   11.60
   0  -7  -7  110.29    8.00
   0  -7  -7  107.59    7.40
   0   7   7  119.79   10.20
   0   7   7  106.89    7.30
   0   7   7  124.39    7.50
   0   7   7  114.89    5.70
   0   7   7  115.79    9.40
   0   7   7  114.89    8.10
  -1  -7  -7  615.04   19.80
  -1  -7  -7  636.84   19.50
  -1  -7  -7  631.04   20.80
  -1  -7  -7  634.64   23.50
   1   7   7  622.24   17.40
   1   7   7  630.84   20.90
   1   7   7  616.94   19.80
   1   7   7  630.34   18.80
   1   7   7  630.94   21.80
   1   7   7  601.64   19.30
  -2  -7  -7  665.83   20.10
  -2  -7  -7  636.94   20.20
  -2  -7  -7  649.83   21.60
  -2  -7  -7  639.44   23.20
   2   7   7  677.83   22.60
   2   7   7  625.84   20.10
   2   7   7  657.43   17.90
   2   7   7  656.23   20.60
   2   7   7  651.23   19.30
   2   7   7  645.34   20.80
  -3  -7  -7  281.67   10.70
  -3  -7  -7  284.57   11.70
  -3  -7  -7  275.97   12.70
  -3  -7  -7  252.57   13.60
  -3  -7  -7  271.87   11.50
   3   7   7  274.47   14.30
   3   7   7  277.97   10.50
   3   7   7  275.97    9.30
   3   7   7  268.77   11.30
   3   7   7  268.57   12.90
  -4  -7  -7  667.73   21.70
  -4  -7  -7  677.43   24.10
  -4  -7  -7  739.13   22.30
  -4  -7  -7  718.13   22.00
  -4  -7  -7  734.73   24.10
   4   7   7  699.73   22.00
   4   7   7  719.53   23.00
   4   7   7  738.23   24.70
   4   7   7  735.43   21.10
   4   7   7  716.73   19.90
  -5  -7  -7 1691.73   43.50
  -5  -7  -7 1706.63   45.60
  -5  -7  -7 1773.92   48.30
  -5  -7  -7 1684.53   47.80
  -5  -7  -7 1702.33   45.50
   5   7   7 1712.53   46.20
   5   7   7 1706.13   49.00
   5   7   7 1740.13   46.70
   5   7   7 1712.73   44.40
  -6  -7  -7  240.78   13.60
  -6  -7  -7  221.28   11.70
  -6  -7  -7  230.18   11.20
  -6  -7  -7  223.48    9.00
  -6  -7  -7  229.98   13.20
   6   7   7  214.98   10.10
   6   7   7  234.58   12.80
   6   7   7  240.68   14.20
   6   7   7  238.68   12.00
  -7  -7  -7  196.48   10.80
  -7  -7  -7  204.78   12.00
  -7  -7  -7  194.88    8.50
  -7  -7  -7  193.28   12.20
  -7  -7  -7  208.78   14.90
   7   7   7  213.08   13.00
   7   7   7  199.08    9.90
   7   7   7  219.98   13.60
   7   7   7  200.78   11.90
  -8  -7  -7   10.70    3.50
  -8  -7  -7    6.80    4.50
  -8  -7  -7    3.00    5.40
  -8  -7  -7   -0.70    7.30
  -8  -7  -7   -1.10    5.10
   8   7   7   14.10    6.50
   8   7   7    3.50    5.60
   8   7   7   12.00    4.00
   8   7   7    2.00    5.50
  -9  -7  -7  246.08   14.60
  -9  -7  -7  223.48   10.20
  -9  -7  -7  238.88   18.00
  -9  -7  -7  220.68   16.60
  -9  -7  -7  242.08   14.70
   9   7   7  202.78   16.80
   9   7   7  232.78   17.00
   9   7   7  195.98   13.60
 -10  -7  -7   80.99   10.90
 -10  -7  -7   67.99   15.50
 -10  -7  -7   81.39   11.00
  10   7   7   73.89   10.90
  10   7   7   93.99   17.40
  10   7   7   90.19   12.50
   3  -8  -7  415.96   17.90
   3  -8  -7  454.65   26.70
  -3   8   7  403.96   22.70
  -3   8   7  413.76   17.40
  -3   8   7  418.16   15.80
  -3   8   7  455.15   23.50
  -3   8   7  412.46   17.80
   2  -8  -7   -6.70    9.80
   2  -8  -7   10.30    4.90
   2  -8  -7   -1.50    5.90
   2  -8  -7   -3.90    5.80
  -2   8   7    8.50    5.00
  -2   8   7  -17.00    8.10
  -2   8   7    6.80    6.50
  -2   8   7    4.40    4.50
  -2   8   7    5.50    5.90
   1  -8  -7    2.30    4.40
   1  -8  -7   -0.40    5.10
   1  -8  -7    4.70    8.00
   1  -8  -7    2.70    3.60
  -1   8   7   -6.40    3.90
  -1   8   7    5.40    5.20
  -1   8   7    1.00    3.90
  -1   8   7    2.50    5.50
  -1   8   7    6.10    8.00
   0  -8  -7  119.89    8.80
   0  -8  -7  134.29    8.60
   0  -8  -7  108.89    9.40
   0  -8  -7  101.99   12.00
   0   8   7  122.19    8.60
   0   8   7  112.89    7.90
   0   8   7  120.29   10.30
   0   8   7  142.99   14.10
   0   8   7  107.79    9.40
  -1  -8  -7   36.00    8.00
  -1  -8  -7   36.30    5.90
  -1  -8  -7   31.90    4.60
  -1  -8  -7   24.80    4.50
   1   8   7   35.20    5.90
   1   8   7   41.80    6.30
   1   8   7   31.90    4.60
   1   8   7   39.90    5.20
  -2  -8  -7   62.39    6.70
  -2  -8  -7   62.09    7.50
  -2  -8  -7   58.99    7.00
  -2  -8  -7   48.60    8.00
   2   8   7   52.99    6.30
   2   8   7   54.09    6.30
   2   8   7   56.79    6.40
   2   8   7   56.89    6.10
   2   8   7   58.99    3.70
  -3  -8  -7   87.29    8.30
  -3  -8  -7   86.49   10.90
  -3  -8  -7   86.59    7.90
  -3  -8  -7   86.29    7.40
   3   8   7   81.39    6.70
   3   8   7   87.09    7.00
   3   8   7   90.39    9.00
   3   8   7   91.99    4.40
   3   8   7  106.39   10.60
  -4  -8  -7 1398.76   37.90
  -4  -8  -7 1338.87   35.40
  -4  -8  -7 1396.36   40.20
  -4  -8  -7 1353.76   37.50
  -4  -8  -7 1390.46   41.10
   4   8   7 1323.47   36.50
   4   8   7 1351.16   34.10
   4   8   7 1414.96   39.10
   4   8   7 1369.76   40.30
   4   8   7 1362.86   37.90
  -5  -8  -7   33.60    6.60
  -5  -8  -7   18.10    4.60
  -5  -8  -7   26.70    5.30
  -5  -8  -7   22.80    3.30
  -5  -8  -7   21.90    6.00
   5   8   7   18.20    6.70
   5   8   7   27.10    3.60
   5   8   7   23.50    3.90
   5   8   7   22.80    5.40
   5   8   7   24.20    5.20
  -6  -8  -7   53.79    4.50
  -6  -8  -7   77.49    8.50
  -6  -8  -7   44.30    7.60
  -6  -8  -7   42.10    5.80
  -6  -8  -7   37.70    7.50
   6   8   7   42.70    6.20
   6   8   7   56.09    9.00
   6   8   7   59.69    6.50
   6   8   7   39.60    6.40
  -7  -8  -7    4.20    5.10
  -7  -8  -7    5.40    7.10
  -7  -8  -7   -2.50    4.00
  -7  -8  -7   -0.60    5.20
  -7  -8  -7    0.80    2.30
   7   8   7   -1.00    5.10
   7   8   7    3.90    5.40
   7   8   7    6.70    3.50
   7   8   7    8.20    6.60
  -8  -8  -7   14.00    8.40
  -8  -8  -7   17.10    2.90
  -8  -8  -7    8.10    5.90
  -8  -8  -7    8.80    6.70
  -8  -8  -7   16.90    5.10
   8   8   7   16.40    4.60
   8   8   7    3.30    6.30
   8   8   7   20.10    6.20
   8   8   7   23.30    8.00
  -9  -8  -7   44.10    8.40
  -9  -8  -7   34.40    8.30
  -9  -8  -7   37.00   11.20
   9   8   7   41.30    8.00
   9   8   7   51.79   11.10
   9   8   7   50.09   10.70
   2  -9  -7  -13.80   12.10
  -2   9   7    3.60   10.80
  -2   9   7    1.50    8.80
  -2   9   7    2.50    6.00
  -2   9   7    3.30    6.40
   1  -9  -7  153.18   18.90
   1  -9  -7  187.68   12.40
   1  -9  -7  176.98   13.70
  -1   9   7  191.98   17.80
  -1   9   7  167.08   14.30
  -1   9   7  197.78   13.40
  -1   9   7  192.88   11.70
   0  -9  -7   -7.60    9.60
   0  -9  -7    5.40    5.00
   0  -9  -7   16.50    5.90
   0  -9  -7    4.30    5.10
   0   9   7    9.30    5.90
   0   9   7    3.20    8.50
   0   9   7    8.60    4.60
   0   9   7    4.20    5.60
   0   9   7   15.50    5.30
  -1  -9  -7   40.20    6.00
  -1  -9  -7   29.60    9.70
  -1  -9  -7   71.69    7.90
  -1  -9  -7   58.89    7.60
   1   9   7   59.79    8.00
   1   9   7   50.59    9.50
   1   9   7   50.29    6.00
   1   9   7   53.59    7.20
   1   9   7   52.59    6.60
  -2  -9  -7    5.80    5.00
  -2  -9  -7    1.10    4.00
  -2  -9  -7   11.60    7.80
  -2  -9  -7    4.40    4.10
   2   9   7    4.70    3.60
   2   9   7    8.10    5.20
   2   9   7    3.80    4.60
   2   9   7    7.60    3.50
   2   9   7    1.80    7.00
  -3  -9  -7  139.19    9.00
  -3  -9  -7  155.68   11.80
  -3  -9  -7  150.68   10.00
  -3  -9  -7  129.99   13.30
   3   9   7  145.89    8.50
   3   9   7  128.49   10.70
   3   9   7  164.38   13.70
   3   9   7  126.89    8.40
  -4  -9  -7  116.79   11.80
  -4  -9  -7  143.59   12.00
  -4  -9  -7  117.09    8.60
  -4  -9  -7  154.18   10.20
   4   9   7  117.89    8.00
   4   9   7  124.39    8.50
   4   9   7  166.58   11.40
   4   9   7  140.49   13.30
  -5  -9  -7  145.99   10.30
  -5  -9  -7  115.29   13.00
  -5  -9  -7  128.49    8.70
  -5  -9  -7  140.19   13.10
   5   9   7  144.59   12.20
   5   9   7  116.19    9.50
   5   9   7  135.89   11.50
   5   9   7  134.69    5.60
   5   9   7  129.79    8.10
  -6  -9  -7    5.30    6.30
  -6  -9  -7   13.80    4.60
  -6  -9  -7   14.70    7.80
  -6  -9  -7    1.10    4.70
   6   9   7   12.00    5.80
   6   9   7    1.70    6.30
   6   9   7    8.40    4.70
   6   9   7   11.30    3.30
   6   9   7   12.20    3.90
  -7  -9  -7  134.99   13.50
  -7  -9  -7   95.39   10.00
  -7  -9  -7  124.29   11.80
  -7  -9  -7  111.49   13.30
   7   9   7  117.09    8.90
   7   9   7  106.79   13.10
   7   9   7  103.89   13.40
   7   9   7  110.79   10.00
  -8  -9  -7   41.00   10.80
  -8  -9  -7   27.90    7.00
  -8  -9  -7   27.00   12.90
  -8  -9  -7   19.90    7.20
   8   9   7   23.60    6.90
   8   9   7   12.70    7.70
   8   9   7   39.40    9.90
  -9  -9  -7   90.99   11.40
  -9  -9  -7   80.59   10.50
  -9  -9  -7  111.99   15.70
   9   9   7   84.19   13.80
   9   9   7   96.29   13.50
   9   9   7   98.09   12.90
   0 -10  -7   14.90    6.00
   0 -10  -7   20.90   11.40
   0 -10  -7    0.00    7.60
   0  10   7   34.80   10.90
   0  10   7    0.70    7.00
   0  10   7   -0.80    6.90
  -1 -10  -7    0.10    9.30
  -1 -10  -7    4.10    5.50
  -1 -10  -7   -3.60    7.10
   1  10   7   11.10    5.70
   1  10   7    8.60    6.50
   1  10   7   -7.40    6.40
   1  10   7   -6.10    8.10
  -2 -10  -7   29.50    8.00
  -2 -10  -7   16.00    8.20
  -2 -10  -7   25.60    6.10
   2  10   7   28.60    5.90
   2  10   7   23.20    4.90
   2  10   7   42.90    6.90
   2  10   7   35.70    8.80
   2  10   7   44.00    6.90
  -3 -10  -7    5.40    5.00
  -3 -10  -7    1.60    5.60
  -3 -10  -7  -15.30    7.70
  -3 -10  -7   12.20    5.70
   3  10   7   -0.70    5.50
   3  10   7    5.80    4.90
   3  10   7   -7.00    6.60
   3  10   7    3.10    4.20
   3  10   7   -0.50    4.10
  -4 -10  -7   42.40    9.10
  -4 -10  -7   21.60    5.70
  -4 -10  -7    9.70    5.50
  -4 -10  -7   12.90    7.50
   4  10   7   15.50    6.40
   4  10   7   10.00    4.50
   4  10   7   23.50    8.00
   4  10   7   21.90    4.90
  -5 -10  -7   65.09   10.80
  -5 -10  -7   39.70    7.00
  -5 -10  -7   47.90    7.60
  -5 -10  -7   58.39    9.90
   5  10   7   57.99    7.60
   5  10   7   35.60    5.70
   5  10   7   71.79   10.50
   5  10   7   42.90    7.30
  -6 -10  -7  203.28   12.80
  -6 -10  -7  241.88   14.10
  -6 -10  -7  207.48   17.50
  -6 -10  -7  255.07   16.90
   6  10   7  223.88   12.30
   6  10   7  272.97   15.70
   6  10   7  240.78   17.10
  -7 -10  -7    8.50    6.60
  -7 -10  -7   10.70    9.10
   7  10   7   15.00    9.30
   7  10   7   17.50    4.70
   7  10   7   17.50    6.50
   7  10   7   27.00    9.30
  -8 -10  -7   -1.30    8.50
  -8 -10  -7   -3.40   10.50
   8  10   7    8.40    7.10
   8  10   7    3.40   10.60
   8  10   7    8.70   10.20
  -2 -11  -7    1.40   14.00
  -2 -11  -7   -9.30    8.80
  -2 -11  -7   13.50    9.10
   2  11   7    9.30    8.50
   2  11   7    9.80   11.10
   2  11   7    7.00    6.50
  -3 -11  -7   19.30    8.10
  -3 -11  -7   39.20   10.50
  -3 -11  -7   47.80   13.90
   3  11   7   18.50    6.00
   3  11   7   15.80    7.90
   3  11   7    1.30   10.50
  -4 -11  -7   11.00    6.80
  -4 -11  -7   20.70    8.90
   4  11   7   21.20    8.90
   4  11   7   34.00   11.40
  -5 -11  -7   65.09   10.90
  -5 -11  -7   77.09   10.10
   5  11   7   99.19   14.00
   5  11   7   69.79   10.80
   5  11   7   82.39    9.60
  -6 -11  -7  168.18   18.50
  -6 -11  -7  135.89   14.40
   6  11   7  122.19   14.50
   6  11   7  139.29   13.20
   6  11   7  117.99   12.70
  -7 -11  -7   16.00   11.50
  -7 -11  -7   10.30    8.40
   7  11   7   10.40    8.90
   3   5  -8    7.00    7.10
   3   5  -8   10.00    5.80
  -3  -5   8    9.30    4.60
   2   5  -8  161.68    8.30
   2   5  -8  179.88   10.40
   2   5  -8  170.28   13.80
   2   5  -8  183.48    8.90
  -2  -5   8  166.18   11.30
   1   5  -8  267.37   11.50
   1   5  -8  261.47   15.70
   1   5  -8  266.37   10.80
   1   5  -8  280.57   11.80
  -1  -5   8  265.27   10.20
  -1  -5   8  262.47   14.00
   0   5  -8   -1.50    3.90
   0   5  -8   -1.70    4.30
   0   5  -8    6.00    5.10
   0   5  -8    2.80    4.80
   0  -5   8    0.80    4.60
   0  -5   8   -3.30    5.10
  -1   5  -8   43.60    7.30
  -1   5  -8   35.20    6.50
  -1   5  -8   46.40    7.70
   1  -5   8   42.40    5.20
   1  -5   8   33.30    6.40
   1  -5   8   38.70    7.00
  -2   5  -8    1.20    6.20
  -2   5  -8   -6.50    7.60
  -2   5  -8   -1.60    5.80
   2  -5   8   -4.60    4.50
   2  -5   8   -3.20    7.50
   2  -5   8   -0.10    5.10
  -3   5  -8    7.90   10.30
  -3   5  -8   12.20    6.90
  -3   5  -8   22.40    7.90
   3  -5   8   15.70    5.50
   4   4  -8   53.69    8.00
   4   4  -8   37.60    7.70
  -4  -4   8   49.00    7.50
   3   4  -8   32.30    8.60
   3   4  -8   29.60    6.80
   3   4  -8   32.50    6.20
   3   4  -8   39.30    4.10
   3   4  -8   32.60    3.70
  -3  -4   8   34.40    6.70
   2   4  -8   19.20    3.50
   2   4  -8   15.90    3.10
   2   4  -8   15.00    5.70
   2   4  -8   20.50    6.80
   2   4  -8   22.00    5.10
  -2  -4   8   15.10    4.80
   1   4  -8   17.30    7.10
   1   4  -8   13.60    5.40
   1   4  -8   10.30    3.40
   1   4  -8   19.70    3.90
  -1  -4   8   11.90    4.70
  -1  -4   8   14.00    2.00
   0   4  -8  255.87   10.00
   0   4  -8  270.17   10.40
   0   4  -8  275.37   11.40
   0   4  -8  278.67   11.40
   0   4  -8  270.57    9.70
   0   4  -8  272.47   15.40
   0  -4   8  266.87   14.10
   0  -4   8  275.47    9.30
   0  -4   8  293.57   11.40
  -1   4  -8  390.86   18.50
  -1   4  -8  399.46   15.20
  -1   4  -8  380.46   14.10
  -1   4  -8  424.36   16.30
   1  -4   8  384.76   17.10
   1  -4   8  388.06   15.60
   1  -4   8  414.16   13.40
  -2   4  -8   -0.40    4.30
  -2   4  -8    6.70    6.30
  -2   4  -8   13.70    5.40
  -2   4  -8    8.10    6.60
  -2   4  -8   -3.00    4.60
   2  -4   8    1.40    4.50
   2  -4   8    2.10    5.20
   2  -4   8   -2.30    3.90
  -3   4  -8   31.20    6.60
  -3   4  -8   52.69    7.50
  -3   4  -8   44.50    7.10
  -3   4  -8   28.60    8.10
  -3   4  -8   42.20    8.70
   3  -4   8   47.70    7.90
   3  -4   8   43.90    6.30
   3  -4   8   42.30    7.40
  -4   4  -8   12.50    7.00
  -4   4  -8   -5.50    9.50
  -4   4  -8    1.80    6.50
  -4   4  -8    3.50    6.70
  -4   4  -8    7.20    9.50
   4  -4   8   -0.10    5.50
   4  -4   8    0.50    3.60
   4  -4   8    7.10    3.20
   4  -4   8    8.70    4.90
   5   3  -8  293.37   16.70
   5   3  -8  255.67   16.20
  -5  -3   8  247.68   13.60
   4   3  -8  109.39   11.10
   4   3  -8   69.09    9.10
   4   3  -8   90.89   11.40
  -4  -3   8   96.39    8.90
   3   3  -8    3.20    5.80
   3   3  -8    6.30    5.20
   3   3  -8    6.60    5.10
  -3  -3   8   -2.10    3.60
   2   3  -8    3.10    4.80
   2   3  -8   17.80    5.70
   2   3  -8    6.00    4.70
   2   3  -8    4.70    2.20
   2   3  -8    4.20    2.00
  -2  -3   8    0.30    4.00
   1   3  -8  173.78    7.40
   1   3  -8  183.28    7.40
   1   3  -8  172.88   11.70
   1   3  -8  166.38   11.70
   1   3  -8  176.58    9.90
  -1  -3   8  152.88   10.40
   0   3  -8  365.56   16.40
   0   3  -8  348.47   12.00
   0   3  -8  362.76   10.90
   0   3  -8  350.86   12.80
   0   3  -8  334.37   11.90
   0   3  -8  321.57   15.50
   0   3  -8  340.47   10.20
   0  -3   8  346.47   11.70
   0  -3   8  334.27   15.50
   0  -3   8  340.27   10.30
  -1   3  -8  571.74   18.10
  -1   3  -8  569.74   16.70
  -1   3  -8  569.44   17.20
  -1   3  -8  485.25   21.00
  -1   3  -8  586.94   18.00
  -1   3  -8  548.55   21.00
   1  -3   8  580.84   16.50
   1  -3   8  553.54   21.00
   1  -3   8  597.94   18.40
  -2   3  -8    3.00    2.10
  -2   3  -8    0.80    5.20
  -2   3  -8    2.70    3.60
  -2   3  -8    2.50    5.90
  -2   3  -8    3.20    5.90
  -2   3  -8   -2.10    3.70
   2  -3   8   -3.90    3.70
   2  -3   8    0.90    4.60
   2  -3   8   -1.60    3.40
  -3   3  -8   80.29    9.70
  -3   3  -8   84.79    9.00
  -3   3  -8   78.59    8.90
  -3   3  -8  102.19   10.00
  -3   3  -8   96.49   11.40
   3  -3   8   83.59    8.70
   3  -3   8   88.89    8.00
   3  -3   8   72.19    9.20
  -4   3  -8    3.20    6.10
  -4   3  -8    5.50    7.60
  -4   3  -8    9.10    5.10
  -4   3  -8    5.60    5.80
  -4   3  -8    0.80    5.30
   4  -3   8    0.00    3.60
   4  -3   8    1.10    4.70
   4  -3   8    1.80    2.50
   4  -3   8   14.00    6.60
   4  -3   8   -3.30    2.90
  -5   3  -8   65.39    9.00
  -5   3  -8   88.09   12.70
  -5   3  -8   59.59    8.50
  -5   3  -8   77.29    9.20
  -5   3  -8   92.09   12.00
   5  -3   8   72.79    7.90
   5  -3   8   68.39    8.10
   5  -3   8   54.19    6.90
  -6   3  -8   12.30    7.90
  -6   3  -8  -10.40   16.10
  -6   3  -8    2.00    7.10
  -6   3  -8    8.20    8.70
   6  -3   8   -6.00    5.50
   6  -3   8    5.90    5.10
   6  -3   8    3.70    7.50
   5   2  -8   13.80    6.80
   5   2  -8   13.00    6.20
  -5  -2   8   14.70    4.60
   4   2  -8   12.20    5.50
   4   2  -8   22.10    5.60
   4   2  -8   13.70    6.20
  -4  -2   8   16.90    4.80
   3   2  -8   73.29    9.10
   3   2  -8   75.19    8.40
   3   2  -8   80.99    9.70
  -3  -2   8   69.39    7.40
   2   2  -8   20.50    2.30
   2   2  -8   18.90    2.30
   2   2  -8   20.10    5.40
   2   2  -8   21.40    5.30
   2   2  -8   20.70    5.80
  -2  -2   8   15.60    4.40
   1   2  -8  229.88   12.80
   1   2  -8  247.58    8.10
   1   2  -8  241.48   13.10
   1   2  -8  237.58    8.20
   1   2  -8  241.48   11.70
  -1  -2   8  226.68   12.00
   0   2  -8   36.10    5.00
   0   2  -8   36.20    4.00
   0   2  -8   36.90    3.20
   0   2  -8   27.00    6.10
   0   2  -8   37.00    4.50
   0   2  -8   34.10    3.90
   0   2  -8   42.90    6.90
   0  -2   8   35.40    3.30
   0  -2   8   27.30    5.50
   0  -2   8   40.10    4.10
  -1   2  -8   17.70    5.20
  -1   2  -8   28.40    4.60
  -1   2  -8   19.20    3.50
  -1   2  -8   21.50    3.70
  -1   2  -8   24.90    3.90
  -1   2  -8   20.20    3.80
   1  -2   8   26.40    3.50
   1  -2   8   16.60    4.60
   1  -2   8   26.00    4.20
  -2   2  -8  172.88    8.90
  -2   2  -8  158.08   10.90
  -2   2  -8  146.59    7.10
  -2   2  -8  156.48    8.40
  -2   2  -8  166.98   11.10
  -2   2  -8  156.38   10.50
   2  -2   8  168.88    9.30
   2  -2   8  153.18   10.40
   2  -2   8  164.58    8.30
   2  -2   8  174.18   10.90
  -3   2  -8  356.86   16.50
  -3   2  -8  358.66   16.10
  -3   2  -8  368.86   14.50
  -3   2  -8  390.96   14.40
  -3   2  -8  354.76   14.40
  -3   2  -8  355.46   11.00
   3  -2   8  366.66    9.80
   3  -2   8  348.57   15.00
   3  -2   8  346.07   15.40
   3  -2   8  336.57   15.30
   3  -2   8  359.56   13.80
  -4   2  -8   57.49    7.20
  -4   2  -8   66.79    8.90
  -4   2  -8   49.50    6.80
  -4   2  -8   54.89    6.90
  -4   2  -8   50.09    6.50
   4  -2   8   62.99    7.40
   4  -2   8   46.20    6.60
   4  -2   8   53.19    4.80
   4  -2   8   54.39    5.00
   4  -2   8   50.59    6.20
   4  -2   8   52.89    7.50
  -5   2  -8   25.30    6.60
  -5   2  -8   36.90    6.90
  -5   2  -8   23.30    6.00
  -5   2  -8   32.90    8.50
  -5   2  -8   13.20    5.50
   5  -2   8   27.20    6.40
   5  -2   8   23.40    6.20
   5  -2   8   25.00    6.80
   5  -2   8   23.20    4.50
   5  -2   8   23.70    4.20
  -6   2  -8   11.90    7.20
  -6   2  -8    9.90    7.60
  -6   2  -8    3.30    6.90
  -6   2  -8   16.00    9.90
   6  -2   8   11.50    4.90
   6  -2   8    5.30    4.80
   6  -2   8   13.20    6.80
  -7   2  -8    0.70    8.90
  -7   2  -8    8.10    9.40
   7  -2   8   -8.50    8.20
   7  -2   8   -3.70    5.80
   7  -2   8   -3.50    5.80
   5   1  -8  409.36   18.50
   5   1  -8  421.16   11.90
   5   1  -8  440.36   17.80
   5   1  -8  417.86   12.20
  -5  -1   8  384.96   17.00
   4   1  -8  309.57    9.10
   4   1  -8  331.97   15.40
   4   1  -8  317.27    8.90
   4   1  -8  354.26   16.50
   4   1  -8  313.97   14.90
  -4  -1   8  290.47   14.20
   3   1  -8  306.77    8.20
   3   1  -8  315.17   14.80
   3   1  -8  314.07   14.40
   3   1  -8  317.67   15.30
   3   1  -8  295.87    8.40
  -3  -1   8  273.67   13.50
   2   1  -8   30.40    6.00
   2   1  -8   28.20    2.60
   2   1  -8   21.50    5.40
   2   1  -8   21.70    5.30
   2   1  -8   26.20    2.90
  -2  -1   8   27.90    5.60
   1   1  -8  235.08    7.70
   1   1  -8  239.28   11.60
   1   1  -8  224.48   11.90
   1   1  -8  244.38   12.60
   1   1  -8  230.18    9.10
  -1  -1   8  231.98   11.80
   0   1  -8   96.49    5.00
   0   1  -8   93.49    8.40
   0   1  -8   80.19    4.00
   0   1  -8   93.49    8.40
   0   1  -8   85.89    5.00
   0   1  -8   85.99    5.30
   0   1  -8   96.09    7.70
   0  -1   8   71.09   11.10
   0  -1   8   89.69    8.20
   0  -1   8   82.69    4.30
   0  -1   8   88.49    4.70
  -1   1  -8  652.93   19.30
  -1   1  -8  624.74   19.70
  -1   1  -8  638.34   22.20
  -1   1  -8  619.04   18.10
  -1   1  -8  642.94   22.00
  -1   1  -8  644.34   18.90
  -1   1  -8  674.93   18.70
   1  -1   8  655.33   21.90
   1  -1   8  628.04   22.20
   1  -1   8  653.83   18.80
  -2   1  -8 1083.49   32.60
  -2   1  -8 1095.89   29.60
  -2   1  -8 1097.19   30.30
  -2   1  -8 1098.69   29.90
  -2   1  -8 1143.89   31.50
  -2   1  -8 1140.19   29.90
   2  -1   8 1123.59   32.60
   2  -1   8  932.11   36.30
   2  -1   8 1131.29   30.60
  -3   1  -8  928.81   26.60
  -3   1  -8  911.01   26.80
  -3   1  -8  939.21   28.40
  -3   1  -8  913.21   28.60
  -3   1  -8  922.11   27.10
   3  -1   8  922.81   22.90
   3  -1   8  898.31   22.80
   3  -1   8  883.51   28.70
   3  -1   8  934.01   28.50
   3  -1   8  927.31   27.50
  -4   1  -8   34.70    5.80
  -4   1  -8   27.80    5.30
  -4   1  -8   29.50    5.60
  -4   1  -8   26.20    5.50
  -4   1  -8   31.70    6.60
   4  -1   8   19.40    5.40
   4  -1   8   26.80    5.60
   4  -1   8   29.80    3.40
   4  -1   8   31.40    5.40
   4  -1   8   30.50    3.60
  -5   1  -8   12.50    5.20
  -5   1  -8    7.00    4.40
  -5   1  -8    6.80    5.10
  -5   1  -8   13.40    2.40
  -5   1  -8   10.50    6.70
   5  -1   8   20.70    5.60
   5  -1   8   17.60    3.80
   5  -1   8    9.00    5.40
   5  -1   8    9.10    4.80
   5  -1   8   15.70    3.80
  -6   1  -8   43.80    9.70
  -6   1  -8   50.59    8.20
  -6   1  -8   59.69    8.30
  -6   1  -8   57.29    7.70
   6  -1   8   57.99    6.30
   6  -1   8   44.00    5.90
   6  -1   8   42.30    8.10
   6  -1   8   49.00    7.40
  -7   1  -8   77.69    9.80
  -7   1  -8   87.09   11.10
  -7   1  -8  100.59   14.80
   7  -1   8   85.89    9.20
   7  -1   8   94.89   11.40
   7  -1   8   87.79   10.40
   7  -1   8   95.59   11.10
   5   0  -8  106.09    9.90
   5   0  -8   93.49    6.20
   5   0  -8   98.69    5.60
   5   0  -8   87.39   11.10
  -5   0   8  100.09    8.60
   4   0  -8  106.69    9.60
   4   0  -8  107.09   11.20
   4   0  -8  135.49   10.60
   4   0  -8  110.29    5.10
   4   0  -8  105.89    5.40
  -4   0   8  102.69    8.50
   3   0  -8  120.59    7.10
   3   0  -8  139.69    5.10
   3   0  -8  159.48   10.40
   3   0  -8  140.59    9.90
   3   0  -8  141.19   11.10
  -3   0   8  120.29    8.90
   2   0  -8  453.15   17.80
   2   0  -8  445.26   12.00
   2   0  -8  467.25   16.90
   2   0  -8  465.95   13.70
   2   0  -8  443.16   17.80
  -2   0   8  422.36   17.00
  -2   0   8  444.96   16.80
   1   0  -8    9.30    2.20
   1   0  -8    9.60    4.00
   1   0  -8    7.70    4.20
   1   0  -8   13.20    4.30
   1   0  -8    8.60    1.70
  -1   0   8   11.60    1.70
  -1   0   8   10.40    1.40
  -1   0   8   10.50    4.20
  -1   0   8    7.20    4.00
   0   0  -8   14.40    2.40
   0   0  -8   15.80    4.50
   0   0  -8   19.70    2.60
   0   0  -8   15.20    2.70
   0   0  -8   17.50    5.10
   0   0  -8   16.80    4.70
   0   0  -8   15.40    2.80
   0   0   8   19.80    4.70
   0   0   8   12.50    4.10
   0   0   8   14.20    2.40
   0   0   8   17.00    2.30
  -1   0  -8    5.00    3.10
  -1   0  -8    9.40    4.00
  -1   0  -8    6.90    3.50
  -1   0  -8   14.00    2.90
  -1   0  -8   12.20    2.90
  -1   0  -8   11.10    2.60
   1   0   8    6.60    3.20
   1   0   8   18.20    4.80
   1   0   8   10.70    3.90
   1   0   8    9.20    2.90
  -2   0  -8   25.60    3.80
  -2   0  -8   21.70    4.80
  -2   0  -8   28.00    4.70
  -2   0  -8   24.60    4.10
  -2   0  -8   18.40    3.50
   2   0   8   22.50    4.90
   2   0   8   25.70    4.20
   2   0   8   41.50    5.90
   2   0   8   27.80    4.10
  -3   0  -8  281.47   13.60
  -3   0  -8  305.07   13.20
  -3   0  -8  233.48   16.40
  -3   0  -8  291.67   11.90
  -3   0  -8  284.07   11.30
   3   0   8  314.27   12.40
   3   0   8  291.17   11.70
   3   0   8  280.77   12.90
   3   0   8  307.47   13.60
   3   0   8  283.67    8.50
   3   0   8  281.87    8.70
  -4   0  -8  157.38    9.70
  -4   0  -8  142.29    9.30
  -4   0  -8  136.89   10.40
  -4   0  -8  163.08    9.50
   4   0   8  144.39    6.80
   4   0   8  144.69   10.30
   4   0   8  146.89    6.60
   4   0   8  153.08    9.80
   4   0   8  148.39    9.00
  -5   0  -8  397.76   16.90
  -5   0  -8  465.95   18.80
  -5   0  -8  433.56   17.10
  -5   0  -8  428.96   16.30
   5   0   8  427.66   14.20
   5   0   8  423.86   14.50
   5   0   8  445.86   16.70
   5   0   8  416.16   17.10
   5   0   8  411.36   17.20
  -6   0  -8   27.60    3.50
  -6   0  -8   25.10    6.40
  -6   0  -8   25.90    7.70
  -6   0  -8   23.70    6.70
  -6   0  -8   23.80    5.50
   6   0   8   21.00    4.30
   6   0   8   27.10    6.30
   6   0   8   17.70    5.40
   6   0   8   29.20    5.30
   6   0   8   30.80    6.70
  -7   0  -8   36.30    9.50
  -7   0  -8   35.00    4.40
  -7   0  -8   31.40    8.00
  -7   0  -8   31.80    7.20
  -7   0  -8   38.80    6.90
   7   0   8   28.50    5.20
   7   0   8   33.10    7.00
   7   0   8   22.50    7.10
   7   0   8   51.09    8.00
   7   0   8   28.50    6.20
  -8   0  -8    0.70    8.10
  -8   0  -8    9.00    4.30
  -8   0  -8    6.60    7.80
  -8   0  -8    3.60   12.60
   8   0   8    9.10    6.50
   8   0   8    7.20    6.50
   8   0   8    9.90    6.50
   5  -1  -8   74.89    6.80
   5  -1  -8   78.59    5.90
  -5   1   8   60.79    6.80
  -5   1   8   76.09    7.50
  -5   1   8   63.39    5.40
  -5   1   8   80.39   11.10
   4  -1  -8  236.48   13.10
   4  -1  -8  242.78    8.60
   4  -1  -8  232.78    8.90
   4  -1  -8  267.17   14.80
  -4   1   8  217.68   11.90
  -4   1   8  258.17   15.50
   3  -1  -8  923.91   26.90
   3  -1  -8  921.11   28.60
   3  -1  -8  892.91   29.60
   3  -1  -8  912.31   23.50
   3  -1  -8  893.91   23.00
  -3   1   8  888.31   22.70
  -3   1   8  854.61   27.70
   2  -1  -8    8.00    2.00
   2  -1  -8    5.40    3.90
   2  -1  -8   10.60    5.00
   2  -1  -8    1.90    1.70
   2  -1  -8   -0.90    4.30
  -2   1   8    6.20    1.60
  -2   1   8    3.80    5.10
  -2   1   8    5.20    2.00
   1  -1  -8   50.19    3.90
   1  -1  -8   50.19    6.40
   1  -1  -8   53.49    3.70
   1  -1  -8   44.50    3.50
   1  -1  -8   45.20    4.00
   1  -1  -8   50.29    6.30
  -1   1   8   44.90    6.10
  -1   1   8   52.79    3.20
  -1   1   8   42.20    3.80
   0  -1  -8   10.60    4.00
   0  -1  -8    8.80    2.30
   0  -1  -8   11.40    2.50
   0  -1  -8    4.20    3.40
   0  -1  -8    8.10    2.50
   0   1   8    6.20    3.60
   0   1   8   10.00    2.00
  -1  -1  -8  982.00   26.40
  -1  -1  -8  951.80   28.50
  -1  -1  -8  960.40   26.10
  -1  -1  -8 1006.50   25.60
  -1  -1  -8  928.91   28.90
  -1  -1  -8  957.10   25.80
   1   1   8  991.50   26.30
   1   1   8  961.30   28.80
   1   1   8  949.40   30.50
  -2  -1  -8   72.49    5.20
  -2  -1  -8   71.59    5.70
  -2  -1  -8   65.59    6.50
  -2  -1  -8   70.79    5.50
   2   1   8   68.69    5.80
   2   1   8   77.19    6.10
   2   1   8   59.59    6.70
   2   1   8   75.39    6.90
  -3  -1  -8   61.39    6.30
  -3  -1  -8   52.89    6.30
  -3  -1  -8   59.19    5.60
  -3  -1  -8   48.10    5.70
   3   1   8   63.19    7.20
   3   1   8   55.19    4.10
   3   1   8   61.29    3.50
   3   1   8   51.99    6.10
   3   1   8   64.09    6.60
   3   1   8   53.59    6.10
  -4  -1  -8  778.72   24.20
  -4  -1  -8  790.52   25.40
  -4  -1  -8  778.22   24.40
  -4  -1  -8  806.22   23.80
   4   1   8  800.02   22.00
   4   1   8  791.32   24.40
   4   1   8  783.42   21.40
   4   1   8  796.52   25.20
   4   1   8  807.02   24.90
  -5  -1  -8  651.93   23.50
  -5  -1  -8  648.94   21.70
  -5  -1  -8  611.04   21.70
  -5  -1  -8  656.53   21.10
   5   1   8  619.24   18.80
   5   1   8  646.54   21.70
   5   1   8  670.23   19.70
   5   1   8  651.73   22.10
   5   1   8  640.44   22.10
  -6  -1  -8   64.09    8.00
  -6  -1  -8   43.00    6.80
  -6  -1  -8   54.99    7.30
  -6  -1  -8   56.19    8.50
   6   1   8   51.79    7.00
   6   1   8   47.50    6.20
   6   1   8   52.99    5.70
   6   1   8   59.59    7.50
   6   1   8   50.29    7.40
  -7  -1  -8    5.70    5.70
  -7  -1  -8    2.70    5.90
  -7  -1  -8   12.10    7.60
  -7  -1  -8    8.50    3.30
  -7  -1  -8   11.00    5.70
   7   1   8    5.10    5.60
   7   1   8    7.60    6.00
   7   1   8   10.70    4.40
   7   1   8    9.00    6.40
   7   1   8   14.90    5.40
  -8  -1  -8   91.29    8.50
  -8  -1  -8   91.79   10.70
  -8  -1  -8  109.79   11.40
  -8  -1  -8   73.39   13.40
   8   1   8  111.89   12.20
   8   1   8   98.89   10.10
   8   1   8  105.19   13.90
   8   1   8  105.49   11.40
  -9  -1  -8   99.19   10.30
   9   1   8  107.59   13.90
   9   1   8  100.79   11.70
   9   1   8  122.29   13.90
   5  -2  -8   22.40    4.50
   5  -2  -8   27.30    5.30
   5  -2  -8   26.00    4.50
  -5   2   8   47.70   10.30
  -5   2   8   23.00    4.50
  -5   2   8   24.40    5.20
  -5   2   8   21.00    5.20
   4  -2  -8   -4.90    5.80
   4  -2  -8   -2.40    2.70
   4  -2  -8    2.30    3.40
   4  -2  -8    2.40    2.70
   4  -2  -8    2.00    4.60
   4  -2  -8   -0.80    3.10
  -4   2   8    2.80    3.50
  -4   2   8    3.70    2.90
  -4   2   8   -0.60    3.40
  -4   2   8    6.60    7.00
   3  -2  -8    2.80    2.10
   3  -2  -8   -1.50    2.40
   3  -2  -8   -0.60    2.40
   3  -2  -8    4.40    3.00
   3  -2  -8    4.80    4.20
   3  -2  -8   -0.90    5.20
  -3   2   8    5.20    4.20
  -3   2   8    2.90    3.40
  -3   2   8    3.20    6.00
  -3   2   8    2.60    2.50
  -3   2   8    3.60    3.10
   2  -2  -8  367.36   16.20
   2  -2  -8  352.96   11.40
   2  -2  -8  363.26   12.30
   2  -2  -8  384.16   11.20
   2  -2  -8  346.37   15.30
   2  -2  -8  369.96   11.40
  -2   2   8  368.76   14.30
  -2   2   8  370.46   11.00
  -2   2   8  362.36   14.50
   1  -2  -8   47.40    6.20
   1  -2  -8   45.40    6.20
   1  -2  -8   41.80    3.90
   1  -2  -8   43.60    4.50
   1  -2  -8   41.50    3.60
  -1   2   8   47.70    6.10
  -1   2   8   40.50    4.60
  -1   2   8   42.80    5.60
   0  -2  -8  357.66   11.70
   0  -2  -8  353.66   14.40
   0  -2  -8  342.27   11.90
   0  -2  -8  366.86   11.00
   0  -2  -8  340.77   11.30
   0   2   8  333.77   13.50
   0   2   8  352.76   12.00
   0   2   8  353.36   14.10
  -1  -2  -8  166.78    6.90
  -1  -2  -8  149.79    7.40
  -1  -2  -8  174.48    9.70
  -1  -2  -8  159.98    7.90
  -1  -2  -8  158.58    7.40
   1   2   8  161.88    9.00
   1   2   8  164.38    7.10
   1   2   8  169.78    9.80
   1   2   8  159.98    7.90
  -2  -2  -8  769.82   22.60
  -2  -2  -8  731.83   21.70
  -2  -2  -8  752.72   23.80
  -2  -2  -8  737.23   21.70
  -2  -2  -8  774.02   21.20
   2   2   8  746.83   19.10
   2   2   8  751.92   22.20
   2   2   8  750.22   21.60
   2   2   8  751.22   23.40
  -3  -2  -8   -0.70    2.70
  -3  -2  -8   -1.60    3.20
  -3  -2  -8    1.50    2.40
  -3  -2  -8    0.40    3.60
  -3  -2  -8   -0.40    2.40
   3   2   8    2.80    3.60
   3   2   8   -0.90    1.90
   3   2   8   -3.30    3.00
   3   2   8    3.80    3.20
   3   2   8   -0.30    1.40
   3   2   8   -1.10    2.40
  -4  -2  -8   38.40    5.90
  -4  -2  -8   28.00    4.60
  -4  -2  -8   29.80    4.60
  -4  -2  -8   34.30    4.80
   4   2   8   41.40    5.70
   4   2   8   26.80    4.80
   4   2   8   32.50    3.90
   4   2   8   40.20    5.90
   4   2   8   30.20    3.70
  -5  -2  -8  267.27   13.90
  -5  -2  -8  255.57   11.80
  -5  -2  -8  265.77   12.80
  -5  -2  -8  263.57   12.40
   5   2   8  254.37   11.00
   5   2   8  250.97   12.70
   5   2   8  262.37   12.80
   5   2   8  261.07   12.40
   5   2   8  282.57   10.30
  -6  -2  -8   10.70    5.40
  -6  -2  -8    8.70    5.20
  -6  -2  -8    3.20    4.00
  -6  -2  -8   12.50    4.60
   6   2   8   15.90    5.20
   6   2   8   14.10    5.20
   6   2   8   22.60    6.30
   6   2   8   16.90    3.90
  -7  -2  -8  285.67   15.80
  -7  -2  -8  320.97   17.80
  -7  -2  -8  317.77   14.80
  -7  -2  -8  297.57   14.70
  -7  -2  -8  316.57   11.90
   7   2   8  324.97   14.60
   7   2   8  290.37   15.30
   7   2   8  328.97   16.40
   7   2   8  295.17   12.90
   7   2   8  293.77   15.00
  -8  -2  -8    6.90    6.30
  -8  -2  -8    4.60    5.40
  -8  -2  -8   15.30    5.00
  -8  -2  -8   12.70    6.60
  -8  -2  -8   13.00    9.20
   8   2   8   14.10    4.80
   8   2   8   23.40    7.70
   8   2   8   12.80    6.20
   8   2   8    5.10    6.30
   8   2   8   10.60    7.90
  -9  -2  -8  125.49   14.80
  -9  -2  -8  101.79   11.30
  -9  -2  -8   91.49   11.60
  -9  -2  -8  114.29   16.70
   9   2   8   88.39   11.60
   9   2   8  104.09   11.10
   9   2   8  100.89   12.80
   5  -3  -8   13.30    5.40
   5  -3  -8   14.10    4.50
   5  -3  -8    3.90    4.40
  -5   3   8    9.80    4.60
  -5   3   8   15.50   10.20
   4  -3  -8    5.10    3.60
   4  -3  -8    1.20    4.90
   4  -3  -8    5.30    3.90
   4  -3  -8   20.40    7.30
   4  -3  -8    5.80    4.60
   4  -3  -8    0.10    5.10
  -4   3   8   10.30    7.70
  -4   3   8    0.70    3.10
  -4   3   8   -0.40    4.50
  -4   3   8    8.40    3.60
   3  -3  -8  175.48    8.40
   3  -3  -8  180.68    9.90
   3  -3  -8  180.48    8.00
   3  -3  -8  185.98   10.80
   3  -3  -8  172.18    8.40
   3  -3  -8  182.58   12.90
  -3   3   8  172.78    9.90
  -3   3   8  175.68    8.10
  -3   3   8  198.08   10.10
  -3   3   8  174.98    9.50
  -3   3   8  198.98   13.40
   2  -3  -8  820.52   24.50
   2  -3  -8  822.02   23.00
   2  -3  -8  857.81   22.50
   2  -3  -8  824.92   22.90
   2  -3  -8  795.12   26.20
  -2   3   8  844.52   25.10
  -2   3   8  836.92   22.50
  -2   3   8  842.22   23.90
  -2   3   8  772.22   25.00
  -2   3   8  878.01   27.60
   1  -3  -8  261.17   10.10
   1  -3  -8  274.17   12.70
   1  -3  -8  279.27    9.40
   1  -3  -8  261.47    9.60
   1  -3  -8  281.37   11.50
  -1   3   8  255.97   11.60
  -1   3   8  268.27    9.30
  -1   3   8  283.07   12.30
  -1   3   8  266.07   10.60
   0  -3  -8    8.40    2.50
   0  -3  -8    7.40    3.40
   0  -3  -8   12.30    2.40
   0  -3  -8   12.20    3.20
   0  -3  -8   12.60    4.00
   0   3   8   10.50    2.50
   0   3   8    8.20    3.30
   0   3   8    9.90    4.30
   0   3   8   13.40    3.50
  -1  -3  -8  245.58   11.60
  -1  -3  -8  232.78   10.20
  -1  -3  -8  261.27    9.40
  -1  -3  -8  257.17   10.50
  -1  -3  -8  260.87    9.60
   1   3   8  257.67   11.00
   1   3   8  253.07   11.80
   1   3   8  243.18    9.20
   1   3   8  248.88    7.30
   1   3   8  258.07   10.50
   1   3   8  252.47    7.00
  -2  -3  -8  305.07   10.70
  -2  -3  -8  298.37   11.90
  -2  -3  -8  290.77   10.90
  -2  -3  -8  295.77   12.60
  -2  -3  -8  284.87   11.30
   2   3   8  287.07   12.00
   2   3   8  284.87   10.90
   2   3   8  293.17   13.20
   2   3   8  294.37   11.70
   2   3   8  287.07    8.70
   2   3   8  296.17    9.60
  -3  -3  -8 3248.88   83.69
  -3  -3  -8 3496.35   82.89
  -3  -3  -8 3283.17   81.89
  -3  -3  -8 3355.16   82.89
  -3  -3  -8 3384.76   80.99
   3   3   8 3309.47   82.39
   3   3   8 3386.86   78.99
   3   3   8 2856.51   86.69
   3   3   8 3325.27   80.09
   3   3   8 3375.36   82.39
   3   3   8 3266.17   81.39
  -4  -3  -8   11.40    4.30
  -4  -3  -8    7.60    3.30
  -4  -3  -8   12.70    3.70
  -4  -3  -8   17.00    3.90
   4   3   8   13.60    3.80
   4   3   8   12.20    3.30
   4   3   8   10.40    3.90
   4   3   8   21.60    4.80
   4   3   8   14.00    4.50
   4   3   8   16.20    2.70
  -5  -3  -8  134.69    8.60
  -5  -3  -8  118.39    8.80
  -5  -3  -8  129.59   10.10
  -5  -3  -8  126.29    8.60
   5   3   8  133.29    8.30
   5   3   8  128.59    6.80
   5   3   8  127.69    9.10
   5   3   8  115.19    8.60
   5   3   8  124.89    9.20
  -6  -3  -8  184.88   11.60
  -6  -3  -8  181.88   10.90
  -6  -3  -8  201.08   12.80
  -6  -3  -8  188.18   10.60
   6   3   8  180.88    9.00
   6   3   8  179.08   10.80
   6   3   8  176.88   11.40
   6   3   8  193.38   12.20
   6   3   8  197.18   11.70
  -7  -3  -8  123.39   10.40
  -7  -3  -8  137.79   12.00
  -7  -3  -8  133.89   10.00
  -7  -3  -8  124.49   11.50
   7   3   8  133.99   10.70
   7   3   8  119.09   10.60
   7   3   8  133.39    8.80
   7   3   8  141.19   12.00
   7   3   8  120.69   10.80
  -8  -3  -8   72.69   10.10
  -8  -3  -8   87.79   11.30
  -8  -3  -8   68.39    8.50
  -8  -3  -8   81.49    9.20
  -8  -3  -8   86.49   10.30
   8   3   8   93.89   11.20
   8   3   8   82.69    9.90
   8   3   8   75.09    8.30
   8   3   8   85.79    9.40
   8   3   8   87.69   10.90
  -9  -3  -8    4.60    6.30
  -9  -3  -8    7.20    8.70
  -9  -3  -8    4.00    7.20
  -9  -3  -8   -6.80   11.50
   9   3   8   16.70    9.80
   9   3   8   -1.30    6.80
   9   3   8    2.20    6.70
   5  -4  -8   -5.10    4.80
   5  -4  -8    1.30    4.90
   5  -4  -8    0.40    5.60
   4  -4  -8    3.90    4.70
   4  -4  -8    4.50    3.60
   4  -4  -8   -0.70    5.30
   4  -4  -8    1.20    4.10
  -4   4   8    9.10    3.90
  -4   4   8   -4.60    7.70
  -4   4   8    8.30    5.30
  -4   4   8    5.70    4.10
  -4   4   8   10.40    4.10
   3  -4  -8    4.00    3.60
   3  -4  -8    6.20    3.70
   3  -4  -8    2.80    6.20
   3  -4  -8    4.70    4.90
   3  -4  -8    6.10    4.20
   3  -4  -8    7.00    3.20
  -3   4   8    4.50    3.40
  -3   4   8    6.70    6.40
  -3   4   8    1.90    3.10
  -3   4   8    6.30    4.00
  -3   4   8    9.80    4.90
   2  -4  -8   10.80    2.90
   2  -4  -8   11.00    3.30
   2  -4  -8   10.10    3.40
   2  -4  -8    9.40    4.20
   2  -4  -8    4.70    4.40
  -2   4   8    9.50    3.40
  -2   4   8    5.00    3.80
  -2   4   8   16.60    4.40
  -2   4   8   11.50    5.20
  -2   4   8    7.50    2.90
   1  -4  -8   22.70    3.70
   1  -4  -8   28.50    5.10
   1  -4  -8   18.30    3.60
   1  -4  -8   21.50    4.70
   1  -4  -8   28.00    3.60
  -1   4   8   23.20    5.60
  -1   4   8   24.10    4.80
  -1   4   8   21.40    4.40
  -1   4   8   24.30    3.40
  -1   4   8   22.90    4.50
   0  -4  -8 1451.35   37.00
   0  -4  -8 1474.45   40.20
   0  -4  -8 1440.06   39.50
   0  -4  -8 1420.66   38.60
   0  -4  -8 1427.76   37.30
   0   4   8 1428.46   38.80
   0   4   8 1460.45   38.70
   0   4   8 1438.56   36.90
   0   4   8 1424.06   35.20
   0   4   8 1437.16   39.50
  -1  -4  -8   28.30    3.70
  -1  -4  -8   27.20    4.50
  -1  -4  -8   26.50    3.60
  -1  -4  -8   24.90    4.30
  -1  -4  -8   23.70    4.60
   1   4   8   25.90    3.10
   1   4   8   24.30    3.50
   1   4   8   22.60    2.80
   1   4   8   24.90    4.10
   1   4   8   21.70    4.50
   1   4   8   30.20    5.10
  -2  -4  -8  797.02   24.20
  -2  -4  -8  793.72   24.50
  -2  -4  -8  830.12   24.70
  -2  -4  -8  859.31   23.30
  -2  -4  -8  832.92   25.10
   2   4   8  822.82   23.50
   2   4   8  828.32   22.60
   2   4   8  816.82   21.50
   2   4   8  794.92   26.30
   2   4   8  847.12   24.90
   2   4   8  826.22   24.30
  -3  -4  -8  852.41   26.10
  -3  -4  -8  873.71   25.50
  -3  -4  -8  900.61   25.20
  -3  -4  -8  904.91   26.60
   3   4   8  881.91   25.90
   3   4   8  845.52   27.30
   3   4   8  891.01   26.60
   3   4   8  902.11   25.50
   3   4   8  908.11   24.90
   3   4   8  894.61   23.50
  -4  -4  -8    1.80    3.60
  -4  -4  -8    0.40    3.00
  -4  -4  -8    4.30    3.70
  -4  -4  -8    4.50    3.30
  -4  -4  -8    3.20    3.10
   4   4   8    0.40    3.00
   4   4   8    5.60    2.30
   4   4   8    1.00    2.90
   4   4   8    0.60    2.80
   4   4   8    1.70    3.90
   4   4   8   -3.40    3.30
  -5  -4  -8   36.10    6.50
  -5  -4  -8   31.50    4.90
  -5  -4  -8   36.90    4.90
  -5  -4  -8   33.30    4.70
  -5  -4  -8   29.80    5.60
   5   4   8   38.60    6.20
   5   4   8   40.10    5.30
   5   4   8   48.90    6.50
   5   4   8   41.10    4.80
   5   4   8   41.20    5.90
  -6  -4  -8   58.39    8.10
  -6  -4  -8   64.89    7.00
  -6  -4  -8   48.20    6.20
  -6  -4  -8   58.39    7.60
   6   4   8   66.89    8.20
   6   4   8   67.29    6.10
   6   4   8   68.99    8.40
   6   4   8   57.19    7.10
   6   4   8   69.09    8.20
  -7  -4  -8  349.96   16.50
  -7  -4  -8  408.56   16.20
  -7  -4  -8  355.76   15.50
  -7  -4  -8  386.36   18.70
   7   4   8  390.26   16.40
   7   4   8  408.66   16.70
   7   4   8  374.76   14.50
   7   4   8  385.86   17.10
   7   4   8  384.86   17.00
  -8  -4  -8  129.39   12.70
  -8  -4  -8  125.29   11.20
  -8  -4  -8  109.39   14.50
  -8  -4  -8  110.29    9.30
  -8  -4  -8  130.69   10.30
   8   4   8  131.79   11.00
   8   4   8  115.99   11.70
   8   4   8  109.79   11.60
   8   4   8  112.69   13.70
   8   4   8   96.19    8.80
  -9  -4  -8   24.20   10.10
  -9  -4  -8   33.50    8.50
  -9  -4  -8   14.80    7.20
  -9  -4  -8   26.10    6.60
   9   4   8   11.00    7.50
   9   4   8   23.60    8.40
   9   4   8   14.80    6.70
   9   4   8   21.30    9.20
   4  -5  -8    2.40    5.20
   4  -5  -8    4.50    4.90
   4  -5  -8   15.30    4.40
   4  -5  -8   28.20    8.60
  -4   5   8   -2.90    9.10
  -4   5   8   17.70    7.70
  -4   5   8    4.60    5.60
  -4   5   8   11.40    4.70
   3  -5  -8   45.80    5.90
   3  -5  -8   44.30    5.30
   3  -5  -8   64.89    7.90
   3  -5  -8   43.60    7.80
  -3   5   8   51.79    6.20
  -3   5   8   44.00    5.50
  -3   5   8   51.79    7.50
  -3   5   8   49.40    8.90
  -3   5   8   45.00    6.10
   2  -5  -8   44.90    5.60
   2  -5  -8   29.00    4.80
   2  -5  -8   38.10    5.70
   2  -5  -8   36.90    4.60
   2  -5  -8   43.10    7.20
  -2   5   8   37.00    4.80
  -2   5   8   36.20    4.00
  -2   5   8   33.50    3.80
  -2   5   8   46.90    5.80
  -2   5   8   35.20    6.70
  -2   5   8   36.60    5.90
  -2   5   8   41.60    5.70
   1  -5  -8  177.48    9.50
   1  -5  -8  208.88    9.40
   1  -5  -8  204.78   12.00
   1  -5  -8  192.98   11.00
   1  -5  -8  201.48    9.90
  -1   5   8  207.28    9.60
  -1   5   8  193.88    7.30
  -1   5   8  187.48    7.60
  -1   5   8  201.58   10.50
  -1   5   8  193.18   12.30
  -1   5   8  193.78    8.80
  -1   5   8  209.08   10.80
   0  -5  -8  925.21   26.30
   0  -5  -8  945.11   29.10
   0  -5  -8  919.11   27.00
   0  -5  -8  946.21   25.90
   0  -5  -8  942.11   28.30
   0   5   8  957.10   26.00
   0   5   8  922.21   24.50
   0   5   8  955.60   29.20
   0   5   8  925.31   25.10
   0   5   8  983.20   28.00
   0   5   8  938.41   27.90
   0   5   8  899.21   26.50
  -1  -5  -8  553.64   18.90
  -1  -5  -8  562.84   18.50
  -1  -5  -8  569.34   19.60
  -1  -5  -8  544.35   17.00
  -1  -5  -8  533.55   17.20
   1   5   8  556.64   17.60
   1   5   8  552.94   18.80
   1   5   8  559.24   17.20
   1   5   8  554.44   16.70
   1   5   8  541.15   16.40
   1   5   8  541.75   19.40
  -2  -5  -8   22.00    4.60
  -2  -5  -8   20.70    3.70
  -2  -5  -8   24.90    4.70
  -2  -5  -8   21.50    4.90
  -2  -5  -8   22.90    3.60
   2   5   8   20.00    3.50
   2   5   8   24.60    4.10
   2   5   8   14.60    3.50
   2   5   8   31.60    5.40
   2   5   8   25.10    6.20
   2   5   8   21.20    2.90
  -3  -5  -8   -4.00    2.60
  -3  -5  -8    4.60    3.80
  -3  -5  -8   -5.00    3.00
  -3  -5  -8   -1.30    3.50
   3   5   8    3.90    2.90
   3   5   8   -3.70    1.80
   3   5   8    0.50    3.30
   3   5   8    1.90    3.20
   3   5   8    8.90    4.00
   3   5   8   -4.00    2.80
  -4  -5  -8  964.50   29.30
  -4  -5  -8  928.91   28.60
  -4  -5  -8  984.50   29.80
  -4  -5  -8  943.11   27.90
  -4  -5  -8  970.80   27.80
   4   5   8  961.30   28.20
   4   5   8  978.00   27.60
   4   5   8 1049.20   30.20
   4   5   8 1000.80   26.40
   4   5   8  969.20   28.20
   4   5   8  993.10   29.60
  -5  -5  -8 1632.04   49.70
  -5  -5  -8 1780.72   47.90
  -5  -5  -8 1694.13   45.50
  -5  -5  -8 1778.02   45.60
  -5  -5  -8 1500.75   47.30
   5   5   8 1704.43   43.70
   5   5   8 1739.43   46.70
   5   5   8 1714.53   47.20
   5   5   8 1742.53   45.80
   5   5   8 1741.73   46.20
  -6  -5  -8  204.98   11.20
  -6  -5  -8  212.98   11.80
  -6  -5  -8  209.48   10.70
  -6  -5  -8  231.18   13.70
  -6  -5  -8  234.88   11.80
   6   5   8  234.58   12.20
   6   5   8  221.38   12.00
   6   5   8  215.58    9.80
   6   5   8  205.18   15.40
   6   5   8  233.98   12.10
  -7  -5  -8   95.79   10.50
  -7  -5  -8  102.09    9.50
  -7  -5  -8   98.09   11.80
  -7  -5  -8   71.59    8.10
   7   5   8   83.29    9.60
   7   5   8   86.59    7.80
   7   5   8  103.99   10.70
   7   5   8   88.29    9.60
   7   5   8  110.99   12.10
  -8  -5  -8  121.59   10.20
  -8  -5  -8  143.49   15.40
  -8  -5  -8  157.68   12.80
  -8  -5  -8  149.19   11.50
   8   5   8  122.69   10.60
   8   5   8  129.99   13.70
   8   5   8  152.98   11.80
   8   5   8  123.19   12.00
   8   5   8  151.48    9.80
  -9  -5  -8   25.70    7.90
  -9  -5  -8   17.40    6.20
  -9  -5  -8   38.30   10.70
  -9  -5  -8   12.60    8.00
   9   5   8   14.30    7.20
   9   5   8   14.60    8.00
   9   5   8   24.30    7.60
   9   5   8   36.00   10.00
 -10  -5  -8   32.60   10.30
 -10  -5  -8   21.10    8.30
 -10  -5  -8   13.00   14.20
  10   5   8   13.00   12.30
  10   5   8   24.50   13.40
  10   5   8   41.30    9.30
   4  -6  -8  509.05   19.60
   4  -6  -8  462.05   20.20
   4  -6  -8  511.55   18.20
  -4   6   8  392.36   28.70
   3  -6  -8   10.30    4.40
   3  -6  -8    4.20    8.00
   3  -6  -8   -5.20    4.70
   3  -6  -8   -2.30    4.80
  -3   6   8    2.80    3.70
  -3   6   8   -1.50    4.80
  -3   6   8   -8.40    4.10
  -3   6   8    5.50    7.10
  -3   6   8   -0.60    7.70
  -3   6   8    3.60    3.60
   2  -6  -8    6.70    4.30
   2  -6  -8    3.70    3.40
   2  -6  -8    2.30    6.70
   2  -6  -8    2.40    4.00
  -2   6   8    0.00    5.00
  -2   6   8    4.10    3.60
  -2   6   8   15.90    4.10
  -2   6   8   14.50    6.70
  -2   6   8    3.60    3.30
  -2   6   8    1.40    4.20
  -2   6   8    5.40    3.50
   1  -6  -8    6.50    4.30
   1  -6  -8   10.70    4.50
   1  -6  -8   -3.80    3.30
   1  -6  -8   19.80    6.70
   1  -6  -8    5.40    3.50
  -1   6   8    7.10    3.40
  -1   6   8   16.20    5.00
  -1   6   8    5.20    5.10
  -1   6   8   11.50    3.20
  -1   6   8    6.70    3.30
  -1   6   8   12.70    3.50
  -1   6   8    2.80    5.60
   0  -6  -8   16.10    4.20
   0  -6  -8   12.90    5.60
   0  -6  -8   11.10    3.70
   0  -6  -8   10.80    4.00
   0  -6  -8    8.40    3.40
   0   6   8   14.50    3.60
   0   6   8   11.20    3.00
   0   6   8   12.00    5.00
   0   6   8   18.00    5.20
   0   6   8   16.50    3.40
   0   6   8   18.10    3.70
  -1  -6  -8   52.99    6.80
  -1  -6  -8   63.19    6.00
  -1  -6  -8   64.29    6.80
  -1  -6  -8   50.89    5.90
  -1  -6  -8   48.00    7.10
   1   6   8   55.19    5.50
   1   6   8   66.29    8.40
   1   6   8   57.69    5.00
   1   6   8   60.29    7.50
   1   6   8   59.09    7.60
   1   6   8   64.49    5.90
   1   6   8   63.19    5.40
  -2  -6  -8  354.86   14.50
  -2  -6  -8  343.37   13.70
  -2  -6  -8  367.76   13.10
  -2  -6  -8  342.77   15.20
  -2  -6  -8  355.36   13.10
   2   6   8  345.07   14.50
   2   6   8  335.97   11.80
   2   6   8  354.76   12.40
   2   6   8  329.97   12.60
   2   6   8  360.96   14.50
   2   6   8  350.86   13.10
  -3  -6  -8  140.19    8.10
  -3  -6  -8  135.39    9.70
  -3  -6  -8  128.39    8.20
  -3  -6  -8  122.09    9.60
  -3  -6  -8  134.49    8.10
   3   6   8  122.29    8.90
   3   6   8  123.19    7.70
   3   6   8  123.49    7.00
   3   6   8  134.99    9.70
   3   6   8  116.39    8.20
   3   6   8  125.89    6.60
  -4  -6  -8  586.74   20.90
  -4  -6  -8  590.14   19.20
  -4  -6  -8  586.14   20.90
  -4  -6  -8  594.34   19.20
   4   6   8  588.94   18.30
   4   6   8  585.34   19.60
   4   6   8  552.74   19.10
   4   6   8  578.24   17.60
   4   6   8  628.04   21.60
  -5  -6  -8   62.09    6.40
  -5  -6  -8   72.79    8.40
  -5  -6  -8   70.69    8.20
  -5  -6  -8   58.09    7.20
   5   6   8   61.79    7.70
   5   6   8   62.39    7.20
   5   6   8   49.99    5.50
   5   6   8   63.29    8.00
   5   6   8   47.50    5.50
  -6  -6  -8  169.88    9.50
  -6  -6  -8  191.18   10.60
  -6  -6  -8  173.68   10.40
  -6  -6  -8  169.48   12.60
  -6  -6  -8  167.38   11.00
   6   6   8  176.08    9.10
   6   6   8  174.58   11.70
   6   6   8  190.28   11.00
   6   6   8  195.28   13.30
  -7  -6  -8   58.39    8.60
  -7  -6  -8   61.99    9.20
  -7  -6  -8   77.19    8.30
  -7  -6  -8   62.89    7.70
  -7  -6  -8   63.29    8.20
   7   6   8   56.09    8.50
   7   6   8   77.29    8.60
   7   6   8   59.49    7.50
   7   6   8   56.89    6.60
  -8  -6  -8   17.60    6.40
  -8  -6  -8   11.40    6.10
  -8  -6  -8   22.10    5.70
  -8  -6  -8   21.80    8.70
   8   6   8    7.90    5.70
   8   6   8   22.20    5.10
   8   6   8   22.40    7.50
   8   6   8   23.80    6.30
   8   6   8   11.40    7.90
  -9  -6  -8   33.60   10.50
  -9  -6  -8   33.40    8.60
  -9  -6  -8   38.60    8.20
  -9  -6  -8   49.30    7.90
   9   6   8   34.70    9.10
   9   6   8   45.00    8.10
   9   6   8   24.30    8.00
   9   6   8   33.90    8.80
 -10  -6  -8   15.70   13.60
 -10  -6  -8   -7.50    9.60
  10   6   8   17.10    9.10
   3  -7  -8   32.40    7.50
   3  -7  -8   51.89   10.10
   3  -7  -8   -0.40   19.10
   3  -7  -8   61.59    7.40
  -3   7   8   68.09   11.90
  -3   7   8   48.80    7.30
  -3   7   8   49.60    6.40
  -3   7   8   49.60    6.60
  -3   7   8   52.69   10.40
   2  -7  -8    6.10    5.50
   2  -7  -8    3.90    9.40
   2  -7  -8    9.90    4.30
   2  -7  -8    9.00    5.10
  -2   7   8    6.50    4.30
  -2   7   8    4.90    4.30
  -2   7   8   -3.40    6.80
  -2   7   8    7.30    7.20
  -2   7   8    3.90    4.90
   1  -7  -8   13.80    5.10
   1  -7  -8    9.90    8.00
   1  -7  -8    7.90    4.10
   1  -7  -8   10.50    4.20
  -1   7   8    7.50    4.00
  -1   7   8    6.60    4.00
  -1   7   8   14.40    5.60
  -1   7   8    3.10    6.00
  -1   7   8    4.10    5.80
  -1   7   8    9.80    4.10
   0  -7  -8  143.89    9.30
   0  -7  -8  145.99    8.90
   0  -7  -8  139.79    9.80
   0  -7  -8  129.09   13.00
   0   7   8  137.89   10.50
   0   7   8  141.39   11.40
   0   7   8  148.69    8.30
   0   7   8  144.59    7.30
   0   7   8  144.99    8.40
   0   7   8  158.08    9.10
   0   7   8  147.89   11.80
  -1  -7  -8  377.76   18.20
  -1  -7  -8  404.06   14.90
  -1  -7  -8  389.46   15.80
  -1  -7  -8  410.36   14.60
  -1  -7  -8  401.36   15.20
   1   7   8  391.46   15.80
   1   7   8  370.96   13.30
   1   7   8  392.16   16.20
   1   7   8  378.26   14.10
   1   7   8  386.46   12.90
   1   7   8  403.96   17.00
   1   7   8  395.76   14.80
  -2  -7  -8  357.46   16.60
  -2  -7  -8  342.47   13.40
  -2  -7  -8  332.17   13.30
  -2  -7  -8  367.16   15.10
  -2  -7  -8  342.67   13.30
   2   7   8  338.57   12.20
   2   7   8  352.06   14.10
   2   7   8  338.17   11.70
   2   7   8  333.77   15.40
   2   7   8  336.77   13.20
  -3  -7  -8  516.05   21.20
  -3  -7  -8  557.94   18.40
  -3  -7  -8  583.04   20.60
  -3  -7  -8  540.65   18.00
  -3  -7  -8  560.34   18.60
   3   7   8  543.95   16.60
   3   7   8  553.64   17.10
   3   7   8  580.24   21.10
   3   7   8  531.65   18.10
  -4  -7  -8  191.98    9.60
  -4  -7  -8  200.88   12.20
  -4  -7  -8  184.28   10.10
  -4  -7  -8  184.28   10.40
  -4  -7  -8  204.28   12.50
   4   7   8  196.88   10.20
   4   7   8  175.08    8.40
   4   7   8  184.68    8.80
   4   7   8  190.68   11.10
   4   7   8  196.78   12.70
  -5  -7  -8   59.19    6.20
  -5  -7  -8   75.79    7.60
  -5  -7  -8   62.69    7.90
  -5  -7  -8   64.69    7.40
  -5  -7  -8   59.49    7.90
   5   7   8   70.39    5.90
   5   7   8   47.50    6.70
   5   7   8   61.59    9.00
   5   7   8   58.79    6.80
   5   7   8   52.79    6.00
  -6  -7  -8   26.50    7.10
  -6  -7  -8   25.80    4.90
  -6  -7  -8   45.60    7.30
  -6  -7  -8   33.50    5.10
  -6  -7  -8   37.20    4.80
   6   7   8   43.50    8.00
   6   7   8   34.40    6.80
   6   7   8   28.90    5.50
   6   7   8   33.70    4.50
  -7  -7  -8  175.88   12.20
  -7  -7  -8  175.68   14.80
  -7  -7  -8  150.38   10.50
  -7  -7  -8  171.78   13.40
  -7  -7  -8  174.78    9.10
   7   7   8  180.68   12.90
   7   7   8  155.28   11.10
   7   7   8  168.08    9.40
   7   7   8  174.08   13.10
  -8  -7  -8  124.99   15.00
  -8  -7  -8  107.19   12.10
  -8  -7  -8  132.09    8.80
  -8  -7  -8  106.49   12.40
   8   7   8  145.89   13.30
   8   7   8  146.19   13.40
   8   7   8  110.09    9.10
   8   7   8  136.09   11.70
  -9  -7  -8   20.30   11.30
  -9  -7  -8    9.90    5.30
  -9  -7  -8    3.10    7.00
  -9  -7  -8   -6.10   10.40
  -9  -7  -8   -2.80    6.30
   9   7   8    8.20    7.90
   9   7   8    1.60    8.90
   9   7   8    8.30    9.30
   2  -8  -8  286.57   22.20
   2  -8  -8  294.07   14.90
   2  -8  -8  293.57   16.10
  -2   8   8  308.57   14.60
  -2   8   8  287.57   19.10
  -2   8   8  303.67   14.40
  -2   8   8  304.37   19.40
  -2   8   8  299.97   14.50
   1  -8  -8    8.50    4.90
   1  -8  -8    5.80    9.00
   1  -8  -8    7.50    5.50
   1  -8  -8    2.60    5.40
  -1   8   8    8.20    5.50
  -1   8   8    7.90    8.40
  -1   8   8   11.30    7.00
  -1   8   8   20.90    5.40
  -1   8   8    6.70    5.60
   0  -8  -8    8.00    4.40
   0  -8  -8   11.80    8.00
   0  -8  -8   19.10    5.90
   0  -8  -8   18.70    5.20
   0   8   8   14.00    5.70
   0   8   8   16.00    4.60
   0   8   8   16.20    6.00
   0   8   8   18.30    4.60
   0   8   8   15.60    4.90
   0   8   8    7.30    7.70
  -1  -8  -8    4.10    6.40
  -1  -8  -8    4.70    5.00
  -1  -8  -8    0.00    3.80
  -1  -8  -8   -0.70    3.60
   1   8   8    1.60    3.60
   1   8   8    0.90    3.70
   1   8   8    8.20    5.30
   1   8   8    5.60    2.70
   1   8   8    3.40    4.70
  -2  -8  -8   37.70    5.40
  -2  -8  -8   36.00    5.50
  -2  -8  -8   40.20    6.40
  -2  -8  -8   38.70    8.40
   2   8   8   42.10    4.40
   2   8   8   35.60    5.80
   2   8   8   36.40    4.80
   2   8   8   35.60    5.30
   2   8   8   28.80    9.00
   2   8   8   42.90    6.40
  -3  -8  -8   76.89    7.70
  -3  -8  -8   77.59    9.30
  -3  -8  -8   56.29    7.00
  -3  -8  -8   72.79    9.20
  -3  -8  -8   61.29    6.50
   3   8   8   62.99    7.00
   3   8   8   70.99    9.00
   3   8   8   54.59    4.80
   3   8   8   63.19    7.60
   3   8   8   52.89    6.20
  -4  -8  -8   42.70    6.40
  -4  -8  -8   26.20    5.00
  -4  -8  -8   37.00    5.60
  -4  -8  -8   27.70    7.20
  -4  -8  -8   31.70    6.70
   4   8   8   41.00    5.80
   4   8   8   33.40    6.50
   4   8   8   44.50    8.10
   4   8   8   37.40    4.60
   4   8   8   34.10    4.80
  -5  -8  -8   -0.90    4.30
  -5  -8  -8    4.90    4.10
  -5  -8  -8    1.80    5.30
  -5  -8  -8    0.60    3.10
  -5  -8  -8    8.50    6.00
   5   8   8    3.20    3.30
   5   8   8    3.70    6.30
   5   8   8   -0.10    4.90
   5   8   8    0.60    3.20
   5   8   8    5.90    4.10
  -6  -8  -8  124.59    9.60
  -6  -8  -8  122.39   11.30
  -6  -8  -8  131.39    7.60
  -6  -8  -8  138.89   13.40
  -6  -8  -8  114.99   10.30
   6   8   8  130.59   11.80
   6   8   8  130.39    9.70
   6   8   8  119.79    8.00
   6   8   8  136.79   14.00
   6   8   8  136.89    7.60
  -7  -8  -8  122.29   14.50
  -7  -8  -8  102.09    7.00
  -7  -8  -8   84.59    9.30
  -7  -8  -8  106.99   10.80
  -7  -8  -8  101.29   10.80
   7   8   8  106.59    8.50
   7   8   8  112.99   12.80
   7   8   8  112.39   12.10
   7   8   8   98.09   10.20
  -8  -8  -8   36.40    7.40
  -8  -8  -8   50.69    6.50
  -8  -8  -8   37.90    9.70
  -8  -8  -8   42.40    9.10
   8   8   8   53.29   10.30
   8   8   8   60.09    9.40
   8   8   8   40.50    8.20
  -9  -8  -8  -26.00   11.00
  -9  -8  -8    5.50    8.70
   9   8   8   -9.80    9.20
   9   8   8    1.70   10.00
   9   8   8    2.90    9.20
   1  -9  -8   29.50   12.60
   1  -9  -8   26.60    7.30
   1  -9  -8   55.19   14.20
  -1   9   8   38.70    7.90
  -1   9   8   41.80   10.10
  -1   9   8   39.80    8.10
  -1   9   8   55.89   12.30
  -1   9   8   44.20    6.90
   0  -9  -8   14.40   10.60
   0  -9  -8   18.20    7.30
   0  -9  -8   31.00    6.10
   0   9   8   12.20    5.20
   0   9   8   17.40    7.50
   0   9   8   21.70   10.00
   0   9   8   18.20    7.10
  -1  -9  -8    6.60    4.70
  -1  -9  -8   -0.60    8.60
  -1  -9  -8    2.80    6.00
  -1  -9  -8   -4.40    4.80
   1   9   8    4.30    5.90
   1   9   8   10.60    5.90
   1   9   8   -1.90    5.40
   1   9   8   -4.00    4.10
   1   9   8    5.80    7.60
  -2  -9  -8   18.00    5.00
  -2  -9  -8   39.20    9.40
  -2  -9  -8   26.00    5.40
  -2  -9  -8   35.70    7.60
   2   9   8   40.10    9.00
   2   9   8   40.80    7.40
   2   9   8   34.60    5.50
   2   9   8   37.20    6.60
   2   9   8   35.50    5.00
  -3  -9  -8  137.49   10.20
  -3  -9  -8  132.99   11.80
  -3  -9  -8  126.29    9.90
  -3  -9  -8  125.19   14.60
   3   9   8  115.19    8.40
   3   9   8  126.49    5.20
   3   9   8  139.09   14.40
   3   9   8  136.19   11.70
   3   9   8  131.09    8.40
  -4  -9  -8  133.89    9.90
  -4  -9  -8  127.79   11.20
  -4  -9  -8   93.09    8.60
  -4  -9  -8  106.79   12.10
   4   9   8  114.89    5.40
   4   9   8  112.49    9.10
   4   9   8  117.19    8.20
   4   9   8  116.69   11.50
   4   9   8  127.79   12.70
  -5  -9  -8  208.18   12.70
  -5  -9  -8  194.08   15.30
  -5  -9  -8  192.88   11.10
  -5  -9  -8  186.68   13.80
   5   9   8  205.18   13.80
   5   9   8  185.68   10.10
   5   9   8  198.58   15.90
   5   9   8  202.68   11.70
   5   9   8  202.58    8.10
  -6  -9  -8   16.10    5.50
  -6  -9  -8   -2.00    7.50
  -6  -9  -8    2.40    3.00
  -6  -9  -8   -1.50    6.90
  -6  -9  -8    1.00    5.30
   6   9   8    2.70    3.50
   6   9   8    2.20    5.70
   6   9   8    3.80    4.70
   6   9   8    2.60    8.00
   6   9   8    8.50    4.20
  -7  -9  -8  419.36   21.30
  -7  -9  -8  430.96   22.00
  -7  -9  -8  427.06   19.50
  -7  -9  -8  420.86   13.10
   7   9   8  424.86   18.60
   7   9   8  463.45   22.50
   7   9   8  436.76   20.60
  -8  -9  -8   21.10    8.90
  -8  -9  -8   28.80   10.80
   8   9   8   25.00    8.30
   8   9   8   11.20    9.60
   8   9   8   24.40    9.60
  -1 -10  -8   19.50   11.20
  -1 -10  -8   29.80    9.30
  -1 -10  -8   25.10    7.30
   1  10   8   16.30   10.80
   1  10   8   12.70    7.80
   1  10   8   21.80    7.80
   1  10   8   21.60    6.70
  -2 -10  -8   -7.30    9.00
  -2 -10  -8    6.40    6.40
  -2 -10  -8   -3.20    7.70
   2  10   8   12.20    9.60
   2  10   8    3.90    6.50
   2  10   8   -1.80    5.20
   2  10   8   -0.50    6.90
  -3 -10  -8    1.50    7.70
  -3 -10  -8    3.00    7.50
  -3 -10  -8    1.00    5.90
   3  10   8   -6.00    6.40
   3  10   8    2.10    4.50
   3  10   8   -2.80    8.60
  -4 -10  -8    6.60    7.90
  -4 -10  -8   23.60    8.40
  -4 -10  -8    7.70    5.70
   4  10   8    2.90    6.00
   4  10   8    7.90    6.70
   4  10   8    1.10    8.40
   4  10   8    2.90    4.80
  -5 -10  -8    9.40    8.30
  -5 -10  -8    3.10    8.10
  -5 -10  -8   13.60    7.20
   5  10   8   10.40    8.80
   5  10   8   17.10    7.60
   5  10   8    5.20    5.60
  -6 -10  -8   23.30    9.60
  -6 -10  -8   22.30    7.80
  -6 -10  -8    5.90    8.20
   6  10   8   23.70   10.10
   6  10   8   20.00    8.00
   6  10   8   27.90    7.60
  -7 -10  -8    9.80   10.40
  -7 -10  -8    0.00    7.50
   7  10   8    3.50    4.50
   7  10   8  -14.20    8.50
   7  10   8    7.90   10.10
   3  11   8   -2.90   12.10
   3  11   8   -2.50    8.10
  -4 -11  -8   12.50   10.70
  -4 -11  -8    2.10    9.40
   4  11   8    5.70    9.50
   4  11   8   14.50   11.70
  -5 -11  -8   15.30   10.80
  -5 -11  -8    8.30    8.20
   5  11   8   28.10   13.10
   5  11   8   26.50   10.70
   2   4  -9   20.70    6.60
  -2  -4   9   26.40    6.30
   1   4  -9   56.09    7.10
   1   4  -9   65.39    7.70
   1   4  -9   67.69    9.00
  -1  -4   9   67.79    8.70
   0   4  -9   -6.40    4.30
   0   4  -9   10.40    5.40
   0   4  -9    1.10    3.80
   0  -4   9   -0.10    4.00
   0  -4   9    5.40    5.30
  -1   4  -9   32.20    6.90
  -1   4  -9   32.20    6.90
  -1   4  -9   31.20    6.30
   1  -4   9   36.20    6.00
   1  -4   9   36.40    7.20
  -2   4  -9   -1.60    6.50
  -2   4  -9    1.70    5.80
  -2   4  -9    2.40    7.70
   2  -4   9   -5.20    6.20
   2  -4   9   -0.20    5.00
  -3   4  -9   13.30    9.20
  -3   4  -9   -2.80    6.00
  -3   4  -9   20.60    7.40
   3   3  -9  114.79   11.70
  -3  -3   9  111.09    9.70
   2   3  -9   70.79    9.50
   2   3  -9   78.29    5.70
   2   3  -9   88.59   10.70
   2   3  -9   80.89    5.40
  -2  -3   9   84.69    8.80
   1   3  -9   12.40    3.80
   1   3  -9   22.00    4.00
   1   3  -9   10.50    5.90
   1   3  -9   27.00    5.90
  -1  -3   9   26.10    6.00
   0   3  -9  195.98   14.00
   0   3  -9  215.08    9.90
   0   3  -9  194.68    9.80
   0   3  -9  205.28   17.50
   0  -3   9  208.08    8.60
   0  -3   9  202.18    7.10
   0  -3   9  208.58   12.50
  -1   3  -9    9.00    4.10
  -1   3  -9    1.30    4.90
  -1   3  -9    9.30    8.20
  -1   3  -9    6.90    3.80
  -1   3  -9    8.20    4.90
  -1   3  -9   13.90    4.60
   1  -3   9    3.80    4.70
   1  -3   9    5.40    4.50
   1  -3   9    7.90    3.90
  -2   3  -9   73.59    9.10
  -2   3  -9   72.79    8.00
  -2   3  -9   81.39    9.10
  -2   3  -9   73.29    5.00
  -2   3  -9   67.49    7.80
   2  -3   9   74.79    9.00
   2  -3   9   77.69    7.40
   2  -3   9   78.89    8.80
  -3   3  -9   10.40    6.00
  -3   3  -9    2.70    6.30
  -3   3  -9    6.20    5.40
  -3   3  -9   14.10    8.00
   3  -3   9   -2.90    4.40
   3  -3   9   -1.00    5.00
   3  -3   9    4.70    6.30
  -4   3  -9  173.98   15.20
  -4   3  -9  163.38   13.50
  -4   3  -9  175.68   17.30
  -4   3  -9  216.58   14.50
   4  -3   9  162.98   12.00
   4  -3   9  183.98   12.60
   4   2  -9   33.10    8.60
  -4  -2   9   25.00    5.40
   3   2  -9   41.20    7.50
   3   2  -9   61.09    9.70
   3   2  -9   47.70    8.40
  -3  -2   9   34.60    5.80
   2   2  -9  127.79   11.80
   2   2  -9  104.99    5.60
   2   2  -9   97.99   11.20
   2   2  -9  107.59    5.70
   2   2  -9  114.89   11.20
  -2  -2   9  103.09    9.10
   1   2  -9   19.70    6.30
   1   2  -9   12.40    5.80
   1   2  -9   17.30    3.20
   1   2  -9   17.40    3.00
   1   2  -9   19.30    5.70
  -1  -2   9   11.50    4.40
   0   2  -9   47.10    5.90
   0   2  -9   45.40    4.80
   0   2  -9   49.70    6.30
   0   2  -9   46.90    7.70
   0   2  -9   52.19    8.00
   0  -2   9   48.40    4.60
   0  -2   9   33.60    6.40
   0  -2   9   40.50    3.50
  -1   2  -9   -9.80    5.20
  -1   2  -9   -4.60    3.50
  -1   2  -9    1.20    4.80
  -1   2  -9   -2.40    3.30
  -1   2  -9   -1.20    5.30
  -1   2  -9    0.40    3.00
  -1   2  -9    1.50    3.80
   1  -2   9    3.10    3.70
   1  -2   9    3.60    4.00
  -2   2  -9    8.80    4.50
  -2   2  -9    1.90    5.50
  -2   2  -9   -2.60    3.50
  -2   2  -9   10.20    5.50
  -2   2  -9    3.30    3.10
   2  -2   9    2.50    4.00
   2  -2   9    4.60    4.40
   2  -2   9    5.00    3.50
  -3   2  -9    4.60    6.20
  -3   2  -9    1.10    6.30
  -3   2  -9    1.30    2.60
  -3   2  -9    6.90    5.10
  -3   2  -9   -2.50    4.30
  -3   2  -9    4.00    4.80
   3  -2   9    5.00    5.90
   3  -2   9    0.00    3.90
   3  -2   9   -7.50    4.00
   3  -2   9   -2.30    4.40
  -4   2  -9    6.80    5.50
  -4   2  -9   -5.60    5.60
  -4   2  -9   12.50    7.40
  -4   2  -9    7.00    6.30
  -4   2  -9    3.20    5.70
   4  -2   9    4.10    2.30
   4  -2   9   -0.10    2.20
   4  -2   9   -1.50    5.80
   4  -2   9   -1.60    5.80
   4  -2   9   -2.20    3.70
   4  -2   9    0.80    5.10
  -5   2  -9    3.30    6.90
  -5   2  -9   -3.80    6.80
  -5   2  -9   13.30    7.60
  -5   2  -9    6.60    9.50
  -5   2  -9   25.40    7.30
   5  -2   9    8.40    4.80
   5  -2   9    4.20    3.30
   5  -2   9    1.50    3.90
   5  -2   9   -1.00    6.30
  -6   2  -9   82.89   11.70
  -6   2  -9   89.29   19.10
  -6   2  -9   95.19   11.70
   6  -2   9  100.59    9.50
   6  -2   9   91.19    8.80
   6  -2   9   96.49   10.90
   4   1  -9  101.89    5.60
   4   1  -9  109.79   11.70
  -4  -1   9   94.49    9.20
   3   1  -9    1.10    2.00
   3   1  -9    0.90    1.80
   3   1  -9    5.50    5.50
   3   1  -9    7.00    6.40
   3   1  -9   -3.00    6.00
  -3  -1   9   -0.30    3.30
   2   1  -9  219.28   13.10
   2   1  -9  242.28   13.80
   2   1  -9  230.48   13.60
   2   1  -9  230.48    7.60
  -2  -1   9  215.08   12.30
   1   1  -9   -2.90    4.80
   1   1  -9    6.30    2.40
   1   1  -9    8.30    5.30
   1   1  -9    6.80    4.80
   1   1  -9    8.70    2.70
  -1  -1   9    3.20    4.10
   0   1  -9   80.79    8.90
   0   1  -9   67.29    8.90
   0   1  -9   90.39    5.90
   0   1  -9   85.49    8.50
   0   1  -9   97.69    6.20
   0  -1   9   84.79    8.30
   0  -1   9   85.49    4.40
   0  -1   9   95.09    9.90
   0  -1   9   80.59    6.00
  -1   1  -9   -2.40    3.60
  -1   1  -9   -2.40    4.60
  -1   1  -9   -1.70    4.10
  -1   1  -9    1.90    2.90
  -1   1  -9    4.30    3.20
  -1   1  -9   -1.20    3.20
  -1   1  -9   -1.50    3.60
   1  -1   9    2.90    3.90
   1  -1   9   -7.90    2.80
   1  -1   9    6.60    4.80
  -2   1  -9   51.19    5.50
  -2   1  -9   44.20    6.50
  -2   1  -9   48.80    6.00
  -2   1  -9   57.29    6.40
  -2   1  -9   63.59    7.00
  -2   1  -9   41.60    9.20
   2  -1   9   54.09    7.30
   2  -1   9   52.59    6.90
   2  -1   9   62.29    8.30
   2  -1   9   52.89    6.40
  -3   1  -9    8.60    4.80
  -3   1  -9   12.40    4.80
  -3   1  -9   12.50    3.30
  -3   1  -9   12.20    5.80
  -3   1  -9    5.10    4.30
   3  -1   9   18.70    5.60
   3  -1   9    5.50    4.00
   3  -1   9   11.00    4.80
   3  -1   9   12.30    4.60
  -4   1  -9   34.60    6.30
  -4   1  -9   32.00    6.30
  -4   1  -9   33.20    3.90
  -4   1  -9   35.30    5.90
  -4   1  -9   37.70    8.00
  -4   1  -9   34.90    6.20
   4  -1   9   39.00    6.20
   4  -1   9   36.00    6.70
   4  -1   9   37.20    7.40
   4  -1   9   36.80    6.00
   4  -1   9   41.60    4.10
   4  -1   9   33.30    3.80
  -5   1  -9   21.30    6.00
  -5   1  -9   22.80    8.10
  -5   1  -9   16.60    2.60
  -5   1  -9   24.60    6.70
  -5   1  -9    7.30    5.60
   5  -1   9   18.00    6.60
   5  -1   9   15.10    6.50
   5  -1   9   19.60    5.40
   5  -1   9   11.20    6.00
   5  -1   9   18.40    3.70
   5  -1   9   15.20    3.80
  -6   1  -9  111.19   13.60
  -6   1  -9  143.59   12.90
  -6   1  -9  135.79   16.70
  -6   1  -9   96.09   11.30
   6  -1   9  119.39    9.30
   6  -1   9  125.29   12.60
   6  -1   9  119.99    9.30
   6  -1   9  132.79   12.40
  -7   1  -9    0.90    9.50
   7  -1   9   21.00    6.30
   7  -1   9   10.60    5.50
   7  -1   9    1.50    8.20
   7  -1   9   10.20    7.80
   4   0  -9    0.60    2.40
   4   0  -9    5.50    2.70
   4   0  -9    1.10    6.00
  -4   0   9    3.10    3.80
   3   0  -9   35.60    7.50
   3   0  -9   47.10    7.30
   3   0  -9   41.10    3.80
   3   0  -9   22.30    6.20
   3   0  -9   38.80    3.80
  -3   0   9   43.10    6.70
   2   0  -9  135.39   11.30
   2   0  -9  152.88   11.00
   2   0  -9  160.08   12.10
   2   0  -9  143.89    5.90
  -2   0   9  145.69   10.00
   1   0  -9   14.70    5.10
   1   0  -9   12.00    4.40
   1   0  -9   11.10    2.90
   1   0  -9   17.30    2.60
   1   0  -9   12.80    5.50
  -1   0   9   15.30    4.80
  -1   0   9   22.10    6.20
   0   0  -9  272.87    8.50
   0   0  -9  238.08   13.00
   0   0  -9  265.47   12.70
   0   0  -9  250.57   13.60
   0   0  -9  249.88    8.10
   0   0  -9  254.17    9.60
   0   0  -9  274.27    9.30
   0   0   9  246.98    8.60
   0   0   9  244.48   12.70
   0   0   9  285.67   13.70
   0   0   9  237.78    9.10
  -1   0  -9   27.50    4.50
  -1   0  -9   29.10    3.70
  -1   0  -9   28.40    4.20
  -1   0  -9   39.50    6.80
  -1   0  -9   25.70    5.30
  -1   0  -9   30.50    5.90
   1   0   9   27.20    5.80
   1   0   9   34.10    3.80
   1   0   9   22.20    5.20
  -2   0  -9   86.09    9.30
  -2   0  -9   80.29    6.30
  -2   0  -9   80.59    8.10
  -2   0  -9   84.19    7.00
  -2   0  -9   77.49    7.10
  -2   0  -9   85.49    8.90
   2   0   9   78.09    8.30
   2   0   9   93.49    7.10
   2   0   9   87.49    7.00
   2   0   9  101.39    9.10
  -3   0  -9   30.40    6.10
  -3   0  -9   11.30    4.60
  -3   0  -9   34.50    5.30
  -3   0  -9   36.50    7.70
   3   0   9   35.50    6.40
   3   0   9   20.60    5.90
   3   0   9   24.50    5.00
   3   0   9   22.60    4.70
  -4   0  -9   25.40    5.10
  -4   0  -9   20.80    5.30
  -4   0  -9   31.40    5.70
  -4   0  -9   32.20    7.00
   4   0   9   18.40    5.50
   4   0   9   14.90    4.60
   4   0   9   21.80    5.10
   4   0   9   23.50    2.80
   4   0   9   23.80    5.80
   4   0   9   24.80    3.20
  -5   0  -9  156.58   12.40
  -5   0  -9  115.89   10.00
  -5   0  -9  110.49   10.10
  -5   0  -9  138.29   11.10
   5   0   9  115.09    7.30
   5   0   9  108.59    7.30
   5   0   9  123.99   10.20
   5   0   9  126.69   11.60
   5   0   9  110.19   10.20
  -6   0  -9    1.90    6.00
  -6   0  -9   -6.40    7.50
  -6   0  -9    5.70    5.30
  -6   0  -9    3.90    3.00
  -6   0  -9    2.40    6.10
   6   0   9    5.40    4.40
   6   0   9    7.80    6.90
   6   0   9    4.30    4.10
   6   0   9    9.10    6.80
   6   0   9   -1.60    6.20
  -7   0  -9   11.10    7.60
  -7   0  -9   -1.10    7.50
  -7   0  -9   -7.30   10.30
  -7   0  -9    1.70    3.70
   7   0   9    4.70    5.70
   7   0   9    1.60    7.00
   7   0   9   -1.10    4.60
   4  -1  -9  123.79    6.60
   4  -1  -9  117.59    7.10
  -4   1   9  120.59    9.40
   3  -1  -9  178.18    7.10
   3  -1  -9  202.28   14.00
   3  -1  -9  192.78   13.10
   3  -1  -9  180.98    7.50
  -3   1   9  198.98   11.30
   2  -1  -9   -0.20    5.10
   2  -1  -9    1.00    2.20
   2  -1  -9   -3.80    4.90
   2  -1  -9    0.90    2.10
  -2   1   9    5.10    1.80
  -2   1   9    0.80    2.00
  -2   1   9    3.60    5.40
  -2   1   9    1.30    3.10
   1  -1  -9   94.09    5.50
   1  -1  -9  101.79    9.50
   1  -1  -9  109.89    9.20
   1  -1  -9  103.39    5.30
   1  -1  -9   89.29    9.90
  -1   1   9   84.59    8.20
  -1   1   9  100.39    5.90
  -1   1   9  110.19    9.90
  -1   1   9  100.99    5.20
   0  -1  -9  183.48    7.50
   0  -1  -9  188.28   11.50
   0  -1  -9  181.88    8.10
   0  -1  -9  190.48   11.00
   0  -1  -9  188.68    7.90
   0  -1  -9  182.68    7.90
   0   1   9  194.48    7.10
   0   1   9  187.78   11.80
   0   1   9  180.58   10.60
  -1  -1  -9   -2.00    3.80
  -1  -1  -9    6.80    2.90
  -1  -1  -9    2.00    2.90
  -1  -1  -9    4.50    3.50
  -1  -1  -9    4.90    4.20
  -1  -1  -9    2.40    2.70
   1   1   9    2.30    3.10
   1   1   9    6.00    4.70
   1   1   9    3.10    4.90
   1   1   9    2.40    2.60
  -2  -1  -9  856.61   27.70
  -2  -1  -9  840.82   24.50
  -2  -1  -9  877.81   24.50
  -2  -1  -9  845.22   25.00
   2   1   9  876.71   24.70
   2   1   9  897.61   28.00
   2   1   9  865.11   24.90
  -3  -1  -9  344.87   13.30
  -3  -1  -9  362.26   13.70
  -3  -1  -9  332.27   14.80
  -3  -1  -9  357.66   14.00
   3   1   9  381.06   16.20
   3   1   9  360.76    9.80
   3   1   9  326.87   14.90
   3   1   9  361.26   13.90
   3   1   9  362.26   14.00
  -4  -1  -9   -4.00    3.70
  -4  -1  -9   -1.30    3.80
  -4  -1  -9    3.30    3.60
  -4  -1  -9    0.90    5.00
   4   1   9    3.50    4.10
   4   1   9    5.70    2.50
   4   1   9    7.70    4.50
   4   1   9   10.90    5.10
   4   1   9    4.60    3.40
   4   1   9    5.90    2.20
  -5  -1  -9   10.70    5.00
  -5  -1  -9   20.00    5.80
  -5  -1  -9   18.80    5.40
  -5  -1  -9   23.70    6.50
   5   1   9   18.20    5.20
   5   1   9   12.60    3.40
   5   1   9    3.20    4.90
   5   1   9   19.20    3.80
   5   1   9   15.00    5.50
  -6  -1  -9   39.00    7.60
  -6  -1  -9   41.70    6.90
  -6  -1  -9   26.30    8.10
  -6  -1  -9   31.00    6.60
   6   1   9   34.10    5.90
   6   1   9   40.00    5.10
   6   1   9   34.00    7.10
   6   1   9   36.80    6.80
   6   1   9   30.40    6.80
  -7  -1  -9   16.60    9.40
  -7  -1  -9   21.40    7.60
  -7  -1  -9   11.00    7.70
  -7  -1  -9   25.30    4.30
  -7  -1  -9   22.70    6.60
   7   1   9   12.50    6.90
   7   1   9   20.40    8.40
   7   1   9   13.70    4.80
   7   1   9   23.50    6.60
  -8  -1  -9   71.49   10.10
  -8  -1  -9   67.39    8.60
  -8  -1  -9   84.79   14.70
  -8  -1  -9   49.70    9.50
   8   1   9   80.59   10.30
   8   1   9   73.99   11.60
   8   1   9   64.39    8.20
   8   1   9   64.89    9.10
   4  -2  -9    8.20    3.30
   4  -2  -9   15.00    4.80
  -4   2   9    3.10    3.90
  -4   2   9   11.50    3.60
  -4   2   9    9.40    5.00
   3  -2  -9   13.80    3.40
   3  -2  -9   10.40    2.90
   3  -2  -9   -1.40    5.80
   3  -2  -9    8.40    6.70
  -3   2   9    4.40    3.20
  -3   2   9    6.20    2.90
  -3   2   9    4.20    5.20
  -3   2   9    8.60    4.20
   2  -2  -9   48.80    7.40
   2  -2  -9   58.69    8.30
   2  -2  -9   54.29    4.70
   2  -2  -9   59.49    4.70
   2  -2  -9   49.90    5.10
   2  -2  -9   55.29    4.90
  -2   2   9   55.49    4.40
  -2   2   9   39.50    5.90
  -2   2   9   51.49    5.30
  -2   2   9   65.89    7.80
   1  -2  -9  111.69    6.20
   1  -2  -9  105.69    7.50
   1  -2  -9  121.59    6.60
   1  -2  -9  113.59    9.80
   1  -2  -9  120.79    6.00
  -1   2   9  113.09    5.50
  -1   2   9  110.09    8.50
  -1   2   9  128.29   10.20
   0  -2  -9 1301.27   38.60
   0  -2  -9 1396.56   34.90
   0  -2  -9 1335.37   35.10
   0  -2  -9 1345.67   34.60
   0  -2  -9 1340.77   34.10
   0   2   9 1376.96   38.30
   0   2   9 1379.96   35.70
   0   2   9 1117.09   41.30
   0   2   9 1369.66   33.80
  -1  -2  -9   14.70    4.50
  -1  -2  -9   11.70    3.20
  -1  -2  -9   22.20    3.60
  -1  -2  -9   16.50    3.80
  -1  -2  -9   13.50    3.40
   1   2   9   14.30    3.00
   1   2   9   15.00    4.80
   1   2   9   11.40    5.00
   1   2   9   11.90    3.50
  -2  -2  -9  718.13   24.30
  -2  -2  -9  712.43   21.80
  -2  -2  -9  750.62   21.40
  -2  -2  -9  676.43   25.30
  -2  -2  -9  734.63   21.90
   2   2   9  773.72   21.70
   2   2   9  747.43   24.20
   2   2   9  741.53   22.40
   2   2   9  765.82   24.70
  -3  -2  -9  209.88    9.70
  -3  -2  -9  195.78   10.10
  -3  -2  -9  220.28   10.30
  -3  -2  -9  200.28   10.90
  -3  -2  -9  206.08   11.70
   3   2   9  209.68   10.30
   3   2   9  208.38   10.70
   3   2   9  207.98    6.80
   3   2   9  213.38   11.40
   3   2   9  217.08   12.00
   3   2   9  204.58    7.30
  -4  -2  -9   14.50    4.20
  -4  -2  -9   14.30    4.50
  -4  -2  -9   10.60    4.00
  -4  -2  -9    8.30    5.00
   4   2   9   12.30    2.60
   4   2   9   16.20    4.80
   4   2   9   13.20    5.80
   4   2   9   14.60    3.20
   4   2   9   16.20    4.80
  -5  -2  -9  207.48   13.00
  -5  -2  -9  182.98   11.30
  -5  -2  -9  196.48   11.40
  -5  -2  -9  194.28   11.10
   5   2   9  192.68    8.30
   5   2   9  188.18    9.40
   5   2   9  189.58   11.10
   5   2   9  191.58   11.60
   5   2   9  187.98   12.20
  -6  -2  -9   34.90    7.00
  -6  -2  -9   31.90    6.20
  -6  -2  -9   27.80    5.50
  -6  -2  -9   32.30    8.00
   6   2   9   28.70    7.10
   6   2   9   17.20    6.50
   6   2   9   23.70    5.40
   6   2   9   37.00    6.30
   6   2   9   36.10    4.80
  -7  -2  -9  194.68   12.90
  -7  -2  -9  204.48   13.40
  -7  -2  -9  166.28   14.20
  -7  -2  -9  188.78   15.60
   7   2   9  178.68   13.50
   7   2   9  166.98   10.20
   7   2   9  189.18   12.50
   7   2   9  204.48   14.60
   7   2   9  168.38   13.20
  -8  -2  -9   -1.30    7.50
  -8  -2  -9   -8.70   10.70
  -8  -2  -9    8.80    5.10
  -8  -2  -9    5.20    6.80
   8   2   9  -13.30    6.70
   8   2   9   13.00    8.70
   8   2   9    0.60    5.10
   8   2   9   -9.20    6.60
   4  -3  -9   11.70    4.20
   4  -3  -9   19.30    5.00
   4  -3  -9   13.50    4.40
  -4   3   9    7.30    3.80
  -4   3   9    9.40    9.70
   3  -3  -9   92.59    8.90
   3  -3  -9  117.19    7.10
   3  -3  -9  122.99   14.10
   3  -3  -9  106.89    7.60
   3  -3  -9  111.29   11.40
   3  -3  -9  100.49    7.20
  -3   3   9  122.09   10.20
  -3   3   9  104.39    9.40
  -3   3   9  119.19    7.40
  -3   3   9  105.19   14.00
  -3   3   9  110.29    8.60
   2  -3  -9  102.89    8.00
   2  -3  -9  120.29    6.70
   2  -3  -9  120.29   10.00
   2  -3  -9  113.59    7.00
  -2   3   9  110.59    8.50
  -2   3   9  119.39    6.30
  -2   3   9  127.09   10.20
  -2   3   9  122.09    8.00
   1  -3  -9  693.43   19.70
   1  -3  -9  587.14   23.10
   1  -3  -9  701.23   23.40
   1  -3  -9  707.63   19.30
   1  -3  -9  656.53   21.10
  -1   3   9  704.53   19.00
  -1   3   9  667.43   22.60
  -1   3   9  702.33   20.60
  -1   3   9  667.53   29.20
   0  -3  -9   48.70    6.00
   0  -3  -9   43.80    4.80
   0  -3  -9   49.60    6.30
   0  -3  -9   53.79    7.20
   0  -3  -9   47.80    5.10
   0   3   9   48.80    6.20
   0   3   9   40.00    4.50
   0   3   9   47.90    6.40
   0   3   9   32.20    6.00
  -1  -3  -9  128.39    6.70
  -1  -3  -9  127.09    7.10
  -1  -3  -9  111.99    9.20
  -1  -3  -9   99.69   12.60
  -1  -3  -9  112.09    7.60
   1   3   9  123.19    8.30
   1   3   9  121.39    9.90
   1   3   9  126.09    6.60
   1   3   9  102.29    8.20
  -2  -3  -9  181.88   10.90
  -2  -3  -9  184.58   10.20
  -2  -3  -9  189.88    8.70
   2   3   9  175.98   11.30
   2   3   9  182.58   10.20
   2   3   9  182.18    6.20
   2   3   9  183.98    8.70
   2   3   9  182.68    9.60
  -3  -3  -9  437.26   15.20
  -3  -3  -9  431.96   15.70
  -3  -3  -9  459.65   16.90
  -3  -3  -9  421.16   17.10
  -3  -3  -9  452.55   16.10
   3   3   9  433.66   15.50
   3   3   9  436.16   12.60
   3   3   9  448.56   13.60
   3   3   9  466.85   16.50
   3   3   9  458.85   17.80
   3   3   9  455.25   16.80
  -4  -3  -9 1318.37   37.50
  -4  -3  -9 1347.57   36.70
  -4  -3  -9 1326.17   37.20
  -4  -3  -9 1379.66   38.70
  -4  -3  -9 1332.87   38.40
   4   3   9 1340.87   34.10
   4   3   9 1368.46   38.10
   4   3   9 1285.87   37.70
   4   3   9 1368.16   35.40
   4   3   9 1364.06   39.10
   4   3   9 1325.67   37.40
  -5  -3  -9   19.10    6.00
  -5  -3  -9   24.40    5.40
  -5  -3  -9   16.20    4.70
  -5  -3  -9   13.30    5.00
   5   3   9   19.90    5.60
   5   3   9    7.90    5.00
   5   3   9   17.30    4.90
   5   3   9   20.50    4.40
   5   3   9   13.90    3.20
  -6  -3  -9    9.10    4.80
  -6  -3  -9    7.50    6.20
  -6  -3  -9   19.50    5.10
  -6  -3  -9   10.70    5.60
   6   3   9   21.80    5.20
   6   3   9   22.90    6.80
   6   3   9    8.10    4.80
   6   3   9   25.30    4.20
   6   3   9   24.20    6.50
  -7  -3  -9   29.40    7.40
  -7  -3  -9   10.70    5.40
  -7  -3  -9   19.90    5.70
  -7  -3  -9   12.50    7.20
   7   3   9   12.60    6.10
   7   3   9   12.10    6.50
   7   3   9   14.90    6.30
   7   3   9   16.10    4.60
   7   3   9   14.00    7.70
  -8  -3  -9   16.60    7.80
  -8  -3  -9   13.70   10.20
  -8  -3  -9   10.50    5.20
  -8  -3  -9    9.40    7.20
   8   3   9   18.20    9.10
   8   3   9   12.40    7.50
   8   3   9    9.20    5.30
   8   3   9   12.90    7.20
  -9  -3  -9    6.40    7.20
  -9  -3  -9   26.50   10.10
  -9  -3  -9    1.30   12.60
   9   3   9   17.30    8.90
   9   3   9   20.80    9.80
   9   3   9    2.20    8.80
   4  -4  -9   69.19    8.90
   4  -4  -9   67.09    8.50
   4  -4  -9   79.19    8.20
  -4   4   9   74.39    9.60
  -4   4   9   69.39    7.50
  -4   4   9   99.59    9.30
   3  -4  -9    6.70    5.30
   3  -4  -9    5.80    4.30
   3  -4  -9    6.20    4.50
   3  -4  -9    4.50    4.00
  -3   4   9    2.70    3.50
  -3   4   9    3.30    6.10
  -3   4   9    3.70    3.70
  -3   4   9   11.20    8.30
  -3   4   9   11.10    5.20
   2  -4  -9    7.20    4.20
   2  -4  -9    6.60    3.60
   2  -4  -9   13.30    5.30
   2  -4  -9    7.50    4.70
   2  -4  -9   12.30    3.60
  -2   4   9   27.10    6.60
  -2   4   9   10.30    5.00
  -2   4   9    7.20    3.20
  -2   4   9   11.10    3.90
  -2   4   9    7.90    5.30
   1  -4  -9   47.80    5.50
   1  -4  -9   48.80    5.00
   1  -4  -9   39.10    6.20
   1  -4  -9   49.70    5.70
   1  -4  -9   52.59    6.60
  -1   4   9   45.70    4.60
  -1   4   9   46.70    5.70
  -1   4   9   48.40    6.20
  -1   4   9   42.50    6.50
   0  -4  -9  175.68    8.10
   0  -4  -9  186.38    9.30
   0  -4  -9  165.68   10.20
   0  -4  -9  176.28   10.80
   0  -4  -9  161.28    8.30
   0   4   9  178.68   11.20
   0   4   9  161.88    9.20
   0   4   9  169.48    7.80
   0   4   9  164.88    9.40
  -1  -4  -9  110.09    8.10
  -1  -4  -9  113.69    7.00
  -1  -4  -9   97.89    9.10
  -1  -4  -9  117.19    6.80
  -1  -4  -9  100.89   10.80
   1   4   9  124.59   10.10
   1   4   9  100.79    4.60
   1   4   9  104.99    7.70
   1   4   9  111.29    6.60
   1   4   9  106.19    5.20
   1   4   9  116.29    8.30
  -2  -4  -9  726.33   22.70
  -2  -4  -9  710.83   23.40
  -2  -4  -9  728.23   21.20
  -2  -4  -9  680.93   22.40
  -2  -4  -9  706.73   21.40
   2   4   9  728.63   22.90
   2   4   9  698.73   18.70
   2   4   9  720.43   19.60
   2   4   9  701.73   22.50
   2   4   9  725.03   24.00
   2   4   9  700.73   21.10
  -3  -4  -9  194.28   10.90
  -3  -4  -9  202.68   10.60
  -3  -4  -9  188.78    9.70
  -3  -4  -9  193.58   10.30
  -3  -4  -9  193.08   10.90
   3   4   9  195.38   11.40
   3   4   9  195.48    9.60
   3   4   9  182.38    8.40
   3   4   9  192.18   10.70
   3   4   9  193.58   10.10
   3   4   9  193.78    7.30
  -4  -4  -9   69.39    7.70
  -4  -4  -9   57.49    6.60
  -4  -4  -9   68.79    7.10
  -4  -4  -9   57.29    7.00
  -4  -4  -9   57.59    7.50
   4   4   9   66.29    8.50
   4   4   9   59.89    7.00
   4   4   9   68.09    8.00
   4   4   9   58.89    6.50
   4   4   9   66.89    6.50
   4   4   9   56.59    6.10
  -5  -4  -9  644.14   23.40
  -5  -4  -9  655.53   22.10
  -5  -4  -9  692.13   21.90
  -5  -4  -9  660.33   22.90
  -5  -4  -9  675.73   22.60
   5   4   9  669.53   19.60
   5   4   9  675.03   22.10
   5   4   9  701.03   21.50
   5   4   9  653.03   23.20
   5   4   9  706.53   23.80
   5   4   9  642.74   22.20
  -6  -4  -9   31.10    6.10
  -6  -4  -9   26.20    6.80
  -6  -4  -9   17.00    6.10
  -6  -4  -9   18.90    5.00
   6   4   9   23.00    5.40
   6   4   9   33.10    6.00
   6   4   9   25.70    6.40
   6   4   9   15.70    3.70
   6   4   9   14.40    6.20
  -7  -4  -9   -3.60    4.40
  -7  -4  -9   14.60    7.40
  -7  -4  -9   -6.40    5.80
  -7  -4  -9    2.60    4.80
   7   4   9   -1.80    6.80
   7   4   9   10.60    4.00
   7   4   9    0.20    5.70
   7   4   9    3.10    6.00
   7   4   9    2.50    5.70
  -8  -4  -9   -0.90    6.20
  -8  -4  -9    4.40    6.30
  -8  -4  -9   -1.00    7.40
   8   4   9    9.80    6.70
   8   4   9   -0.90    4.60
   8   4   9    9.70    8.40
   8   4   9    4.00    7.00
   8   4   9    3.60    8.40
  -9  -4  -9    4.90    9.60
  -9  -4  -9   15.40    9.20
  -9  -4  -9    8.10    6.60
  -9  -4  -9   10.10   12.30
   9   4   9    1.80    8.70
   9   4   9   -2.50    8.20
   9   4   9    2.00   10.20
   3  -5  -9    6.70    5.40
   3  -5  -9   -7.30    4.10
   3  -5  -9   -7.70    4.60
  -3   5   9    0.60    6.20
  -3   5   9   -0.40    9.00
  -3   5   9   -7.30    8.20
  -3   5   9    9.60    4.90
  -3   5   9   -1.00    3.30
   2  -5  -9    3.60    5.20
   2  -5  -9   19.70    5.00
   2  -5  -9   14.40    8.20
   2  -5  -9   11.60    4.40
   2  -5  -9   19.20    4.40
  -2   5   9    9.40    3.90
  -2   5   9    5.90    5.30
  -2   5   9   14.40    3.80
  -2   5   9    8.30    6.70
  -2   5   9   18.60    5.60
   1  -5  -9  124.29    7.90
   1  -5  -9  136.29   11.50
   1  -5  -9  140.89   10.00
   1  -5  -9  122.09    8.20
   1  -5  -9  110.49    8.70
  -1   5   9  121.59   10.20
  -1   5   9  131.89   11.60
  -1   5   9  116.69    8.30
  -1   5   9  120.89    7.40
  -1   5   9  132.19   10.40
   0  -5  -9   -0.40    3.10
   0  -5  -9    1.90    3.00
   0  -5  -9    3.60    4.00
   0  -5  -9    2.30    4.70
   0  -5  -9    1.40    4.20
   0   5   9    0.00    4.20
   0   5   9    3.10    2.90
   0   5   9    3.60    3.10
   0   5   9    1.20    1.90
   0   5   9    0.30    2.30
   0   5   9    7.50    4.70
  -1  -5  -9  159.88    8.50
  -1  -5  -9  146.49   10.40
  -1  -5  -9  144.09    9.30
  -1  -5  -9  153.28    8.20
  -1  -5  -9  138.89    9.80
   1   5   9  142.69    8.50
   1   5   9  143.29    6.20
   1   5   9  155.88    9.90
   1   5   9  145.89    6.90
   1   5   9  147.49   10.70
   1   5   9  143.19    8.00
  -2  -5  -9  138.49    8.30
  -2  -5  -9  136.19    9.50
  -2  -5  -9  157.58    9.90
  -2  -5  -9  150.78    8.30
  -2  -5  -9  132.39    9.80
   2   5   9  140.19    7.50
   2   5   9  134.29    9.70
   2   5   9  131.49    6.20
   2   5   9  144.89    7.90
   2   5   9  138.79    8.40
   2   5   9  151.98   10.50
  -3  -5  -9  432.96   16.80
  -3  -5  -9  459.95   15.70
  -3  -5  -9  435.86   17.10
  -3  -5  -9  411.26   16.80
   3   5   9  443.26   15.10
   3   5   9  468.75   17.70
   3   5   9  455.55   13.70
   3   5   9  455.85   15.90
   3   5   9  459.95   17.80
   3   5   9  445.16   16.00
  -4  -5  -9   54.89    7.40
  -4  -5  -9   45.10    5.60
  -4  -5  -9   36.80    5.70
  -4  -5  -9   35.00    5.30
  -4  -5  -9   40.30    6.20
   4   5   9   35.70    5.50
   4   5   9   42.60    6.50
   4   5   9   39.30    5.70
   4   5   9   46.10    4.90
   4   5   9   54.69    7.40
   4   5   9   38.80    5.70
  -5  -5  -9  198.98   10.70
  -5  -5  -9  183.88   10.70
  -5  -5  -9  202.98   12.70
  -5  -5  -9  187.38   10.60
   5   5   9  200.38   12.00
   5   5   9  175.68    9.70
   5   5   9  182.08    8.60
   5   5   9  192.08   12.40
   5   5   9  177.98   14.40
   5   5   9  187.78   10.70
  -6  -5  -9    2.60    4.20
  -6  -5  -9   22.80    7.10
  -6  -5  -9   17.50    6.30
  -6  -5  -9    0.30    4.40
  -6  -5  -9   10.60    4.40
   6   5   9    4.40    3.40
   6   5   9    9.80    5.00
   6   5   9   11.70    5.80
   6   5   9    9.90    4.60
   6   5   9    7.70    6.00
  -7  -5  -9   -7.70    4.30
  -7  -5  -9    6.40    5.20
  -7  -5  -9   11.50    7.60
   7   5   9    0.20    6.00
   7   5   9   -2.70    5.20
   7   5   9   -1.90    5.30
   7   5   9    4.50    3.40
   7   5   9    2.60    7.20
  -8  -5  -9    2.00    6.50
  -8  -5  -9    2.80    8.10
  -8  -5  -9    5.20    7.20
   8   5   9   -9.90    5.90
   8   5   9   -4.00    6.60
   8   5   9    5.50    8.10
   8   5   9    3.00    7.10
   8   5   9    9.60    4.90
  -9  -5  -9   12.90    8.60
  -9  -5  -9    5.80    9.00
  -9  -5  -9   -2.70   12.00
  -9  -5  -9   23.30    7.50
   9   5   9    7.00    7.40
   9   5   9   -0.30    8.90
   9   5   9    3.00    9.30
   3  -6  -9   42.50    6.40
   3  -6  -9   47.40    7.60
   3  -6  -9   29.70    7.10
  -3   6   9   43.20   10.00
   2  -6  -9   15.20    4.50
   2  -6  -9    7.40    8.10
   2  -6  -9   17.20    5.60
   2  -6  -9   19.60    5.00
  -2   6   9   31.30    8.40
  -2   6   9    8.80    2.60
  -2   6   9   -0.60    6.50
  -2   6   9   11.10    4.00
  -2   6   9   10.30    4.90
  -2   6   9   14.60    6.00
   1  -6  -9   -1.20    4.60
   1  -6  -9    6.50    4.60
   1  -6  -9    7.10    3.90
   1  -6  -9    8.00    6.90
   1  -6  -9    4.60    4.20
  -1   6   9    1.80    2.80
  -1   6   9    3.40    3.70
  -1   6   9    2.60    3.40
  -1   6   9   -2.00    5.50
  -1   6   9   15.50    6.40
  -1   6   9    8.70    3.30
  -1   6   9   -3.00    4.80
   0  -6  -9    9.20    3.70
   0  -6  -9    6.10    5.80
   0  -6  -9    9.20    4.20
   0  -6  -9   10.50    4.50
   0  -6  -9    8.10    4.20
   0   6   9    7.90    2.90
   0   6   9    6.50    3.20
   0   6   9    7.40    5.20
   0   6   9    6.80    3.60
   0   6   9   14.00    5.60
   0   6   9   16.50    5.50
   0   6   9    6.10    3.10
  -1  -6  -9   40.10    5.00
  -1  -6  -9   35.20    6.90
  -1  -6  -9   38.50    5.90
  -1  -6  -9   40.70    5.20
  -1  -6  -9   40.90    6.00
   1   6   9   49.60    6.10
   1   6   9   38.60    6.20
   1   6   9   40.10    4.80
   1   6   9   44.90    4.90
   1   6   9   42.20    6.50
   1   6   9   46.70    5.20
  -2  -6  -9   41.10    6.20
  -2  -6  -9   49.90    5.80
  -2  -6  -9   40.20    5.50
  -2  -6  -9   32.30    6.90
  -2  -6  -9   33.90    5.80
   2   6   9   39.30    6.20
   2   6   9   35.50    6.30
   2   6   9   37.40    5.10
   2   6   9   42.30    5.20
   2   6   9   36.90    4.80
  -3  -6  -9   30.00    6.50
  -3  -6  -9   33.30    5.50
  -3  -6  -9   30.00    4.70
  -3  -6  -9   39.20    5.50
  -3  -6  -9   36.20    5.80
   3   6   9   37.00    5.20
   3   6   9   35.40    6.40
   3   6   9   36.30    4.10
   3   6   9   30.50    4.80
   3   6   9   32.00    4.90
   3   6   9   32.80    6.00
  -4  -6  -9  377.66   14.90
  -4  -6  -9  351.36   16.20
  -4  -6  -9  368.46   14.70
  -4  -6  -9  364.06   16.80
  -4  -6  -9  360.86   14.40
   4   6   9  363.46   14.90
   4   6   9  368.76   14.00
   4   6   9  390.96   16.90
   4   6   9  343.47   14.40
   4   6   9  368.46   16.10
   4   6   9  359.36   12.50
  -5  -6  -9   -3.70    5.20
  -5  -6  -9    1.70    3.90
  -5  -6  -9    8.00    5.40
  -5  -6  -9   -0.80    3.60
   5   6   9    3.50    3.00
   5   6   9    7.30    4.60
   5   6   9   -0.90    3.00
   5   6   9    2.80    6.10
   5   6   9    0.80    3.80
   5   6   9    0.40    4.40
  -6  -6  -9   50.09    8.80
  -6  -6  -9   51.39    6.10
  -6  -6  -9   49.40    6.50
  -6  -6  -9   53.19    8.60
  -6  -6  -9   68.89    7.90
   6   6   9   53.09    7.50
   6   6   9   55.09    5.90
   6   6   9   53.89    7.50
   6   6   9   73.59    8.20
   6   6   9   49.70    8.90
  -7  -6  -9  120.59   12.80
  -7  -6  -9  104.19    9.80
  -7  -6  -9  124.99   12.40
  -7  -6  -9  130.69   10.90
  -7  -6  -9   85.59    9.60
   7   6   9  104.89    7.90
   7   6   9  138.49   11.90
   7   6   9  118.39   14.30
   7   6   9  105.19   10.60
   7   6   9  107.09   10.50
  -8  -6  -9   27.80    6.30
  -8  -6  -9   34.10    8.70
  -8  -6  -9   31.70    9.40
  -8  -6  -9   32.30    8.00
   8   6   9   20.00    7.70
   8   6   9   32.20    7.80
   8   6   9   19.30    5.10
   8   6   9   32.00    7.80
   8   6   9   48.30   10.60
  -9  -6  -9   13.20   10.90
  -9  -6  -9   17.50   10.10
  -9  -6  -9   33.20    9.10
   9   6   9   56.19   10.80
   9   6   9   41.90   10.00
   9   6   9   37.40    9.40
   2  -7  -9  171.78   12.80
   2  -7  -9  149.39   11.10
   2  -7  -9  190.18   12.70
   2  -7  -9  160.68   19.80
  -2   7   9  150.28   15.70
  -2   7   9  171.58   17.40
  -2   7   9  138.19   10.10
  -2   7   9  144.99   12.20
  -2   7   9  144.89    9.70
   1  -7  -9    2.00    5.70
   1  -7  -9   -5.50    4.80
   1  -7  -9    0.50    8.50
   1  -7  -9   14.00    4.80
  -1   7   9    2.30    3.50
  -1   7   9   12.80    6.90
  -1   7   9   -5.40    6.90
  -1   7   9   -4.30    6.00
  -1   7   9    4.10    4.20
   0  -7  -9   11.10    4.60
   0  -7  -9   20.90    7.70
   0  -7  -9    7.20    4.10
   0  -7  -9   -2.60    4.70
   0  -7  -9    1.20    4.10
   0   7   9    1.80    6.50
   0   7   9    5.60    3.90
   0   7   9    2.00    5.70
   0   7   9    3.80    6.30
   0   7   9    2.30    3.70
   0   7   9    6.20    4.00
   0   7   9    1.80    3.50
  -1  -7  -9   95.99    8.20
  -1  -7  -9   92.69    8.20
  -1  -7  -9   90.59   11.70
  -1  -7  -9   86.59    9.10
  -1  -7  -9  100.79    9.00
   1   7   9   96.99   11.20
   1   7   9   98.29    7.50
   1   7   9   91.19   10.40
   1   7   9   90.89    6.90
   1   7   9   94.29    8.00
   1   7   9   85.59    6.60
  -2  -7  -9    6.10    4.50
  -2  -7  -9    7.80    3.90
  -2  -7  -9   20.60    6.90
  -2  -7  -9   10.40    5.50
  -2  -7  -9    4.70    3.90
   2   7   9   10.80    3.30
   2   7   9    4.20    4.40
   2   7   9   10.00    3.40
   2   7   9   13.30    5.40
   2   7   9    8.10    3.50
   2   7   9   17.30    6.10
  -3  -7  -9   38.50    5.90
  -3  -7  -9   37.80    5.40
  -3  -7  -9   46.50    6.10
  -3  -7  -9   39.00    8.00
  -3  -7  -9   50.09    7.50
   3   7   9   33.50    7.20
   3   7   9   31.70    6.60
   3   7   9   44.60    5.70
   3   7   9   37.40    6.60
   3   7   9   42.60    5.50
   3   7   9   36.60    4.50
  -4  -7  -9   -5.50    3.60
  -4  -7  -9    2.10    5.30
  -4  -7  -9   -0.70    3.90
  -4  -7  -9   -0.40    4.10
  -4  -7  -9   -4.80    5.30
   4   7   9   -2.70    3.70
   4   7   9   -6.10    2.80
   4   7   9    4.70    3.50
   4   7   9   -4.50    5.30
   4   7   9    2.20    6.90
   4   7   9   -5.10    4.00
  -5  -7  -9   81.89   10.00
  -5  -7  -9   91.49   11.00
  -5  -7  -9   92.69    9.00
  -5  -7  -9   98.09    8.30
  -5  -7  -9   93.79    8.00
   5   7   9   89.99   10.40
   5   7   9   84.99    8.40
   5   7   9  133.39   12.90
   5   7   9   92.19    7.20
   5   7   9   78.39    7.30
  -6  -7  -9  276.37   16.70
  -6  -7  -9  270.67   14.00
  -6  -7  -9  278.97   12.40
  -6  -7  -9  258.97   13.10
  -6  -7  -9  261.27   15.80
   6   7   9  277.37   11.90
   6   7   9  264.37   11.40
   6   7   9  275.37   15.00
   6   7   9  275.77   13.80
   6   7   9  290.37   16.20
  -7  -7  -9   -1.20    4.30
  -7  -7  -9    5.20    7.00
  -7  -7  -9   -5.90    7.70
  -7  -7  -9   -3.40    5.90
   7   7   9    3.80    4.20
   7   7   9   10.80    6.00
   7   7   9    0.10    8.10
   7   7   9    4.90    6.90
   7   7   9    7.90    5.40
  -8  -7  -9   -5.80    7.30
  -8  -7  -9    3.60    5.40
  -8  -7  -9   -6.90    6.90
  -8  -7  -9   -7.20    8.60
   8   7   9    4.10    9.10
   8   7   9   16.20    7.30
   8   7   9  -14.80   10.90
   8   7   9    4.20    7.20
  -9  -7  -9   -9.20    8.10
  -9  -7  -9  -15.60   12.60
  -9  -7  -9    6.80    6.00
   9   7   9   -8.60    8.70
   9   7   9   11.90   11.70
   9   7   9    4.80    9.70
   1  -8  -9  102.99   14.20
   1  -8  -9   89.89   10.70
   1  -8  -9   59.69    9.30
  -1   8   9   78.69    7.60
  -1   8   9   80.79   10.70
  -1   8   9   75.09   11.10
  -1   8   9   74.29   11.80
  -1   8   9  101.59   12.20
   0  -8  -9   11.30   10.20
   0  -8  -9   10.70    5.20
   0  -8  -9   11.30    5.60
   0  -8  -9   30.90    7.10
   0   8   9   10.80    5.60
   0   8   9    8.20    4.80
   0   8   9    9.80    6.30
   0   8   9   17.90    9.50
   0   8   9   12.90    3.90
   0   8   9   23.30    7.50
  -1  -8  -9   28.30    5.50
  -1  -8  -9   37.60    7.10
  -1  -8  -9   24.40    5.10
  -1  -8  -9   33.10    9.50
   1   8   9   25.10   12.50
   1   8   9   26.30    7.00
   1   8   9   29.10    6.00
   1   8   9   35.20    5.20
   1   8   9   21.10    5.10
   1   8   9   34.60    7.60
   1   8   9   34.50    4.50
  -2  -8  -9    5.40    5.70
  -2  -8  -9    4.10    7.30
  -2  -8  -9    4.40    4.20
  -2  -8  -9    4.70    4.50
  -2  -8  -9   -5.30    4.50
   2   8   9   -2.00    3.10
   2   8   9    2.10    4.80
   2   8   9   -1.80    5.70
   2   8   9    3.50    3.60
   2   8   9   -2.00    7.20
   2   8   9    3.00    3.90
  -3  -8  -9    7.10    7.30
  -3  -8  -9    3.40    4.40
  -3  -8  -9   -0.10    3.90
  -3  -8  -9   -8.30    5.40
  -3  -8  -9   -0.40    4.20
   3   8   9    2.10    5.10
   3   8   9   -0.70    6.60
   3   8   9    1.70    3.00
   3   8   9    3.00    3.60
   3   8   9    5.40    4.20
  -4  -8  -9   17.40    5.50
  -4  -8  -9   21.10    4.60
  -4  -8  -9   14.40    6.50
  -4  -8  -9   19.60    7.70
  -4  -8  -9   17.80    5.10
   4   8   9   13.50    6.10
   4   8   9   11.20    4.10
   4   8   9   18.10    8.00
   4   8   9   19.40    4.20
   4   8   9   16.30    4.60
  -5  -8  -9   26.80    5.90
  -5  -8  -9   29.80    8.20
  -5  -8  -9   26.70    7.60
  -5  -8  -9   29.20    5.20
  -5  -8  -9   35.30    5.80
   5   8   9   24.70    4.40
   5   8   9   28.90    7.10
   5   8   9   37.60    8.80
   5   8   9   26.60    4.70
   5   8   9   34.50    6.10
  -6  -8  -9  197.18   15.80
  -6  -8  -9  183.78   12.20
  -6  -8  -9  177.98   10.00
  -6  -8  -9  187.48   15.00
  -6  -8  -9  167.38   12.30
   6   8   9  188.28   16.10
   6   8   9  160.88   12.00
   6   8   9  165.88    9.60
   6   8   9  194.68    9.70
   6   8   9  187.18   13.80
  -7  -8  -9   66.99   10.80
  -7  -8  -9   67.29    9.70
  -7  -8  -9   86.49    9.70
   7   8   9   93.49   12.70
   7   8   9   63.39    9.40
   7   8   9   73.29    8.80
   7   8   9   71.49    9.20
  -8  -8  -9   66.09    9.50
  -8  -8  -9   80.99   13.30
  -8  -8  -9   90.39    9.80
  -8  -8  -9   56.89   10.80
   8   8   9   79.59   12.30
   8   8   9   82.79   11.10
   0  -9  -9   25.20   13.00
   0  -9  -9   17.00    6.80
   0   9   9   22.30    7.60
   0   9   9   20.00    8.10
   0   9   9   25.30   10.60
   0   9   9   13.50    5.60
   0   9   9   11.10    7.50
  -1  -9  -9    4.50   10.00
  -1  -9  -9    6.10    7.30
  -1  -9  -9   -0.80    6.10
   1   9   9   -2.60    9.10
   1   9   9   -5.30    6.60
   1   9   9    0.90    6.80
   1   9   9    5.00    4.70
   1   9   9   18.40    7.40
  -2  -9  -9   -1.50    6.20
  -2  -9  -9   13.80    9.20
  -2  -9  -9   -1.20    6.50
   2   9   9    3.10    4.10
   2   9   9    2.60    3.10
   2   9   9    2.70    6.30
   2   9   9    2.70    8.20
  -3  -9  -9   23.20    6.60
  -3  -9  -9   19.80    7.70
  -3  -9  -9   38.10   10.20
  -3  -9  -9   31.10    6.30
   3   9   9   23.50    4.70
   3   9   9   35.10    4.20
   3   9   9   27.60    6.80
   3   9   9   31.30    9.80
  -4  -9  -9    9.50    8.60
  -4  -9  -9    8.50    7.20
  -4  -9  -9   16.10    5.40
  -4  -9  -9   22.60    5.00
  -4  -9  -9   12.90    5.90
   4   9   9   11.40    4.20
   4   9   9   11.20    8.30
   4   9   9    6.30    5.90
   4   9   9   25.70    7.50
   4   9   9   17.60    3.70
  -5  -9  -9   26.10    8.40
  -5  -9  -9   36.70    8.70
  -5  -9  -9   26.10    7.40
  -5  -9  -9   27.90    5.00
   5   9   9   28.60    9.00
   5   9   9   35.50    4.80
   5   9   9   38.90    8.50
   5   9   9   20.00    4.80
   5   9   9   19.70    6.50
  -6  -9  -9   68.19    8.90
  -6  -9  -9   56.49   11.10
  -6  -9  -9   71.19    8.40
  -6  -9  -9   48.40    9.40
   6   9   9   50.59    6.60
   6   9   9   59.89    9.30
   6   9   9   56.99    6.80
   6   9   9   46.20   10.80
  -7  -9  -9   13.00   10.30
  -7  -9  -9   13.60    4.30
  -7  -9  -9   10.70    8.20
  -7  -9  -9   15.30    9.20
   7   9   9    7.50    4.50
   7   9   9   11.20   10.70
   7   9   9    0.40    7.70
  -8  -9  -9   49.10   12.60
  -8  -9  -9   48.90   11.60
   8   9   9   36.80   11.40
   8   9   9   54.89   13.90
  -2 -10  -9    0.70   13.40
   2  10   9   -0.10    7.80
   2  10   9    2.40    9.50
   2  10   9    7.50    6.10
  -3 -10  -9   97.29   13.10
  -3 -10  -9   71.19   11.40
  -3 -10  -9   71.19    9.30
   3  10   9   64.29    8.60
   3  10   9   78.69   10.20
   3  10   9  103.79   13.40
  -4 -10  -9    4.40    8.80
  -4 -10  -9   31.90   10.50
  -4 -10  -9    0.10    6.70
   4  10   9   10.60    7.60
   4  10   9    2.40   10.20
  -5 -10  -9    6.00    8.30
  -5 -10  -9    9.40    9.60
  -5 -10  -9   -3.90    9.70
   5  10   9    7.30    7.70
   5  10   9   30.50    9.90
  -6 -10  -9   15.80    8.00
  -6 -10  -9   -3.30   11.10
  -6 -10  -9   27.50   11.80
   6  10   9   15.30    9.60
   6  10   9   28.20   11.90
   0   3 -10   24.30    5.50
   0   3 -10   26.80    6.10
   0  -3  10   17.60    5.70
   0  -3  10   15.40    3.20
  -1   3 -10    0.80    4.90
  -1   3 -10    1.80    5.60
  -1   3 -10   -5.70    5.90
   1  -3  10   -2.60    4.80
   1  -3  10   -2.00    4.70
  -2   3 -10    9.40    7.10
  -2   3 -10   -3.20    6.20
  -2   3 -10   23.90    8.00
   2  -3  10   20.50    6.30
   2   2 -10    6.70    6.80
  -2  -2  10    0.30    4.00
   1   2 -10   78.29    6.90
   1   2 -10   67.19    8.20
   1   2 -10   60.69    8.50
  -1  -2  10   61.09    8.50
   0   2 -10   18.40    4.80
   0   2 -10   18.70    6.10
   0   2 -10   18.80    4.70
   0  -2  10   12.20    5.00
   0  -2  10   11.80    2.60
   0  -2  10   15.00    2.20
  -1   2 -10  105.19   10.90
  -1   2 -10   82.29    6.60
  -1   2 -10   95.49    9.60
  -1   2 -10   91.59    9.40
   1  -2  10   94.39    7.70
   1  -2  10   83.59    9.20
   1  -2  10   81.09    6.40
  -2   2 -10    3.20    4.20
  -2   2 -10    8.70    6.80
  -2   2 -10    9.20    5.90
  -2   2 -10   14.90    5.70
  -2   2 -10    6.00    6.40
   2  -2  10   -0.50    4.50
   2  -2  10    4.90    4.40
   2  -2  10   -3.60    4.10
  -3   2 -10   -0.10    6.20
  -3   2 -10    3.00    6.20
  -3   2 -10    6.20    7.80
   3  -2  10    5.20    5.10
   3  -2  10   10.20    6.20
   3  -2  10    0.90    5.90
  -4   2 -10    9.60    6.90
  -4   2 -10    1.50    6.60
  -4   2 -10    4.90    9.60
   4  -2  10    5.60    5.00
   2   1 -10  155.78    7.10
   2   1 -10  150.18   17.00
   2   1 -10  159.88   13.30
  -2  -1  10  124.79   10.40
   1   1 -10   16.00    6.30
   1   1 -10   17.00    3.80
   1   1 -10   12.60    7.80
   1   1 -10   19.30    3.70
  -1  -1  10   13.20    5.20
   0   1 -10   -2.90    3.50
   0   1 -10    2.90    7.00
   0   1 -10    1.10    3.80
   0   1 -10    8.10    5.40
   0   1 -10   10.90    7.20
   0  -1  10    3.00    2.20
   0  -1  10   -1.10    3.80
   0  -1  10    5.70    3.50
  -1   1 -10  106.29   12.10
  -1   1 -10   74.29    6.40
  -1   1 -10   83.49    7.90
  -1   1 -10   80.79    9.20
  -1   1 -10   83.79    9.20
  -1   1 -10   72.49    9.40
  -1   1 -10   79.09    7.80
   1  -1  10   88.39    9.00
   1  -1  10   83.69    6.80
   1  -1  10   76.49    6.20
   1  -1  10   78.39    9.20
  -2   1 -10  186.18   15.00
  -2   1 -10  220.68   12.90
  -2   1 -10  227.98   13.10
  -2   1 -10  212.38   15.50
  -2   1 -10  190.78    9.90
  -2   1 -10  216.28   11.70
  -2   1 -10  230.18   11.70
   2  -1  10  220.48   11.30
   2  -1  10  209.88   10.10
   2  -1  10  215.38   12.80
   2  -1  10  229.58   15.10
  -3   1 -10  266.87   14.00
  -3   1 -10  254.17   13.20
  -3   1 -10  260.87   15.40
  -3   1 -10  248.88   12.40
  -3   1 -10  257.57   11.40
   3  -1  10  267.17   12.30
   3  -1  10  266.97   14.40
   3  -1  10  260.87   12.90
   3  -1  10  258.77   16.30
  -4   1 -10   11.40    5.70
  -4   1 -10    2.10    3.60
  -4   1 -10   21.10    8.00
  -4   1 -10    6.80    6.10
  -4   1 -10    2.60    5.60
   4  -1  10   11.00    7.50
   4  -1  10   -9.00    5.40
   4  -1  10    0.70    4.20
   4  -1  10    0.90    6.20
  -5   1 -10    0.10    7.00
  -5   1 -10   -1.10    6.90
  -5   1 -10    7.00    9.70
  -5   1 -10    9.60    6.40
   5  -1  10    0.80    3.10
   5  -1  10   -1.80    3.20
   5  -1  10   10.80    7.10
   5  -1  10    1.60    4.50
   5  -1  10    4.40    8.20
   3   0 -10    2.60    6.90
  -3   0  10   -5.40    3.50
   2   0 -10   41.20    4.10
   2   0 -10   50.69    4.80
   2   0 -10   36.20    7.20
   2   0 -10   22.80    7.20
  -2   0  10   41.30    6.90
   1   0 -10  398.96   12.90
   1   0 -10  383.16   17.90
   1   0 -10  390.36   17.80
   1   0 -10  401.96   18.90
   1   0 -10  405.26   12.70
  -1   0  10  419.86   18.60
  -1   0  10  368.26   17.00
   0   0 -10   21.70    6.50
   0   0 -10   21.60    6.20
   0   0 -10   26.20    4.40
   0   0 -10   24.20    4.00
   0   0 -10   20.70    6.30
   0   0  10   24.40    7.40
   0   0  10   21.70    2.90
   0   0  10   22.90    5.50
  -1   0 -10  107.59   10.40
  -1   0 -10   88.59    7.70
  -1   0 -10  103.89    9.80
  -1   0 -10  102.69    7.00
  -1   0 -10   92.19   10.80
  -1   0 -10   97.89    8.10
  -1   0 -10   99.59    7.40
   1   0  10  106.89    6.70
   1   0  10  115.19   11.50
   1   0  10   99.39    9.20
  -2   0 -10    1.70    3.50
  -2   0 -10   -0.60    5.30
  -2   0 -10   13.90    4.50
  -2   0 -10    7.60    5.40
  -2   0 -10   -3.30    5.40
  -2   0 -10    7.60    5.60
   2   0  10   16.20    4.30
   2   0  10   10.00    4.70
   2   0  10    6.60    6.00
   2   0  10   13.30    4.50
  -3   0 -10    1.10    5.90
  -3   0 -10   -0.40    4.00
  -3   0 -10   -1.60    4.70
  -3   0 -10    0.70    4.70
   3   0  10    8.50    6.40
   3   0  10    5.50    4.40
   3   0  10    4.10    4.50
   3   0  10    7.80    4.50
  -4   0 -10   22.20    7.90
  -4   0 -10   21.90    5.80
  -4   0 -10   18.10    6.10
  -4   0 -10   24.20    6.10
   4   0  10   18.70    6.00
   4   0  10   13.90    6.60
   4   0  10   18.40    5.10
   4   0  10    9.00    5.60
  -5   0 -10   10.60    8.40
  -5   0 -10   -5.90    5.80
  -5   0 -10   -6.00    5.90
  -5   0 -10   -8.90    5.70
   5   0  10    2.30    3.40
   5   0  10    5.40    5.90
   5   0  10   -2.10    3.60
   5   0  10   -8.60    9.80
   5   0  10   -0.10    3.00
   5   0  10    0.70    6.20
  -6   0 -10   -2.80   13.40
  -6   0 -10   17.90    3.90
  -6   0 -10   16.40   10.90
  -6   0 -10   20.80    7.30
  -6   0 -10   36.10    8.70
   6   0  10   14.20    4.90
   6   0  10   16.70    5.30
   6   0  10    7.60   12.90
   6   0  10   11.00    5.20
   6   0  10    2.40    7.80
   3  -1 -10    1.00    3.10
  -3   1  10   -1.20    3.80
   2  -1 -10   32.00    3.70
   2  -1 -10   32.00    8.20
   2  -1 -10   32.10    3.90
  -2   1  10   16.40    7.30
  -2   1  10   22.00    5.10
   1  -1 -10   12.10    6.80
   1  -1 -10   17.40    3.50
   1  -1 -10   16.00    6.00
  -1   1  10    8.60    6.90
  -1   1  10   20.40    2.40
  -1   1  10   15.70    4.50
   0  -1 -10  159.58   12.20
   0  -1 -10  176.38    7.70
   0  -1 -10  183.38    8.50
   0  -1 -10  180.38    8.30
   0  -1 -10  186.88    7.90
   0  -1 -10  175.18   12.10
   0   1  10  188.38   13.00
   0   1  10  186.18    7.10
   0   1  10  183.48    8.00
   0   1  10  177.88   11.10
  -1  -1 -10   36.70    5.10
  -1  -1 -10   46.30    5.10
  -1  -1 -10   35.20    6.30
   1   1  10   36.90    6.00
   1   1  10   52.29    5.60
   1   1  10   62.19    8.30
  -2  -1 -10  363.96   17.00
  -2  -1 -10  407.36   14.40
  -2  -1 -10  365.86   13.70
  -2  -1 -10  393.46   15.70
  -2  -1 -10  387.96   14.80
   2   1  10  404.66   14.00
   2   1  10  426.86   18.10
   2   1  10  396.66   14.60
   2   1  10  362.36   16.50
  -3  -1 -10  432.06   21.40
  -3  -1 -10  403.56   17.30
  -3  -1 -10  419.86   15.60
  -3  -1 -10  392.16   15.90
  -3  -1 -10  403.06   17.90
   3   1  10  421.16   15.70
   3   1  10  385.06   17.30
   3   1  10  421.76   18.50
   3   1  10  424.16   15.90
  -4  -1 -10  311.97   14.90
  -4  -1 -10  357.96   16.80
  -4  -1 -10  339.87   14.80
  -4  -1 -10  340.17   14.70
   4   1  10  324.77    9.70
   4   1  10  327.37   16.70
   4   1  10  285.97   15.00
   4   1  10  312.17   14.30
   4   1  10  360.76   15.20
   4   1  10  344.37   10.10
  -5  -1 -10   63.39    8.30
  -5  -1 -10   72.99   10.00
  -5  -1 -10   83.49    8.60
  -5  -1 -10   69.19    8.00
   5   1  10   94.59   10.40
   5   1  10   65.29    8.30
   5   1  10   68.69    5.70
   5   1  10   81.99    6.50
   5   1  10   58.49    7.70
   5   1  10   82.39   10.00
  -6  -1 -10  -10.90    5.50
  -6  -1 -10   -4.40    6.90
  -6  -1 -10   -8.40    8.00
  -6  -1 -10   15.20    6.70
   6   1  10    7.90    7.50
   6   1  10    4.00    6.10
   6   1  10    3.10    4.00
   6   1  10   -7.60    7.10
  -7  -1 -10   37.50    5.30
  -7  -1 -10   43.10   10.40
  -7  -1 -10   36.30    8.50
  -7  -1 -10   32.30   12.40
   7   1  10   26.30    9.30
   7   1  10   37.40    9.50
   7   1  10   37.00    7.40
   7   1  10   38.60    6.10
   3  -2 -10    7.30    3.90
   3  -2 -10   13.00    3.70
  -3   2  10    6.40    4.10
   2  -2 -10    3.20    7.70
   2  -2 -10    2.00    3.10
   2  -2 -10    4.90    3.20
  -2   2  10    0.70    2.60
  -2   2  10    5.10    3.20
  -2   2  10    6.10    3.80
  -2   2  10    3.40    6.70
   1  -2 -10   29.40    6.80
   1  -2 -10   41.00    4.40
   1  -2 -10   38.80    4.20
   1  -2 -10   32.40    7.20
   1  -2 -10   37.70    3.90
   1  -2 -10   35.90    4.20
  -1   2  10   32.90    5.60
  -1   2  10   47.30    4.40
  -1   2  10   33.60    4.30
  -1   2  10   39.60    7.40
   0  -2 -10   -1.20    4.10
   0  -2 -10    0.00    5.10
   0  -2 -10   -1.10    3.60
   0  -2 -10    3.70    2.90
   0  -2 -10    4.30    3.20
   0   2  10    0.70    2.40
   0   2  10   -1.40    3.30
   0   2  10    8.60    5.80
  -1  -2 -10  219.58   12.60
  -1  -2 -10  223.48   10.80
  -1  -2 -10  235.28   10.00
  -1  -2 -10  215.38   10.10
  -1  -2 -10  216.18   11.50
   1   2  10  226.58    9.30
   1   2  10  208.68   11.90
   1   2  10  234.88   13.80
   1   2  10  251.67   11.00
  -2  -2 -10   16.80    5.20
  -2  -2 -10   14.20    4.20
  -2  -2 -10   13.50    4.40
  -2  -2 -10   11.50    4.00
  -2  -2 -10   24.70    5.60
   2   2  10    6.00    4.60
   2   2  10    8.00    4.40
   2   2  10   11.20    3.70
   2   2  10    9.90    5.60
  -3  -2 -10  103.59    9.90
  -3  -2 -10   75.09    7.30
  -3  -2 -10   78.29    7.60
  -3  -2 -10   68.29    8.10
  -3  -2 -10   79.29    9.70
   3   2  10   69.69    8.30
   3   2  10   82.69    7.70
   3   2  10   70.69    8.10
   3   2  10   81.89    8.70
  -4  -2 -10  134.39    9.90
  -4  -2 -10  130.09   10.00
  -4  -2 -10  123.39    9.60
  -4  -2 -10  132.29   11.40
  -4  -2 -10  132.49   10.90
   4   2  10  146.89   10.80
   4   2  10  132.79    5.70
   4   2  10  131.79    6.50
   4   2  10  128.89   11.80
   4   2  10  140.79   10.20
   4   2  10  128.49    9.60
  -5  -2 -10   48.60    7.30
  -5  -2 -10   67.79    7.90
  -5  -2 -10   49.80    6.80
  -5  -2 -10   76.79    9.70
   5   2  10   56.59    6.70
   5   2  10   45.90    7.50
   5   2  10   46.20    7.60
   5   2  10   44.10    6.70
   5   2  10   49.80    5.30
   5   2  10   47.80    7.10
  -6  -2 -10   51.29    8.00
  -6  -2 -10   32.50    7.70
  -6  -2 -10   36.10    6.70
  -6  -2 -10   49.40    9.20
   6   2  10   64.29    9.20
   6   2  10   51.69    9.10
   6   2  10   29.50    7.80
   6   2  10   43.90    5.10
  -7  -2 -10    3.40    9.90
  -7  -2 -10   18.30    8.10
  -7  -2 -10   20.00    8.30
   7   2  10   17.30    6.70
   7   2  10   34.60    9.70
   7   2  10    0.80    7.60
   7   2  10   20.40    5.10
   3  -3 -10    3.70    4.00
   3  -3 -10    0.10    3.90
   3  -3 -10   -0.50    4.30
  -3   3  10    6.50    6.90
  -3   3  10   -2.20    4.00
  -3   3  10    5.90    4.00
   2  -3 -10   -1.60    4.60
   2  -3 -10   -3.50    3.50
   2  -3 -10    0.30    3.90
   2  -3 -10   -1.50    5.00
  -2   3  10   -7.00    6.20
  -2   3  10   -5.30    3.00
  -2   3  10    5.70    4.00
   1  -3 -10   50.29    6.00
   1  -3 -10   45.70    5.20
   1  -3 -10   37.20    6.60
   1  -3 -10   39.60    5.10
   1  -3 -10   42.70    6.40
  -1   3  10   38.60    5.10
  -1   3  10   45.00    7.70
  -1   3  10   37.60    6.40
   0  -3 -10    8.50    3.60
   0  -3 -10    6.70    3.80
   0  -3 -10    6.20    3.30
   0  -3 -10    0.40    4.20
   0  -3 -10   11.30    5.10
   0   3  10    7.00    4.50
   0   3  10    3.70    2.80
   0   3  10   10.30    6.60
   0   3  10    9.80    4.00
  -1  -3 -10   -0.10    3.70
  -1  -3 -10    4.90    4.20
  -1  -3 -10   -3.50    3.20
  -1  -3 -10   -4.90    4.40
  -1  -3 -10    1.30    3.50
   1   3  10    2.30    3.90
   1   3  10    2.40    4.10
   1   3  10    6.00    5.80
   1   3  10   -4.10    2.80
  -2  -3 -10   50.09    5.70
  -2  -3 -10   53.09    7.40
  -2  -3 -10   56.19    6.70
  -2  -3 -10   41.20    5.60
  -2  -3 -10   55.99    6.90
   2   3  10   48.10    6.20
   2   3  10   47.20    6.10
   2   3  10   54.09    7.80
   2   3  10   49.20    6.60
  -3  -3 -10  119.69    9.00
  -3  -3 -10  132.69   10.60
  -3  -3 -10  104.69   10.40
  -3  -3 -10  123.29    8.50
  -3  -3 -10  118.19    8.80
   3   3  10  129.79    5.60
   3   3  10  120.89    8.60
   3   3  10  125.59    4.90
   3   3  10  137.99   11.70
   3   3  10  136.09    9.70
   3   3  10  129.89    9.60
  -4  -3 -10  389.06   15.20
  -4  -3 -10  378.66   16.90
  -4  -3 -10  360.86   15.60
  -4  -3 -10  372.66   15.40
  -4  -3 -10  380.06   16.80
   4   3  10  365.16   14.80
   4   3  10  356.96   15.70
   4   3  10  388.46   12.70
   4   3  10  390.16   17.70
   4   3  10  400.56   16.20
   4   3  10  377.66   11.60
  -5  -3 -10   36.20    7.50
  -5  -3 -10   26.00    5.80
  -5  -3 -10   22.10    5.60
  -5  -3 -10   14.30    6.20
  -5  -3 -10   33.70    6.30
   5   3  10   34.70    6.10
   5   3  10   17.20    4.60
   5   3  10   36.10    7.60
   5   3  10   29.20    4.10
   5   3  10   28.40    4.80
   5   3  10   31.90    6.90
  -6  -3 -10   17.50    6.80
  -6  -3 -10    5.70    5.10
  -6  -3 -10   -2.90    6.90
  -6  -3 -10   -2.90    5.20
   6   3  10    6.30    6.00
   6   3  10    4.20    4.90
   6   3  10   13.50    3.80
   6   3  10   -0.20    6.30
   6   3  10    5.70    7.00
  -7  -3 -10   12.70    7.30
  -7  -3 -10    4.90    7.40
  -7  -3 -10  -11.40    8.50
  -7  -3 -10   14.80   10.10
   7   3  10   16.20    9.10
   7   3  10   10.60    8.40
   7   3  10   -2.40    4.00
   7   3  10    9.40    6.10
  -8  -3 -10   46.90   10.30
  -8  -3 -10   83.69   19.60
  -8  -3 -10   59.29   10.60
   8   3  10   54.69    9.40
   8   3  10   48.30    7.00
   8   3  10   54.39   11.80
   8   3  10   31.20    9.70
   3  -4 -10   58.29    6.90
   3  -4 -10   52.89    6.80
   3  -4 -10   60.09    6.70
  -3   4  10   65.99    8.80
  -3   4  10   65.59    8.10
  -3   4  10   68.49    7.90
   2  -4 -10    0.50    5.80
   2  -4 -10    5.70    4.70
   2  -4 -10    1.00    4.10
   2  -4 -10    3.30    4.10
  -2   4  10   -0.30    3.50
  -2   4  10   -1.60    5.20
  -2   4  10    2.00    6.50
  -2   4  10   -2.10    3.20
   1  -4 -10   17.70    6.00
   1  -4 -10   24.90    5.40
   1  -4 -10   32.90    6.20
   1  -4 -10   30.20    4.50
   1  -4 -10   25.50    4.60
  -1   4  10   42.20    6.30
  -1   4  10   38.90    7.40
  -1   4  10   23.30    5.50
  -1   4  10   27.80    4.20
   0  -4 -10   10.20    4.60
   0  -4 -10   17.40    5.20
   0  -4 -10    6.10    5.10
   0  -4 -10   11.30    3.70
   0  -4 -10    9.50    3.90
   0   4  10    9.80    4.60
   0   4  10    9.90    4.00
   0   4  10    8.40    6.50
   0   4  10    3.60    3.20
  -1  -4 -10   30.00    4.80
  -1  -4 -10   37.20    5.70
  -1  -4 -10   30.80    6.60
  -1  -4 -10   30.40    4.70
  -1  -4 -10   27.30    5.30
   1   4  10   29.50    5.70
   1   4  10   30.30    6.70
   1   4  10   36.10    4.50
   1   4  10   37.70    5.90
  -2  -4 -10  156.78   11.20
  -2  -4 -10  160.08    9.10
  -2  -4 -10  144.79    9.20
  -2  -4 -10  160.38   10.90
  -2  -4 -10  159.58   10.10
   2   4  10  163.38   10.70
   2   4  10  173.18   12.10
   2   4  10  163.08    5.90
   2   4  10  156.38    8.60
  -3  -4 -10   28.10    6.00
  -3  -4 -10   33.30    5.50
  -3  -4 -10   42.30    6.10
  -3  -4 -10   44.90    5.50
  -3  -4 -10   35.70    6.50
   3   4  10   34.20    4.10
   3   4  10   37.00    6.30
   3   4  10   33.30    5.10
   3   4  10   33.30    7.10
   3   4  10   30.10    3.60
  -4  -4 -10    1.70    4.40
  -4  -4 -10    6.30    5.20
  -4  -4 -10    1.50    4.10
  -4  -4 -10    8.50    5.10
  -4  -4 -10   -8.90    4.60
   4   4  10    0.10    5.00
   4   4  10    4.20    4.00
   4   4  10    1.50    3.50
   4   4  10    1.30    6.20
   4   4  10   -0.10    3.80
   4   4  10    5.10    2.70
  -5  -4 -10    6.20    5.50
  -5  -4 -10   15.90    5.10
  -5  -4 -10   13.50    5.10
  -5  -4 -10    4.20    5.50
  -5  -4 -10    7.30    6.20
   5   4  10   -1.10    6.40
   5   4  10    1.30    3.80
   5   4  10    9.10    3.10
   5   4  10    2.50    5.70
   5   4  10   -3.00    4.30
   5   4  10    4.10    4.40
  -6  -4 -10   -6.80    5.90
  -6  -4 -10    7.40    5.60
  -6  -4 -10    6.30    4.80
  -6  -4 -10    8.30    5.60
  -6  -4 -10   14.20    7.40
   6   4  10    5.60    5.20
   6   4  10    9.00   12.10
   6   4  10    4.90    3.40
   6   4  10    6.30    5.60
   6   4  10    2.40    6.50
   6   4  10    4.60    3.90
  -7  -4 -10    4.40    6.30
  -7  -4 -10   -1.90    7.00
  -7  -4 -10   -4.00    8.70
  -7  -4 -10    0.80    6.50
   7   4  10   -4.60    7.60
   7   4  10   11.90    6.70
   7   4  10    2.10    3.60
   7   4  10    1.30    7.90
  -8  -4 -10   25.80    9.00
  -8  -4 -10   34.20   12.20
  -8  -4 -10   41.30    9.30
   8   4  10   26.70    9.30
   8   4  10   24.40    5.90
   8   4  10   21.20   10.50
   8   4  10   29.60    8.40
   2  -5 -10   75.19    8.90
   2  -5 -10   72.09    7.20
   2  -5 -10   56.79    7.10
  -2   5  10   64.69    7.40
  -2   5  10   55.29    6.20
  -2   5  10   42.90    8.60
  -2   5  10   80.89   12.00
   1  -5 -10    4.00    4.30
   1  -5 -10    7.40    5.30
   1  -5 -10   -1.50    6.20
   1  -5 -10    4.10    4.20
  -1   5  10    3.50    6.30
  -1   5  10   15.40    6.10
  -1   5  10   10.50    3.80
  -1   5  10    9.60    4.20
   0  -5 -10   10.10    5.80
   0  -5 -10    7.90    4.80
   0  -5 -10    1.30    5.50
   0  -5 -10    4.00    3.90
   0  -5 -10    0.10    3.70
   0   5  10   13.20    6.50
   0   5  10    1.20    3.00
   0   5  10    2.40    5.40
   0   5  10    5.50    3.70
  -1  -5 -10    2.20    4.50
  -1  -5 -10   -2.40    3.70
  -1  -5 -10    7.70    4.60
  -1  -5 -10    7.60    3.80
  -1  -5 -10   12.00    5.90
   1   5  10   11.20    5.90
   1   5  10    4.10    4.10
   1   5  10    4.20    5.20
   1   5  10    2.10    3.10
   1   5  10   11.40    2.30
  -2  -5 -10   37.00    5.10
  -2  -5 -10   24.80    5.90
  -2  -5 -10   27.70    6.00
  -2  -5 -10   28.40    4.80
  -2  -5 -10   44.40    6.50
   2   5  10   41.80    5.10
   2   5  10   38.90    7.60
   2   5  10   35.60    6.00
   2   5  10   30.90    3.90
   2   5  10   33.80    4.00
   2   5  10   31.40    6.50
  -3  -5 -10    2.00    4.60
  -3  -5 -10    1.80    3.70
  -3  -5 -10    6.70    4.80
  -3  -5 -10    5.70    5.10
   3   5  10   -0.10    5.30
   3   5  10    5.20    2.40
   3   5  10    5.40    3.50
   3   5  10    2.10    3.80
   3   5  10   15.20    5.60
   3   5  10    3.70    3.60
  -4  -5 -10   78.99    9.70
  -4  -5 -10   64.59    8.10
  -4  -5 -10   77.39    7.90
  -4  -5 -10   68.09    9.00
  -4  -5 -10   51.09    6.80
   4   5  10   72.99    5.70
   4   5  10   62.39    8.10
   4   5  10   62.89    6.30
   4   5  10   51.99    7.90
   4   5  10   57.99    7.60
   4   5  10   58.79    6.60
  -5  -5 -10   24.90    7.60
  -5  -5 -10   22.80    6.80
  -5  -5 -10   30.30    5.60
  -5  -5 -10   25.60    6.00
  -5  -5 -10   27.10    5.50
   5   5  10   29.10    5.70
   5   5  10   24.70    6.30
   5   5  10   26.80    6.80
   5   5  10   28.60    4.10
   5   5  10   22.80    6.80
  -6  -5 -10   25.80    6.30
  -6  -5 -10   10.40    6.80
  -6  -5 -10    5.70    4.80
  -6  -5 -10   16.90    7.30
  -6  -5 -10   22.90    6.30
   6   5  10   15.00    6.10
   6   5  10    0.40    5.10
   6   5  10   15.50    4.40
   6   5  10    9.40    6.20
   6   5  10    9.70    7.60
   6   5  10   10.30    4.30
  -7  -5 -10    6.00    8.40
  -7  -5 -10   -9.20    6.00
  -7  -5 -10  -10.80    5.60
  -7  -5 -10    0.70    7.30
  -7  -5 -10    4.00    6.20
   7   5  10   18.30    7.50
   7   5  10   -4.90    6.50
   7   5  10    1.30    3.80
   7   5  10    2.50    7.80
  -8  -5 -10   -5.40    7.10
  -8  -5 -10   -1.60   11.30
  -8  -5 -10    4.10    7.50
   8   5  10   12.00    8.90
   8   5  10   -2.10    4.80
   8   5  10   -6.90   10.10
   8   5  10   13.40    8.30
   1  -6 -10   11.10    6.00
   1  -6 -10   27.90    5.60
   1  -6 -10   23.60    5.40
   1  -6 -10   17.90    8.50
  -1   6  10   18.30    5.00
  -1   6  10   24.50    8.00
  -1   6  10   17.70    7.10
  -1   6  10   20.40    6.00
  -1   6  10   18.70    8.20
   0  -6 -10   17.60    6.40
   0  -6 -10   30.60    5.60
   0  -6 -10   34.40    5.60
   0  -6 -10   24.30    6.40
   0  -6 -10   31.80    8.10
   0   6  10   39.50    5.30
   0   6  10   28.30    7.10
   0   6  10   38.00    4.30
   0   6  10   33.60    7.60
   0   6  10   34.90    3.70
  -1  -6 -10   55.39    7.10
  -1  -6 -10   53.39    8.80
  -1  -6 -10   67.29    7.50
  -1  -6 -10   66.49    8.00
  -1  -6 -10   71.49    7.90
   1   6  10   50.09    5.20
   1   6  10   77.29    9.70
   1   6  10   57.89    6.00
   1   6  10   53.99    8.30
   1   6  10   53.39    6.40
   1   6  10   53.49    7.00
  -2  -6 -10   -2.40    4.00
  -2  -6 -10    6.60    6.20
  -2  -6 -10    4.30    3.80
  -2  -6 -10    6.80    5.30
  -2  -6 -10    4.10    4.60
   2   6  10   -2.00    3.50
   2   6  10   -5.60    5.50
   2   6  10    8.40    5.60
   2   6  10    2.20    3.50
   2   6  10    5.00    3.90
   2   6  10    3.70    3.00
  -3  -6 -10   49.00    7.00
  -3  -6 -10   42.20    6.20
  -3  -6 -10   44.80    6.10
  -3  -6 -10   57.49    7.60
  -3  -6 -10   58.89    8.30
   3   6  10   50.09    5.90
   3   6  10   49.30    7.90
   3   6  10   44.40    7.50
   3   6  10   54.49    7.10
   3   6  10   62.49    7.40
   3   6  10   58.19    5.50
  -4  -6 -10   55.59   14.50
  -4  -6 -10   41.10    7.80
  -4  -6 -10   54.99    6.60
  -4  -6 -10   55.49    7.20
  -4  -6 -10   38.20    5.70
   4   6  10   53.49    6.90
   4   6  10   42.90    7.60
   4   6  10   40.50    7.90
   4   6  10   56.19    6.80
   4   6  10   54.79    5.80
   4   6  10   59.09    6.70
  -5  -6 -10   10.60    6.30
  -5  -6 -10    8.00    4.80
  -5  -6 -10   12.80    5.00
  -5  -6 -10   11.50    5.70
   5   6  10   13.80    5.00
   5   6  10   10.90    4.70
   5   6  10   12.90    6.40
   5   6  10   12.40    3.70
   5   6  10    5.10    5.10
  -6  -6 -10   34.90    6.20
  -6  -6 -10   46.50    7.10
  -6  -6 -10   38.80    8.10
  -6  -6 -10   53.29    9.40
  -6  -6 -10   40.90    6.60
   6   6  10   38.00    7.80
   6   6  10   47.80    6.70
   6   6  10   52.39    8.20
   6   6  10   43.90    7.50
   6   6  10   57.59    6.70
   6   6  10   50.99   10.10
  -7  -6 -10   22.80    6.90
  -7  -6 -10   36.70    7.10
  -7  -6 -10   10.00    7.70
  -7  -6 -10    9.00    8.50
   7   6  10   16.50    7.40
   7   6  10   23.20    5.00
   7   6  10   18.20    8.20
   7   6  10   18.70    9.60
  -8  -6 -10   46.20   10.20
  -8  -6 -10   38.10   12.90
  -8  -6 -10   45.00    9.50
  -8  -6 -10   41.70    8.10
   8   6  10   49.99   10.60
   8   6  10   25.10    8.80
   8   6  10   24.40    9.30
   1  -7 -10    1.90    6.80
   1  -7 -10   -6.10    5.20
   1  -7 -10   11.10    6.00
  -1   7  10    2.00    4.00
  -1   7  10   16.80    9.10
  -1   7  10  -20.40    7.70
  -1   7  10   15.20    7.70
   0  -7 -10    5.30    5.20
   0  -7 -10   10.90    5.90
   0  -7 -10    0.60    8.60
   0  -7 -10   -2.30    4.60
   0   7  10   -2.40    4.40
   0   7  10    0.50    4.10
   0   7  10    6.70    7.20
   0   7  10   -2.10    4.00
   0   7  10   -4.50    7.00
  -1  -7 -10   -3.70    7.70
  -1  -7 -10    3.50    4.60
  -1  -7 -10    3.00    4.90
  -1  -7 -10    0.80    5.80
  -1  -7 -10    5.20    4.40
   1   7  10    7.10    6.30
   1   7  10    2.30    4.00
   1   7  10   -0.80    4.30
   1   7  10   -3.40    3.80
   1   7  10    1.90    3.70
   1   7  10   16.30    6.90
  -2  -7 -10   24.20    4.70
  -2  -7 -10   28.80    5.60
  -2  -7 -10   36.40    7.10
  -2  -7 -10   46.80    8.80
  -2  -7 -10   27.30    6.00
   2   7  10   27.80    5.50
   2   7  10   30.90    5.20
   2   7  10   22.90    5.30
   2   7  10   39.50    8.10
   2   7  10   39.60    7.80
   2   7  10   33.90    4.70
  -3  -7 -10   -1.40    6.70
  -3  -7 -10    4.30    5.10
  -3  -7 -10    0.60    5.00
  -3  -7 -10    2.20    4.30
  -3  -7 -10   10.40    6.00
   3   7  10    7.60    6.30
   3   7  10    5.50    3.90
   3   7  10    1.00    4.30
   3   7  10    8.00    6.60
   3   7  10    5.10    3.60
  -4  -7 -10   82.09    8.90
  -4  -7 -10   84.89   11.30
  -4  -7 -10   92.19   10.00
  -4  -7 -10  104.19   12.30
  -4  -7 -10   96.09    9.60
   4   7  10   72.59   11.80
   4   7  10   95.49   11.20
   4   7  10   78.49    7.10
   4   7  10   98.79    8.50
   4   7  10   83.89    7.70
   4   7  10   80.19    9.80
  -5  -7 -10    6.70    4.90
  -5  -7 -10   -1.40    4.80
  -5  -7 -10   -6.50    6.90
  -5  -7 -10    2.60    5.10
  -5  -7 -10   -4.60    6.70
   5   7  10   -0.70    3.30
   5   7  10    3.00    5.80
   5   7  10   -4.80    7.40
   5   7  10    0.20    4.20
   5   7  10    1.60    5.00
   5   7  10    3.70    6.60
  -6  -7 -10   19.90    6.70
  -6  -7 -10   33.30    7.50
  -6  -7 -10   30.50    6.00
  -6  -7 -10   24.30    8.10
  -6  -7 -10   20.50    8.50
   6   7  10   39.80   10.90
   6   7  10   20.60    4.20
   6   7  10   29.00    9.90
   6   7  10   29.20    5.90
   6   7  10   25.50    7.50
   6   7  10   34.30    7.60
  -7  -7 -10  -14.10    7.00
  -7  -7 -10   -7.20    7.10
  -7  -7 -10   10.20    6.00
  -7  -7 -10   -1.40    9.80
   7   7  10    0.10    7.10
   7   7  10   -6.40    7.70
   7   7  10    3.60    4.40
   7   7  10   11.30    9.10
   7   7  10    0.20    4.50
  -8  -7 -10   -3.60    8.90
  -8  -7 -10   12.00   11.60
  -8  -7 -10    0.70    6.30
  -8  -7 -10   -6.50    8.50
   8   7  10    6.20    9.80
   8   7  10  -13.60    8.40
   8   7  10   -4.10   10.20
   0  -8 -10   60.29   12.90
   0  -8 -10   46.90    9.60
   0  -8 -10   65.39    8.60
   0   8  10   65.39    7.60
   0   8  10   68.89   11.90
   0   8  10   51.99    9.50
   0   8  10   74.49    7.80
   0   8  10   83.09    9.40
   0   8  10   80.39   13.40
  -1  -8 -10   10.00    9.70
  -1  -8 -10    9.90    5.90
  -1  -8 -10   -5.50    5.70
  -1  -8 -10   -1.90    6.60
  -1  -8 -10    1.20    7.00
   1   8  10    3.60    4.10
   1   8  10   -3.10    7.00
   1   8  10    6.50    4.80
   1   8  10   -3.70    8.40
   1   8  10   -5.00    5.50
  -2  -8 -10   30.40    6.60
  -2  -8 -10   26.20    6.20
  -2  -8 -10   33.80    9.80
  -2  -8 -10   31.30    6.10
  -2  -8 -10   15.50    7.30
   2   8  10   18.50    8.00
   2   8  10   31.50    6.50
   2   8  10   32.70    5.10
   2   8  10   10.50    8.10
   2   8  10   31.30    5.10
  -3  -8 -10    3.20    7.10
  -3  -8 -10   -2.90    5.20
  -3  -8 -10    3.90    5.40
  -3  -8 -10   11.90    5.10
  -3  -8 -10    9.20    7.90
   3   8  10   -0.90    3.70
   3   8  10    1.60    6.70
   3   8  10   -6.50    5.50
   3   8  10   13.90    8.00
   3   8  10    3.30    3.80
  -4  -8 -10    6.90    7.00
  -4  -8 -10    5.10    5.80
  -4  -8 -10    9.00    6.10
  -4  -8 -10    2.10    4.90
  -4  -8 -10   -4.50    7.60
   4   8  10    8.00    6.10
   4   8  10    5.20    3.90
   4   8  10    7.00    6.50
   4   8  10    8.20    4.20
   4   8  10   -4.30    8.20
  -5  -8 -10   47.20    6.80
  -5  -8 -10   43.30    7.00
  -5  -8 -10   35.40    8.70
  -5  -8 -10   35.60    9.50
   5   8  10   38.30    5.60
   5   8  10   34.10    9.70
   5   8  10   38.40    8.10
   5   8  10   21.60    7.30
   5   8  10   26.90    4.80
  -6  -8 -10    2.20    9.70
  -6  -8 -10    2.20    5.30
  -6  -8 -10  -12.00    7.90
  -6  -8 -10    2.30    6.60
   6   8  10   -4.40    8.00
   6   8  10   -1.10    4.30
   6   8  10  -10.20    9.10
   6   8  10    0.60    7.10
   6   8  10    4.60    4.40
  -7  -8 -10   95.59   10.40
  -7  -8 -10  112.69   14.70
  -7  -8 -10   95.49   14.40
  -7  -8 -10   98.49   11.50
   7   8  10   87.09   13.10
   7   8  10   97.39   11.60
   7   8  10   79.59   11.60
   7   8  10   75.59    9.20
  -2  -9 -10    1.20   10.30
  -2  -9 -10    8.90    6.80
  -2  -9 -10  -11.40    8.90
   2   9  10  -14.00    8.10
   2   9  10    2.30    6.60
   2   9  10    8.90    9.80
   2   9  10    4.10    4.00
   2   9  10    1.40    4.50
  -3  -9 -10    4.10   10.60
  -3  -9 -10    9.30    8.90
  -3  -9 -10    9.20    5.40
  -3  -9 -10    0.10    6.80
   3   9  10   11.80    4.10
   3   9  10   21.90    8.30
   3   9  10   18.70    9.10
   3   9  10    3.70    4.40
   3   9  10    5.10    6.60
  -4  -9 -10   85.69    9.90
  -4  -9 -10  103.19   13.50
  -4  -9 -10   85.89    9.80
  -4  -9 -10   82.79   11.90
   4   9  10   80.69    7.20
   4   9  10   69.59   12.30
   4   9  10   70.69    8.30
   4   9  10   98.89   11.10
  -5  -9 -10    2.70    8.40
  -5  -9 -10    5.60    9.20
  -5  -9 -10    9.00    5.20
  -5  -9 -10  -13.10    8.00
   5   9  10    8.30    7.70
   5   9  10   -1.30    5.00
   5   9  10    2.60    4.20
   5   9  10   17.30   10.50
  -6  -9 -10    8.20    5.60
  -6  -9 -10   -2.00   10.40
  -6  -9 -10   -0.20    7.10
  -6  -9 -10    2.80    9.40
   6   9  10    8.90    5.10
   6   9  10   -3.90    8.70
   6   9  10    8.20   10.30
  -1   1 -11   -0.90    6.10
  -1   1 -11    3.60    5.50
  -1   1 -11    6.00    5.40
   1  -1  11   -0.10    4.60
   1  -1  11    3.70    4.00
  -2   1 -11  167.78   12.50
  -2   1 -11  181.88   13.80
  -2   1 -11  193.38   12.10
  -2   1 -11  180.68   12.80
   2  -1  11  168.48   10.50
   2  -1  11  188.48   13.00
  -3   1 -11   65.09    8.80
   3  -1  11   52.29    9.30
   1   0 -11   16.40    7.20
   1   0 -11   17.60    4.20
  -1   0  11   14.10    4.90
   0   0 -11   60.19    7.50
   0   0 -11   45.00    7.70
   0   0 -11   42.70    5.90
   0   0  11   43.20    3.90
   0   0  11   35.70    6.70
   0   0  11   61.29   10.60
  -1   0 -11    3.70    5.00
  -1   0 -11   -2.30    3.60
  -1   0 -11    9.10    6.60
   1   0  11   -1.10    4.00
   1   0  11   -1.10    3.60
   1   0  11   15.70    8.80
  -2   0 -11    1.60    5.60
  -2   0 -11   14.80    6.20
  -2   0 -11   10.90    5.90
  -2   0 -11   15.10    6.50
   2   0  11   11.20    4.30
   2   0  11   13.40    9.10
   2   0  11    2.50    4.80
  -3   0 -11    3.00    6.10
  -3   0 -11  -12.40    5.20
  -3   0 -11    2.70    6.10
  -3   0 -11    5.20    7.70
   3   0  11    0.10    5.30
   3   0  11   -0.50    4.70
   3   0  11   12.60    8.90
  -4   0 -11  149.39   12.50
  -4   0 -11  136.39   13.40
  -4   0 -11  191.08   15.80
   4   0  11  123.59   11.30
   4   0  11  139.09   16.60
   1  -1 -11   30.30    4.70
   1  -1 -11   36.20    8.90
  -1   1  11   23.70    5.60
  -1   1  11   19.70    8.70
   0  -1 -11   32.30    7.10
   0  -1 -11   37.50    5.10
   0  -1 -11   32.50    5.80
   0   1  11   33.40    8.90
   0   1  11   31.80    3.50
   0   1  11   29.30    6.40
   0   1  11   23.20    5.40
  -1  -1 -11   39.70    5.90
  -1  -1 -11   34.20    5.80
  -1  -1 -11   26.20    5.30
  -1  -1 -11   37.30    7.20
   1   1  11   25.70    5.80
   1   1  11   35.80    4.50
   1   1  11   42.20    9.10
  -2  -1 -11   82.59    9.10
  -2  -1 -11   57.79    7.70
  -2  -1 -11   70.09    8.10
  -2  -1 -11   77.79    9.20
   2   1  11  106.69   12.80
   2   1  11   67.59    7.30
   2   1  11   81.49    8.20
   2   1  11   73.79    8.80
  -3  -1 -11   16.50    6.10
  -3  -1 -11   16.70    6.90
  -3  -1 -11   15.10    5.90
  -3  -1 -11   17.20    4.90
   3   1  11   10.50    8.50
   3   1  11   14.50    5.70
   3   1  11   12.60    5.10
   3   1  11   17.00    5.70
  -4  -1 -11  297.37   16.80
  -4  -1 -11  308.17   14.60
  -4  -1 -11  279.77   14.80
  -4  -1 -11  274.17   14.50
   4   1  11  280.17   15.10
   4   1  11  281.07   15.10
   4   1  11  262.17   18.20
   4   1  11  256.27   14.90
  -5  -1 -11   52.99    8.50
  -5  -1 -11   58.09    9.80
  -5  -1 -11   52.79    8.40
  -5  -1 -11   69.49   11.40
   5   1  11   45.60    7.40
   5   1  11   60.69   10.70
   5   1  11   55.49    9.10
   1  -2 -11   18.80    5.50
   1  -2 -11   18.30    4.50
  -1   2  11   19.20    3.20
  -1   2  11   17.80    8.60
  -1   2  11   14.80    5.10
   0  -2 -11    1.80    4.20
   0  -2 -11    9.10    4.80
   0   2  11    0.50    7.10
   0   2  11   -1.20    2.90
   0   2  11    2.30    3.70
   0   2  11    3.30    4.20
  -1  -2 -11   22.40    4.80
  -1  -2 -11   14.80    5.50
  -1  -2 -11   22.40    5.00
   1   2  11   22.90    8.00
   1   2  11   23.60    5.90
   1   2  11   19.90    5.10
   1   2  11   11.90    3.90
  -2  -2 -11   14.00    5.00
  -2  -2 -11   17.80    5.10
  -2  -2 -11   18.10    5.80
  -2  -2 -11   15.70    4.80
  -2  -2 -11   15.80    8.80
   2   2  11   16.90    4.10
   2   2  11    6.80    7.10
   2   2  11   10.30    4.40
   2   2  11   14.20    5.50
  -3  -2 -11   10.40    6.30
  -3  -2 -11    6.50    6.80
  -3  -2 -11   10.20    5.50
  -3  -2 -11    7.90    5.30
   3   2  11   16.50    5.10
   3   2  11    5.40    5.80
   3   2  11   30.40    8.40
   3   2  11   13.10    5.00
  -4  -2 -11   68.49    8.00
  -4  -2 -11   60.49    7.80
  -4  -2 -11   51.19   13.10
  -4  -2 -11   54.59    7.50
  -4  -2 -11   54.39    9.00
   4   2  11   76.89   10.20
   4   2  11   82.99    9.20
   4   2  11   51.89    7.80
   4   2  11   73.49    9.50
  -5  -2 -11    8.10    6.10
  -5  -2 -11   -1.20    6.50
  -5  -2 -11   10.00    8.20
  -5  -2 -11   13.60    6.80
   5   2  11    6.30    4.90
   5   2  11    5.90    3.70
   5   2  11    9.20    3.20
   5   2  11    9.40    7.20
   5   2  11   16.40    9.00
  -6  -2 -11   82.09   10.00
  -6  -2 -11  109.29   13.40
  -6  -2 -11   68.09   12.20
   6   2  11   79.59    7.80
   6   2  11   82.99    8.90
   6   2  11   61.29   11.50
   6   2  11   77.89    8.90
   1  -3 -11   22.90    5.00
   1  -3 -11   32.40    5.30
   1  -3 -11   20.40    4.80
  -1   3  11   26.60    8.40
  -1   3  11   20.00    5.70
  -1   3  11   19.30    3.90
   0  -3 -11   65.69    7.90
   0  -3 -11   54.99    7.80
   0  -3 -11   66.09    6.40
   0  -3 -11   62.59    6.70
   0   3  11   51.49    6.20
   0   3  11   65.39    9.80
   0   3  11   54.99    7.50
   0   3  11   61.49    6.00
  -1  -3 -11   32.70    6.20
  -1  -3 -11   36.10   11.20
  -1  -3 -11   21.40    5.60
  -1  -3 -11   17.70    5.10
   1   3  11   28.10    5.70
   1   3  11   19.80    4.00
   1   3  11   16.90    7.10
   1   3  11   29.10    5.90
  -2  -3 -11   68.59    7.00
  -2  -3 -11   82.49    8.50
  -2  -3 -11   76.19    8.30
  -2  -3 -11   81.39   10.10
  -2  -3 -11   80.99    9.90
   2   3  11   65.29    8.10
   2   3  11   63.49    6.70
   2   3  11   58.99    9.10
   2   3  11   70.29    9.20
  -3  -3 -11    7.90    5.00
  -3  -3 -11   -7.70    6.50
  -3  -3 -11   -2.40    5.20
  -3  -3 -11    9.00    4.80
  -3  -3 -11    4.90    4.60
   3   3  11   -8.10    4.10
   3   3  11    2.30    6.80
   3   3  11   -2.70    5.80
   3   3  11   -0.30    4.20
  -4  -3 -11   69.39    8.20
  -4  -3 -11   68.99    9.40
  -4  -3 -11   70.19    9.20
  -4  -3 -11   78.69    8.40
  -4  -3 -11   71.79    7.90
   4   3  11   68.09    4.60
   4   3  11   67.09    7.60
   4   3  11   72.69    8.70
   4   3  11   67.99    8.40
   4   3  11   70.39    5.40
   4   3  11   80.59   11.00
  -5  -3 -11   60.39    8.60
  -5  -3 -11   48.50    8.50
  -5  -3 -11   55.69    7.70
  -5  -3 -11   73.39    8.00
  -5  -3 -11   75.29   10.80
   5   3  11   87.49   11.50
   5   3  11   44.30    7.20
   5   3  11   66.19    7.20
   5   3  11   55.39   10.10
  -6  -3 -11   29.30    8.70
  -6  -3 -11    4.80    8.00
  -6  -3 -11   25.80   10.10
  -6  -3 -11   25.00    7.80
   6   3  11   25.90    6.00
   6   3  11    4.60    9.60
   6   3  11   19.00    4.60
   6   3  11   20.10    8.40
  -7  -3 -11  113.49   12.60
  -7  -3 -11   78.79   11.10
   7   3  11  120.39   12.20
   7   3  11   75.99   12.10
   7   3  11   86.19    8.50
   1  -4 -11    0.50    4.60
   1  -4 -11    2.70    5.60
   1  -4 -11    6.30    4.90
  -1   4  11    8.00    7.80
  -1   4  11    2.90    4.00
  -1   4  11    3.00    3.80
   0  -4 -11   25.10    6.60
   0  -4 -11   28.70    6.10
   0  -4 -11   30.90    5.60
   0  -4 -11   30.80    5.30
   0   4  11   30.00    8.40
   0   4  11   31.00    4.30
   0   4  11   33.60    6.80
   0   4  11   21.90    5.50
  -1  -4 -11   15.60    6.10
  -1  -4 -11   13.50    5.80
  -1  -4 -11   12.60    4.70
  -1  -4 -11   29.70    5.40
  -1  -4 -11   23.10    9.00
   1   4  11   33.50    8.10
   1   4  11   16.10    4.10
   1   4  11   14.70    5.80
   1   4  11   21.70    5.60
  -2  -4 -11   91.19    9.90
  -2  -4 -11   83.69   10.00
  -2  -4 -11  100.09    9.20
  -2  -4 -11   94.49   10.20
   2   4  11   82.59    7.30
   2   4  11   86.79    8.60
   2   4  11   78.89   10.00
   2   4  11   83.79   10.20
  -3  -4 -11   12.80    5.00
  -3  -4 -11   19.20    5.30
  -3  -4 -11    9.70    6.40
  -3  -4 -11    7.90    6.00
  -3  -4 -11   17.30    6.00
   3   4  11   14.60    2.60
   3   4  11   20.10    5.20
   3   4  11   12.00    6.40
   3   4  11   25.30    8.10
   3   4  11    9.10    4.70
  -4  -4 -11   76.49    9.10
  -4  -4 -11   71.29    8.70
  -4  -4 -11   65.69    7.50
  -4  -4 -11   66.09    8.60
  -4  -4 -11   80.29    9.30
   4   4  11   69.99    8.50
   4   4  11   68.49    9.60
   4   4  11   78.79    8.70
   4   4  11   79.89    6.70
   4   4  11   74.09    5.40
   4   4  11   68.09    8.80
  -5  -4 -11    6.00    7.70
  -5  -4 -11    0.40    5.60
  -5  -4 -11   -3.80    5.90
  -5  -4 -11    3.90    6.40
  -5  -4 -11    9.90    5.50
   5   4  11   14.50    8.10
   5   4  11    0.90    4.30
   5   4  11   -2.60    4.20
   5   4  11    9.30    7.00
   5   4  11    1.00    3.20
   5   4  11    6.70    8.70
  -6  -4 -11    6.20    7.30
  -6  -4 -11    2.10    9.00
  -6  -4 -11   -2.50    6.10
  -6  -4 -11   11.80    7.10
  -6  -4 -11    9.50    6.90
   6   4  11    4.90    4.00
   6   4  11   -2.30    4.30
   6   4  11   -0.20    5.30
   6   4  11    2.60    8.10
   6   4  11    8.80    8.90
  -7  -4 -11  123.69   17.90
  -7  -4 -11  134.19   13.80
  -7  -4 -11   99.09   11.10
  -7  -4 -11  141.39   19.40
   7   4  11  143.89   13.30
   7   4  11  130.99   10.60
   7   4  11  119.89    9.20
   7   4  11  135.79   17.40
   7   4  11  140.09   17.10
   1  -5 -11   12.00    5.70
   1  -5 -11    8.00    6.30
   1  -5 -11    3.20    5.40
  -1   5  11   10.40    5.70
  -1   5  11   26.70    9.10
  -1   5  11   17.60    5.00
   0  -5 -11   67.79    8.00
   0  -5 -11   61.89    7.00
   0  -5 -11   76.29    7.80
   0   5  11   65.79    7.80
   0   5  11   64.99    7.70
   0   5  11   64.39   10.30
   0   5  11   66.89    8.70
  -1  -5 -11   25.30    7.00
  -1  -5 -11   28.30    7.00
  -1  -5 -11   34.10    5.80
  -1  -5 -11   31.10    5.60
   1   5  11   27.70    5.60
   1   5  11   30.60    5.00
   1   5  11   36.80    7.50
   1   5  11   37.30    9.20
  -2  -5 -11  122.09    9.70
  -2  -5 -11  123.29   10.00
  -2  -5 -11  131.99   12.40
  -2  -5 -11  116.39   11.60
  -2  -5 -11  122.59   11.20
   2   5  11  110.59   13.20
   2   5  11  109.19    9.30
   2   5  11  110.19    8.40
   2   5  11  122.69   12.30
  -3  -5 -11   63.99    8.10
  -3  -5 -11   38.10    7.50
  -3  -5 -11   53.19    8.40
  -3  -5 -11   74.69    9.10
   3   5  11   44.70    6.70
   3   5  11   48.30    6.30
   3   5  11   56.59    4.80
   3   5  11   50.09    9.20
   3   5  11   51.99    8.20
   3   5  11   54.69    6.30
  -4  -5 -11    0.60    5.50
  -4  -5 -11   22.30    6.70
  -4  -5 -11   21.40    6.90
  -4  -5 -11   18.60    5.50
  -4  -5 -11   22.40    5.60
   4   5  11    9.70    7.10
   4   5  11   10.60    5.50
   4   5  11   17.30    4.40
   4   5  11   16.20    5.30
   4   5  11   17.50    4.20
   4   5  11   12.40    7.60
  -5  -5 -11   66.49    8.70
  -5  -5 -11   60.39    9.20
  -5  -5 -11   45.90    7.30
  -5  -5 -11   65.99    9.80
  -5  -5 -11   72.99    8.30
   5   5  11   57.59    7.10
   5   5  11   55.79    9.20
   5   5  11   70.09    8.40
   5   5  11   47.10    5.20
   5   5  11   43.50   10.00
  -6  -5 -11   -0.70    6.60
  -6  -5 -11    4.60    7.40
  -6  -5 -11  -11.40    6.30
  -6  -5 -11    5.30    8.90
   6   5  11   10.20    8.40
   6   5  11   -2.10    3.80
   6   5  11    3.00    6.40
   6   5  11   -8.50    7.60
   6   5  11   -1.70    4.10
  -7  -5 -11  140.69   15.10
  -7  -5 -11  117.09   13.50
  -7  -5 -11   91.89   11.40
  -7  -5 -11  108.99   16.20
   7   5  11   98.59   12.80
   7   5  11  102.69   10.70
   7   5  11   96.09    9.40
   7   5  11  117.19    9.30
   7   5  11  102.49   13.40
   0  -6 -11   61.89    7.50
   0  -6 -11   56.39    8.60
   0  -6 -11   51.29    6.80
   0   6  11   53.19    6.90
   0   6  11   59.09   10.30
  -1  -6 -11    8.00    6.30
  -1  -6 -11    4.40    4.50
  -1  -6 -11    4.10    7.70
  -1  -6 -11   16.90    5.50
   1   6  11    5.60    4.40
   1   6  11   13.80    7.60
   1   6  11  -12.50    7.60
  -2  -6 -11  162.28   14.00
  -2  -6 -11  154.78   13.10
  -2  -6 -11  153.08   10.20
  -2  -6 -11  119.89   10.80
  -2  -6 -11  136.59   12.40
   2   6  11  162.98   11.90
   2   6  11  138.59    7.20
   2   6  11  139.79    8.20
   2   6  11  141.69   14.90
   2   6  11  149.99   14.00
   2   6  11  130.79    9.60
  -3  -6 -11   -1.30    6.90
  -3  -6 -11   10.60    5.40
  -3  -6 -11    5.50    6.30
  -3  -6 -11    1.40    4.60
  -3  -6 -11    6.60    6.70
   3   6  11   10.80    4.70
   3   6  11    7.60    4.30
   3   6  11    8.60    7.60
   3   6  11   11.70    5.90
   3   6  11   12.60    7.30
  -4  -6 -11   27.60    8.20
  -4  -6 -11   35.30    6.60
  -4  -6 -11   27.40    7.00
  -4  -6 -11   32.90    6.10
   4   6  11   36.70    8.40
   4   6  11   36.40    8.00
   4   6  11   42.20    4.80
   4   6  11   40.40    6.00
   4   6  11   40.80    6.70
  -5  -6 -11   21.10    6.20
  -5  -6 -11   16.70    5.90
  -5  -6 -11   18.20    7.60
  -5  -6 -11   13.00    8.10
   5   6  11   24.80    5.50
   5   6  11   13.50    8.40
   5   6  11   21.10    8.10
   5   6  11   21.40    4.50
  -6  -6 -11  122.29   13.30
  -6  -6 -11  115.79   13.80
  -6  -6 -11  115.29   11.70
  -6  -6 -11  126.09   14.10
   6   6  11  163.18   16.90
   6   6  11  132.09   10.10
   6   6  11  119.59    8.60
   6   6  11  154.98   15.60
   6   6  11  116.39   12.40
  -7  -6 -11   38.80    8.20
  -7  -6 -11   48.80   10.10
  -7  -6 -11   52.59   20.10
  -7  -6 -11   49.80    9.70
   7   6  11   35.00   10.70
   7   6  11   44.00   11.40
   7   6  11   49.00    9.20
   7   6  11   44.70    6.20
   7   6  11   47.80    6.70
  -1  -7 -11   79.09   10.10
  -1  -7 -11   66.09    8.10
  -1  -7 -11   77.99    8.50
   1   7  11   78.69    8.10
   1   7  11   95.19   11.90
   1   7  11   95.09   11.40
  -2  -7 -11   53.69    7.30
  -2  -7 -11   59.49    7.70
  -2  -7 -11   74.09    9.90
  -2  -7 -11   64.29    9.80
  -2  -7 -11   65.99   10.80
   2   7  11   72.29    7.30
   2   7  11   66.79   10.10
   2   7  11   79.89   10.50
   2   7  11   68.59    8.50
  -3  -7 -11   60.29    7.70
  -3  -7 -11   53.69    7.50
  -3  -7 -11   36.00    9.00
  -3  -7 -11   65.49   10.90
  -3  -7 -11   60.99    8.30
   3   7  11   54.29    9.10
   3   7  11   57.19   10.10
   3   7  11   64.39    6.80
   3   7  11   59.29    8.40
   3   7  11   54.59    7.00
  -4  -7 -11  236.08   16.80
  -4  -7 -11  216.88   16.40
  -4  -7 -11  195.78   13.60
  -4  -7 -11  221.98   13.70
  -4  -7 -11  201.98   13.50
   4   7  11  241.78   17.20
   4   7  11  233.08   13.20
   4   7  11  212.38   10.20
   4   7  11  218.18   16.20
  -5  -7 -11   42.90    8.00
  -5  -7 -11   12.10    8.80
  -5  -7 -11   23.60    6.40
  -5  -7 -11   32.10    9.00
   5   7  11   23.40    5.70
   5   7  11   27.60    9.50
   5   7  11   31.60    5.10
   5   7  11   17.40    6.90
   5   7  11   51.39   10.80
  -6  -7 -11  127.59   14.50
  -6  -7 -11   95.09   11.40
  -6  -7 -11   85.79   11.30
  -6  -7 -11  104.89   13.50
   6   7  11   97.29   12.70
   6   7  11   97.39    8.40
   6   7  11   97.79   10.60
   6   7  11   92.29    9.30
   6   7  11  101.39   12.80
   7   7  11   19.80    6.50
  -2  -8 -11   89.99   13.20
  -2  -8 -11  119.29   12.60
  -2  -8 -11  103.59   17.70
   2   8  11  105.19   12.80
   2   8  11  125.09    9.70
   2   8  11   95.79   14.20
   2   8  11  124.29   16.10
  -3  -8 -11   36.10    7.50
  -3  -8 -11   36.40    9.80
  -3  -8 -11   53.19    8.50
  -3  -8 -11   45.00   11.10
   3   8  11   52.39    6.00
   3   8  11   42.40    6.30
   3   8  11   35.00   10.00
   3   8  11   54.59    8.20
   3   8  11   44.50   11.10
  -4  -8 -11   85.89   12.30
  -4  -8 -11   95.19   13.10
  -4  -8 -11   96.99   11.20
  -4  -8 -11   96.69   10.60
   4   8  11   99.89    8.30
   4   8  11   95.39   12.70
   4   8  11   98.39   13.00
   4   8  11  126.79   13.10
   4   8  11  108.09    9.50
  -5  -8 -11   22.60   11.20
  -5  -8 -11   17.50    9.90
  -5  -8 -11   10.30    7.70
  -5  -8 -11   15.70    6.40
   5   8  11   19.10   10.30
   5   8  11    6.90    4.60
   5   8  11   15.00   11.00
   5   8  11   18.30    7.80
   5   8  11    9.30    5.50
  -6  -8 -11   17.00    9.10
  -6  -8 -11   24.00    6.90
   6   8  11   17.00   12.30
   6   8  11    4.00    8.70
   6   8  11   11.70    5.40
  -2  -2 -12    1.10    5.80
  -2  -2 -12    4.40    6.80
  -2  -2 -12    4.80    6.00
   2   2  12    6.60    4.70
   2   2  12   -1.60    4.90
  -3  -2 -12   19.90    8.10
  -3  -2 -12   26.60    6.60
  -3  -2 -12   14.50    6.70
   3   2  12   13.50    5.70
  -1  -3 -12   48.70    7.20
   1   3  12   37.70   11.30
   1   3  12   46.80    5.40
  -2  -3 -12   49.40    7.50
  -2  -3 -12   59.89    9.00
  -2  -3 -12   44.10    6.90
   2   3  12   59.79    6.60
   2   3  12   36.10   11.20
   2   3  12   38.40    7.00
  -3  -3 -12    5.10    6.20
  -3  -3 -12   -3.00    7.50
  -3  -3 -12   -4.70    5.60
   3   3  12   16.20    6.00
   3   3  12    9.60    9.80
  -4  -3 -12   -3.90    8.50
  -4  -3 -12   -3.00    6.00
  -4  -3 -12   -4.60    6.60
   4   3  12   -4.60    4.50
  -2  -4 -12   45.70    8.10
  -2  -4 -12   52.69    7.60
   2   4  12   35.40    6.80
   2   4  12   40.50   10.60
  -3  -4 -12   31.70    7.20
  -3  -4 -12   22.20    7.80
  -3  -4 -12   27.80    6.40
   3   4  12   24.10   10.30
   3   4  12   27.10   13.90
   3   4  12   31.00    6.40
  -4  -4 -12   -0.30    6.10
  -4  -4 -12   -6.70    8.10
   4   4  12    7.50   11.40
   4   4  12   -6.70    4.50
   4   4  12  -15.30    7.90
  -5  -4 -12    0.60    7.60
  -5  -4 -12  -11.10    9.50
  -2  -5 -12   -9.80    5.00
  -2  -5 -12    7.40    7.40
   2   5  12    0.60    4.40
   2   5  12   -1.20   10.40
  -3  -5 -12   10.50    5.70
  -3  -5 -12    9.60    6.30
  -3  -5 -12   18.20    8.40
   3   5  12   17.30    5.60
   3   5  12   20.40   11.10
   3   5  12    4.20    8.30
  -4  -5 -12   29.60    7.40
  -4  -5 -12   14.60    8.40
  -4  -5 -12   17.80    7.30
   4   5  12   23.90   12.00
   4   5  12   32.70    9.60
   4   5  12   25.90    6.50
  -5  -5 -12   65.19    9.60
  -5  -5 -12   64.39   11.60
   5   5  12   58.59    5.70
   5   5  12   66.69    7.30
  -3  -6 -12   17.10    6.70
  -3  -6 -12   -5.00    8.50
  -3  -6 -12   11.30    6.90
   3   6  12   11.00   11.30
   3   6  12   24.30    9.30
  -4  -6 -12   26.00    9.80
  -4  -6 -12   40.00    8.30
   4   6  12   24.50    7.40
   4   6  12   13.10    6.80
   4   6  12   18.50    9.60
   0   0   0    0.00    0.00

_computing_structure_solution     'SHELXT 2014/5 (Sheldrick, 2014)'
;
_shelx_hkl_checksum              16259
_olex2_submission_special_instructions 'No special instructions were received'
loop_
_space_group_symop_operation_xyz
'x, y, z'
'-x, -y, -z'
loop_
_atom_site_label
_atom_site_type_symbol
_atom_site_fract_x
_atom_site_fract_y
_atom_site_fract_z
_atom_site_U_iso_or_equiv
_atom_site_adp_type
_atom_site_occupancy
_atom_site_site_symmetry_order
_atom_site_calc_flag
_atom_site_refinement_flags_posn
_atom_site_refinement_flags_adp
_atom_site_refinement_flags_occupancy
_atom_site_disorder_assembly
_atom_site_disorder_group
O001 O 0.57351(13) 0.63575(13) 0.61570(12) 0.0458(3) Uani 1 1 d . . . . .
O002 O 0.97579(16) 0.28422(14) 0.87908(14) 0.0555(3) Uani 1 1 d . . . . .
O003 O 0.40145(15) 0.86315(15) 1.09103(13) 0.0552(3) Uani 1 1 d . . . . .
N004 N 0.78904(15) 0.43579(14) 0.71980(13) 0.0352(3) Uani 1 1 d . . . . .
C005 C 0.85457(18) 0.35474(16) 0.60682(16) 0.0338(3) Uani 1 1 d . . . . .
C006 C 0.62803(17) 0.61589(16) 0.85294(15) 0.0330(3) Uani 1 1 d . . . . .
C007 C 0.65139(17) 0.57099(16) 0.71498(16) 0.0337(3) Uani 1 1 d . . . . .
C008 C 0.51097(18) 0.73560(17) 0.90782(16) 0.0353(3) Uani 1 1 d . . . . .
C009 C 0.98517(19) 0.19636(17) 0.38558(16) 0.0388(4) Uani 1 1 d . . . . .
C00A C 1.08755(19) 0.22215(18) 0.45255(18) 0.0410(4) Uani 1 1 d . . . . .
H00A H 1.201876 0.184608 0.424044 0.049 Uiso 1 1 calc R . . . .
C00B C 0.75232(19) 0.51100(17) 0.93068(16) 0.0368(3) Uani 1 1 d . . . . .
C00C C 1.02501(18) 0.30209(17) 0.56066(17) 0.0391(4) Uani 1 1 d . . . . .
H00C H 1.096457 0.320381 0.602014 0.047 Uiso 1 1 calc R . . . .
C00D C 0.74960(18) 0.32816(18) 0.54313(17) 0.0400(4) Uani 1 1 d . . . . .
H00D H 0.635399 0.362169 0.574378 0.048 Uiso 1 1 calc R . . . .
C00E C 0.81476(19) 0.25106(19) 0.43311(17) 0.0428(4) Uani 1 1 d . . . . .
H00E H 0.743182 0.235341 0.389831 0.051 Uiso 1 1 calc R . . . .
C00F C 0.5229(2) 0.74380(19) 1.04422(17) 0.0410(4) Uani 1 1 d . . . . .
C00G C 0.85695(19) 0.39470(17) 0.84772(17) 0.0380(3) Uani 1 1 d . . . . .
C00H C 0.36653(19) 0.86873(19) 0.85263(19) 0.0443(4) Uani 1 1 d . . . . .
H00H H 0.286966 0.828183 0.837656 0.053 Uiso 1 1 calc R . . . .
C00I C 0.7637(2) 0.5223(2) 1.06454(18) 0.0449(4) Uani 1 1 d . . . . .
H00I H 0.848539 0.451900 1.114334 0.054 Uiso 1 1 calc R . . . .
C00J C 0.6460(2) 0.6409(2) 1.12301(18) 0.0481(4) Uani 1 1 d . . . . .
H00J H 0.649675 0.650888 1.213180 0.058 Uiso 1 1 calc R . . . .
C00K C 1.0564(2) 0.1122(2) 0.26568(19) 0.0524(4) Uani 1 1 d . . . . .
H00B H 1.047219 0.186518 0.171127 0.079 Uiso 1 1 calc GR . . . .
H00F H 0.996227 0.040899 0.280281 0.079 Uiso 1 1 calc GR . . . .
H00G H 1.171018 0.055404 0.269238 0.079 Uiso 1 1 calc GR . . . .
C00L C 0.2911(2) 0.9418(2) 0.9848(2) 0.0499(4) Uani 1 1 d . . . . .
H00K H 0.279836 1.052432 0.951922 0.060 Uiso 1 1 calc R . . . .
H00L H 0.182089 0.929000 1.029539 0.060 Uiso 1 1 calc R . . . .
C00M C 0.4182(3) 0.9831(2) 0.7115(2) 0.0676(6) Uani 1 1 d . . . . .
H00M H 0.498718 1.019943 0.725921 0.101 Uiso 1 1 calc GR . . . .
H00N H 0.322918 1.069685 0.685998 0.101 Uiso 1 1 calc GR . . . .
H00O H 0.465840 0.932154 0.633148 0.101 Uiso 1 1 calc GR . . . .
loop_
_atom_site_aniso_label
_atom_site_aniso_U_11
_atom_site_aniso_U_22
_atom_site_aniso_U_33
_atom_site_aniso_U_23
_atom_site_aniso_U_13
_atom_site_aniso_U_12
O001 0.0407(6) 0.0488(6) 0.0479(7) -0.0226(5) -0.0183(5) 0.0033(5)
O002 0.0551(7) 0.0468(7) 0.0551(7) -0.0154(6) -0.0249(6) 0.0083(6)
O003 0.0556(7) 0.0621(8) 0.0486(7) -0.0338(6) -0.0034(6) -0.0052(6)
N004 0.0335(6) 0.0339(6) 0.0377(7) -0.0147(5) -0.0086(5) -0.0031(5)
C005 0.0325(7) 0.0298(7) 0.0360(7) -0.0107(6) -0.0055(6) -0.0046(6)
C006 0.0328(7) 0.0332(7) 0.0333(7) -0.0098(6) -0.0046(6) -0.0106(6)
C007 0.0294(7) 0.0343(7) 0.0382(8) -0.0142(6) -0.0057(6) -0.0067(6)
C008 0.0339(7) 0.0377(8) 0.0367(8) -0.0140(6) -0.0029(6) -0.0122(6)
C009 0.0413(8) 0.0334(7) 0.0335(7) -0.0094(6) -0.0047(6) -0.0032(6)
C00A 0.0307(7) 0.0382(8) 0.0457(9) -0.0138(7) -0.0007(6) -0.0033(6)
C00B 0.0396(8) 0.0346(7) 0.0356(8) -0.0085(6) -0.0075(6) -0.0105(6)
C00C 0.0327(8) 0.0367(8) 0.0480(9) -0.0145(7) -0.0085(6) -0.0065(6)
C00D 0.0288(7) 0.0474(9) 0.0431(8) -0.0199(7) -0.0048(6) -0.0048(6)
C00E 0.0379(8) 0.0500(9) 0.0427(8) -0.0205(7) -0.0111(7) -0.0054(7)
C00F 0.0436(8) 0.0438(8) 0.0388(8) -0.0192(7) 0.0006(7) -0.0153(7)
C00G 0.0380(8) 0.0348(8) 0.0394(8) -0.0089(6) -0.0111(6) -0.0068(6)
C00H 0.0343(8) 0.0487(9) 0.0522(9) -0.0271(8) -0.0080(7) -0.0025(7)
C00I 0.0515(9) 0.0457(9) 0.0376(8) -0.0082(7) -0.0152(7) -0.0118(7)
C00J 0.0593(10) 0.0549(10) 0.0343(8) -0.0165(7) -0.0090(7) -0.0173(8)
C00K 0.0545(10) 0.0515(10) 0.0429(9) -0.0216(8) -0.0056(8) -0.0006(8)
C00L 0.0433(9) 0.0513(10) 0.0554(10) -0.0283(8) -0.0020(8) -0.0070(8)
C00M 0.0703(13) 0.0548(11) 0.0503(11) -0.0138(9) -0.0147(9) 0.0147(10)
loop_
_atom_type_symbol
_atom_type_description
_atom_type_scat_dispersion_real
_atom_type_scat_dispersion_imag
_atom_type_scat_source
C C 0.0033 0.0016 'International Tables Vol C Tables 4.2.6.8 and 6.1.1.4'
H H 0.0000 0.0000 'International Tables Vol C Tables 4.2.6.8 and 6.1.1.4'
N N 0.0061 0.0033 'International Tables Vol C Tables 4.2.6.8 and 6.1.1.4'
O O 0.0106 0.0060 'International Tables Vol C Tables 4.2.6.8 and 6.1.1.4'
loop_
_geom_angle_atom_site_label_1
_geom_angle_atom_site_label_2
_geom_angle_atom_site_label_3
_geom_angle
_geom_angle_site_symmetry_1
_geom_angle_site_symmetry_3
_geom_angle_publ_flag
C00F O003 C00L 108.55(12) . . ?
C007 N004 C005 124.10(12) . . ?
C007 N004 C00G 111.15(12) . . ?
C00G N004 C005 124.72(12) . . ?
C00C C005 N004 119.71(13) . . ?
C00D C005 N004 120.60(13) . . ?
C00D C005 C00C 119.69(14) . . ?
C008 C006 C007 131.31(13) . . ?
C008 C006 C00B 120.50(13) . . ?
C00B C006 C007 108.20(13) . . ?
O001 C007 N004 125.42(13) . . ?
O001 C007 C006 128.68(13) . . ?
N004 C007 C006 105.88(12) . . ?
C006 C008 C00F 116.84(14) . . ?
C006 C008 C00H 134.32(14) . . ?
C00F C008 C00H 108.83(13) . . ?
C00A C009 C00E 117.54(14) . . ?
C00A C009 C00K 120.95(14) . . ?
C00E C009 C00K 121.51(15) . . ?
C009 C00A H00A 119.0 . . ?
C009 C00A C00C 122.00(14) . . ?
C00C C00A H00A 119.0 . . ?
C006 C00B C00G 108.65(13) . . ?
C00I C00B C006 121.86(14) . . ?
C00I C00B C00G 129.48(14) . . ?
C005 C00C H00C 120.3 . . ?
C00A C00C C005 119.37(15) . . ?
C00A C00C H00C 120.3 . . ?
C005 C00D H00D 120.0 . . ?
C00E C00D C005 119.90(14) . . ?
C00E C00D H00D 120.0 . . ?
C009 C00E H00E 119.3 . . ?
C00D C00E C009 121.47(15) . . ?
C00D C00E H00E 119.3 . . ?
O003 C00F C008 112.92(15) . . ?
O003 C00F C00J 123.57(14) . . ?
C00J C00F C008 123.51(15) . . ?
O002 C00G N004 124.97(14) . . ?
O002 C00G C00B 128.92(14) . . ?
N004 C00G C00B 106.10(12) . . ?
C008 C00H H00H 109.9 . . ?
C008 C00H C00L 101.52(13) . . ?
C008 C00H C00M 113.01(14) . . ?
C00L C00H H00H 109.9 . . ?
C00M C00H H00H 109.9 . . ?
C00M C00H C00L 112.48(15) . . ?
C00B C00I H00I 120.6 . . ?
C00B C00I C00J 118.71(15) . . ?
C00J C00I H00I 120.6 . . ?
C00F C00J C00I 118.56(14) . . ?
C00F C00J H00J 120.7 . . ?
C00I C00J H00J 120.7 . . ?
C009 C00K H00B 109.5 . . ?
C009 C00K H00F 109.5 . . ?
C009 C00K H00G 109.5 . . ?
H00B C00K H00F 109.5 . . ?
H00B C00K H00G 109.5 . . ?
H00F C00K H00G 109.5 . . ?
O003 C00L C00H 107.75(13) . . ?
O003 C00L H00K 110.2 . . ?
O003 C00L H00L 110.2 . . ?
C00H C00L H00K 110.2 . . ?
C00H C00L H00L 110.2 . . ?
H00K C00L H00L 108.5 . . ?
C00H C00M H00M 109.5 . . ?
C00H C00M H00N 109.5 . . ?
C00H C00M H00O 109.5 . . ?
H00M C00M H00N 109.5 . . ?
H00M C00M H00O 109.5 . . ?
H00N C00M H00O 109.5 . . ?
loop_
_geom_bond_atom_site_label_1
_geom_bond_atom_site_label_2
_geom_bond_distance
_geom_bond_site_symmetry_2
_geom_bond_publ_flag
O001 C007 1.2071(18) . ?
O002 C00G 1.2071(19) . ?
O003 C00F 1.3551(19) . ?
O003 C00L 1.449(2) . ?
N004 C005 1.4304(19) . ?
N004 C007 1.4085(18) . ?
N004 C00G 1.4139(19) . ?
C005 C00C 1.389(2) . ?
C005 C00D 1.385(2) . ?
C006 C007 1.4897(19) . ?
C006 C008 1.377(2) . ?
C006 C00B 1.391(2) . ?
C008 C00F 1.398(2) . ?
C008 C00H 1.506(2) . ?
C009 C00A 1.384(2) . ?
C009 C00E 1.392(2) . ?
C009 C00K 1.506(2) . ?
C00A H00A 0.9300 . ?
C00A C00C 1.384(2) . ?
C00B C00G 1.476(2) . ?
C00B C00I 1.384(2) . ?
C00C H00C 0.9300 . ?
C00D H00D 0.9300 . ?
C00D C00E 1.381(2) . ?
C00E H00E 0.9300 . ?
C00F C00J 1.384(2) . ?
C00H H00H 0.9800 . ?
C00H C00L 1.545(2) . ?
C00H C00M 1.514(3) . ?
C00I H00I 0.9300 . ?
C00I C00J 1.388(2) . ?
C00J H00J 0.9300 . ?
C00K H00B 0.9600 . ?
C00K H00F 0.9600 . ?
C00K H00G 0.9600 . ?
C00L H00K 0.9700 . ?
C00L H00L 0.9700 . ?
C00M H00M 0.9600 . ?
C00M H00N 0.9600 . ?
C00M H00O 0.9600 . ?
