#------------------------------------------------------------------------------
#$Date: 2020-07-24 02:13:55 +0300 (Fri, 24 Jul 2020) $
#$Revision: 254521 $
#$URL: file:///home/coder/svn-repositories/cod/cif/4/03/86/4038603.cif $
#------------------------------------------------------------------------------
#
# This file is available in the Crystallography Open Database (COD),
# http://www.crystallography.net/
#
# All data on this site have been placed in the public domain by the
# contributors.
#
data_4038603
loop_
_publ_author_name
'Suzuki, Yota'
'Ikeda, Ayumi'
'Ohno, Keiji'
'Fujihara, Takashi'
'Sugaya, Tomoaki'
'Ishihara, Koji'
_publ_section_title
;
 <i>o</i>-Azophenylboronic Acid-Based Colorimetric Sensors for d-Fructose:
 <i>o</i>-Azophenylboronic Acids with Inserted Protic Solvent Are the Key
 Species for a Large Color Change.
;
_journal_name_full               'The Journal of organic chemistry'
_journal_paper_doi               10.1021/acs.joc.0c01011
_journal_year                    2020
_chemical_formula_sum            'C12 H10 B N3 O5'
_chemical_formula_weight         287.04
_space_group_crystal_system      monoclinic
_space_group_IT_number           4
_space_group_name_Hall           'P 2yb'
_space_group_name_H-M_alt        'P 1 21 1'
_atom_sites_solution_hydrogens   mixed
_audit_creation_method           SHELXL-2018/3
_cell_angle_alpha                90
_cell_angle_beta                 92.940(4)
_cell_angle_gamma                90
_cell_formula_units_Z            2
_cell_length_a                   3.7451(11)
_cell_length_b                   7.501(2)
_cell_length_c                   21.773(6)
_cell_measurement_reflns_used    3970
_cell_measurement_temperature    200(2)
_cell_measurement_theta_max      27.49
_cell_measurement_theta_min      2.81
_cell_volume                     610.8(3)
_computing_cell_refinement       'Bruker SAINT'
_computing_data_collection       'Bruker APEX2'
_computing_data_reduction        'Bruker SAINT'
_computing_molecular_graphics    'Bruker SHELXTL'
_computing_publication_material  'Bruker SHELXTL'
_computing_structure_refinement  'SHELXL-2018/3 (Sheldrick, 2018)'
_computing_structure_solution    'SHELXS-97 (Sheldrick 2008)'
_diffrn_ambient_temperature      200(2)
_diffrn_detector_area_resol_mean 8.333
_diffrn_measured_fraction_theta_full 0.998
_diffrn_measured_fraction_theta_max 0.999
_diffrn_measurement_device_type  'Bruker APEXII CCD area detector'
_diffrn_measurement_method       'phi and omega scans'
_diffrn_radiation_monochromator  'Bruker Helios multilayer confocal mirror'
_diffrn_radiation_type           MoK\a
_diffrn_radiation_wavelength     0.71073
_diffrn_reflns_av_R_equivalents  0.0223
_diffrn_reflns_av_unetI/netI     0.0259
_diffrn_reflns_Laue_measured_fraction_full 0.998
_diffrn_reflns_Laue_measured_fraction_max 0.999
_diffrn_reflns_limit_h_max       4
_diffrn_reflns_limit_h_min       -4
_diffrn_reflns_limit_k_max       9
_diffrn_reflns_limit_k_min       -9
_diffrn_reflns_limit_l_max       28
_diffrn_reflns_limit_l_min       -28
_diffrn_reflns_number            6991
_diffrn_reflns_point_group_measured_fraction_full 0.996
_diffrn_reflns_point_group_measured_fraction_max 0.993
_diffrn_reflns_theta_full        25.242
_diffrn_reflns_theta_max         27.454
_diffrn_reflns_theta_min         1.873
_diffrn_source                   'Bruker TXS fine-focus rotating anode'
_exptl_absorpt_coefficient_mu    0.122
_exptl_absorpt_correction_T_max  1.00
_exptl_absorpt_correction_T_min  0.80
_exptl_absorpt_correction_type   multi-scan
_exptl_crystal_colour            brown
_exptl_crystal_density_diffrn    1.561
_exptl_crystal_density_method    'not measured'
_exptl_crystal_description       plate
_exptl_crystal_F_000             296
_exptl_crystal_size_max          0.220
_exptl_crystal_size_mid          0.100
_exptl_crystal_size_min          0.020
_refine_diff_density_max         0.232
_refine_diff_density_min         -0.223
_refine_diff_density_rms         0.042
_refine_ls_abs_structure_details
; 
 Flack x determined using 1082 quotients [(I+)-(I-)]/[(I+)+(I-)] 
 (Parsons, Flack and Wagner, Acta Cryst. B69 (2013) 249-259). 
;
_refine_ls_abs_structure_Flack   -0.2(3)
_refine_ls_extinction_method     none
_refine_ls_goodness_of_fit_ref   1.037
_refine_ls_hydrogen_treatment    mixed
_refine_ls_matrix_type           full
_refine_ls_number_parameters     199
_refine_ls_number_reflns         2763
_refine_ls_number_restraints     1
_refine_ls_restrained_S_all      1.037
_refine_ls_R_factor_all          0.0378
_refine_ls_R_factor_gt           0.0344
_refine_ls_shift/su_max          0.000
_refine_ls_shift/su_mean         0.000
_refine_ls_structure_factor_coef Fsqd
_refine_ls_weighting_details
'w=1/[\s^2^(Fo^2^)+(0.0484P)^2^+0.1321P] where P=(Fo^2^+2Fc^2^)/3'
_refine_ls_weighting_scheme      calc
_refine_ls_wR_factor_gt          0.0862
_refine_ls_wR_factor_ref         0.0881
_reflns_Friedel_coverage         0.848
_reflns_Friedel_fraction_full    0.994
_reflns_Friedel_fraction_max     0.987
_reflns_number_gt                2577
_reflns_number_total             2763
_reflns_threshold_expression     'I > 2\s(I)'
_cod_data_source_file            CIF_O2.cif
_cod_data_source_block           pNO2Ph_azo_OHPhB_200
_cod_original_sg_symbol_H-M      'P 21'
_cod_database_code               4038603
_shelx_shelxl_version_number     2018/3
_shelx_space_group_comment
; 
The symmetry employed for this shelxl refinement is uniquely defined 
by the following loop, which should always be used as a source of 
symmetry information in preference to the above space-group names. 
They are only intended as comments. 
;
_shelx_estimated_absorpt_t_min   0.974
_shelx_estimated_absorpt_t_max   0.998
_exptl_absorpt_special_details   'SADABS V2014/2 (Bruker AXS Inc.)'
_shelx_res_file
; 
TITL pNO2Ph_azo_OHPhB_200 in P2(1) 
    pNO2Ph_azo_OHPhB_200.res 
    created by SHELXL-2018/3 at 20:51:30 on 24-Feb-2020 
CELL 0.71073 3.7451 7.5006 21.7731 90.000 92.940 90.000 
ZERR 2.00 0.0011 0.0022 0.0063 0.000 0.004 0.000 
LATT -1 
SYMM -x, y+1/2, -z 
SFAC C  H  N  O  B 
UNIT 24  20  6  10  2 
L.S. 16 
ACTA 
BOND $H 
FMAP 2 
PLAN 5 
HTAB O3 N1 
HTAB O2 O1_$5 
HTAB O1 O3_$4 
HTAB C9 O4_$3 
HTAB C8 O5_$2 
HTAB C6 O2_$1 
HTAB O3 N1 
HTAB O2 O1_$5 
EQIV $5 -x, y-1/2, -z+2 
HTAB O1 O3_$4 
EQIV $4 x-1, y+1, z 
HTAB C9 O4_$3 
EQIV $3 -x+2, y+1/2, -z+1 
HTAB C8 O5_$2 
EQIV $2 x, y+1, z 
HTAB C6 O2_$1 
EQIV $1 -x+1, y+1/2, -z+2 
SIZE 0.020 0.100 0.220 
HTAB 
CONF 
MPLA 3 O4 N3 O5 
MPLA 8 N2 C7 C8 C9 C10 C11 C12 N3 
MPLA 8 N1 C1 C2 C3 C4 C5 C6 O1 
TEMP -73.000 
WGHT    0.048400    0.132100 
FVAR       0.30698 
B1    5    0.394225    0.205698    0.904898    11.00000    0.02242    0.01566 = 
         0.02341    0.00071   -0.00035    0.00318 
C1    1   -0.038592    0.674742    0.889093    11.00000    0.01913    0.01394 = 
         0.02118   -0.00269    0.00325    0.00121 
C2    1   -0.073356    0.699479    0.825344    11.00000    0.02455    0.01565 = 
         0.02398    0.00513    0.00207    0.00591 
AFIX  43 
H2    2   -0.170644    0.807265    0.808811    11.00000   -1.20000 
AFIX   0 
C3    1    0.034169    0.566811    0.786776    11.00000    0.02677    0.02327 = 
         0.01725    0.00348    0.00249    0.00473 
AFIX  43 
H3    2    0.008541    0.582721    0.743488    11.00000   -1.20000 
AFIX   0 
C4    1    0.180970    0.408670    0.810898    11.00000    0.01890    0.01730 = 
         0.02027   -0.00188    0.00077    0.00198 
C5    1    0.219402    0.381008    0.875289    11.00000    0.01686    0.01331 = 
         0.01991   -0.00012    0.00062    0.00128 
C6    1    0.106199    0.517160    0.913203    11.00000    0.02123    0.01598 = 
         0.01595    0.00110    0.00086    0.00055 
AFIX  43 
H6    2    0.128340    0.502113    0.956554    11.00000   -1.20000 
AFIX   0 
C7    1    0.403828    0.155419    0.680287    11.00000    0.02393    0.02210 = 
         0.01913   -0.00266    0.00103    0.00264 
C8    1    0.516721    0.198282    0.622152    11.00000    0.03936    0.02247 = 
         0.02071    0.00064    0.00227    0.00139 
AFIX  43 
H8    2    0.510129    0.318497    0.608403    11.00000   -1.20000 
AFIX   0 
C9    1    0.638920    0.064865    0.584344    11.00000    0.03380    0.03197 = 
         0.01743   -0.00235    0.00567   -0.00183 
AFIX  43 
H9    2    0.719557    0.092089    0.544758    11.00000   -1.20000 
AFIX   0 
C10   1    0.640244   -0.108063    0.605712    11.00000    0.02356    0.02562 = 
         0.02418   -0.00947    0.00236   -0.00020 
C11   1    0.515681   -0.155360    0.662304    11.00000    0.02849    0.02121 = 
         0.02645   -0.00258    0.00223   -0.00101 
AFIX  43 
H11   2    0.511938   -0.276602    0.674876    11.00000   -1.20000 
AFIX   0 
C12   1    0.397372   -0.022349    0.699911    11.00000    0.02694    0.02418 = 
         0.01612   -0.00002    0.00294    0.00001 
AFIX  43 
H12   2    0.311717   -0.051132    0.739017    11.00000   -1.20000 
AFIX   0 
H1O   2   -0.239846    0.885223    0.907346    11.00000   -1.50000 
H2O   2    0.343749    0.233382    0.988562    11.00000   -1.50000 
H3O   2    0.528490    0.106780    0.831516    11.00000   -1.50000 
N1    3    0.299608    0.269810    0.772847    11.00000    0.02300    0.01957 = 
         0.01923   -0.00194    0.00166    0.00306 
N2    3    0.289601    0.301625    0.716060    11.00000    0.03151    0.02339 = 
         0.01966   -0.00139    0.00221    0.00636 
N3    3    0.784921   -0.248783    0.566786    11.00000    0.03995    0.03153 = 
         0.04073   -0.01617    0.01093   -0.00370 
O1    4   -0.140714    0.801822    0.928780    11.00000    0.03854    0.01456 = 
         0.02261    0.00062    0.00461    0.00926 
O2    4    0.422816    0.168840    0.964950    11.00000    0.05320    0.02257 = 
         0.02011    0.00175    0.00361    0.01640 
O3    4    0.538658    0.078073    0.868875    11.00000    0.04629    0.01856 = 
         0.02082    0.00136    0.00227    0.01530 
O4    4    0.886643   -0.207787    0.516882    11.00000    0.07043    0.05602 = 
         0.03605   -0.01430    0.02150    0.00713 
O5    4    0.811159   -0.398667    0.588303    11.00000    0.12930    0.02795 = 
         0.08885   -0.00877    0.05862    0.00852 
HKLF 4 1 1 0 0 0 1 0 0 0 1 
  
  
  
  
REM  pNO2Ph_azo_OHPhB_200 in P2(1) 
REM wR2 = 0.0881, GooF = S = 1.037, Restrained GooF = 1.037 for all data 
REM R1 = 0.0344 for 2577 Fo > 4sig(Fo) and 0.0378 for all 2763 data 
REM 199 parameters refined using 1 restraints 
  
END 
  
WGHT      0.0435      0.1306 
  
REM Instructions for potential hydrogen bonds 
HTAB C6 O2_$1 
HTAB C8 O5_$2 
HTAB C9 O4_$3 
HTAB O1 O3_$4 
HTAB O2 O1_$5 
HTAB O3 N1 
  
REM Highest difference peak  0.232,  deepest hole -0.223,  1-sigma level  0.042 
Q1    1   0.1809  0.3912  0.8420  11.00000  0.05    0.23 
Q2    1   0.5654 -0.3933  0.5692  11.00000  0.05    0.21 
Q3    1   0.3198  0.2977  0.8924  11.00000  0.05    0.20 
Q4    1  -0.0437  0.8023  0.9673  11.00000  0.05    0.19 
Q5    1   0.0175  0.6917  0.8572  11.00000  0.05    0.19 
;
_shelx_res_checksum              26852
_shelx_hkl_file
; 
  -1   0   0   32.99    0.76 
  -1   0   0   33.05    0.79 
  -1   0   0   32.15    0.78 
  -1   0   0   33.70    0.77 
  -2   0   0    4.51    0.15 
  -2   0   0    4.54    0.16 
  -2   0   0    4.43    0.18 
  -2   0   0    4.51    0.20 
   3   0   0    1.45    0.12 
  -3   0   0    1.33    0.15 
  -3   0   0    1.35    0.13 
  -4   0   0    0.90    0.13 
   4   0   0    1.11    0.18 
   0  -1   0   -0.31    0.03 
   0  -1   0   -0.32    0.02 
   0   1   0   -0.30    0.02 
  -1  -1   0  625.83   14.09 
   1  -1   0  622.77   14.08 
  -1  -1   0  631.33   14.24 
   1   1   0  601.22   14.12 
  -1   1   0  609.68   14.12 
  -1   1   0  611.01   14.20 
  -1   1   0  630.18   14.08 
  -2  -1   0   12.99    0.38 
  -2  -1   0   12.70    0.34 
  -2  -1   0   13.06    0.33 
   2  -1   0   13.02    0.34 
  -2  -1   0   13.26    0.37 
  -2   1   0   12.89    0.39 
  -2   1   0   12.40    0.35 
  -2   1   0   12.96    0.35 
  -3  -1   0    1.54    0.17 
  -3  -1   0    1.52    0.14 
  -3  -1   0    1.57    0.14 
   3  -1   0    1.59    0.12 
  -3   1   0    1.61    0.14 
  -3   1   0    1.65    0.14 
   4  -1   0    0.39    0.15 
  -4  -1   0    0.05    0.11 
  -4   1   0    0.11    0.10 
   0  -2   0  224.73    5.03 
   0  -2   0  212.29    5.01 
   0   2   0  211.73    5.01 
   1  -2   0    9.73    0.26 
  -1  -2   0    9.96    0.26 
  -1  -2   0    9.67    0.29 
  -1   2   0    9.52    0.29 
   1   2   0   10.21    0.27 
  -1   2   0    9.93    0.27 
  -2  -2   0   57.74    1.43 
  -2  -2   0   58.77    1.37 
   2  -2   0   59.63    1.38 
  -2   2   0   59.58    1.37 
  -2   2   0   58.95    1.39 
  -2   2   0   58.99    1.44 
   2   2   0   58.76    1.39 
  -3  -2   0    3.34    0.17 
   3  -2   0    3.40    0.18 
  -3  -2   0    3.33    0.22 
  -3   2   0    3.32    0.18 
   3   2   0    4.00    0.21 
   3   2   0    3.50    0.20 
   4  -2   0    1.42    0.21 
  -4  -2   0    1.23    0.18 
  -4   2   0    1.40    0.16 
   4   2   0    1.27    0.17 
   0  -3   0    0.02    0.04 
   0  -3   0   -0.01    0.05 
   0   3   0   -0.02    0.05 
  -1  -3   0   36.65    0.88 
  -1  -3   0   37.26    0.91 
   1  -3   0   36.32    0.88 
  -1   3   0   36.63    0.89 
  -1   3   0   36.52    0.91 
   1   3   0   38.20    0.89 
   2  -3   0    0.80    0.09 
  -2  -3   0    0.65    0.10 
  -2  -3   0    0.77    0.08 
   2   3   0    0.99    0.11 
  -2   3   0    0.80    0.09 
  -3  -3   0   15.75    0.44 
  -3  -3   0   16.39    0.53 
   3  -3   0   15.78    0.45 
  -3   3   0   15.78    0.46 
   3   3   0   15.20    0.47 
   4  -3   0    3.25    0.31 
  -4  -3   0    2.92    0.27 
   4   3   0    2.51    0.22 
  -4   3   0    2.58    0.21 
   0  -4   0   20.22    0.51 
   0   4   0   19.36    0.51 
  -1  -4   0   15.77    0.42 
  -1  -4   0   15.75    0.45 
   1  -4   0   15.58    0.43 
   1   4   0   15.92    0.43 
  -1   4   0   15.79    0.38 
  -1   4   0   15.26    0.43 
  -2  -4   0    5.88    0.22 
  -2  -4   0    6.33    0.27 
   2  -4   0    5.83    0.22 
   2   4   0    6.11    0.24 
  -2   4   0    5.98    0.24 
   3  -4   0    0.48    0.11 
   3  -4   0    0.68    0.16 
  -3  -4   0    0.55    0.10 
  -3  -4   0    0.59    0.13 
  -3   4   0    0.38    0.11 
   3   4   0    0.32    0.13 
   4  -4   0    1.36    0.22 
  -4  -4   0    0.59    0.17 
   4   4   0    0.69    0.17 
   0  -5   0    0.04    0.06 
   0   5   0   -0.03    0.07 
   0   5   0    0.02    0.04 
   1  -5   0    2.96    0.17 
  -1  -5   0    2.90    0.16 
  -1  -5   0    2.90    0.17 
   1  -5   0    2.50    0.17 
  -1   5   0    2.97    0.17 
   1   5   0    2.90    0.18 
   2  -5   0   15.72    0.52 
  -2  -5   0   16.80    0.52 
   2  -5   0   16.20    0.47 
  -2  -5   0   16.04    0.46 
   2   5   0   17.03    0.48 
  -2   5   0   16.27    0.48 
   3  -5   0   16.41    0.59 
  -3  -5   0   16.51    0.48 
  -3  -5   0   17.19    0.58 
   3  -5   0   16.74    0.50 
  -3   5   0   16.35    0.51 
   3   5   0   16.99    0.52 
   4  -5   0    1.54    0.25 
  -4  -5   0    0.98    0.20 
  -4   5   0    1.16    0.16 
   4   5   0    1.37    0.21 
   0  -6   0    2.01    0.16 
   0   6   0    1.89    0.17 
   0   6   0    1.88    0.13 
   1  -6   0    1.22    0.14 
   1  -6   0    1.41    0.14 
  -1  -6   0    1.21    0.12 
  -1  -6   0    1.38    0.15 
   1   6   0    1.58    0.15 
  -1   6   0    1.40    0.14 
   2  -6   0   20.37    0.58 
  -2  -6   0   20.11    0.56 
   2  -6   0   18.84    0.61 
  -2  -6   0   20.73    0.63 
  -2   6   0   20.08    0.58 
   2   6   0   20.28    0.58 
  -3  -6   0    0.14    0.10 
   3  -6   0    0.26    0.12 
  -3  -6   0    0.25    0.13 
   3  -6   0    0.19    0.14 
   3   6   0    0.22    0.14 
  -3   6   0    0.23    0.12 
   0  -7   0    0.71    0.12 
   0   7   0    0.59    0.13 
   1  -7   0   11.87    0.40 
  -1  -7   0   11.79    0.39 
  -1   7   0   11.57    0.40 
   1   7   0   11.78    0.40 
   1   7   0   11.53    0.40 
   2  -7   0    1.89    0.21 
  -2  -7   0    1.75    0.16 
   2  -7   0    1.95    0.18 
  -2  -7   0    1.85    0.22 
   2   7   0    2.34    0.20 
  -2   7   0    2.30    0.20 
   3  -7   0    4.81    0.34 
  -3  -7   0    4.72    0.33 
   3  -7   0    4.43    0.29 
  -3  -7   0    4.43    0.26 
   3   7   0    4.50    0.31 
  -3   7   0    4.66    0.29 
   0  -8   0   10.69    0.40 
   0   8   0   11.57    0.42 
   1  -8   0    2.98    0.24 
  -1  -8   0    3.09    0.23 
   1   8   0    2.75    0.23 
   1   8   0    3.35    0.23 
  -1   8   0    2.98    0.25 
  -2  -8   0   13.53    0.46 
   2  -8   0   14.24    0.48 
   2   8   0   14.68    0.51 
   2   8   0   13.38    0.48 
  -2   8   0   13.00    0.48 
   0  -9   0    0.01    0.12 
   0   9   0   -0.01    0.14 
   1  -9   0    6.43    0.34 
  -1  -9   0    6.84    0.32 
  -1   9   0    6.47    0.35 
   1   9   0    6.67    0.34 
   4   0  -1   -0.03    0.12 
  -4   0   1    0.02    0.10 
  -3   0   1    0.69    0.14 
   3   0  -1    0.67    0.10 
  -3   0   1    0.62    0.09 
  -3   0   1    0.54    0.10 
  -2   0   1   48.17    1.15 
  -2   0   1   46.62    1.13 
  -2   0   1   47.38    1.10 
  -2   0   1   45.47    1.09 
  -1   0   1    1.18    0.07 
  -1   0   1    1.13    0.06 
  -1   0   1    1.14    0.10 
  -1   0   1    1.07    0.08 
  -1   0  -1  136.48    3.14 
  -1   0  -1  137.11    3.18 
  -1   0  -1  137.22    3.16 
  -2   0  -1    0.15    0.04 
  -2   0  -1    0.18    0.06 
  -2   0  -1    0.20    0.06 
   3   0   1    5.29    0.21 
  -3   0  -1    5.35    0.21 
   3   0   1    5.46    0.28 
  -3   0  -1    5.31    0.25 
   4   0   1    0.44    0.15 
  -4   0  -1    0.13    0.11 
   4  -1  -1    0.24    0.14 
  -4  -1   1   -0.04    0.11 
  -4   1   1    0.12    0.10 
  -3  -1   1    5.25    0.21 
   3  -1  -1    5.40    0.22 
  -3  -1   1    5.42    0.25 
  -3  -1   1    5.53    0.22 
  -3   1   1    5.57    0.29 
  -3   1   1    5.39    0.26 
  -3   1   1    5.25    0.21 
  -2  -1   1   26.51    0.65 
   2  -1  -1   27.63    0.65 
  -2  -1   1   27.10    0.65 
  -2  -1   1   25.95    0.69 
  -2  -1   1   27.12    0.68 
  -2   1   1   27.01    0.65 
  -2   1   1   26.50    0.66 
  -2   1   1   27.11    0.71 
   1  -1  -1  461.97   10.02 
  -1  -1   1  433.28   10.14 
  -1  -1   1  433.19   10.02 
  -1   1   1  446.46   10.04 
  -1   1   1  432.18    9.99 
   1   1  -1  442.50   10.04 
  -1   1   1  421.61   10.07 
   0  -1  -1   14.65    0.34 
   0  -1   1   14.21    0.34 
   0  -1  -1   14.71    0.34 
   0   1   1   14.04    0.34 
   0   1  -1   13.95    0.34 
   0   1  -1   14.19    0.34 
  -1  -1  -1  272.06    6.50 
  -1  -1  -1  285.65    6.36 
   1  -1   1  280.77    6.35 
  -1   1  -1  271.00    6.38 
  -1   1  -1  281.28    6.39 
  -2  -1  -1   62.31    1.44 
  -2  -1  -1   60.98    1.48 
   2  -1   1   62.04    1.43 
  -2  -1  -1   60.09    1.42 
  -2   1  -1   61.48    1.45 
  -2   1  -1   61.80    1.44 
  -3  -1  -1    0.74    0.09 
   3  -1   1    0.82    0.10 
  -3  -1  -1    0.63    0.10 
  -3  -1  -1    0.65    0.12 
   3  -1   1    0.67    0.14 
  -3   1  -1    0.58    0.10 
  -3   1  -1    0.69    0.10 
   3   1   1    0.80    0.13 
  -4  -1  -1    4.18    0.27 
   4  -1   1    4.46    0.31 
  -4   1  -1    3.85    0.22 
   4  -2  -1    2.94    0.29 
  -4  -2   1    2.79    0.25 
  -4   2   1    2.58    0.20 
   4   2  -1    2.74    0.23 
  -3  -2   1   21.22    0.54 
   3  -2  -1   20.67    0.55 
  -3  -2   1   20.12    0.61 
   3   2  -1   20.35    0.56 
  -3   2   1   20.35    0.63 
  -3   2   1   20.13    0.55 
  -2  -2   1   78.15    1.80 
   2  -2  -1   79.17    1.81 
  -2  -2   1   75.30    1.86 
  -2   2   1   75.47    1.79 
  -2   2   1   78.91    1.81 
  -2   2   1   77.86    1.86 
   2   2  -1   80.18    1.81 
  -1  -2   1    6.39    0.21 
   1  -2  -1    6.37    0.19 
  -1  -2   1    6.29    0.18 
  -1   2   1    6.21    0.19 
  -1   2   1    6.22    0.22 
   1   2  -1    6.54    0.19 
   0  -2  -1   12.29    0.31 
   0  -2  -1   12.53    0.31 
   0  -2   1   12.61    0.31 
   0   2  -1   11.92    0.31 
   0   2  -1   11.99    0.31 
   1  -2   1   76.69    1.79 
  -1  -2  -1   79.56    1.83 
  -1  -2  -1   77.80    1.79 
  -1   2  -1   78.31    1.80 
  -1   2  -1   74.30    1.78 
   1   2   1   80.93    1.80 
  -2  -2  -1   40.82    0.97 
  -2  -2  -1   42.09    1.04 
   2  -2   1   40.55    0.98 
   2   2   1   41.38    0.99 
  -2   2  -1   41.48    0.99 
  -2   2  -1   41.70    0.98 
   3  -2   1   10.32    0.32 
  -3  -2  -1   10.65    0.39 
   3  -2   1   10.23    0.40 
  -3  -2  -1   10.69    0.31 
   3   2   1   10.47    0.35 
  -3   2  -1   10.09    0.33 
   3   2   1   10.64    0.36 
  -4  -2  -1    0.29    0.14 
   4  -2   1    0.78    0.19 
  -4   2  -1    0.56    0.12 
   4   2   1    0.54    0.15 
   4  -3  -1    0.62    0.18 
  -4  -3   1    0.37    0.15 
  -4   3   1    0.31    0.12 
   4   3  -1    0.09    0.14 
   3  -3  -1   27.43    0.71 
  -3  -3   1   28.08    0.79 
  -3  -3   1   27.70    0.70 
   3   3  -1   27.09    0.72 
  -3   3   1   26.66    0.71 
   2  -3  -1    4.30    0.18 
  -2  -3   1    3.88    0.17 
  -2  -3   1    4.18    0.21 
  -2   3   1    4.27    0.23 
  -2   3   1    4.10    0.18 
   2   3  -1    4.42    0.19 
   1  -3  -1    2.36    0.13 
  -1  -3   1    2.57    0.12 
  -1   3   1    2.37    0.15 
   1   3  -1    2.57    0.13 
  -1   3   1    2.61    0.13 
   0  -3  -1    2.04    0.11 
   0  -3  -1    1.91    0.09 
   0  -3   1    1.97    0.11 
   0   3   1    1.96    0.11 
   0   3  -1    1.83    0.09 
   0   3  -1    1.94    0.11 
  -1  -3  -1   23.17    0.60 
   1  -3   1   22.33    0.56 
  -1  -3  -1   22.29    0.56 
   1   3   1   23.21    0.57 
  -1   3  -1   23.02    0.53 
  -1   3  -1   22.08    0.57 
  -2  -3  -1   15.90    0.48 
   2  -3   1   15.76    0.43 
  -2  -3  -1   16.27    0.42 
   2   3   1   16.66    0.45 
  -2   3  -1   16.25    0.44 
  -3  -3  -1   20.97    0.54 
  -3  -3  -1   20.32    0.63 
   3  -3   1   20.59    0.55 
   3  -3   1   20.70    0.65 
   3   3   1   20.33    0.58 
  -3   3  -1   20.06    0.56 
   4  -3   1    2.28    0.29 
  -4  -3  -1    1.74    0.21 
   4   3   1    1.58    0.20 
  -4   3  -1    2.06    0.20 
  -4  -4   1   14.59    0.55 
   4  -4  -1   13.56    0.58 
   4   4  -1   12.43    0.47 
  -4   4   1   12.43    0.43 
  -3  -4   1    0.55    0.13 
   3  -4  -1    0.67    0.12 
  -3  -4   1    0.48    0.10 
  -3   4   1    0.65    0.12 
   3   4  -1    0.58    0.13 
  -2  -4   1   12.13    0.41 
  -2  -4   1   11.95    0.35 
   2  -4  -1   11.62    0.36 
  -2   4   1   12.12    0.36 
   2   4  -1   12.45    0.37 
  -2   4   1   12.01    0.42 
  -1  -4   1    2.36    0.13 
  -1  -4   1    2.37    0.14 
   1  -4  -1    2.34    0.14 
  -1   4   1    2.10    0.15 
  -1   4   1    2.28    0.14 
   1   4  -1    2.34    0.14 
   0  -4  -1   14.87    0.39 
   0  -4   1   14.45    0.38 
   0  -4  -1   13.67    0.38 
   0   4  -1   13.54    0.37 
   0   4  -1   13.86    0.38 
   0   4   1   14.04    0.39 
   1  -4   1    5.02    0.19 
  -1  -4  -1    5.12    0.21 
   1  -4   1    4.78    0.21 
  -1  -4  -1    5.00    0.18 
  -1   4  -1    4.97    0.15 
  -1   4  -1    5.01    0.19 
   1   4   1    5.13    0.20 
   2  -4   1    5.53    0.22 
  -2  -4  -1    5.64    0.21 
   2  -4   1    5.51    0.27 
  -2  -4  -1    5.63    0.25 
   2   4   1    5.66    0.24 
  -2   4  -1    5.28    0.23 
   3  -4   1    7.05    0.35 
   3  -4   1    6.94    0.27 
  -3  -4  -1    7.15    0.33 
  -3  -4  -1    7.52    0.26 
  -3   4  -1    6.83    0.28 
   3   4   1    6.75    0.30 
  -4  -4  -1    8.43    0.42 
   4  -4   1    7.24    0.44 
   4   4   1    6.86    0.36 
  -4   4  -1    7.51    0.33 
  -4  -5   1    1.11    0.21 
   4  -5  -1    1.50    0.24 
  -4   5   1    1.12    0.16 
  -3  -5   1    5.04    0.30 
  -3  -5   1    4.90    0.24 
   3  -5  -1    5.38    0.26 
   3  -5  -1    5.85    0.33 
  -3   5   1    5.01    0.26 
   3   5  -1    4.81    0.27 
  -2  -5   1    3.23    0.22 
   2  -5  -1    3.09    0.20 
  -2  -5   1    3.31    0.18 
   2   5  -1    3.45    0.22 
  -2   5   1    3.30    0.20 
   1  -5  -1   10.49    0.33 
  -1  -5   1   10.54    0.35 
  -1  -5   1   10.74    0.32 
   1   5  -1   10.50    0.33 
  -1   5   1   10.49    0.34 
   0  -5  -1    0.12    0.05 
   0  -5  -1    0.16    0.07 
   0  -5   1    0.11    0.07 
   0   5  -1    0.15    0.05 
   0   5  -1    0.26    0.08 
   0   5   1    0.11    0.07 
  -1  -5  -1    2.11    0.14 
   1  -5   1    1.98    0.15 
   1  -5   1    2.09    0.16 
  -1  -5  -1    1.82    0.15 
  -1   5  -1    2.01    0.16 
   1   5   1    2.21    0.16 
  -2  -5  -1    3.71    0.19 
   2  -5   1    4.09    0.21 
   2  -5   1    3.96    0.24 
  -2  -5  -1    3.90    0.23 
   2   5   1    3.93    0.23 
  -2   5  -1    3.99    0.21 
   3  -5   1    6.82    0.37 
  -3  -5  -1    6.44    0.26 
   3  -5   1    6.63    0.28 
  -3  -5  -1    6.68    0.34 
  -3   5  -1    6.75    0.29 
   3   5   1    6.45    0.31 
  -4  -5  -1    0.46    0.18 
   4  -5   1    0.77    0.21 
   4   5   1    0.56    0.19 
  -4   5  -1    0.68    0.14 
   3  -6  -1    0.21    0.12 
  -3  -6   1    0.07    0.10 
   3  -6  -1    0.16    0.14 
  -3  -6   1    0.07    0.13 
  -3   6   1    0.25    0.12 
   3   6  -1    0.14    0.14 
  -2  -6   1    8.08    0.29 
   2  -6  -1    7.80    0.34 
  -2  -6   1    7.97    0.34 
   2  -6  -1    7.96    0.31 
  -2   6   1    7.60    0.31 
   2   6  -1    8.15    0.32 
   1  -6  -1    7.20    0.28 
   1  -6  -1    7.08    0.27 
  -1  -6   1    7.68    0.28 
   1   6  -1    7.41    0.29 
  -1   6   1    7.13    0.29 
   0  -6  -1   15.01    0.44 
   0  -6   1   14.81    0.44 
   0   6  -1   14.54    0.42 
   0   6  -1   15.37    0.45 
   0   6   1   14.79    0.44 
   0   6   1   14.28    0.42 
   1  -6   1    6.74    0.27 
  -1  -6  -1    7.28    0.29 
  -1  -6  -1    7.08    0.27 
   1  -6   1    7.30    0.28 
   1   6   1    7.02    0.29 
  -1   6  -1    7.38    0.29 
   2  -6   1   15.17    0.52 
  -2  -6  -1   16.56    0.48 
   2  -6   1   16.32    0.49 
  -2  -6  -1   16.84    0.54 
   2   6   1   15.99    0.50 
  -2   6  -1   15.97    0.49 
  -3  -6  -1    2.83    0.21 
   3  -6   1    3.35    0.29 
  -3  -6  -1    3.17    0.27 
  -3   6  -1    2.92    0.23 
   3   6   1    2.79    0.27 
   3  -7  -1    4.34    0.33 
   3  -7  -1    3.93    0.27 
  -3  -7   1    3.90    0.25 
   3   7  -1    4.20    0.28 
  -3   7   1    3.74    0.27 
   2  -7  -1    1.18    0.16 
   2  -7  -1    1.55    0.20 
  -2  -7   1    1.22    0.14 
  -2   7   1    1.18    0.16 
   2   7  -1    1.39    0.17 
   1  -7  -1    0.06    0.10 
  -1  -7   1    0.01    0.09 
  -1   7   1   -0.11    0.11 
   1   7  -1    0.10    0.08 
   1   7  -1   -0.15    0.10 
   0  -7  -1    6.35    0.28 
   0  -7   1    6.35    0.28 
   0   7   1    6.49    0.29 
   0   7  -1    6.72    0.29 
   1  -7   1   14.25    0.46 
  -1  -7  -1   13.94    0.45 
  -1   7  -1   14.61    0.46 
   1   7   1   14.54    0.46 
  -2  -7  -1    0.66    0.12 
   2  -7   1    0.71    0.14 
   2  -7   1    0.67    0.14 
  -2  -7  -1    0.51    0.13 
   2   7   1    0.65    0.15 
  -2   7  -1    0.60    0.14 
   3  -7   1    4.63    0.34 
  -3  -7  -1    3.80    0.25 
  -3  -7  -1    4.41    0.32 
   3   7   1    4.91    0.32 
  -3   7  -1    4.47    0.29 
   2  -8  -1    3.27    0.27 
  -2  -8   1    2.92    0.23 
   2   8  -1    3.76    0.27 
   2   8  -1    2.97    0.25 
  -2   8   1    2.84    0.25 
  -1  -8   1    2.25    0.20 
   1  -8  -1    2.27    0.20 
  -1   8   1    2.05    0.20 
   1   8  -1    2.41    0.21 
   1   8  -1    2.20    0.22 
   0  -8  -1    6.04    0.29 
   0  -8   1    6.00    0.29 
   0   8   1    6.14    0.30 
   0   8  -1    6.09    0.30 
  -1  -8  -1    6.39    0.29 
   1  -8   1    6.32    0.31 
  -1   8  -1    6.42    0.31 
   1   8   1    6.51    0.30 
   1   8   1    6.00    0.30 
   2  -8   1    0.07    0.13 
  -2  -8  -1   -0.04    0.11 
  -2   8  -1   -0.05    0.13 
   2   8   1   -0.04    0.14 
  -1  -9   1    2.05    0.20 
   1  -9  -1    1.42    0.19 
  -1   9   1    1.67    0.21 
   1   9  -1    2.18    0.22 
   0  -9   1    3.68    0.27 
   0  -9  -1    3.91    0.27 
   0   9   1    3.91    0.28 
   0   9  -1    3.75    0.28 
  -1  -9  -1   14.71    0.51 
   1  -9   1   15.24    0.52 
   1   9   1   15.60    0.53 
  -1   9  -1   15.63    0.53 
  -4   0   2    0.03    0.10 
  -3   0   2    0.91    0.12 
  -3   0   2    1.09    0.11 
  -3   0   2    0.93    0.14 
   3   0  -2    1.00    0.12 
  -2   0   2    0.34    0.09 
  -2   0   2    0.37    0.06 
  -2   0   2    0.31    0.05 
  -2   0   2    0.30    0.07 
  -1   0   2   48.09    1.10 
  -1   0   2   48.43    1.09 
  -1   0   2   46.08    1.11 
  -1   0   2   47.74    1.12 
   0   0   2   -0.21    0.02 
   0   0  -2   -0.23    0.01 
   0   0   2   -0.21    0.01 
   0   0  -2   -0.23    0.01 
   1   0   2  175.28    4.09 
  -1   0  -2  176.46    4.03 
  -1   0  -2  175.56    4.08 
  -1   0  -2  177.48    4.12 
  -2   0  -2    0.61    0.07 
   2   0   2    0.75    0.10 
  -2   0  -2    0.56    0.08 
  -3   0  -2   15.63    0.48 
  -3   0  -2   15.57    0.44 
   3   0   2   16.01    0.50 
   3   0   2   15.21    0.45 
   4   0   2    6.37    0.35 
  -4   0  -2    6.31    0.28 
  -4  -1   2    1.51    0.18 
  -4   1   2    1.76    0.16 
  -3  -1   2    7.18    0.25 
  -3  -1   2    7.45    0.30 
  -3  -1   2    7.81    0.31 
  -3  -1   2    7.39    0.26 
   3  -1  -2    7.82    0.27 
  -3   1   2    7.81    0.34 
  -3   1   2    7.55    0.25 
  -2  -1   2    0.66    0.09 
  -2  -1   2    0.67    0.07 
  -2  -1   2    0.61    0.09 
  -2  -1   2    0.74    0.07 
   2  -1  -2    0.67    0.08 
  -2   1   2    0.57    0.07 
  -2   1   2    0.55    0.07 
  -2   1   2    0.67    0.11 
  -1  -1   2   42.75    0.99 
   1  -1  -2   40.30    0.98 
   1  -1  -2   44.72    1.00 
  -1  -1   2   40.49    1.01 
  -1  -1   2   42.79    1.00 
   1   1  -2   44.46    0.99 
  -1   1   2   42.55    1.02 
  -1   1   2   44.10    0.99 
   0  -1  -2  140.38    3.11 
   0  -1   2  126.80    3.12 
   0  -1   2  133.91    3.11 
   0  -1  -2  139.05    3.16 
   0   1   2  130.79    3.12 
   0   1  -2  139.05    3.11 
   0   1  -2  137.14    3.17 
   0   1   2  135.12    3.12 
  -1  -1  -2   62.30    1.48 
  -1  -1  -2   64.66    1.44 
   1  -1   2   63.39    1.48 
   1  -1   2   61.94    1.44 
  -1   1  -2   61.79    1.45 
  -1   1  -2   64.36    1.45 
  -2  -1  -2   42.15    1.00 
   2  -1   2   42.21    1.06 
  -2  -1  -2   44.20    1.02 
   2  -1   2   43.79    1.00 
  -2  -1  -2   41.58    1.06 
  -2   1  -2   42.90    1.02 
  -2   1  -2   43.62    1.03 
   2   1   2   42.18    1.04 
  -3  -1  -2   10.29    0.37 
  -3  -1  -2   10.10    0.32 
  -3  -1  -2   10.05    0.30 
   3  -1   2   10.21    0.39 
   3   1   2   10.76    0.37 
  -3   1  -2   10.65    0.35 
  -3   1  -2   10.33    0.33 
   4  -1   2    2.77    0.28 
  -4  -1  -2    2.63    0.23 
  -4   1  -2    2.54    0.20 
  -4  -2   2    1.91    0.21 
  -4   2   2    1.80    0.18 
   4   2  -2    1.63    0.18 
   3  -2  -2    0.80    0.11 
  -3  -2   2    0.97    0.11 
  -3  -2   2    0.81    0.13 
   3   2  -2    0.79    0.12 
  -3   2   2    0.81    0.10 
  -3   2   2    0.92    0.16 
   2  -2  -2   57.72    1.35 
  -2  -2   2   57.27    1.35 
  -2  -2   2   56.86    1.40 
  -2   2   2   57.94    1.35 
   2   2  -2   58.30    1.35 
  -2   2   2   56.70    1.41 
   1  -2  -2   52.92    1.22 
  -1  -2   2   53.72    1.25 
  -1  -2   2   52.49    1.22 
   1   2  -2   54.12    1.22 
  -1   2   2   50.23    1.25 
  -1   2   2   51.85    1.22 
   0  -2   2   36.86    0.86 
   0  -2  -2   37.97    0.87 
   0  -2  -2   37.18    0.87 
   0   2  -2   37.45    0.87 
   0   2   2   35.60    0.87 
   0   2  -2   36.43    0.87 
  -1  -2  -2   41.39    0.96 
   1  -2   2   39.53    0.95 
  -1  -2  -2   41.43    0.99 
   1  -2   2   40.02    0.99 
   1   2   2   41.93    0.97 
  -1   2  -2   41.44    0.97 
  -1   2  -2   41.04    0.95 
  -2  -2  -2    8.05    0.29 
   2  -2   2    8.46    0.24 
  -2  -2  -2    8.38    0.23 
   2  -2   2    8.09    0.30 
  -2   2  -2    8.14    0.24 
  -2   2  -2    8.25    0.25 
   2   2   2    8.01    0.26 
   3  -2   2    7.40    0.34 
  -3  -2  -2    7.61    0.25 
  -3  -2  -2    7.41    0.32 
  -3   2  -2    7.06    0.27 
   3   2   2    7.14    0.29 
   3   2   2    8.15    0.30 
  -4  -2  -2    4.75    0.30 
   4  -2   2    4.93    0.34 
   4   2   2    4.38    0.28 
  -4   2  -2    4.36    0.24 
   4  -3  -2    9.86    0.46 
  -4  -3   2   10.14    0.44 
  -4   3   2    9.46    0.35 
   4   3  -2   10.26    0.50 
  -3  -3   2    7.22    0.26 
   3  -3  -2    6.81    0.28 
  -3  -3   2    6.67    0.32 
  -3   3   2    7.05    0.27 
  -3   3   2    6.96    0.35 
   3   3  -2    6.86    0.28 
  -2  -3   2   46.10    1.11 
   2  -3  -2   45.54    1.11 
  -2  -3   2   46.55    1.17 
   2   3  -2   47.60    1.11 
  -2   3   2   46.65    1.11 
  -2   3   2   45.81    1.17 
  -1  -3   2   21.19    0.55 
   1  -3  -2   20.51    0.53 
  -1  -3   2   21.13    0.52 
  -1   3   2   21.24    0.53 
   1   3  -2   20.91    0.52 
  -1   3   2   20.26    0.55 
   0  -3  -2   74.27    1.69 
   0  -3  -2   72.45    1.69 
   0  -3   2   74.25    1.69 
   0   3   2   71.10    1.69 
   0   3  -2   71.88    1.69 
   0   3  -2   72.34    1.69 
   1  -3   2    4.20    0.16 
  -1  -3  -2    4.41    0.16 
  -1  -3  -2    4.43    0.18 
   1  -3   2    3.97    0.18 
  -1   3  -2    4.31    0.17 
  -1   3  -2    4.24    0.13 
   1   3   2    4.37    0.17 
   2  -3   2   11.50    0.33 
  -2  -3  -2   11.91    0.32 
   2  -3   2   11.60    0.39 
  -2  -3  -2   11.81    0.38 
   2   3   2   11.89    0.35 
  -2   3  -2   11.60    0.34 
  -3  -3  -2    4.23    0.26 
   3  -3   2    4.19    0.28 
  -3  -3  -2    4.02    0.19 
  -3   3  -2    4.16    0.21 
   3   3   2    4.50    0.25 
   4  -3   2    5.09    0.36 
  -4  -3  -2    6.01    0.35 
   4   3   2    5.18    0.31 
  -4   3  -2    5.49    0.27 
  -4  -4   2   12.18    0.51 
   4  -4  -2   12.38    0.53 
  -4   4   2   11.92    0.41 
   3  -4  -2   17.42    0.51 
  -3  -4   2   17.91    0.58 
  -3  -4   2   16.73    0.49 
   3   4  -2   17.00    0.51 
  -3   4   2   17.05    0.50 
  -2  -4   2    3.97    0.18 
   2  -4  -2    3.72    0.19 
  -2  -4   2    3.96    0.22 
   2   4  -2    3.87    0.20 
  -2   4   2    3.99    0.20 
  -2   4   2    3.93    0.24 
  -1  -4   2   33.65    0.82 
   1  -4  -2   33.53    0.82 
  -1  -4   2   33.41    0.85 
   1   4  -2   33.42    0.82 
  -1   4   2   33.08    0.84 
  -1   4   2   33.54    0.83 
   0  -4  -2    0.37    0.06 
   0  -4  -2    0.29    0.07 
   0  -4   2    0.27    0.07 
   0   4   2    0.45    0.08 
   0   4  -2    0.48    0.08 
   0   4  -2    0.32    0.06 
   1  -4   2    7.90    0.25 
  -1  -4  -2    8.04    0.25 
   1  -4   2    7.54    0.27 
  -1  -4  -2    8.17    0.27 
   1   4   2    7.68    0.26 
  -1   4  -2    7.76    0.22 
  -1   4  -2    7.86    0.26 
  -2  -4  -2    0.46    0.08 
  -2  -4  -2    0.43    0.10 
   2  -4   2    0.30    0.08 
   2  -4   2    0.30    0.12 
  -2   4  -2    0.38    0.09 
   2   4   2    0.40    0.11 
  -3  -4  -2    2.15    0.17 
   3  -4   2    2.35    0.25 
  -3  -4  -2    1.95    0.22 
   3   4   2    1.91    0.18 
  -3   4  -2    2.13    0.19 
   4  -4   2    0.20    0.18 
  -4  -4  -2    0.00    0.14 
   4   4   2    0.01    0.15 
  -4   4  -2    0.22    0.12 
   4  -5  -2    0.85    0.21 
  -4   5   2    0.47    0.13 
  -3  -5   2    1.47    0.14 
   3  -5  -2    1.42    0.15 
  -3  -5   2    1.34    0.19 
  -3   5   2    1.27    0.15 
   3   5  -2    1.56    0.17 
  -2  -5   2   61.73    1.51 
  -2  -5   2   59.02    1.44 
   2  -5  -2   59.14    1.45 
   2   5  -2   60.88    1.45 
  -2   5   2   58.79    1.50 
  -2   5   2   60.26    1.45 
  -1  -5   2    3.13    0.17 
   1  -5  -2    3.10    0.17 
  -1   5   2    3.01    0.18 
   1   5  -2    3.04    0.18 
  -1   5   2    3.14    0.18 
   0  -5  -2    2.44    0.13 
   0  -5  -2    2.78    0.16 
   0  -5   2    2.66    0.15 
   0   5  -2    2.60    0.14 
   0   5   2    2.40    0.16 
   0   5  -2    2.64    0.16 
  -1  -5  -2    0.59    0.09 
   1  -5   2    0.53    0.10 
  -1  -5  -2    0.58    0.09 
   1  -5   2    0.61    0.10 
   1   5   2    0.70    0.11 
  -1   5  -2    0.71    0.10 
  -2  -5  -2    0.33    0.09 
   2  -5   2    0.36    0.10 
  -2  -5  -2    0.35    0.11 
   2  -5   2    0.30    0.12 
  -2   5  -2    0.30    0.11 
   2   5   2    0.35    0.12 
   3  -5   2    4.61    0.32 
  -3  -5  -2    3.79    0.21 
  -3  -5  -2    4.68    0.29 
   3   5   2    3.94    0.27 
  -3   5  -2    3.95    0.24 
  -4  -5  -2    2.23    0.26 
   4  -5   2    2.07    0.28 
  -4   5  -2    1.78    0.19 
   4   5   2    1.55    0.22 
   3  -6  -2    0.48    0.13 
   3  -6  -2    0.72    0.18 
  -3  -6   2    0.30    0.11 
   3   6  -2    0.41    0.15 
  -3   6   2    0.45    0.14 
  -2  -6   2    1.91    0.17 
   2  -6  -2    2.13    0.18 
  -2   6   2    2.12    0.20 
   2   6  -2    2.28    0.20 
  -1  -6   2   64.57    1.53 
   1  -6  -2   63.96    1.54 
   1   6  -2   63.12    1.53 
   1   6  -2   62.95    1.56 
  -1   6   2   62.87    1.54 
   0  -6   2    1.09    0.12 
   0  -6  -2    1.16    0.13 
   0   6  -2    1.31    0.14 
   0   6   2    1.21    0.13 
   0   6  -2    1.15    0.12 
   1  -6   2    2.96    0.19 
  -1  -6  -2    2.98    0.19 
  -1  -6  -2    3.00    0.18 
   1  -6   2    3.10    0.20 
   1   6   2    2.84    0.21 
  -1   6  -2    2.95    0.20 
   2  -6   2    5.82    0.27 
   2  -6   2    6.12    0.31 
  -2  -6  -2    6.59    0.26 
  -2  -6  -2    6.79    0.31 
  -2   6  -2    6.15    0.28 
   2   6   2    6.34    0.30 
  -3  -6  -2    4.07    0.30 
  -3  -6  -2    3.37    0.22 
   3  -6   2    4.20    0.33 
  -3   6  -2    3.63    0.26 
   3   6   2    3.99    0.29 
   3  -7  -2    3.36    0.30 
  -3  -7   2    3.16    0.23 
   3  -7  -2    2.98    0.26 
   3   7  -2    3.95    0.29 
   3   7  -2    2.93    0.27 
  -3   7   2    2.81    0.25 
   2  -7  -2    0.73    0.15 
   2  -7  -2    0.52    0.14 
  -2  -7   2    0.55    0.12 
   2   7  -2    0.77    0.14 
   2   7  -2    0.64    0.15 
  -2   7   2    0.48    0.14 
  -1  -7   2    4.21    0.22 
   1  -7  -2    4.17    0.24 
   1   7  -2    4.49    0.24 
  -1   7   2    4.08    0.25 
   1   7  -2    4.44    0.24 
   0  -7  -2   42.21    1.09 
   0  -7   2   42.06    1.08 
   0   7   2   43.61    1.10 
   0   7  -2   43.69    1.09 
  -1  -7  -2   11.12    0.37 
   1  -7   2   11.21    0.38 
  -1  -7  -2   10.71    0.39 
  -1   7  -2   10.63    0.39 
   1   7   2   11.15    0.39 
  -2  -7  -2    2.78    0.24 
   2  -7   2    2.73    0.24 
   2  -7   2    2.93    0.23 
  -2  -7  -2    2.67    0.21 
   2   7   2    3.07    0.25 
  -2   7  -2    2.94    0.23 
   3  -7   2    1.00    0.21 
  -3  -7  -2    0.72    0.14 
  -3  -7  -2    0.75    0.17 
   3   7   2    0.99    0.19 
  -3   7  -2    0.81    0.16 
  -2  -8   2    7.61    0.32 
   2  -8  -2    7.27    0.36 
  -2   8   2    6.87    0.35 
   2   8  -2    8.52    0.39 
   2   8  -2    7.60    0.34 
   1  -8  -2    0.66    0.15 
  -1  -8   2    0.89    0.14 
   1   8  -2    0.72    0.14 
  -1   8   2    0.90    0.17 
   1   8  -2    0.75    0.14 
   0  -8  -2    0.24    0.12 
   0  -8   2    0.18    0.12 
   0   8   2    0.57    0.15 
   0   8  -2    0.31    0.13 
   1  -8   2   10.94    0.40 
  -1  -8  -2   10.42    0.38 
   1   8   2   10.67    0.40 
  -1   8  -2   10.74    0.40 
   2  -8   2    6.29    0.32 
  -2  -8  -2    6.19    0.34 
  -2  -8  -2    6.46    0.30 
   2   8   2    6.81    0.35 
  -2   8  -2    6.40    0.33 
   1  -9  -2    1.51    0.19 
  -1  -9   2    1.55    0.18 
   1   9  -2    1.66    0.20 
  -1   9   2    1.32    0.19 
   0  -9  -2    1.55    0.19 
   0  -9   2    1.43    0.18 
   0   9  -2    1.35    0.19 
   0   9   2    1.27    0.19 
   1  -9   2    0.36    0.15 
  -1  -9  -2    0.36    0.13 
  -1   9  -2    0.27    0.16 
   1   9   2    0.48    0.16 
  -4   0   3    0.03    0.09 
  -3   0   3    0.27    0.09 
  -3   0   3    0.23    0.07 
  -3   0   3    0.33    0.12 
  -2   0   3    1.52    0.14 
  -2   0   3    1.41    0.11 
  -2   0   3    1.60    0.09 
  -2   0   3    1.60    0.10 
  -1   0   3    0.03    0.05 
  -1   0   3    0.03    0.04 
   1   0  -3    0.05    0.03 
  -1   0   3    0.08    0.03 
   0   0   3   11.90    0.27 
   0   0  -3   11.29    0.28 
   0   0   3   11.55    0.29 
   0   0  -3   10.82    0.27 
   1   0   3  893.61   24.12 
  -1   0  -3  974.58   25.28 
  -1   0  -3  986.56   23.99 
  -1   0  -3 1000.00   22.63 
  -2   0  -3    8.04    0.24 
   2   0   3    7.66    0.27 
  -2   0  -3    7.99    0.26 
   3   0   3    0.57    0.13 
  -3   0  -3    0.64    0.11 
  -3   0  -3    0.71    0.10 
   4   0   3    3.39    0.29 
  -4   0  -3    3.29    0.22 
  -4   1   3    2.63    0.19 
  -3  -1   3    5.39    0.22 
  -3  -1   3    5.74    0.22 
   3  -1  -3    5.75    0.24 
  -3  -1   3    5.88    0.26 
  -3  -1   3    5.92    0.28 
  -3   1   3    6.14    0.22 
  -3   1   3    5.91    0.30 
   2  -1  -3    0.66    0.08 
  -2  -1   3    0.60    0.06 
  -2  -1   3    0.61    0.07 
  -2  -1   3    0.63    0.09 
  -2  -1   3    0.67    0.09 
  -2   1   3    0.58    0.07 
  -2   1   3    0.69    0.11 
  -1  -1   3  125.55    2.92 
   1  -1  -3  122.73    2.92 
   1  -1  -3  130.58    2.91 
  -1  -1   3  127.28    2.92 
  -1   1   3  121.48    2.92 
  -1   1   3  130.05    2.92 
   1   1  -3  131.67    2.91 
   0  -1   3  121.24    2.92 
   0  -1  -3  134.89    2.97 
   0  -1   3  126.43    2.94 
   0  -1  -3  129.45    2.92 
   0   1   3  123.51    2.95 
   0   1  -3  129.44    2.93 
   1  -1   3  156.57    3.61 
   1  -1   3  159.26    3.68 
  -1  -1  -3  159.34    3.71 
  -1  -1  -3  156.79    3.61 
  -1   1  -3  159.54    3.64 
   1   1   3  157.36    3.66 
  -1   1  -3  157.82    3.64 
   2  -1   3  140.06    3.18 
  -2  -1  -3  137.65    3.24 
  -2  -1  -3  136.19    3.18 
   2  -1   3  138.67    3.24 
  -2  -1  -3  142.44    3.20 
  -2   1  -3  139.50    3.22 
  -2   1  -3  142.74    3.20 
   2   1   3  139.66    3.22 
   3  -1   3    1.72    0.20 
  -3  -1  -3    1.57    0.15 
  -3  -1  -3    1.73    0.18 
  -3   1  -3    1.78    0.15 
  -3   1  -3    1.76    0.16 
   3   1   3    1.73    0.19 
  -4  -1  -3    2.78    0.24 
   4  -1   3    2.81    0.29 
  -4   1  -3    2.58    0.21 
  -4  -2   3    4.93    0.31 
  -4   2   3    4.51    0.23 
   3  -2  -3   13.17    0.39 
  -3  -2   3   13.39    0.38 
  -3  -2   3   13.35    0.42 
  -3  -2   3   13.00    0.44 
  -3   2   3   13.20    0.48 
   3   2  -3   13.06    0.39 
  -3   2   3   12.63    0.38 
   2  -2  -3   49.92    1.18 
  -2  -2   3   50.38    1.26 
  -2  -2   3   51.44    1.21 
   2  -2  -3   51.24    1.21 
  -2   2   3   51.24    1.27 
  -2   2   3   51.56    1.21 
   2   2  -3   52.65    1.21 
  -1  -2   3    2.47    0.11 
   1  -2  -3    2.38    0.12 
  -1   2   3    2.32    0.11 
   1   2  -3    2.57    0.11 
  -1   2   3    2.35    0.14 
   0  -2  -3    0.55    0.06 
   0  -2  -3    0.61    0.06 
   0  -2   3    0.52    0.07 
   0  -2   3    0.49    0.05 
   0   2  -3    0.55    0.06 
   0   2  -3    0.52    0.05 
   0   2   3    0.63    0.06 
   1  -2   3  126.64    3.04 
   1  -2   3  131.43    3.08 
  -1  -2  -3  132.76    3.04 
  -1  -2  -3  136.58    3.08 
  -1   2  -3  134.87    3.05 
   1   2   3  136.76    3.06 
  -1   2  -3  135.89    3.05 
   2  -2   3   32.11    0.80 
   2  -2   3   33.33    0.86 
  -2  -2  -3   33.31    0.87 
  -2  -2  -3   34.15    0.79 
  -2   2  -3   33.36    0.81 
   2   2   3   33.48    0.82 
  -2   2  -3   34.77    0.82 
   3  -2   3    0.95    0.16 
  -3  -2  -3    1.00    0.14 
   3   2   3    0.98    0.14 
  -3   2  -3    0.95    0.12 
   3   2   3    0.98    0.16 
   4  -2   3    0.58    0.18 
  -4  -2  -3    0.29    0.14 
  -4   2  -3    0.40    0.12 
   4   2   3    0.38    0.15 
  -4   3   3   14.31    0.45 
  -3  -3   3   11.21    0.35 
  -3  -3   3   10.54    0.41 
   3  -3  -3   11.22    0.36 
   3   3  -3   10.68    0.36 
  -3   3   3   10.55    0.34 
  -3   3   3   11.53    0.44 
   2  -3  -3    5.39    0.21 
  -2  -3   3    5.18    0.23 
  -2  -3   3    4.87    0.19 
  -2   3   3    5.12    0.25 
   2   3  -3    5.23    0.20 
  -2   3   3    4.97    0.20 
  -1  -3   3    7.20    0.22 
   1  -3  -3    7.37    0.23 
   1   3  -3    7.24    0.22 
  -1   3   3    6.95    0.25 
  -1   3   3    7.18    0.23 
   0  -3  -3  135.74    3.09 
   0  -3   3  136.33    3.09 
   0  -3  -3  131.92    3.11 
   0   3   3  132.58    3.09 
   0   3  -3  137.93    3.09 
   0   3  -3  135.09    3.18 
   1  -3   3   13.91    0.38 
   1  -3   3   14.39    0.41 
  -1  -3  -3   14.62    0.38 
  -1  -3  -3   14.90    0.42 
  -1   3  -3   14.84    0.39 
  -1   3  -3   14.90    0.37 
   1   3   3   15.10    0.40 
   2  -3   3    0.94    0.13 
  -2  -3  -3    1.06    0.09 
  -2  -3  -3    0.77    0.10 
   2  -3   3    1.07    0.09 
   2   3   3    1.49    0.12 
  -2   3  -3    0.98    0.10 
   3  -3   3    2.45    0.24 
  -3  -3  -3    2.16    0.21 
  -3   3  -3    2.20    0.18 
   3   3   3    2.07    0.18 
  -4  -3  -3    0.54    0.16 
   4  -3   3    0.32    0.18 
   4   3   3    0.10    0.15 
  -4   3  -3    0.42    0.13 
  -3  -4   3   11.39    0.44 
   3  -4  -3   10.86    0.38 
  -3  -4   3   11.43    0.36 
   3   4  -3   11.22    0.38 
  -3   4   3   11.00    0.37 
  -3   4   3   11.43    0.47 
  -2  -4   3   13.98    0.44 
   2  -4  -3   13.44    0.40 
  -2  -4   3   13.53    0.38 
  -2   4   3   13.50    0.40 
   2   4  -3   12.97    0.39 
  -2   4   3   13.41    0.45 
  -1  -4   3  105.02    2.40 
   1  -4  -3  103.40    2.41 
   1   4  -3  105.68    2.40 
  -1   4   3  102.42    2.43 
   1   4  -3  101.28    2.43 
  -1   4   3  104.48    2.41 
   0  -4  -3   11.79    0.34 
   0  -4   3   12.36    0.34 
   0  -4  -3   11.96    0.33 
   0   4  -3   11.77    0.34 
   0   4  -3   12.19    0.34 
   0   4   3   11.71    0.34 
  -1  -4  -3    0.63    0.08 
   1  -4   3    0.63    0.09 
  -1  -4  -3    0.54    0.09 
   1  -4   3    0.56    0.09 
  -1   4  -3    0.72    0.09 
  -1   4  -3    0.57    0.07 
   1   4   3    0.66    0.09 
   2  -4   3    1.64    0.19 
  -2  -4  -3    1.79    0.13 
  -2  -4  -3    1.64    0.16 
   2  -4   3    1.66    0.14 
   2   4   3    1.93    0.15 
  -2   4  -3    1.65    0.15 
   3  -4   3    3.10    0.27 
  -3  -4  -3    3.13    0.24 
   3   4   3    2.71    0.23 
  -3   4  -3    2.96    0.21 
   4  -4   3    0.75    0.21 
  -4  -4  -3    0.68    0.18 
   4   4   3    0.61    0.18 
  -4   4  -3    0.81    0.15 
   4  -5  -3    1.08    0.22 
  -4   5   3    0.74    0.15 
   4   5  -3    1.07    0.18 
   3  -5  -3    1.53    0.16 
  -3  -5   3    1.44    0.14 
  -3   5   3    1.50    0.16 
   3   5  -3    1.72    0.17 
   2  -5  -3   43.93    1.09 
  -2  -5   3   43.68    1.08 
  -2   5   3   43.93    1.09 
   2   5  -3   45.17    1.09 
  -2   5   3   43.10    1.15 
  -1  -5   3   10.37    0.32 
   1  -5  -3    9.94    0.33 
   1   5  -3   10.46    0.33 
  -1   5   3   10.26    0.33 
   1   5  -3   10.20    0.34 
  -1   5   3   10.02    0.33 
   0  -5   3   10.68    0.31 
   0  -5  -3    9.87    0.30 
   0  -5  -3    9.88    0.31 
   0   5  -3   10.31    0.32 
   0   5  -3    9.92    0.31 
   0   5   3    9.81    0.32 
   1  -5   3    4.03    0.20 
  -1  -5  -3    4.13    0.19 
  -1  -5  -3    3.98    0.20 
   1  -5   3    3.92    0.20 
   1   5   3    3.89    0.20 
  -1   5  -3    4.04    0.19 
  -2  -5  -3    0.58    0.10 
   2  -5   3    0.73    0.11 
   2  -5   3    0.63    0.14 
  -2  -5  -3    0.37    0.11 
  -2   5  -3    0.47    0.11 
   2   5   3    0.80    0.13 
   3  -5   3    7.20    0.38 
  -3  -5  -3    7.26    0.36 
   3   5   3    6.95    0.32 
  -3   5  -3    6.86    0.31 
   4  -5   3    1.34    0.26 
  -4  -5  -3    1.03    0.21 
  -4   5  -3    1.37    0.18 
   4   5   3    1.02    0.20 
   3  -6  -3    1.87    0.19 
  -3  -6   3    1.83    0.16 
   3   6  -3    2.71    0.25 
  -3   6   3    1.85    0.19 
   3   6  -3    2.18    0.21 
   2  -6  -3    1.88    0.17 
  -2  -6   3    1.57    0.14 
   2   6  -3    2.00    0.20 
   2   6  -3    2.32    0.20 
  -2   6   3    1.79    0.17 
  -1  -6   3   76.96    1.83 
   1  -6  -3   76.80    1.84 
   1   6  -3   76.97    1.84 
  -1   6   3   76.78    1.85 
   1   6  -3   77.66    1.87 
   0  -6  -3   37.33    0.92 
   0  -6  -3   35.17    0.91 
   0  -6   3   36.75    0.92 
   0   6  -3   35.31    0.91 
   0   6   3   36.70    0.93 
   0   6  -3   36.73    0.92 
   1  -6   3    5.38    0.25 
   1  -6   3    5.90    0.25 
  -1  -6  -3    5.62    0.24 
  -1  -6  -3    5.53    0.25 
   1   6   3    5.96    0.27 
  -1   6  -3    5.53    0.25 
  -2  -6  -3    2.17    0.18 
   2  -6   3    1.93    0.21 
   2  -6   3    2.06    0.19 
  -2  -6  -3    2.34    0.20 
   2   6   3    2.36    0.22 
  -2   6  -3    2.19    0.20 
  -3  -6  -3    1.39    0.20 
   3  -6   3    1.36    0.22 
   3   6   3    1.48    0.19 
  -3   6  -3    1.42    0.18 
   3  -7  -3    1.03    0.17 
   3  -7  -3    1.63    0.22 
  -3  -7   3    1.09    0.15 
  -3   7   3    1.08    0.17 
   3   7  -3    1.43    0.20 
   2  -7  -3    2.28    0.20 
  -2  -7   3    2.35    0.19 
   2  -7  -3    2.40    0.22 
  -2   7   3    2.01    0.19 
   2   7  -3    2.53    0.21 
   2   7  -3    2.63    0.24 
   1  -7  -3    2.28    0.21 
  -1  -7   3    2.42    0.19 
   1   7  -3    2.67    0.20 
  -1   7   3    2.32    0.22 
   1   7  -3    2.35    0.20 
   0  -7  -3   42.56    1.09 
   0  -7   3   43.61    1.09 
   0   7   3   42.50    1.10 
   0   7  -3   42.96    1.09 
  -1  -7  -3   12.73    0.41 
  -1  -7  -3   13.11    0.44 
   1  -7   3   12.91    0.43 
   1   7   3   12.73    0.44 
  -1   7  -3   12.96    0.43 
   2  -7   3    0.73    0.16 
  -2  -7  -3    0.91    0.13 
   2  -7   3    0.90    0.15 
  -2  -7  -3    0.74    0.14 
  -2   7  -3    0.62    0.14 
   2   7   3    0.76    0.16 
  -3  -7  -3    2.56    0.27 
   3  -7   3    2.48    0.28 
   3   7   3    2.48    0.24 
  -3   7  -3    2.58    0.23 
   2  -8  -3   -0.02    0.13 
  -2  -8   3   -0.10    0.11 
   2   8  -3    0.11    0.13 
  -2   8   3    0.05    0.14 
   2   8  -3    0.03    0.12 
  -1  -8   3    0.10    0.11 
   1  -8  -3    0.05    0.12 
   1   8  -3    0.19    0.12 
   1   8  -3    0.08    0.11 
  -1   8   3    0.10    0.13 
   0  -8  -3    0.35    0.13 
   0  -8   3    0.40    0.13 
   0   8   3    0.36    0.14 
   0   8  -3    0.22    0.13 
  -1  -8  -3    4.40    0.25 
   1  -8   3    4.08    0.27 
   1   8   3    4.24    0.27 
  -1   8  -3    4.34    0.27 
   2  -8   3    9.49    0.38 
  -2  -8  -3    8.63    0.35 
  -2  -8  -3    9.33    0.41 
  -2   8  -3    9.38    0.39 
   2   8   3    9.56    0.41 
   1  -9  -3    1.07    0.18 
  -1  -9   3    0.80    0.16 
  -1   9   3    1.17    0.19 
   1   9  -3    1.06    0.17 
   0  -9  -3    0.41    0.14 
   0  -9   3    0.17    0.14 
   0   9   3    0.33    0.16 
   0   9  -3    0.33    0.15 
   1  -9   3    2.04    0.21 
  -1  -9  -3    2.01    0.20 
  -1   9  -3    2.53    0.23 
   1   9   3    2.26    0.22 
   4   0  -4   -0.14    0.11 
  -4   0   4    0.01    0.10 
  -4   0   4   -0.01    0.15 
  -3   0   4    0.38    0.13 
  -3   0   4    0.24    0.08 
  -2   0   4    2.89    0.13 
  -2   0   4    2.84    0.11 
  -2   0   4    2.77    0.17 
  -1   0   4   32.74    0.76 
  -1   0   4   33.18    0.75 
   1   0  -4   31.53    0.77 
  -1   0   4   32.47    0.78 
   0   0  -4  154.17    3.65 
   0   0  -4  153.60    3.57 
   0   0   4  161.65    3.59 
   0   0   4  156.33    3.62 
   1   0   4  255.89    6.11 
  -1   0  -4  267.56    6.10 
  -1   0  -4  270.33    6.17 
  -2   0  -4   94.54    2.27 
   2   0   4   99.18    2.21 
   2   0   4   95.16    2.27 
  -2   0  -4   99.25    2.24 
  -3   0  -4   30.41    0.81 
   3   0   4   29.92    0.83 
  -3   0  -4   30.31    0.77 
  -4   0  -4    0.11    0.11 
   4   0   4    0.27    0.15 
   4  -1  -4    1.12    0.15 
  -4   1   4    1.00    0.13 
  -4   1   4    1.04    0.21 
  -3  -1   4    1.36    0.16 
  -3  -1   4    1.14    0.14 
  -3  -1   4    1.14    0.12 
   3  -1  -4    1.17    0.13 
  -3  -1   4    1.22    0.11 
  -3   1   4    1.28    0.17 
  -3   1   4    1.40    0.11 
  -2  -1   4   12.72    0.34 
   2  -1  -4   13.26    0.35 
  -2  -1   4   12.28    0.33 
   2  -1  -4   12.28    0.34 
  -2  -1   4   12.83    0.37 
  -2   1   4   12.61    0.39 
  -2   1   4   12.97    0.33 
  -1  -1   4    6.49    0.19 
  -1  -1   4    6.52    0.20 
   1  -1  -4    7.31    0.20 
   1  -1  -4    6.67    0.18 
   1   1  -4    6.39    0.21 
   1   1  -4    6.82    0.18 
  -1   1   4    6.94    0.18 
  -1   1   4    6.60    0.22 
   0  -1  -4  127.16    2.87 
   0  -1   4  122.38    2.80 
   0  -1   4  123.75    2.84 
   0  -1  -4  123.80    2.79 
   0   1  -4  125.54    2.80 
   0   1  -4  124.06    2.85 
   0   1   4  112.49    2.81 
   0   1   4  118.64    2.84 
   1  -1   4   17.39    0.41 
  -1  -1  -4   17.08    0.41 
  -1  -1  -4   18.21    0.45 
   1  -1   4   17.12    0.45 
  -1   1  -4   18.13    0.43 
  -1   1  -4   16.53    0.43 
   1   1   4   16.82    0.43 
   2  -1   4   19.49    0.56 
  -2  -1  -4   19.57    0.48 
  -2  -1  -4   21.04    0.52 
   2  -1   4   19.93    0.48 
  -2  -1  -4   19.72    0.55 
  -2   1  -4   20.07    0.53 
   2   1   4   20.33    0.53 
  -2   1  -4   20.31    0.51 
   3  -1   4    7.92    0.34 
  -3  -1  -4    7.67    0.28 
  -3  -1  -4    7.98    0.32 
  -3   1  -4    7.81    0.29 
   3   1   4    8.45    0.33 
  -3   1  -4    7.63    0.28 
  -4  -1  -4    2.05    0.23 
   4  -1   4    2.01    0.25 
  -4   1  -4    1.94    0.18 
   4  -2  -4    4.07    0.27 
  -4  -2   4    3.69    0.24 
  -4   2   4    3.93    0.22 
  -4   2   4    4.03    0.34 
  -3  -2   4    4.45    0.25 
   3  -2  -4    5.09    0.23 
  -3  -2   4    4.86    0.21 
  -3  -2   4    4.90    0.24 
   3   2  -4    4.51    0.21 
  -3   2   4    4.65    0.29 
  -3   2   4    4.74    0.20 
   2  -2  -4   18.12    0.47 
   2  -2  -4   17.39    0.44 
  -2  -2   4   17.52    0.51 
  -2  -2   4   17.91    0.46 
  -2   2   4   18.20    0.46 
  -2   2   4   18.21    0.52 
   2   2  -4   18.30    0.46 
   1  -2  -4   54.37    1.24 
   1  -2  -4   51.92    1.21 
  -1  -2   4   54.27    1.24 
   1   2  -4   54.23    1.23 
  -1   2   4   52.49    1.26 
  -1   2   4   53.77    1.23 
   1   2  -4   50.00    1.26 
   0  -2   4   43.20    1.01 
   0  -2  -4   45.88    1.02 
   0  -2   4   42.15    1.02 
   0  -2  -4   43.42    1.01 
   0   2   4   43.55    1.02 
   0   2   4   41.84    1.01 
   0   2  -4   44.93    1.01 
   0   2  -4   42.78    1.02 
  -1  -2  -4   42.46    1.03 
  -1  -2  -4   42.10    0.99 
   1  -2   4   42.77    1.04 
   1  -2   4   41.74    0.99 
  -1   2  -4   42.48    1.00 
  -1   2  -4   43.37    1.00 
   1   2   4   43.11    1.01 
   2  -2   4   10.47    0.36 
  -2  -2  -4   10.65    0.28 
  -2  -2  -4   10.72    0.35 
   2  -2   4   10.58    0.28 
  -2   2  -4   10.50    0.31 
   2   2   4   10.69    0.32 
  -2   2  -4   10.66    0.30 
   3  -2   4    3.42    0.26 
  -3  -2  -4    3.07    0.23 
   3   2   4    3.56    0.22 
  -3   2  -4    3.35    0.19 
   4  -2   4    2.38    0.26 
  -4  -2  -4    2.12    0.23 
  -4   2  -4    2.51    0.21 
   4   2   4    2.53    0.22 
  -4  -3   4    9.94    0.37 
  -4   3   4    9.48    0.34 
   4   3  -4    9.90    0.41 
  -3  -3   4   16.27    0.46 
  -3  -3   4   15.69    0.53 
   3  -3  -4   15.79    0.47 
   3   3  -4   15.89    0.46 
  -3   3   4   15.46    0.45 
  -3   3   4   16.12    0.55 
   2  -3  -4    0.05    0.07 
  -2  -3   4    0.08    0.06 
  -2   3   4    0.11    0.07 
   2   3  -4    0.08    0.07 
  -2   3   4    0.14    0.10 
  -1  -3   4   23.63    0.58 
   1  -3  -4   23.31    0.59 
   1   3  -4   23.42    0.58 
  -1   3   4   22.74    0.61 
  -1   3   4   23.81    0.59 
   0  -3   4   83.86    2.05 
   0  -3   4   90.09    2.05 
   0  -3  -4   90.58    2.06 
   0  -3  -4   90.59    2.05 
   0   3  -4   91.24    2.05 
   0   3  -4   88.65    2.06 
   0   3   4   87.81    2.06 
   1  -3   4   41.16    1.02 
   1  -3   4   41.37    0.98 
  -1  -3  -4   41.67    1.02 
  -1  -3  -4   41.15    0.98 
  -1   3  -4   41.24    0.99 
  -1   3  -4   41.36    0.97 
  -2  -3  -4   12.30    0.32 
  -2  -3  -4   12.09    0.39 
   2  -3   4   11.35    0.33 
   2  -3   4   11.82    0.40 
  -2   3  -4   12.11    0.33 
   2   3   4   11.53    0.36 
  -2   3  -4   11.75    0.35 
  -3  -3  -4    1.06    0.16 
   3  -3   4    1.14    0.18 
  -3   3  -4    0.91    0.12 
   3   3   4    1.16    0.15 
   4  -3   4    0.89    0.22 
  -4  -3  -4    0.91    0.18 
   4   3   4    0.68    0.18 
  -4   3  -4    1.01    0.16 
  -4  -4   4    1.07    0.16 
  -4   4   4    1.15    0.15 
   3  -4  -4   24.65    0.67 
  -3  -4   4   24.78    0.66 
   3   4  -4   24.72    0.67 
  -3   4   4   24.86    0.76 
  -3   4   4   24.01    0.66 
  -2  -4   4   17.05    0.47 
   2  -4  -4   16.95    0.48 
  -2   4   4   16.80    0.53 
   2   4  -4   17.75    0.47 
  -2   4   4   16.62    0.47 
   1  -4  -4   22.79    0.59 
  -1  -4   4   23.03    0.59 
   1   4  -4   23.15    0.62 
  -1   4   4   22.26    0.61 
   1   4  -4   23.71    0.59 
  -1   4   4   23.46    0.60 
   0  -4  -4   49.55    1.17 
   0  -4   4   49.19    1.17 
   0  -4  -4   48.98    1.17 
   0   4  -4   50.56    1.17 
   0   4  -4   47.32    1.17 
   0   4   4   47.99    1.17 
  -1  -4  -4   14.88    0.41 
  -1  -4  -4   15.39    0.44 
   1  -4   4   15.68    0.42 
   1  -4   4   15.04    0.44 
  -1   4  -4   15.27    0.40 
   1   4   4   15.46    0.43 
  -1   4  -4   14.81    0.42 
  -2  -4  -4    0.89    0.10 
  -2  -4  -4    0.69    0.12 
   2  -4   4    0.92    0.10 
   2  -4   4    0.87    0.14 
   2   4   4    0.84    0.12 
  -2   4  -4    0.75    0.11 
  -3  -4  -4    1.12    0.17 
   3  -4   4    0.99    0.18 
   3   4   4    0.95    0.16 
  -3   4  -4    0.80    0.13 
  -4  -4  -4    0.75    0.18 
   4  -4   4    1.11    0.23 
  -4   4  -4    0.66    0.15 
   4   4   4    0.72    0.18 
  -4  -5   4    7.43    0.34 
  -4   5   4    7.08    0.32 
   4   5  -4    8.71    0.42 
  -3  -5   4    1.56    0.15 
   3  -5  -4    1.38    0.17 
  -3   5   4    1.64    0.23 
  -3   5   4    1.58    0.16 
   3   5  -4    1.88    0.21 
  -2  -5   4   11.26    0.36 
   2  -5  -4   11.63    0.38 
   2   5  -4   11.66    0.42 
   2   5  -4   12.16    0.38 
  -2   5   4   11.98    0.43 
  -2   5   4   11.83    0.38 
   1  -5  -4   59.81    1.45 
  -1  -5   4   60.41    1.44 
   1   5  -4   60.71    1.48 
   1   5  -4   61.55    1.44 
  -1   5   4   60.74    1.45 
  -1   5   4   58.34    1.46 
   0  -5   4    5.67    0.22 
   0  -5  -4    5.62    0.21 
   0  -5  -4    5.81    0.22 
   0   5  -4    5.57    0.22 
   0   5  -4    5.73    0.21 
   0   5   4    5.76    0.23 
   1  -5   4    1.19    0.12 
  -1  -5  -4    1.36    0.11 
  -1  -5  -4    1.11    0.12 
   1  -5   4    1.08    0.12 
  -1   5  -4    1.21    0.12 
   1   5   4    1.43    0.14 
  -2  -5  -4    0.19    0.10 
  -2  -5  -4    0.04    0.08 
   2  -5   4    0.12    0.09 
   2  -5   4    0.26    0.12 
  -2   5  -4    0.07    0.10 
   2   5   4    0.17    0.11 
   3  -5   4    0.74    0.19 
  -3  -5  -4    0.57    0.15 
   3   5   4    0.48    0.15 
  -3   5  -4    0.57    0.13 
   4  -5   4    2.03    0.29 
  -4  -5  -4    2.01    0.25 
   4   5   4    2.21    0.25 
  -4   5  -4    2.35    0.22 
  -3  -6   4    4.05    0.24 
   3  -6  -4    4.32    0.27 
  -3   6   4    4.41    0.26 
   3   6  -4    5.15    0.32 
  -2  -6   4    0.25    0.10 
   2  -6  -4    0.46    0.12 
  -2   6   4    0.28    0.12 
  -2   6   4    0.45    0.15 
   2   6  -4    0.47    0.12 
   2   6  -4    0.32    0.11 
  -1  -6   4   14.24    0.43 
   1  -6  -4   13.50    0.43 
   1   6  -4   14.55    0.46 
  -1   6   4   13.42    0.43 
   1   6  -4   14.15    0.42 
  -1   6   4   14.50    0.45 
   0  -6  -4   33.87    0.88 
   0  -6   4   36.15    0.90 
   0  -6  -4   35.67    0.90 
   0   6  -4   34.79    0.89 
   0   6  -4   35.61    0.90 
   0   6   4   35.41    0.91 
  -1  -6  -4    7.06    0.29 
   1  -6   4    7.17    0.28 
   1  -6   4    6.41    0.28 
  -1  -6  -4    6.82    0.27 
   1   6   4    6.72    0.29 
  -1   6  -4    6.66    0.28 
   2  -6   4    3.08    0.25 
   2  -6   4    3.39    0.22 
  -2  -6  -4    3.55    0.24 
  -2  -6  -4    3.45    0.20 
  -2   6  -4    3.21    0.22 
   2   6   4    3.20    0.25 
   3  -6   4    1.13    0.21 
  -3  -6  -4    0.99    0.18 
   3   6   4    0.93    0.18 
  -3   6  -4    1.07    0.17 
   3  -7  -4    0.58    0.17 
  -3  -7   4    0.22    0.12 
   3  -7  -4    0.26    0.15 
   3   7  -4    0.49    0.16 
  -3   7   4    0.07    0.13 
  -2  -7   4    0.31    0.11 
   2  -7  -4    0.45    0.13 
   2   7  -4    0.48    0.14 
   2   7  -4    0.36    0.13 
  -2   7   4    0.42    0.14 
   1  -7  -4    2.24    0.19 
  -1  -7   4    2.45    0.19 
   1   7  -4    2.62    0.20 
   1   7  -4    2.23    0.20 
  -1   7   4    2.37    0.22 
   0  -7   4    1.39    0.15 
   0  -7  -4    1.21    0.14 
   0   7  -4    1.34    0.15 
   0   7   4    1.35    0.15 
  -1  -7  -4   34.44    0.89 
   1  -7   4   34.71    0.90 
  -1  -7  -4   34.02    0.92 
  -1   7  -4   33.95    0.90 
   1   7   4   34.66    0.92 
   2  -7   4   -0.17    0.12 
  -2  -7  -4    0.01    0.10 
   2  -7   4    0.04    0.11 
  -2  -7  -4    0.02    0.10 
   2   7   4   -0.04    0.13 
  -2   7  -4    0.16    0.13 
  -3  -7  -4    1.38    0.21 
   3  -7   4    1.16    0.22 
  -3   7  -4    1.50    0.20 
   3   7   4    1.32    0.20 
   2  -8  -4    0.95    0.17 
  -2  -8   4    1.21    0.16 
  -2   8   4    0.85    0.17 
   2   8  -4    1.31    0.19 
   2   8  -4    1.06    0.16 
   1  -8  -4    2.99    0.24 
  -1  -8   4    2.63    0.22 
   1   8  -4    3.11    0.24 
   1   8  -4    3.16    0.24 
  -1   8   4    3.42    0.27 
   0  -8  -4    3.58    0.25 
   0  -8   4    3.51    0.25 
   0   8  -4    3.78    0.25 
   0   8   4    3.89    0.27 
   1  -8   4    7.88    0.34 
  -1  -8  -4    7.31    0.32 
  -1   8  -4    7.86    0.34 
   1   8   4    7.98    0.35 
   2  -8   4    8.80    0.37 
  -2  -8  -4    9.31    0.41 
  -2  -8  -4    9.40    0.36 
  -2   8  -4    9.50    0.39 
   2   8   4    9.54    0.41 
   1  -9  -4    0.54    0.16 
  -1  -9   4    0.47    0.14 
   1   9  -4    0.36    0.14 
  -1   9   4    0.35    0.17 
   0  -9  -4    0.57    0.16 
   0  -9   4    0.51    0.15 
   0   9   4    0.53    0.17 
   0   9  -4    0.65    0.16 
  -1  -9  -4    0.56    0.15 
   1  -9   4    0.45    0.15 
   1   9   4    0.36    0.16 
  -1   9  -4    0.45    0.16 
  -4   0   5    1.07    0.19 
   4   0  -5    0.98    0.15 
  -3   0   5    2.68    0.14 
   3   0  -5    2.76    0.17 
  -3   0   5    2.92    0.23 
   2   0  -5    6.36    0.22 
  -2   0   5    6.71    0.25 
  -2   0   5    6.72    0.21 
  -2   0   5    6.45    0.19 
  -1   0   5    2.83    0.10 
  -1   0   5    2.76    0.08 
  -1   0   5    2.59    0.13 
   1   0  -5    2.62    0.11 
   0   0  -5    5.62    0.15 
   0   0   5    5.32    0.20 
   0   0  -5    5.29    0.18 
   0   0   5    5.71    0.15 
  -1   0  -5    4.48    0.16 
  -1   0  -5    4.71    0.14 
   1   0   5    4.54    0.17 
   2   0   5   41.62    1.03 
  -2   0  -5   41.36    0.99 
  -2   0  -5   41.35    1.02 
   2   0   5   41.43    0.96 
   3   0   5   10.08    0.38 
  -3   0  -5    9.77    0.36 
  -3   0  -5    9.40    0.32 
  -4   0  -5    4.48    0.26 
   4   0   5    4.92    0.33 
   4  -1  -5    0.65    0.13 
  -4  -1   5    0.43    0.17 
  -4   1   5    0.37    0.17 
   3  -1  -5    3.29    0.20 
  -3  -1   5    3.00    0.16 
  -3  -1   5    3.06    0.22 
  -3  -1   5    3.25    0.19 
  -3   1   5    3.14    0.16 
  -3   1   5    3.36    0.25 
   3   1  -5    3.27    0.19 
  -2  -1   5    4.41    0.19 
  -2  -1   5    4.60    0.17 
   2  -1  -5    4.34    0.16 
   2  -1  -5    4.49    0.18 
  -2   1   5    4.49    0.22 
  -2   1   5    4.52    0.15 
   2   1  -5    4.32    0.19 
   1  -1  -5   38.71    0.90 
   1  -1  -5   40.95    0.91 
  -1  -1   5   38.00    0.90 
  -1  -1   5   37.69    0.92 
   1   1  -5   37.16    0.92 
   1   1  -5   37.59    0.88 
  -1   1   5   39.41    0.89 
   0  -1  -5   12.55    0.32 
   0  -1  -5   13.04    0.33 
   0  -1   5   13.23    0.31 
   0  -1   5   13.12    0.34 
   0   1   5   11.94    0.33 
   0   1   5   12.20    0.32 
   0   1  -5   13.18    0.31 
   0   1  -5   13.44    0.34 
  -1  -1  -5   18.65    0.48 
   1  -1   5   18.15    0.42 
  -1  -1  -5   17.77    0.42 
   1  -1   5   18.03    0.48 
  -1   1  -5   18.69    0.45 
   1   1   5   18.21    0.46 
  -1   1  -5   17.33    0.45 
   2  -1   5   57.80    1.40 
  -2  -1  -5   58.53    1.36 
  -2  -1  -5   56.55    1.40 
  -2  -1  -5   56.20    1.32 
   2  -1   5   55.47    1.32 
  -2   1  -5   58.52    1.35 
   2   1   5   58.55    1.38 
  -2   1  -5   57.61    1.37 
   3  -1   5   18.89    0.59 
  -3  -1  -5   18.98    0.53 
  -3  -1  -5   19.82    0.58 
   3   1   5   19.36    0.57 
  -3   1  -5   18.31    0.54 
  -3   1  -5   18.18    0.52 
   4  -1   5    0.10    0.16 
  -4  -1  -5    0.29    0.13 
  -4   1  -5    0.33    0.12 
  -4  -2   5    3.23    0.24 
   4  -2  -5    3.30    0.24 
  -4   2   5    2.95    0.32 
   4   2  -5    3.58    0.26 
  -4   2   5    3.11    0.21 
  -3  -2   5    6.32    0.25 
  -3  -2   5    6.31    0.27 
   3  -2  -5    6.50    0.26 
  -3   2   5    5.92    0.23 
   3   2  -5    6.23    0.24 
   3   2  -5    6.15    0.28 
  -3   2   5    6.26    0.33 
   2  -2  -5   35.31    0.87 
   2  -2  -5   34.90    0.83 
  -2  -2   5   36.39    0.86 
  -2   2   5   36.59    0.86 
   2   2  -5   33.48    0.90 
  -2   2   5   36.23    0.92 
   2   2  -5   35.96    0.85 
   1  -2  -5   14.07    0.36 
  -1  -2   5   14.12    0.35 
   1  -2  -5   13.78    0.33 
   1   2  -5   13.77    0.34 
  -1   2   5   13.18    0.35 
   1   2  -5   13.36    0.38 
  -1   2   5   12.97    0.38 
   0  -2   5   35.53    0.85 
   0  -2  -5   36.64    0.85 
   0  -2  -5   37.64    0.86 
   0  -2   5   35.54    0.86 
   0   2  -5   37.24    0.85 
   0   2  -5   36.66    0.87 
   0   2   5   35.69    0.86 
   0   2   5   35.33    0.86 
  -1  -2  -5   38.09    0.90 
   1  -2   5   37.75    0.90 
   1  -2   5   38.60    0.95 
  -1  -2  -5   40.29    0.95 
   1   2   5   38.94    0.92 
  -1   2  -5   37.98    0.92 
  -1   2  -5   38.61    0.91 
  -2  -2  -5   10.67    0.28 
   2  -2   5   10.33    0.28 
   2  -2   5   10.87    0.37 
  -2  -2  -5   10.49    0.35 
  -2   2  -5   10.23    0.31 
  -2   2  -5   10.67    0.31 
   2   2   5   10.90    0.32 
   3  -2   5    1.90    0.23 
  -3  -2  -5    2.03    0.20 
   3   2   5    2.12    0.20 
  -3   2  -5    1.93    0.17 
   4  -2   5    1.12    0.22 
  -4  -2  -5    1.50    0.20 
   4   2   5    1.71    0.20 
  -4   2  -5    1.38    0.17 
  -4  -3   5    6.06    0.30 
   4  -3  -5    6.45    0.31 
   4   3  -5    6.23    0.33 
  -4   3   5    6.25    0.41 
  -4   3   5    6.03    0.26 
  -3  -3   5    2.50    0.19 
   3  -3  -5    2.36    0.20 
   3   3  -5    2.14    0.19 
  -3   3   5    2.24    0.25 
   3   3  -5    2.12    0.19 
  -3   3   5    2.36    0.17 
  -2  -3   5    2.11    0.14 
   2  -3  -5    1.92    0.15 
  -2   3   5    2.18    0.19 
  -2   3   5    2.15    0.14 
   2   3  -5    1.88    0.15 
   2   3  -5    2.33    0.14 
  -1  -3   5  100.05    2.26 
   1  -3  -5   98.53    2.26 
   1   3  -5   97.28    2.29 
  -1   3   5   98.11    2.26 
   1   3  -5   98.46    2.25 
  -1   3   5   93.72    2.28 
   0  -3   5   29.96    0.73 
   0  -3  -5   30.49    0.73 
   0  -3   5   28.71    0.73 
   0  -3  -5   30.75    0.73 
   0   3   5   29.90    0.73 
   0   3  -5   30.70    0.73 
   0   3  -5   29.89    0.74 
  -1  -3  -5    8.31    0.24 
  -1  -3  -5    8.67    0.28 
   1  -3   5    8.45    0.25 
   1  -3   5    8.28    0.29 
  -1   3  -5    8.46    0.25 
   1   3   5    8.39    0.27 
  -1   3  -5    8.71    0.25 
   2  -3   5    1.26    0.11 
  -2  -3  -5    1.40    0.11 
  -2  -3  -5    1.40    0.15 
   2  -3   5    1.41    0.16 
   2   3   5    1.76    0.14 
  -2   3  -5    1.39    0.10 
  -2   3  -5    1.43    0.13 
   3  -3   5    3.57    0.28 
  -3  -3  -5    3.73    0.25 
  -3   3  -5    3.75    0.21 
   3   3   5    3.68    0.25 
   4  -3   5    0.58    0.20 
  -4  -3  -5    0.44    0.16 
  -4   3  -5    0.47    0.13 
   4   3   5    0.32    0.17 
   4  -4  -5    2.24    0.20 
  -4  -4   5    1.93    0.19 
  -4   4   5    2.24    0.20 
   4   4  -5    2.84    0.27 
   3  -4  -5   22.48    0.64 
  -3  -4   5   22.72    0.61 
  -3   4   5   23.23    0.72 
   3   4  -5   22.09    0.68 
  -3   4   5   22.36    0.61 
   2  -4  -5    3.58    0.20 
  -2  -4   5    3.34    0.17 
  -2   4   5    3.54    0.24 
  -2   4   5    3.53    0.19 
   2   4  -5    3.56    0.18 
   2   4  -5    3.49    0.21 
   1  -4  -5    5.18    0.20 
  -1  -4   5    5.07    0.19 
  -1   4   5    5.06    0.20 
   1   4  -5    4.98    0.21 
   1   4  -5    5.28    0.19 
  -1   4   5    4.75    0.21 
   0  -4  -5   16.01    0.43 
   0  -4   5   16.02    0.43 
   0  -4  -5   16.15    0.43 
   0   4  -5   15.71    0.43 
   0   4  -5   16.24    0.43 
   0   4   5   15.76    0.43 
  -1  -4  -5    1.45    0.13 
   1  -4   5    1.41    0.12 
  -1  -4  -5    1.24    0.11 
   1  -4   5    1.29    0.14 
  -1   4  -5    1.33    0.12 
   1   4   5    1.57    0.13 
  -1   4  -5    1.39    0.12 
   2  -4   5    0.98    0.11 
   2  -4   5    1.10    0.16 
  -2  -4  -5    0.77    0.12 
  -2  -4  -5    1.09    0.10 
  -2   4  -5    1.09    0.12 
   2   4   5    0.96    0.13 
   3  -4   5    3.82    0.30 
  -3  -4  -5    3.60    0.27 
   3   4   5    3.42    0.25 
  -3   4  -5    3.35    0.21 
   4  -4   5    5.84    0.42 
  -4  -4  -5    7.26    0.40 
  -4   4  -5    5.67    0.30 
   4   4   5    5.79    0.35 
  -4  -5   5    0.95    0.17 
   4   5  -5    1.45    0.21 
  -3  -5   5    1.53    0.15 
   3  -5  -5    1.53    0.17 
  -3   5   5    1.72    0.23 
  -3   5   5    1.74    0.16 
   3   5  -5    2.04    0.23 
  -2  -5   5   24.58    0.67 
   2  -5  -5   25.71    0.69 
   2   5  -5   26.29    0.67 
   2   5  -5   26.28    0.74 
  -2   5   5   25.76    0.74 
  -2   5   5   25.56    0.69 
   1  -5  -5   13.84    0.42 
  -1  -5   5   14.27    0.41 
   1   5  -5   14.29    0.40 
   1   5  -5   14.65    0.44 
  -1   5   5   13.83    0.43 
  -1   5   5   13.65    0.42 
   0  -5  -5   15.95    0.45 
   0  -5   5   16.13    0.45 
   0  -5  -5   15.90    0.44 
   0   5   5   15.90    0.45 
   0   5  -5   16.30    0.45 
   0   5  -5   15.72    0.45 
   1  -5   5    1.36    0.15 
   1  -5   5    1.72    0.16 
  -1  -5  -5    1.53    0.14 
  -1  -5  -5    1.53    0.14 
  -1   5  -5    1.35    0.16 
   1   5   5    1.81    0.16 
  -1   5  -5    1.63    0.15 
  -2  -5  -5    4.63    0.21 
  -2  -5  -5    4.37    0.25 
   2  -5   5    4.49    0.22 
   2  -5   5    4.46    0.27 
  -2   5  -5    4.55    0.23 
   2   5   5    4.62    0.25 
  -3  -5  -5    2.02    0.23 
   3  -5   5    2.02    0.25 
   3   5   5    2.01    0.20 
  -3   5  -5    2.03    0.18 
   4  -5   5    2.54    0.32 
  -4  -5  -5    2.42    0.29 
  -4   5  -5    2.93    0.26 
   4   5   5    2.68    0.27 
   3  -6  -5    3.10    0.26 
  -3  -6   5    2.36    0.21 
  -3   6   5    2.51    0.23 
  -3   6   5    2.71    0.32 
   3   6  -5    3.38    0.29 
   2  -6  -5    1.12    0.15 
  -2  -6   5    1.05    0.13 
   2   6  -5    1.17    0.17 
   2   6  -5    1.20    0.14 
  -2   6   5    1.16    0.17 
  -2   6   5    0.94    0.14 
  -1  -6   5   11.09    0.36 
   1  -6  -5   10.67    0.37 
  -1   6   5   10.53    0.37 
  -1   6   5   11.21    0.38 
   1   6  -5   11.43    0.36 
   1   6  -5   11.43    0.39 
   0  -6  -5   41.25    1.05 
   0  -6  -5   43.38    1.06 
   0  -6   5   43.82    1.06 
   0   6  -5   42.18    1.06 
   0   6  -5   42.55    1.06 
   0   6   5   42.43    1.07 
  -1  -6  -5    0.07    0.09 
   1  -6   5    0.07    0.10 
  -1  -6  -5    0.09    0.09 
   1  -6   5    0.22    0.10 
  -1   6  -5    0.16    0.10 
   1   6   5    0.10    0.11 
  -2  -6  -5    6.13    0.30 
   2  -6   5    5.62    0.26 
   2  -6   5    5.63    0.30 
  -2  -6  -5    5.73    0.25 
  -2   6  -5    5.68    0.27 
   2   6   5    5.51    0.29 
  -3  -6  -5    6.00    0.34 
   3  -6   5    6.17    0.38 
  -3   6  -5    6.13    0.31 
   3   6   5    6.24    0.35 
  -3  -7   5    0.46    0.13 
   3  -7  -5    0.53    0.16 
  -3   7   5    0.40    0.14 
   3   7  -5    0.76    0.18 
  -2  -7   5    0.37    0.11 
   2  -7  -5    0.35    0.13 
   2   7  -5    0.46    0.14 
   2   7  -5    0.49    0.13 
  -2   7   5    0.36    0.14 
   1  -7  -5    8.00    0.33 
  -1  -7   5    8.50    0.32 
  -1   7   5    8.53    0.35 
   1   7  -5    8.64    0.35 
   1   7  -5    8.94    0.33 
   0  -7  -5    4.30    0.24 
   0  -7   5    4.29    0.24 
   0   7  -5    4.26    0.24 
   0   7   5    4.43    0.25 
   1  -7   5    6.09    0.27 
  -1  -7  -5    5.72    0.28 
  -1  -7  -5    5.74    0.27 
   1   7   5    5.56    0.30 
  -1   7  -5    5.89    0.28 
  -2  -7  -5    0.40    0.13 
  -2  -7  -5    0.36    0.11 
   2  -7   5    0.39    0.15 
   2  -7   5    0.54    0.13 
  -2   7  -5    0.37    0.14 
   2   7   5    0.58    0.15 
   3  -7   5    0.17    0.18 
  -3  -7  -5    0.38    0.16 
  -3   7  -5    0.22    0.15 
   3   7   5    0.41    0.18 
  -2  -8   5    0.58    0.14 
   2  -8  -5    0.77    0.16 
  -2   8   5    0.39    0.16 
   2   8  -5    0.78    0.18 
   1  -8  -5    5.99    0.31 
  -1  -8   5    5.37    0.28 
   1   8  -5    5.83    0.30 
   1   8  -5    5.80    0.29 
  -1   8   5    5.54    0.32 
   0  -8   5    0.22    0.12 
   0  -8  -5    0.38    0.13 
   0   8  -5    0.30    0.13 
   0   8   5    0.43    0.14 
   1  -8   5    7.80    0.33 
  -1  -8  -5    7.31    0.32 
  -1   8  -5    7.60    0.33 
   1   8   5    7.57    0.35 
  -2  -8  -5    0.69    0.14 
  -2  -8  -5    0.78    0.16 
   2  -8   5    0.83    0.16 
   2   8   5    0.92    0.19 
  -2   8  -5    0.90    0.18 
  -1  -9   5    0.60    0.15 
   1  -9  -5    0.74    0.17 
   1   9  -5    0.70    0.16 
  -1   9   5    0.99    0.19 
   0  -9  -5    0.12    0.14 
   0  -9   5   -0.13    0.12 
   0   9   5    0.23    0.16 
   0   9  -5    0.18    0.14 
   1  -9   5    3.39    0.28 
  -1  -9  -5    3.35    0.26 
  -1   9  -5    3.44    0.28 
   1   9   5    3.44    0.30 
   4   0  -6    0.07    0.13 
  -4   0   6    0.29    0.16 
  -3   0   6    7.94    0.33 
  -3   0   6    7.43    0.24 
   3   0  -6    7.53    0.28 
  -2   0   6   10.39    0.33 
   2   0  -6   10.01    0.30 
  -2   0   6   10.37    0.29 
  -2   0   6    9.89    0.26 
  -1   0   6    8.98    0.22 
   1   0  -6    9.19    0.25 
   0   0   6   72.31    1.68 
   0   0  -6   71.35    1.67 
   0   0   6   73.94    1.68 
  -1   0  -6   21.15    0.55 
  -1   0  -6   22.22    0.53 
   1   0   6   21.58    0.55 
  -2   0  -6   48.15    1.22 
   2   0   6   50.77    1.23 
   2   0   6   50.44    1.14 
  -2   0  -6   50.34    1.19 
   3   0   6    2.78    0.24 
  -3   0  -6    2.83    0.21 
  -3   0  -6    3.06    0.19 
  -4   0  -6    2.29    0.21 
   4   0   6    1.94    0.24 
   4  -1  -6    2.25    0.19 
  -4  -1   6    2.00    0.26 
  -4   1   6    2.28    0.26 
   3  -1  -6    7.84    0.29 
  -3  -1   6    7.77    0.32 
  -3  -1   6    7.81    0.28 
   3   1  -6    7.72    0.30 
  -3   1   6    7.81    0.35 
  -3   1   6    7.47    0.25 
   2  -1  -6   23.64    0.59 
   2  -1  -6   23.81    0.60 
  -2  -1   6   22.92    0.62 
  -2  -1   6   23.65    0.59 
   2   1  -6   22.91    0.62 
  -2   1   6   23.67    0.57 
  -2   1   6   23.65    0.64 
   1  -1  -6   27.47    0.65 
  -1  -1   6   27.20    0.65 
  -1  -1   6   27.20    0.67 
   1  -1  -6   27.73    0.65 
   1   1  -6   26.79    0.67 
  -1   1   6   25.77    0.68 
  -1   1   6   27.41    0.64 
   0  -1   6   17.55    0.45 
   0  -1  -6   17.56    0.42 
   0  -1   6   17.80    0.42 
   0  -1  -6   17.55    0.44 
   0   1  -6   18.16    0.41 
   0   1   6   16.46    0.42 
   0   1   6   17.08    0.44 
   0   1  -6   18.05    0.45 
   1  -1   6   13.06    0.32 
  -1  -1  -6   13.19    0.32 
  -1  -1  -6   14.01    0.38 
   1  -1   6   13.43    0.38 
  -1   1  -6   13.42    0.36 
   1   1   6   14.11    0.37 
   1   1   6   13.55    0.35 
  -1   1  -6   14.09    0.35 
   2  -1   6    2.00    0.09 
  -2  -1  -6    2.16    0.15 
   2  -1   6    2.20    0.18 
  -2  -1  -6    2.13    0.08 
  -2  -1  -6    2.41    0.13 
  -2   1  -6    2.16    0.13 
   2   1   6    2.29    0.16 
  -2   1  -6    2.30    0.13 
   3  -1   6    7.68    0.34 
  -3  -1  -6    7.04    0.31 
  -3  -1  -6    7.37    0.28 
  -3   1  -6    7.12    0.29 
  -3   1  -6    7.13    0.27 
   3   1   6    7.55    0.32 
  -4  -1  -6    0.90    0.17 
   4  -1   6    0.96    0.21 
  -4   1  -6    0.92    0.15 
  -4  -2   6    2.37    0.20 
   4  -2  -6    2.03    0.18 
  -4   2   6    2.33    0.27 
   4   2  -6    2.25    0.22 
   3  -2  -6    0.14    0.10 
  -3  -2   6    0.05    0.09 
  -3  -2   6    0.14    0.10 
  -3   2   6    0.17    0.08 
  -3   2   6    0.07    0.13 
   3   2  -6    0.07    0.09 
  -2  -2   6   20.81    0.55 
  -2  -2   6   21.35    0.53 
   2  -2  -6   20.32    0.51 
   2  -2  -6   20.31    0.54 
   2   2  -6   21.11    0.52 
  -2   2   6   21.36    0.52 
  -2   2   6   21.03    0.59 
   2   2  -6   20.54    0.57 
  -1  -2   6   44.51    1.07 
   1  -2  -6   46.67    1.08 
   1  -2  -6   45.80    1.05 
  -1  -2   6   46.57    1.07 
   1   2  -6   45.68    1.10 
  -1   2   6   43.85    1.10 
   1   2  -6   44.11    1.05 
  -1   2   6   45.72    1.06 
   0  -2  -6    9.03    0.25 
   0  -2   6    8.92    0.24 
   0  -2  -6    9.55    0.25 
   0  -2   6    8.80    0.26 
   0   2   6    9.10    0.25 
   0   2   6    8.84    0.26 
   0   2  -6    9.05    0.26 
   0   2  -6    8.91    0.24 
   1  -2   6   15.26    0.38 
  -1  -2  -6   16.19    0.43 
  -1  -2  -6   14.38    0.38 
   1  -2   6   15.48    0.44 
   1   2   6   15.99    0.41 
  -1   2  -6   15.72    0.40 
  -1   2  -6   15.13    0.40 
   2  -2   6    8.77    0.24 
   2  -2   6    9.08    0.33 
  -2  -2  -6    9.01    0.24 
  -2  -2  -6    9.33    0.32 
  -2   2  -6    8.93    0.28 
  -2   2  -6    9.02    0.28 
   2   2   6    8.85    0.29 
   3  -2   6    2.92    0.26 
  -3  -2  -6    2.81    0.23 
   3   2   6    3.01    0.22 
  -3   2  -6    2.93    0.19 
   4  -2   6    0.55    0.20 
  -4  -2  -6    0.29    0.14 
  -4   2  -6    0.48    0.13 
   4   2   6    0.69    0.17 
  -4  -3   6    4.29    0.27 
   4  -3  -6    4.51    0.27 
   4   3  -6    4.61    0.30 
  -4   3   6    4.53    0.38 
  -3  -3   6    0.89    0.12 
   3  -3  -6    0.98    0.14 
  -3   3   6    0.66    0.11 
  -3   3   6    0.93    0.18 
   3   3  -6    0.84    0.14 
  -2  -3   6    6.52    0.23 
   2  -3  -6    6.31    0.24 
   2   3  -6    6.97    0.22 
   2   3  -6    6.38    0.26 
  -2   3   6    6.63    0.23 
  -2   3   6    6.62    0.29 
   1  -3  -6   28.15    0.70 
  -1  -3   6   29.87    0.73 
   1  -3  -6   30.14    0.73 
   1   3  -6   30.24    0.71 
  -1   3   6   29.48    0.76 
  -1   3   6   29.64    0.73 
   1   3  -6   30.51    0.76 
   0  -3   6  152.03    3.56 
   0  -3   6  157.89    3.55 
   0  -3  -6  161.40    3.59 
   0  -3  -6  158.35    3.56 
   0   3  -6  153.78    3.57 
   0   3  -6  157.16    3.55 
   0   3   6  146.06    3.59 
   0   3   6  157.30    3.56 
  -1  -3  -6   11.85    0.36 
  -1  -3  -6   11.40    0.31 
   1  -3   6   11.40    0.32 
   1  -3   6   11.88    0.36 
   1   3   6   11.76    0.34 
  -1   3  -6   11.59    0.32 
  -1   3  -6   11.70    0.33 
  -2  -3  -6    6.41    0.20 
   2  -3   6    6.12    0.28 
  -2  -3  -6    6.01    0.26 
   2  -3   6    5.79    0.20 
   2   3   6    5.77    0.24 
  -2   3  -6    5.89    0.22 
  -2   3  -6    6.02    0.21 
   3  -3   6    0.94    0.18 
  -3  -3  -6    0.89    0.15 
   3   3   6    1.06    0.16 
  -3   3  -6    0.75    0.12 
   4  -3   6    1.52    0.24 
  -4  -3  -6    1.26    0.20 
  -4   3  -6    1.34    0.17 
   4   3   6    1.53    0.21 
  -4  -4   6    1.53    0.18 
   4  -4  -6    2.41    0.21 
  -4   4   6    1.73    0.20 
   4   4  -6    1.77    0.22 
  -4   4   6    1.83    0.29 
   3  -4  -6   11.73    0.40 
  -3  -4   6   11.96    0.38 
   3   4  -6   11.43    0.44 
  -3   4   6   11.28    0.37 
  -3   4   6   11.51    0.48 
   2  -4  -6    9.06    0.32 
  -2  -4   6    9.05    0.30 
  -2   4   6    9.56    0.31 
   2   4  -6    9.12    0.29 
   2   4  -6    8.89    0.34 
  -2   4   6    9.04    0.36 
  -1  -4   6    1.47    0.12 
   1  -4  -6    1.56    0.12 
   1   4  -6    1.40    0.14 
  -1   4   6    1.48    0.14 
   1   4  -6    1.43    0.12 
  -1   4   6    1.51    0.14 
   0  -4   6   34.84    0.87 
   0  -4  -6   36.58    0.88 
   0  -4   6   36.02    0.87 
   0  -4  -6   36.18    0.88 
   0   4  -6   35.40    0.89 
   0   4   6   35.31    0.88 
   0   4  -6   37.04    0.87 
   1  -4   6   13.54    0.37 
   1  -4   6   12.78    0.40 
  -1  -4  -6   13.05    0.40 
  -1  -4  -6   12.84    0.36 
  -1   4  -6   13.04    0.37 
  -1   4  -6   13.39    0.37 
   1   4   6   13.07    0.38 
  -2  -4  -6    1.40    0.16 
   2  -4   6    1.76    0.21 
  -2  -4  -6    1.67    0.13 
   2  -4   6    1.67    0.15 
  -2   4  -6    1.64    0.15 
   2   4   6    1.62    0.15 
  -3  -4  -6    1.33    0.19 
   3  -4   6    1.39    0.21 
   3   4   6    1.16    0.17 
  -3   4  -6    1.37    0.15 
   4  -4   6    1.01    0.24 
  -4  -4  -6    1.19    0.21 
   4   4   6    1.24    0.20 
  -4   4  -6    1.37    0.17 
  -4  -5   6    0.96    0.18 
   4  -5  -6    1.10    0.18 
  -4   5   6    1.11    0.16 
   4   5  -6    1.17    0.21 
   3  -5  -6    1.44    0.17 
  -3  -5   6    1.38    0.15 
  -3   5   6    1.43    0.15 
  -3   5   6    1.47    0.22 
   3   5  -6    1.80    0.20 
  -2  -5   6   25.98    0.70 
   2  -5  -6   26.73    0.72 
  -2   5   6   26.90    0.77 
   2   5  -6   27.33    0.70 
   2   5  -6   27.88    0.77 
  -2   5   6   26.95    0.71 
   1  -5  -6    7.77    0.28 
  -1  -5   6    7.56    0.27 
  -1   5   6    7.65    0.29 
  -1   5   6    7.83    0.28 
   1   5  -6    7.90    0.26 
   1   5  -6    7.82    0.30 
   0  -5  -6    9.65    0.31 
   0  -5   6    9.76    0.30 
   0  -5  -6    9.32    0.30 
   0   5  -6    9.20    0.31 
   0   5  -6    9.58    0.30 
   0   5   6    9.53    0.32 
  -1  -5  -6   10.58    0.33 
   1  -5   6   10.58    0.33 
  -1  -5  -6   10.53    0.36 
   1  -5   6   10.25    0.35 
  -1   5  -6   10.42    0.33 
  -1   5  -6   10.18    0.33 
   1   5   6   10.00    0.34 
   2  -5   6   19.00    0.59 
   2  -5   6   18.28    0.52 
  -2  -5  -6   19.12    0.51 
  -2  -5  -6   19.26    0.59 
  -2   5  -6   18.55    0.53 
   2   5   6   18.56    0.55 
   3  -5   6    2.55    0.27 
  -3  -5  -6    2.63    0.25 
  -3   5  -6    2.68    0.22 
   3   5   6    2.52    0.23 
  -3  -6   6    1.75    0.17 
   3  -6  -6    2.28    0.20 
  -3   6   6    1.95    0.25 
  -3   6   6    2.23    0.19 
   3   6  -6    2.52    0.27 
  -2  -6   6    1.29    0.14 
   2  -6  -6    1.05    0.15 
  -2   6   6    1.15    0.17 
  -2   6   6    1.17    0.15 
   2   6  -6    1.40    0.15 
   2   6  -6    1.26    0.17 
  -1  -6   6    4.26    0.22 
   1  -6  -6    4.06    0.22 
  -1   6   6    3.91    0.22 
   1   6  -6    4.01    0.23 
  -1   6   6    3.67    0.23 
   1   6  -6    4.04    0.21 
   0  -6  -6    7.33    0.28 
   0  -6   6    7.57    0.28 
   0   6   6    6.92    0.29 
   0   6  -6    7.02    0.27 
   0   6  -6    7.15    0.27 
   1  -6   6   18.81    0.53 
   1  -6   6   18.75    0.56 
  -1  -6  -6   18.85    0.56 
  -1  -6  -6   19.36    0.53 
  -1   6  -6   19.10    0.54 
   1   6   6   18.53    0.55 
   2  -6   6    0.02    0.13 
  -2  -6  -6    0.08    0.10 
   2  -6   6    0.06    0.10 
  -2  -6  -6    0.04    0.09 
   2   6   6    0.16    0.14 
  -2   6  -6    0.05    0.11 
  -3  -6  -6    1.01    0.18 
   3  -6   6    0.74    0.20 
   3   6   6    0.85    0.19 
  -3   6  -6    0.70    0.15 
  -3  -7   6    0.44    0.13 
   3  -7  -6    0.54    0.16 
  -3   7   6    0.45    0.15 
   3   7  -6    0.83    0.20 
   2  -7  -6    1.67    0.18 
  -2  -7   6    1.78    0.16 
   2   7  -6    2.02    0.21 
  -2   7   6    2.60    0.21 
  -2   7   6    1.88    0.24 
  -1  -7   6    0.37    0.11 
   1  -7  -6    0.40    0.12 
   1   7  -6    0.48    0.12 
  -1   7   6    0.42    0.14 
   1   7  -6    0.36    0.11 
   0  -7   6    8.62    0.33 
   0  -7  -6    8.68    0.33 
   0   7  -6    8.89    0.33 
   0   7   6    8.29    0.34 
  -1  -7  -6    8.59    0.34 
  -1  -7  -6    9.00    0.33 
   1  -7   6    8.27    0.32 
  -1   7  -6    8.45    0.33 
   1   7   6    8.56    0.36 
   2  -7   6    3.91    0.29 
  -2  -7  -6    4.56    0.29 
   2  -7   6    4.35    0.29 
  -2  -7  -6    4.14    0.24 
  -2   7  -6    4.20    0.26 
   2   7   6    4.47    0.29 
   3  -7   6    0.23    0.19 
  -3  -7  -6    0.39    0.16 
   3   7   6    0.34    0.18 
  -3   7  -6    0.45    0.16 
  -2  -8   6    0.49    0.13 
   2  -8  -6    0.50    0.16 
   2   8  -6    0.66    0.18 
  -2   8   6    0.55    0.16 
  -1  -8   6    1.54    0.17 
   1  -8  -6    1.79    0.19 
   1   8  -6    1.83    0.18 
   1   8  -6    1.59    0.18 
  -1   8   6    1.75    0.20 
   0  -8  -6    0.63    0.14 
   0  -8   6    0.77    0.14 
   0   8  -6    0.61    0.14 
   0   8   6    0.65    0.16 
  -1  -8  -6    0.29    0.12 
   1  -8   6    0.29    0.13 
  -1   8  -6    0.29    0.14 
   1   8   6    0.37    0.15 
  -2  -8  -6    0.32    0.13 
  -2  -8  -6    0.27    0.13 
  -2   8  -6    0.41    0.16 
   2   8   6    0.44    0.17 
   1  -9  -6   -0.17    0.14 
  -1  -9   6   -0.03    0.12 
  -1   9   6    0.26    0.16 
   1   9  -6   -0.03    0.13 
   0  -9   6    2.02    0.20 
   0  -9  -6    2.13    0.21 
   0   9   6    2.36    0.24 
   0   9  -6    2.58    0.24 
  -1  -9  -6    0.22    0.13 
   1  -9   6    0.25    0.15 
   1   9   6    0.57    0.17 
  -1   9  -6    0.48    0.17 
   4   0  -7    4.33    0.28 
  -4   0   7    4.45    0.33 
  -3   0   7    0.71    0.09 
  -3   0   7    0.81    0.15 
   3   0  -7    0.78    0.11 
  -2   0   7    2.70    0.14 
  -2   0   7    2.89    0.18 
  -2   0   7    2.74    0.10 
   2   0  -7    2.64    0.14 
  -1   0   7   96.54    2.26 
   1   0  -7   96.50    2.25 
  -1   0   7   99.09    2.23 
   0   0   7    0.36    0.04 
   0   0   7    0.25    0.07 
   0   0  -7    0.28    0.06 
  -1   0  -7   26.85    0.67 
  -1   0  -7   26.82    0.64 
   1   0   7   25.94    0.67 
   2   0   7   64.08    1.52 
  -2   0  -7   63.65    1.48 
  -2   0  -7   60.17    1.51 
  -3   0  -7   11.12    0.39 
  -3   0  -7   10.65    0.35 
   3   0   7   11.25    0.42 
   4   0   7    0.52    0.18 
  -4   0  -7    0.32    0.13 
  -4  -1   7    0.66    0.17 
   4  -1  -7    0.68    0.15 
  -4   1   7    0.70    0.20 
  -3  -1   7    2.75    0.22 
   3  -1  -7    2.77    0.21 
  -3  -1   7    2.55    0.18 
  -3   1   7    2.58    0.14 
  -3   1   7    2.78    0.24 
   3   1  -7    2.88    0.19 
   2  -1  -7   22.45    0.57 
   2  -1  -7   21.62    0.56 
  -2  -1   7   21.46    0.59 
  -2  -1   7   22.64    0.56 
   2   1  -7   22.12    0.59 
  -2   1   7   22.58    0.61 
  -2   1   7   22.20    0.54 
  -1  -1   7   14.36    0.40 
  -1  -1   7   14.38    0.38 
   1  -1  -7   15.72    0.38 
   1  -1  -7   15.34    0.39 
  -1   1   7   14.33    0.41 
   1   1  -7   14.96    0.40 
  -1   1   7   14.65    0.36 
   0  -1   7   23.53    0.56 
   0  -1   7   24.28    0.60 
   0  -1  -7   23.81    0.59 
   0  -1  -7   23.56    0.56 
   0   1  -7   23.80    0.59 
   0   1   7   23.17    0.59 
   0   1   7   23.68    0.57 
   0   1  -7   24.69    0.55 
  -1  -1  -7    1.46    0.06 
   1  -1   7    1.65    0.14 
   1   1   7    1.70    0.13 
  -1   1  -7    1.46    0.11 
  -1   1  -7    1.51    0.09 
   1   1   7    1.44    0.11 
  -2  -1  -7    5.77    0.24 
  -2  -1  -7    5.85    0.21 
   2  -1   7    5.92    0.26 
  -2   1  -7    5.95    0.22 
   2   1   7    6.02    0.24 
  -2   1  -7    5.89    0.21 
  -3  -1  -7   11.72    0.38 
  -3  -1  -7   11.43    0.41 
   3  -1   7   11.88    0.44 
  -3   1  -7   11.73    0.40 
   3   1   7   11.69    0.42 
  -3   1  -7   10.98    0.36 
   4  -1   7    1.04    0.21 
  -4  -1  -7    1.14    0.18 
  -4   1  -7    1.23    0.16 
   4  -2  -7    1.46    0.16 
  -4  -2   7    1.33    0.17 
  -4   2   7    1.74    0.25 
   4   2  -7    1.46    0.18 
  -3  -2   7    8.65    0.33 
   3  -2  -7    8.74    0.32 
  -3  -2   7    9.21    0.31 
  -3   2   7    8.51    0.38 
   3   2  -7    8.52    0.34 
  -3   2   7    8.44    0.27 
   2  -2  -7    6.00    0.19 
  -2  -2   7    6.34    0.23 
   2  -2  -7    6.68    0.24 
  -2  -2   7    6.54    0.22 
   2   2  -7    6.63    0.20 
  -2   2   7    6.21    0.27 
   2   2  -7    6.51    0.26 
  -2   2   7    6.71    0.21 
   1  -2  -7  113.71    2.58 
  -1  -2   7  115.81    2.58 
  -1  -2   7  111.12    2.59 
   1  -2  -7  117.28    2.58 
  -1   2   7  106.94    2.57 
   1   2  -7  106.70    2.55 
  -1   2   7  111.71    2.61 
   1   2  -7  114.70    2.61 
   0  -2  -7   64.56    1.47 
   0  -2  -7   62.58    1.45 
   0  -2   7   62.21    1.47 
   0  -2   7   62.76    1.45 
   0   2  -7   63.59    1.47 
   0   2  -7   63.90    1.44 
   0   2   7   61.35    1.47 
   0   2   7   59.39    1.45 
  -1  -2  -7    3.64    0.13 
  -1  -2  -7    3.98    0.18 
   1  -2   7    3.60    0.18 
   1  -2   7    3.57    0.12 
   1   2   7    4.20    0.18 
  -1   2  -7    3.79    0.14 
   1   2   7    3.84    0.16 
  -1   2  -7    3.68    0.15 
  -2  -2  -7    0.94    0.07 
   2  -2   7    1.25    0.15 
  -2  -2  -7    0.91    0.11 
   2   2   7    0.99    0.11 
  -2   2  -7    1.14    0.10 
   2   2   7    1.20    0.12 
  -2   2  -7    1.11    0.11 
   3  -2   7    0.89    0.18 
  -3  -2  -7    0.78    0.14 
   3   2   7    0.68    0.14 
  -3   2  -7    1.04    0.13 
  -4  -2  -7    2.07    0.23 
   4  -2   7    2.24    0.28 
   4   2   7    1.99    0.22 
  -4   2  -7    2.18    0.20 
   4  -3  -7    1.22    0.17 
  -4  -3   7    1.06    0.17 
   4   3  -7    1.12    0.19 
  -4   3   7    1.23    0.24 
  -3  -3   7    0.33    0.11 
   3  -3  -7    0.16    0.11 
  -3   3   7    0.18    0.15 
  -3   3   7    0.23    0.09 
   3   3  -7    0.19    0.12 
  -2  -3   7   10.63    0.32 
   2  -3  -7   10.47    0.34 
  -2   3   7   10.48    0.38 
  -2   3   7   10.82    0.32 
   2   3  -7   10.54    0.36 
   2   3  -7   10.95    0.30 
   1  -3  -7    8.85    0.24 
  -1  -3   7    9.20    0.27 
   1  -3  -7    9.18    0.28 
  -1   3   7    8.98    0.30 
  -1   3   7    8.97    0.27 
   1   3  -7    9.38    0.25 
   1   3  -7    8.95    0.30 
   0  -3  -7   78.83    1.81 
   0  -3   7   78.96    1.79 
   0  -3  -7   78.39    1.80 
   0  -3   7   76.56    1.81 
   0   3  -7   77.73    1.82 
   0   3   7   72.75    1.80 
   0   3  -7   78.20    1.79 
   0   3   7   78.08    1.80 
  -1  -3  -7    3.55    0.14 
  -1  -3  -7    3.70    0.18 
   1  -3   7    3.23    0.14 
   1  -3   7    3.49    0.19 
   1   3   7    3.95    0.17 
  -1   3  -7    3.51    0.15 
  -1   3  -7    3.62    0.15 
   2  -3   7   15.21    0.49 
  -2  -3  -7   15.33    0.39 
  -2  -3  -7   15.64    0.48 
   2   3   7   14.68    0.44 
  -2   3  -7   15.00    0.42 
  -2   3  -7   15.23    0.42 
  -3  -3  -7    0.17    0.11 
   3  -3   7    0.02    0.15 
  -3   3  -7    0.08    0.10 
   3   3   7   -0.05    0.13 
  -4  -3  -7    5.44    0.35 
   4  -3   7    4.53    0.38 
  -4   3  -7    4.82    0.28 
   4   3   7    4.14    0.32 
   4  -4  -7    0.80    0.17 
  -4  -4   7    0.62    0.16 
   4   4  -7    1.16    0.20 
  -4   4   7    0.68    0.22 
  -3  -4   7    4.24    0.23 
   3  -4  -7    4.71    0.27 
  -3   4   7    4.35    0.22 
  -3   4   7    4.40    0.32 
   3   4  -7    4.40    0.29 
   2  -4  -7    2.11    0.18 
  -2  -4   7    1.93    0.15 
  -2   4   7    2.21    0.17 
  -2   4   7    2.34    0.21 
   2   4  -7    2.24    0.15 
   2   4  -7    1.88    0.18 
  -1  -4   7   23.27    0.60 
   1  -4  -7   24.02    0.61 
  -1   4   7   22.73    0.61 
   1   4  -7   23.77    0.59 
   1   4  -7   24.20    0.64 
  -1   4   7   23.01    0.63 
   0  -4   7    7.72    0.25 
   0  -4  -7    8.01    0.25 
   0  -4   7    7.67    0.26 
   0  -4  -7    7.99    0.26 
   0   4  -7    7.99    0.27 
   0   4  -7    8.28    0.25 
   0   4   7    7.98    0.27 
   1  -4   7   79.26    1.91 
  -1  -4  -7   80.68    1.87 
   1  -4   7   81.65    1.87 
  -1  -4  -7   78.88    1.91 
   1   4   7   78.24    1.88 
  -1   4  -7   79.30    1.87 
  -1   4  -7   81.93    1.87 
   2  -4   7    1.24    0.17 
  -2  -4  -7    1.06    0.14 
  -2  -4  -7    1.06    0.10 
  -2   4  -7    0.81    0.11 
   2   4   7    1.31    0.14 
  -3  -4  -7    3.10    0.25 
   3  -4   7    3.16    0.30 
   3   4   7    3.14    0.26 
  -3   4  -7    3.12    0.21 
   4  -4   7    0.73    0.23 
  -4  -4  -7    1.11    0.20 
   4   4   7    0.92    0.20 
  -4   4  -7    0.86    0.16 
  -4  -5   7    2.08    0.22 
   4  -5  -7    1.46    0.19 
   4   5  -7    1.79    0.24 
  -4   5   7    1.48    0.28 
   3  -5  -7    8.23    0.35 
  -3  -5   7    7.89    0.32 
  -3   5   7    8.06    0.42 
  -3   5   7    7.68    0.31 
   3   5  -7    8.25    0.39 
   2  -5  -7    2.96    0.21 
  -2  -5   7    2.74    0.18 
   2   5  -7    2.68    0.22 
  -2   5   7    2.83    0.20 
   2   5  -7    2.91    0.21 
  -2   5   7    2.59    0.23 
   1  -5  -7    1.72    0.14 
  -1  -5   7    2.24    0.15 
   1   5  -7    1.76    0.16 
  -1   5   7    1.86    0.16 
  -1   5   7    2.01    0.18 
   1   5  -7    1.86    0.14 
   0  -5  -7   23.09    0.61 
   0  -5   7   23.32    0.61 
   0  -5  -7   23.60    0.62 
   0   5   7   22.78    0.62 
   0   5  -7   23.53    0.63 
   0   5  -7   23.94    0.61 
   1  -5   7   14.16    0.45 
   1  -5   7   14.81    0.41 
  -1  -5  -7   14.61    0.45 
  -1  -5  -7   14.45    0.41 
  -1   5  -7   14.32    0.42 
  -1   5  -7   14.22    0.42 
   1   5   7   13.61    0.43 
   2  -5   7    8.07    0.36 
  -2  -5  -7    8.36    0.34 
  -2  -5  -7    8.04    0.28 
  -2   5  -7    8.13    0.30 
   2   5   7    7.97    0.33 
  -3  -5  -7    4.13    0.29 
   3  -5   7    4.14    0.33 
   3   5   7    4.07    0.30 
  -3   5  -7    4.02    0.25 
   3  -6  -7    1.56    0.18 
  -3  -6   7    1.72    0.17 
  -3   6   7    1.76    0.18 
  -3   6   7    1.89    0.25 
   3   6  -7    1.80    0.23 
  -2  -6   7    1.38    0.14 
   2  -6  -7    1.68    0.17 
  -2   6   7    1.65    0.17 
   2   6  -7    1.68    0.19 
  -2   6   7    1.63    0.19 
   1  -6  -7    4.82    0.25 
  -1  -6   7    4.68    0.23 
  -1   6   7    4.69    0.25 
   1   6  -7    4.83    0.23 
   1   6  -7    4.91    0.25 
  -1   6   7    4.70    0.24 
   0  -6  -7    6.80    0.27 
   0  -6   7    6.87    0.27 
   0   6  -7    6.62    0.26 
   0   6   7    6.28    0.28 
   0   6  -7    6.35    0.26 
   1  -6   7    1.87    0.19 
   1  -6   7    2.29    0.18 
  -1  -6  -7    2.12    0.19 
  -1  -6  -7    2.44    0.19 
   1   6   7    2.48    0.21 
  -1   6  -7    2.44    0.19 
  -2  -6  -7    5.72    0.30 
  -2  -6  -7    5.47    0.24 
   2  -6   7    5.53    0.32 
  -2   6  -7    5.41    0.27 
   2   6   7    5.70    0.31 
   3  -6   7    5.47    0.38 
  -3  -6  -7    6.21    0.36 
   3   6   7    5.74    0.35 
  -3   6  -7    5.98    0.31 
   3  -7  -7    0.27    0.15 
  -3  -7   7    0.16    0.13 
  -3   7   7    0.34    0.21 
  -3   7   7    0.24    0.14 
   3   7  -7    0.43    0.18 
   2  -7  -7    0.30    0.14 
  -2  -7   7    0.21    0.11 
   2   7  -7    0.30    0.14 
  -2   7   7    0.32    0.15 
  -2   7   7    0.23    0.14 
  -1  -7   7    4.54    0.24 
   1  -7  -7    4.37    0.26 
   1   7  -7    4.77    0.24 
   1   7  -7    4.42    0.26 
  -1   7   7    4.45    0.28 
   0  -7  -7   14.13    0.46 
   0  -7   7   15.41    0.46 
   0   7   7   14.83    0.48 
   0   7  -7   13.74    0.47 
   0   7  -7   14.57    0.45 
   1  -7   7    4.35    0.24 
  -1  -7  -7    4.60    0.24 
  -1  -7  -7    4.40    0.25 
   1   7   7    4.07    0.28 
  -1   7  -7    4.26    0.25 
   2  -7   7   12.74    0.50 
  -2  -7  -7   13.32    0.49 
  -2  -7  -7   13.23    0.42 
  -2   7  -7   12.70    0.45 
   2   7   7   13.88    0.49 
   3  -7   7    1.33    0.24 
  -3  -7  -7    1.19    0.21 
  -3   7  -7    1.36    0.19 
   3   7   7    1.37    0.22 
  -2  -8   7    2.12    0.19 
   2  -8  -7    2.20    0.22 
  -2   8   7    2.36    0.23 
   2   8  -7    2.00    0.23 
  -1  -8   7    4.41    0.26 
   1  -8  -7    4.23    0.28 
   1   8  -7    4.50    0.29 
   1   8  -7    4.74    0.27 
  -1   8   7    4.34    0.31 
   0  -8  -7    4.35    0.27 
   0  -8   7    4.08    0.26 
   0   8  -7    4.07    0.25 
   0   8   7    4.27    0.29 
  -1  -8  -7    1.08    0.15 
   1  -8   7    1.11    0.16 
  -1   8  -7    1.12    0.17 
   1   8   7    1.08    0.18 
  -2  -8  -7    0.30    0.13 
  -2  -8  -7    0.16    0.12 
  -2   8  -7    0.20    0.15 
   2   8   7    0.56    0.18 
  -1  -9   7    2.70    0.25 
   1  -9  -7    3.02    0.28 
  -1   9   7    2.86    0.26 
   0  -9   7    1.81    0.19 
   0  -9  -7    1.80    0.20 
   0   9   7    1.95    0.23 
   0   9  -7    1.99    0.21 
   1  -9   7    1.60    0.20 
  -1  -9  -7    1.83    0.20 
  -1   9  -7    1.50    0.20 
   1   9   7    1.72    0.22 
  -4   0   8    9.81    0.45 
   4   0  -8    9.37    0.38 
  -3   0   8    2.81    0.24 
   3   0  -8    2.67    0.18 
  -2   0   8    3.87    0.20 
  -2   0   8    3.53    0.12 
   2   0  -8    3.81    0.17 
  -2   0   8    3.81    0.16 
   1   0  -8    0.11    0.06 
  -1   0   8    0.11    0.08 
  -1   0   8    0.17    0.05 
   0   0   8   19.26    0.46 
   0   0   8   19.48    0.51 
   0   0   8   20.26    0.47 
   0   0  -8   19.28    0.50 
  -1   0  -8   34.49    0.81 
  -1   0  -8   32.64    0.83 
   1   0   8   34.51    0.84 
   2   0   8    6.81    0.27 
  -2   0  -8    7.02    0.23 
  -2   0  -8    6.58    0.26 
  -3   0  -8    0.12    0.10 
   3   0   8    0.09    0.13 
  -3   0  -8    0.13    0.10 
  -4   0  -8    1.14    0.16 
   4   0   8    1.29    0.22 
   4  -1  -8    6.39    0.32 
  -4  -1   8    6.64    0.36 
  -4   1   8    6.84    0.39 
   3  -1  -8    6.52    0.27 
  -3  -1   8    6.03    0.30 
  -3  -1   8    6.31    0.26 
  -3   1   8    6.44    0.32 
   3   1  -8    6.42    0.28 
  -2  -1   8   40.63    0.97 
  -2  -1   8   39.49    1.00 
   2  -1  -8   41.15    0.97 
   2  -1  -8   41.62    0.98 
   2   1  -8   39.71    1.00 
   2   1  -8   40.31    0.94 
  -2   1   8   39.85    1.02 
  -2   1   8   39.37    0.94 
  -1  -1   8   19.76    0.52 
   1  -1  -8   20.07    0.50 
  -1  -1   8   20.41    0.49 
   1  -1  -8   20.59    0.50 
  -1   1   8   18.39    0.47 
   1   1  -8   19.23    0.52 
  -1   1   8   19.63    0.53 
   0  -1  -8   57.51    1.35 
   0  -1  -8   57.24    1.33 
   0  -1   8   56.64    1.32 
   0  -1   8   57.96    1.36 
   0   1  -8   58.06    1.31 
   0   1   8   57.16    1.36 
   0   1   8   56.60    1.33 
   0   1  -8   58.81    1.36 
  -1  -1  -8    6.47    0.17 
   1  -1   8    7.03    0.25 
  -1  -1  -8    6.71    0.23 
   1   1   8    6.35    0.21 
  -1   1  -8    7.08    0.20 
  -1   1  -8    6.70    0.23 
   1   1   8    7.11    0.25 
   2  -1   8   16.21    0.49 
  -2  -1  -8   15.46    0.47 
  -2  -1  -8   16.71    0.44 
   2   1   8   15.79    0.46 
  -2   1  -8   15.94    0.46 
  -2   1  -8   15.80    0.43 
  -3  -1  -8    5.27    0.25 
   3  -1   8    5.76    0.32 
  -3  -1  -8    5.26    0.28 
  -3   1  -8    5.33    0.24 
  -3   1  -8    5.35    0.26 
   3   1   8    5.94    0.30 
   4  -1   8    1.96    0.25 
  -4  -1  -8    2.42    0.25 
  -4   1  -8    2.35    0.22 
  -4  -2   8    0.90    0.16 
   4  -2  -8    1.13    0.16 
  -4   2   8    1.21    0.23 
   4   2  -8    1.12    0.17 
   3  -2  -8    1.44    0.15 
  -3  -2   8    1.51    0.14 
  -3  -2   8    1.60    0.18 
  -3   2   8    1.69    0.13 
  -3   2   8    1.77    0.21 
   3   2  -8    1.46    0.16 
  -2  -2   8   21.37    0.58 
  -2  -2   8   21.21    0.56 
   2  -2  -8   20.92    0.54 
   2  -2  -8   21.66    0.57 
   2   2  -8   22.21    0.53 
  -2   2   8   21.94    0.54 
   2   2  -8   22.05    0.61 
  -2   2   8   21.73    0.62 
   1  -2  -8   25.90    0.63 
   1  -2  -8   25.68    0.61 
  -1  -2   8   25.05    0.62 
  -1  -2   8   24.57    0.63 
  -1   2   8   24.64    0.61 
   1   2  -8   25.49    0.65 
  -1   2   8   25.52    0.66 
   1   2  -8   24.33    0.59 
   0  -2  -8    0.01    0.05 
   0  -2   8    0.02    0.04 
   0  -2   8    0.12    0.09 
   0  -2  -8    0.03    0.05 
   0   2   8   -0.03    0.07 
   0   2  -8    0.09    0.07 
   0   2   8    0.01    0.06 
   0   2  -8    0.03    0.04 
  -1  -2  -8   14.73    0.39 
   1  -2   8   15.47    0.38 
   1  -2   8   15.79    0.45 
  -1  -2  -8   16.01    0.45 
   1   2   8   15.84    0.42 
  -1   2  -8   15.38    0.42 
  -1   2  -8   15.83    0.40 
   1   2   8   16.20    0.43 
  -2  -2  -8   10.18    0.35 
   2  -2   8   10.34    0.37 
   2   2   8   10.02    0.33 
  -2   2  -8    9.85    0.30 
   2   2   8    9.89    0.32 
  -2   2  -8   10.31    0.32 
  -3  -2  -8   11.41    0.43 
   3  -2   8   12.12    0.46 
   3   2   8   10.88    0.39 
  -3   2  -8   11.07    0.37 
   4  -2   8    0.25    0.20 
  -4  -2  -8    0.46    0.16 
   4   2   8    0.59    0.18 
  -4   2  -8    0.37    0.14 
  -4  -3   8    1.20    0.17 
   4  -3  -8    1.29    0.17 
  -4   3   8    1.07    0.23 
   4   3  -8    1.28    0.19 
   3  -3  -8    1.53    0.16 
  -3  -3   8    1.31    0.14 
  -3   3   8    1.23    0.12 
   3   3  -8    1.52    0.18 
  -3   3   8    1.52    0.21 
   2  -3  -8    6.07    0.24 
  -2  -3   8    6.20    0.23 
   2   3  -8    5.85    0.26 
   2   3  -8    5.92    0.21 
  -2   3   8    5.81    0.28 
  -2   3   8    6.10    0.22 
   1  -3  -8    9.04    0.25 
  -1  -3   8    9.09    0.28 
  -1  -3   8    9.35    0.27 
   1  -3  -8    9.43    0.29 
   1   3  -8    9.56    0.31 
  -1   3   8    9.14    0.28 
  -1   3   8    9.46    0.31 
   1   3  -8    9.17    0.25 
   0  -3   8   43.42    1.00 
   0  -3  -8   41.97    1.00 
   0  -3   8   41.65    1.03 
   0  -3  -8   42.89    1.02 
   0   3   8   40.69    1.01 
   0   3  -8   42.63    0.99 
   0   3  -8   43.98    1.03 
   0   3   8   40.29    1.01 
  -1  -3  -8    5.81    0.23 
  -1  -3  -8    5.33    0.18 
   1  -3   8    5.29    0.18 
   1  -3   8    5.63    0.24 
   1   3   8    5.52    0.21 
  -1   3  -8    5.45    0.20 
  -1   3  -8    5.31    0.19 
  -2  -3  -8    1.26    0.14 
   2  -3   8    1.32    0.17 
  -2   3  -8    1.40    0.14 
   2   3   8    1.40    0.14 
  -2   3  -8    1.40    0.12 
   3  -3   8    2.28    0.27 
  -3  -3  -8    2.49    0.23 
  -3   3  -8    2.62    0.19 
   3   3   8    2.48    0.23 
  -4  -3  -8    0.32    0.16 
   4  -3   8    0.29    0.21 
   4   3   8    0.24    0.18 
  -4   3  -8    0.40    0.14 
  -4  -4   8    0.14    0.14 
   4  -4  -8    0.22    0.15 
  -4   4   8    0.23    0.20 
   4   4  -8    0.23    0.16 
   3  -4  -8    0.08    0.12 
  -3  -4   8    0.07    0.10 
  -3   4   8    0.08    0.09 
   3   4  -8    0.10    0.12 
  -3   4   8    0.12    0.16 
  -2  -4   8    0.53    0.10 
   2  -4  -8    0.66    0.12 
  -2   4   8    0.60    0.14 
  -2   4   8    0.69    0.11 
   2   4  -8    0.48    0.11 
  -1  -4   8    4.80    0.19 
   1  -4  -8    4.81    0.21 
  -1   4   8    4.96    0.20 
  -1   4   8    4.52    0.22 
   1   4  -8    4.83    0.18 
   0  -4   8    5.55    0.23 
   0  -4  -8    5.92    0.21 
   0  -4  -8    6.17    0.21 
   0  -4   8    6.08    0.21 
   0   4   8    5.70    0.22 
   0   4  -8    5.91    0.20 
   0   4   8    5.40    0.20 
   0   4  -8    5.83    0.22 
  -1  -4  -8    2.10    0.14 
   1  -4   8    2.18    0.13 
   1  -4   8    1.89    0.18 
  -1  -4  -8    1.98    0.15 
  -1   4  -8    1.99    0.14 
  -1   4  -8    2.24    0.15 
   1   4   8    2.13    0.16 
  -2  -4  -8    1.02    0.11 
  -2  -4  -8    0.97    0.14 
   2  -4   8    1.24    0.17 
   2   4   8    1.00    0.14 
  -2   4  -8    0.81    0.12 
   3  -4   8    0.99    0.20 
  -3  -4  -8    0.85    0.16 
  -3   4  -8    0.93    0.14 
   3   4   8    0.92    0.17 
   4  -4   8    0.70    0.24 
  -4  -4  -8    1.17    0.21 
  -4   4  -8    1.03    0.17 
   4   4   8    0.64    0.20 
  -4  -5   8    0.19    0.15 
   4   5  -8    0.43    0.18 
  -4   5   8    0.21    0.25 
   3  -5  -8    4.59    0.28 
  -3  -5   8    5.12    0.26 
   3   5  -8    5.13    0.32 
  -3   5   8    4.98    0.35 
  -3   5   8    4.44    0.24 
   2  -5  -8    2.63    0.21 
  -2  -5   8    2.91    0.19 
   2   5  -8    2.94    0.23 
  -2   5   8    3.02    0.24 
  -2   5   8    2.97    0.21 
   1  -5  -8    5.13    0.24 
  -1  -5   8    4.88    0.21 
  -1   5   8    4.95    0.24 
   1   5  -8    5.40    0.25 
  -1   5   8    5.12    0.24 
   1   5  -8    5.37    0.21 
   0  -5   8    6.17    0.23 
   0  -5   8    5.40    0.24 
   0  -5  -8    5.98    0.23 
   0  -5  -8    5.68    0.22 
   0   5  -8    5.68    0.22 
   0   5   8    5.58    0.25 
   0   5  -8    5.37    0.24 
   1  -5   8    5.19    0.22 
   1  -5   8    5.29    0.26 
  -1  -5  -8    5.32    0.24 
  -1  -5  -8    5.59    0.23 
  -1   5  -8    5.18    0.23 
   1   5   8    5.34    0.25 
  -1   5  -8    5.19    0.23 
  -2  -5  -8    2.66    0.16 
  -2  -5  -8    2.71    0.22 
   2  -5   8    2.50    0.25 
  -2   5  -8    2.87    0.20 
   2   5   8    2.73    0.24 
   3  -5   8    1.46    0.23 
  -3  -5  -8    1.21    0.19 
  -3   5  -8    1.43    0.17 
   3   5   8    1.67    0.21 
  -3  -6   8    0.70    0.14 
   3  -6  -8    0.85    0.16 
  -3   6   8    0.97    0.15 
  -3   6   8    0.88    0.21 
   3   6  -8    1.03    0.20 
   2  -6  -8    0.38    0.12 
  -2  -6   8    0.49    0.11 
   2   6  -8    0.43    0.14 
  -2   6   8    0.32    0.12 
  -2   6   8    0.42    0.15 
   1  -6  -8    0.49    0.12 
  -1  -6   8    0.60    0.11 
   1   6  -8    0.62    0.12 
  -1   6   8    0.71    0.13 
   1   6  -8    0.94    0.12 
  -1   6   8    0.85    0.14 
   0  -6  -8    7.65    0.30 
   0  -6   8    8.14    0.29 
   0   6  -8    7.59    0.28 
   0   6  -8    7.70    0.30 
   0   6   8    7.74    0.31 
   1  -6   8   37.87    1.01 
  -1  -6  -8   39.28    0.97 
  -1  -6  -8   38.67    1.01 
   1  -6   8   40.53    0.98 
   1   6   8   37.79    0.99 
  -1   6  -8   37.02    0.97 
  -2  -6  -8    7.51    0.28 
   2  -6   8    7.64    0.37 
  -2  -6  -8    7.47    0.35 
   2   6   8    7.77    0.35 
  -2   6  -8    7.46    0.31 
  -3  -6  -8    4.87    0.34 
   3  -6   8    4.47    0.37 
  -3   6  -8    4.71    0.28 
   3   6   8    4.15    0.34 
  -3  -7   8   -0.05    0.12 
   3  -7  -8    0.36    0.16 
  -3   7   8    0.03    0.13 
  -3   7   8    0.10    0.19 
   3   7  -8    0.17    0.18 
   2  -7  -8    0.53    0.15 
  -2  -7   8    0.33    0.12 
   2   7  -8    0.48    0.15 
  -2   7   8    0.57    0.15 
  -2   7   8    0.50    0.16 
  -1  -7   8    0.08    0.10 
   1  -7  -8    0.25    0.12 
   1   7  -8    0.15    0.11 
   1   7  -8    0.03    0.11 
  -1   7   8    0.15    0.13 
   0  -7   8   15.79    0.49 
   0  -7  -8   16.59    0.50 
   0   7  -8   15.71    0.48 
   0   7  -8   15.22    0.49 
   0   7   8   16.30    0.52 
  -1  -7  -8    6.18    0.28 
  -1  -7  -8    6.03    0.29 
   1  -7   8    6.26    0.28 
   1   7   8    5.96    0.32 
  -1   7  -8    6.06    0.28 
   2  -7   8    0.84    0.19 
  -2  -7  -8    0.80    0.14 
  -2  -7  -8    1.10    0.17 
  -2   7  -8    0.89    0.16 
   2   7   8    0.91    0.18 
   3  -7   8    0.32    0.21 
  -3  -7  -8    0.37    0.16 
  -3   7  -8    0.40    0.17 
   3   7   8    0.65    0.20 
  -2  -8   8    0.73    0.15 
   2  -8  -8    1.38    0.19 
   2   8  -8    0.97    0.19 
  -2   8   8    1.06    0.19 
  -1  -8   8    3.83    0.25 
   1  -8  -8    3.77    0.27 
  -1   8   8    3.82    0.29 
   1   8  -8    3.26    0.26 
   0  -8   8    0.49    0.13 
   0  -8  -8    0.53    0.14 
   0   8   8    0.44    0.16 
   0   8  -8    0.46    0.13 
  -1  -8  -8    1.14    0.16 
   1  -8   8    1.39    0.17 
   1   8   8    1.50    0.20 
  -1   8  -8    1.59    0.18 
  -2  -8  -8    3.13    0.27 
   2   8   8    3.39    0.31 
  -2   8  -8    3.37    0.27 
   1  -9  -8    5.03    0.32 
  -1  -9   8    5.28    0.31 
  -1   9   8    5.44    0.36 
   0  -9  -8    1.89    0.21 
   0  -9   8    1.89    0.21 
   0   9   8    2.21    0.24 
   0   9  -8    2.04    0.21 
   1  -9   8    1.05    0.18 
  -1  -9  -8    0.85    0.16 
  -1   9  -8    1.19    0.19 
   1   9   8    1.45    0.21 
   4   0  -9    2.90    0.27 
  -4   0   9    3.37    0.31 
  -3   0   9   13.06    0.46 
   3   0  -9   13.14    0.41 
  -2   0   9    0.16    0.03 
  -2   0   9    0.29    0.10 
   2   0  -9    0.23    0.07 
  -2   0   9    0.17    0.07 
  -1   0   9   12.65    0.33 
   1   0  -9   12.68    0.35 
  -1   0   9   12.05    0.37 
   0   0  -9    0.39    0.07 
   0   0   9    0.59    0.05 
   0   0   9    0.55    0.05 
   0   0   9    0.56    0.09 
  -1   0  -9    1.40    0.09 
  -1   0  -9    1.16    0.11 
   1   0   9    1.36    0.15 
  -2   0  -9    1.83    0.13 
   2   0   9    1.75    0.18 
  -2   0  -9    1.68    0.14 
  -3   0  -9    4.28    0.23 
   3   0   9    5.30    0.30 
  -3   0  -9    5.01    0.26 
   4   0   9    5.77    0.38 
  -4   0  -9    4.94    0.29 
   4  -1  -9    1.26    0.17 
  -4  -1   9    1.21    0.20 
  -4   1   9    1.34    0.22 
  -3  -1   9   12.82    0.40 
  -3  -1   9   12.99    0.44 
   3  -1  -9   12.99    0.41 
  -3   1   9   13.04    0.47 
   3   1  -9   13.03    0.43 
   2  -1  -9    7.90    0.27 
  -2  -1   9    8.15    0.25 
   2  -1  -9    7.43    0.24 
  -2  -1   9    7.67    0.28 
  -2   1   9    7.39    0.21 
   2   1  -9    7.45    0.27 
  -2   1   9    7.67    0.30 
  -1  -1   9    8.04    0.27 
   1  -1  -9    8.91    0.26 
  -1  -1   9    8.51    0.24 
   1  -1  -9    8.72    0.26 
   1   1  -9    8.43    0.27 
  -1   1   9    8.26    0.22 
  -1   1   9    7.90    0.28 
   0  -1  -9   63.33    1.47 
   0  -1   9   63.63    1.49 
   0  -1  -9   62.53    1.44 
   0  -1   9   60.37    1.44 
   0   1  -9   62.76    1.43 
   0   1   9   62.01    1.45 
   0   1  -9   63.92    1.48 
   0   1   9   61.94    1.48 
   1  -1   9    4.19    0.20 
  -1  -1  -9    3.71    0.11 
  -1  -1  -9    3.93    0.17 
  -1   1  -9    3.99    0.14 
  -1   1  -9    3.91    0.17 
   1   1   9    4.32    0.20 
   1   1   9    3.71    0.15 
  -2  -1  -9   13.85    0.39 
  -2  -1  -9   14.04    0.44 
   2  -1   9   14.11    0.45 
  -2   1  -9   14.01    0.39 
   2   1   9   13.99    0.43 
  -2   1  -9   13.67    0.42 
   3  -1   9    4.31    0.31 
  -3  -1  -9    4.45    0.24 
  -3  -1  -9    4.94    0.27 
  -3   1  -9    4.24    0.22 
   3   1   9    4.71    0.28 
  -3   1  -9    4.52    0.25 
  -4  -1  -9    2.12    0.23 
   4  -1   9    2.04    0.26 
  -4   1  -9    1.97    0.20 
   4  -2  -9    2.43    0.20 
  -4  -2   9    2.17    0.20 
  -4   2   9    2.47    0.30 
   4   2  -9    2.01    0.22 
  -3  -2   9    6.59    0.30 
  -3  -2   9    6.35    0.27 
   3  -2  -9    6.70    0.29 
   3   2  -9    7.01    0.31 
  -3   2   9    6.72    0.35 
  -2  -2   9   15.73    0.43 
  -2  -2   9   15.22    0.45 
   2  -2  -9   15.82    0.44 
   2  -2  -9   14.80    0.41 
   2   2  -9   16.03    0.47 
  -2   2   9   15.52    0.40 
  -2   2   9   15.30    0.48 
   1  -2  -9   22.42    0.54 
  -1  -2   9   21.91    0.57 
   1  -2  -9   22.67    0.56 
  -1  -2   9   22.71    0.55 
   1   2  -9   21.60    0.58 
   1   2  -9   21.24    0.51 
  -1   2   9   21.31    0.54 
  -1   2   9   21.18    0.59 
   0  -2   9   18.31    0.49 
   0  -2  -9   18.04    0.47 
   0  -2  -9   17.33    0.44 
   0  -2   9   18.02    0.44 
   0   2   9   16.82    0.47 
   0   2  -9   18.32    0.48 
   0   2  -9   17.56    0.43 
   0   2   9   17.01    0.45 
  -1  -2  -9    6.71    0.19 
  -1  -2  -9    7.21    0.25 
   1  -2   9    7.25    0.27 
   1  -2   9    6.52    0.19 
   1   2   9    6.76    0.23 
  -1   2  -9    7.03    0.21 
   1   2   9    6.97    0.26 
  -1   2  -9    6.81    0.23 
   2  -2   9    0.24    0.12 
  -2  -2  -9    0.37    0.10 
   2   2   9    0.25    0.09 
  -2   2  -9    0.18    0.08 
   2   2   9    0.28    0.11 
  -2   2  -9    0.32    0.08 
   3  -2   9    7.43    0.38 
  -3  -2  -9    6.92    0.33 
  -3   2  -9    7.08    0.29 
   3   2   9    7.23    0.32 
  -4  -2  -9    1.09    0.19 
   4  -2   9    0.94    0.23 
   4   2   9    1.26    0.21 
  -4   2  -9    1.29    0.18 
  -4  -3   9    0.64    0.15 
   4  -3  -9    0.75    0.16 
  -4   3   9    0.81    0.22 
   4   3  -9    0.65    0.17 
   3  -3  -9    3.40    0.23 
  -3  -3   9    3.20    0.22 
  -3   3   9    3.51    0.29 
   3   3  -9    3.43    0.26 
   2  -3  -9   10.87    0.35 
  -2  -3   9   11.11    0.34 
  -2  -3   9   10.89    0.34 
  -2   3   9   11.15    0.32 
   2   3  -9   11.00    0.38 
  -2   3   9   10.93    0.40 
  -1  -3   9    5.67    0.20 
   1  -3  -9    6.29    0.22 
   1  -3  -9    5.93    0.19 
  -1  -3   9    5.81    0.21 
   1   3  -9    5.83    0.18 
   1   3  -9    6.00    0.24 
  -1   3   9    5.81    0.20 
  -1   3   9    5.97    0.24 
   0  -3  -9    8.43    0.25 
   0  -3   9    8.17    0.28 
   0  -3  -9    8.22    0.26 
   0  -3   9    8.26    0.24 
   0   3   9    8.03    0.26 
   0   3  -9    8.30    0.23 
   0   3  -9    8.24    0.28 
   0   3   9    7.63    0.25 
   1  -3   9   27.29    0.72 
  -1  -3  -9   27.79    0.71 
  -1  -3  -9   26.08    0.65 
   1  -3   9   25.77    0.65 
   1   3   9   26.89    0.69 
  -1   3  -9   26.68    0.68 
  -1   3  -9   27.55    0.67 
  -2  -3  -9    2.08    0.18 
   2  -3   9    2.11    0.22 
   2   3   9    2.07    0.19 
  -2   3  -9    2.07    0.16 
  -2   3  -9    2.10    0.15 
  -3  -3  -9    1.51    0.18 
   3  -3   9    1.43    0.21 
   3   3   9    1.81    0.19 
  -3   3  -9    1.49    0.15 
   4  -3   9    0.13    0.20 
  -4  -3  -9    0.19    0.15 
  -4   3  -9    0.35    0.14 
   4   3   9    0.15    0.18 
   4  -4  -9    3.43    0.29 
  -4  -4   9    2.74    0.23 
  -4   4   9    2.75    0.33 
   4   4  -9    2.92    0.31 
  -3  -4   9    4.29    0.24 
   3  -4  -9    4.36    0.28 
   3   4  -9    4.55    0.29 
  -3   4   9    4.29    0.22 
  -3   4   9    4.31    0.32 
   2  -4  -9    9.70    0.34 
  -2  -4   9    9.75    0.33 
  -2   4   9   10.37    0.33 
   2   4  -9   10.18    0.38 
  -2   4   9   10.11    0.39 
   1  -4  -9   17.15    0.47 
  -1  -4   9   16.71    0.45 
  -1   4   9   15.92    0.48 
   1   4  -9   16.94    0.43 
   1   4  -9   17.55    0.50 
  -1   4   9   15.79    0.46 
   0  -4  -9    0.49    0.09 
   0  -4   9    0.36    0.08 
   0  -4  -9    0.45    0.08 
   0  -4   9    0.28    0.10 
   0   4   9    0.29    0.09 
   0   4  -9    0.32    0.09 
   0   4   9    0.42    0.08 
   0   4  -9    0.35    0.07 
  -1  -4  -9    3.20    0.19 
   1  -4   9    2.94    0.21 
  -1  -4  -9    2.77    0.15 
   1  -4   9    2.92    0.15 
  -1   4  -9    3.07    0.18 
   1   4   9    2.97    0.19 
  -1   4  -9    2.73    0.16 
  -2  -4  -9    4.53    0.25 
   2  -4   9    4.78    0.29 
  -2   4  -9    4.72    0.22 
   2   4   9    4.68    0.25 
   3  -4   9    0.49    0.19 
  -3  -4  -9    0.73    0.16 
   3   4   9    0.53    0.16 
  -3   4  -9    0.87    0.14 
  -4  -4  -9    0.84    0.19 
   4  -4   9    0.69    0.24 
   4   4   9    0.95    0.22 
  -4   4  -9    0.97    0.17 
  -3  -5   9    1.67    0.17 
   3  -5  -9    1.91    0.19 
  -3   5   9    2.34    0.26 
  -3   5   9    1.95    0.17 
   3   5  -9    2.16    0.24 
  -2  -5   9    3.18    0.19 
   2  -5  -9    3.32    0.23 
  -2   5   9    3.27    0.21 
   2   5  -9    3.44    0.24 
  -2   5   9    3.13    0.25 
  -1  -5   9    3.77    0.19 
   1  -5  -9    3.91    0.21 
   1   5  -9    3.91    0.18 
  -1   5   9    3.67    0.22 
   1   5  -9    3.59    0.22 
  -1   5   9    3.50    0.21 
   0  -5  -9    1.77    0.16 
   0  -5  -9    1.70    0.13 
   0  -5   9    1.93    0.16 
   0  -5   9    1.49    0.18 
   0   5  -9    1.62    0.16 
   0   5   9    1.78    0.17 
   0   5  -9    1.77    0.14 
  -1  -5  -9    2.45    0.17 
   1  -5   9    2.43    0.21 
  -1  -5  -9    2.33    0.18 
   1  -5   9    2.35    0.17 
   1   5   9    2.53    0.21 
  -1   5  -9    2.39    0.19 
  -1   5  -9    2.34    0.17 
  -2  -5  -9    3.40    0.25 
   2  -5   9    3.34    0.28 
  -2   5  -9    3.32    0.21 
   2   5   9    3.40    0.25 
   3  -5   9    0.53    0.20 
  -3  -5  -9    0.80    0.18 
  -3   5  -9    0.58    0.14 
   3   5   9    0.69    0.19 
   3  -6  -9    0.32    0.15 
  -3  -6   9    0.27    0.13 
  -3   6   9    0.15    0.12 
  -3   6   9    0.20    0.18 
   3   6  -9    0.04    0.16 
   2  -6  -9    0.67    0.14 
  -2  -6   9    0.78    0.13 
   2   6  -9    0.76    0.16 
  -2   6   9    0.63    0.14 
  -2   6   9    0.73    0.16 
   1  -6  -9    2.54    0.21 
  -1  -6   9    2.64    0.19 
   1   6  -9    2.23    0.21 
  -1   6   9    2.54    0.22 
  -1   6   9    2.15    0.19 
   1   6  -9    2.61    0.18 
   0  -6  -9    4.09    0.23 
   0  -6   9    4.38    0.22 
   0   6   9    3.92    0.24 
   0   6  -9    4.14    0.21 
   0   6  -9    3.96    0.23 
   1  -6   9    2.18    0.19 
  -1  -6  -9    2.19    0.16 
   1  -6   9    1.85    0.21 
  -1  -6  -9    2.10    0.19 
  -1   6  -9    1.91    0.19 
   1   6   9    1.89    0.18 
  -2  -6  -9    4.78    0.28 
   2  -6   9    4.45    0.32 
  -2   6  -9    4.68    0.25 
   2   6   9    4.95    0.31 
   3  -6   9    0.70    0.21 
  -3  -6  -9    0.87    0.18 
  -3   6  -9    1.18    0.17 
   3   6   9    0.79    0.20 
   3  -7  -9    1.88    0.21 
  -3  -7   9    1.74    0.18 
  -3   7   9    1.69    0.26 
  -3   7   9    1.59    0.19 
   3   7  -9    2.12    0.26 
  -2  -7   9    0.39    0.12 
   2  -7  -9    0.49    0.15 
  -2   7   9    0.57    0.15 
  -2   7   9    0.48    0.16 
   2   7  -9    0.47    0.16 
   1  -7  -9    0.63    0.14 
  -1  -7   9    0.56    0.12 
   1   7  -9    0.56    0.14 
  -1   7   9    0.74    0.16 
   0  -7   9    1.00    0.14 
   0  -7  -9    0.91    0.14 
   0   7  -9    0.89    0.14 
   0   7   9    1.29    0.17 
   0   7  -9    1.00    0.14 
   1  -7   9    2.49    0.20 
  -1  -7  -9    2.28    0.21 
  -1  -7  -9    2.46    0.21 
  -1   7  -9    2.27    0.21 
   1   7   9    2.77    0.26 
  -2  -7  -9    5.65    0.33 
   2  -7   9    5.68    0.35 
  -2   7  -9    5.87    0.29 
   2   7   9    6.43    0.36 
  -2  -8   9    7.39    0.34 
   2  -8  -9    7.49    0.37 
  -2   8   9    7.89    0.38 
   2   8  -9    8.40    0.42 
  -1  -8   9    1.45    0.17 
   1  -8  -9    1.43    0.18 
  -1   8   9    1.38    0.20 
   1   8  -9    1.26    0.18 
   0  -8   9    1.88    0.18 
   0  -8  -9    2.25    0.20 
   0   8  -9    2.24    0.21 
   0   8   9    2.61    0.23 
   1  -8   9    1.10    0.16 
  -1  -8  -9    0.94    0.16 
   1   8   9    0.84    0.18 
  -1   8  -9    0.75    0.16 
  -2  -8  -9    6.64    0.36 
   2   8   9    7.45    0.40 
  -2   8  -9    7.34    0.35 
  -1  -9   9    7.12    0.35 
   1  -9  -9    7.09    0.39 
  -1   9   9    6.91    0.40 
   0  -9   9    0.34    0.15 
   0  -9  -9    0.22    0.15 
   0   9   9    0.32    0.18 
   0   9  -9    0.36    0.15 
  -4   0  10    5.64    0.36 
   4   0 -10    5.34    0.32 
  -3   0  10    0.40    0.14 
   3   0 -10    0.23    0.10 
   2   0 -10    2.85    0.16 
  -2   0  10    3.09    0.20 
  -2   0  10    2.76    0.15 
  -1   0  10    0.63    0.07 
   1   0 -10    0.69    0.09 
  -1   0  10    0.53    0.10 
   0   0 -10  101.70    2.37 
   0   0  10  102.20    2.33 
   0   0  10  102.40    2.38 
  -1   0 -10   22.04    0.61 
   1   0  10   23.52    0.62 
  -1   0 -10   24.10    0.57 
   2   0  10    0.16    0.11 
  -2   0 -10    0.27    0.08 
  -2   0 -10    0.21    0.08 
  -3   0 -10   11.33    0.41 
  -3   0 -10   10.69    0.37 
   3   0  10   11.16    0.44 
  -4   0 -10    1.85    0.20 
   4   0  10    1.96    0.26 
  -4  -1  10    6.02    0.36 
   4  -1 -10    6.37    0.32 
  -4   1  10    6.19    0.39 
  -3  -1  10    1.17    0.17 
  -3  -1  10    0.79    0.13 
   3  -1 -10    0.90    0.14 
   3   1 -10    1.17    0.14 
  -3   1  10    1.18    0.18 
   2  -1 -10    1.13    0.12 
  -2  -1  10    1.02    0.13 
  -2  -1  10    0.89    0.10 
   2  -1 -10    1.05    0.12 
  -2   1  10    1.01    0.07 
   2   1 -10    1.00    0.12 
  -2   1  10    1.13    0.14 
  -1  -1  10   56.45    1.37 
   1  -1 -10   58.43    1.34 
  -1  -1  10   57.82    1.33 
   1  -1 -10   58.76    1.35 
  -1   1  10   55.15    1.37 
   1   1 -10   57.73    1.37 
  -1   1  10   54.45    1.31 
   0  -1 -10   40.43    0.97 
   0  -1  10   39.80    0.93 
   0  -1  10   41.16    0.99 
   0  -1 -10   39.73    0.94 
   0   1  10   39.94    0.98 
   0   1  10   37.77    0.94 
   0   1 -10   40.46    0.98 
   0   1 -10   40.23    0.92 
  -1  -1 -10   11.68    0.36 
   1  -1  10   11.60    0.37 
   1   1  10   11.51    0.33 
   1   1  10   12.66    0.38 
  -1   1 -10   12.18    0.32 
  -1   1 -10   11.98    0.35 
  -2  -1 -10    6.00    0.26 
   2  -1  10    6.11    0.28 
  -2   1 -10    6.04    0.22 
  -2   1 -10    5.88    0.24 
   2   1  10    5.77    0.27 
  -3  -1 -10    0.76    0.14 
   3  -1  10    0.80    0.19 
  -3   1 -10    0.88    0.12 
   3   1  10    0.77    0.17 
  -3   1 -10    0.80    0.13 
  -4  -1 -10    3.91    0.30 
   4  -1  10    3.75    0.36 
   4   1  10    4.60    0.31 
  -4   1 -10    3.53    0.26 
  -4  -2  10    0.73    0.16 
   4  -2 -10    0.55    0.15 
   4   2 -10    0.73    0.17 
  -4   2  10    0.96    0.22 
  -3  -2  10    4.53    0.26 
  -3  -2  10    4.58    0.24 
   3  -2 -10    4.33    0.25 
   3   2 -10    4.71    0.27 
  -3   2  10    4.43    0.31 
   2  -2 -10   12.16    0.40 
  -2  -2  10   11.75    0.38 
  -2  -2  10   12.55    0.36 
   2  -2 -10   12.07    0.37 
  -2   2  10   12.33    0.33 
   2   2 -10   12.11    0.39 
  -2   2  10   12.16    0.41 
   1  -2 -10   40.38    0.96 
  -1  -2  10   39.81    0.98 
  -1  -2  10   40.64    0.96 
   1  -2 -10   40.47    0.96 
  -1   2  10   36.70    0.94 
  -1   2  10   40.66    1.00 
   1   2 -10   41.60    1.00 
   0  -2 -10    8.52    0.24 
   0  -2 -10    8.53    0.26 
   0  -2  10    8.80    0.30 
   0  -2  10    8.40    0.23 
   0   2  10    7.76    0.25 
   0   2 -10    8.15    0.22 
   0   2  10    8.17    0.27 
   0   2 -10    8.45    0.29 
   1  -2  10   13.57    0.35 
  -1  -2 -10   13.47    0.36 
   1  -2  10   14.61    0.44 
  -1  -2 -10   14.42    0.42 
   1   2  10   14.36    0.42 
   1   2  10   14.40    0.40 
  -1   2 -10   14.40    0.37 
  -1   2 -10   14.82    0.41 
  -2  -2 -10    0.88    0.12 
   2  -2  10    1.22    0.16 
  -2   2 -10    1.08    0.11 
  -2   2 -10    0.97    0.12 
   2   2  10    1.01    0.15 
   2   2  10    0.97    0.12 
  -3  -2 -10    7.46    0.35 
   3  -2  10    7.74    0.39 
  -3   2 -10    7.21    0.29 
   3   2  10    7.72    0.33 
   4  -2  10    0.63    0.23 
  -4  -2 -10    0.61    0.18 
   4   2  10    1.06    0.20 
  -4   2 -10    0.75    0.16 
   4  -3 -10    0.92    0.17 
  -4  -3  10    0.75    0.16 
  -4   3  10    0.81    0.24 
   4   3 -10    0.55    0.18 
  -3  -3  10    4.98    0.25 
   3  -3 -10    4.78    0.27 
   3   3 -10    4.79    0.29 
  -3   3  10    5.25    0.33 
  -2  -3  10    8.54    0.28 
  -2  -3  10    8.21    0.29 
   2  -3 -10    8.21    0.30 
  -2   3  10    8.19    0.35 
   2   3 -10    8.08    0.32 
  -2   3  10    8.27    0.26 
  -1  -3  10   29.94    0.76 
   1  -3 -10   31.17    0.76 
   1  -3 -10   29.92    0.74 
  -1  -3  10   31.11    0.75 
  -1   3  10   30.05    0.79 
   1   3 -10   30.74    0.72 
   1   3 -10   31.13    0.79 
  -1   3  10   28.21    0.74 
   0  -3 -10    5.40    0.20 
   0  -3  10    5.40    0.24 
   0  -3 -10    5.26    0.19 
   0  -3  10    5.33    0.18 
   0   3  10    5.31    0.21 
   0   3 -10    5.69    0.23 
   0   3 -10    5.45    0.17 
   0   3  10    5.05    0.20 
   1  -3  10   47.58    1.14 
   1  -3  10   49.01    1.22 
  -1  -3 -10   50.38    1.22 
  -1  -3 -10   47.83    1.15 
  -1   3 -10   49.62    1.16 
   1   3  10   48.73    1.18 
  -1   3 -10   48.86    1.19 
  -2  -3 -10    0.80    0.13 
   2  -3  10    1.04    0.16 
  -2   3 -10    0.98    0.11 
   2   3  10    1.03    0.14 
  -2   3 -10    0.88    0.11 
   3  -3  10    0.43    0.18 
  -3  -3 -10    0.33    0.13 
  -3   3 -10    0.47    0.12 
   3   3  10    0.49    0.15 
   4  -3  10    0.91    0.24 
  -4  -3 -10    0.98    0.20 
  -4   3 -10    0.91    0.17 
   4   3  10    0.54    0.20 
   4  -4 -10    1.14    0.19 
  -4  -4  10    0.50    0.16 
  -4   4  10    0.92    0.24 
   4   4 -10    0.57    0.19 
   3  -4 -10    1.86    0.18 
  -3  -4  10    1.76    0.16 
   3   4 -10    1.45    0.19 
  -3   4  10    1.79    0.23 
   2  -4 -10   21.92    0.63 
  -2   4  10   23.52    0.69 
   2   4 -10   22.81    0.67 
  -2   4  10   23.81    0.61 
  -1  -4  10    7.69    0.26 
  -1  -4  10    7.53    0.26 
   1  -4 -10    7.77    0.27 
   1   4 -10    7.40    0.23 
  -1   4  10    7.34    0.26 
  -1   4  10    6.88    0.28 
   1   4 -10    7.45    0.29 
   0  -4  10    1.05    0.13 
   0  -4  10    0.92    0.09 
   0  -4 -10    0.94    0.10 
   0  -4 -10    0.88    0.09 
   0   4  10    1.05    0.11 
   0   4 -10    1.02    0.12 
   0   4 -10    0.99    0.09 
   0   4  10    0.91    0.12 
   1  -4  10    5.77    0.28 
  -1  -4 -10    6.12    0.26 
   1  -4  10    5.57    0.21 
  -1  -4 -10    5.84    0.22 
  -1   4 -10    6.10    0.22 
   1   4  10    6.11    0.25 
  -1   4 -10    6.20    0.24 
   2  -4  10    9.64    0.40 
  -2  -4 -10    9.14    0.37 
   2   4  10    9.45    0.35 
  -2   4 -10    9.75    0.33 
  -3  -4 -10    0.17    0.13 
   3  -4  10    0.26    0.18 
  -3   4 -10    0.28    0.12 
   3   4  10    0.06    0.15 
  -3  -5  10    3.14    0.23 
   3  -5 -10    3.38    0.27 
   3   5 -10    3.47    0.30 
  -3   5  10    3.44    0.32 
   2  -5 -10    6.55    0.29 
  -2  -5  10    6.65    0.27 
  -2   5  10    6.36    0.33 
   2   5 -10    7.15    0.33 
  -2   5  10    6.47    0.27 
  -1  -5  10    4.75    0.22 
   1  -5 -10    4.86    0.24 
  -1   5  10    4.45    0.24 
   1   5 -10    4.96    0.25 
  -1   5  10    5.11    0.24 
   1   5 -10    4.76    0.29 
   0  -5  10    0.90    0.11 
   0  -5  10    0.94    0.14 
   0  -5 -10    0.98    0.11 
   0  -5 -10    0.98    0.12 
   0   5  10    1.05    0.13 
   0   5 -10    1.00    0.11 
   0   5 -10    0.94    0.13 
   1  -5  10    0.12    0.12 
  -1  -5 -10    0.22    0.09 
  -1  -5 -10    0.28    0.09 
   1  -5  10    0.19    0.09 
   1   5  10    0.13    0.11 
  -1   5 -10    0.19    0.10 
  -1   5 -10    0.10    0.10 
  -2  -5 -10    1.02    0.15 
   2  -5  10    0.84    0.18 
  -2   5 -10    1.04    0.14 
   2   5  10    1.13    0.16 
  -3  -5 -10    0.31    0.14 
   3  -5  10    0.51    0.20 
   3   5  10    0.53    0.19 
  -3   5 -10    0.65    0.14 
   3  -6 -10    2.94    0.24 
  -3  -6  10    2.63    0.24 
  -3   6  10    2.67    0.23 
  -3   6  10    2.60    0.31 
   3   6 -10    2.78    0.31 
  -2  -6  10    1.09    0.13 
   2  -6 -10    1.65    0.18 
   2   6 -10    1.38    0.19 
  -2   6  10    1.52    0.16 
  -2   6  10    1.42    0.19 
   1  -6 -10    0.89    0.14 
  -1  -6  10    0.89    0.12 
  -1   6  10    1.18    0.16 
  -1   6  10    1.16    0.15 
   1   6 -10    0.84    0.14 
   0  -6 -10    0.95    0.13 
   0  -6  10    0.96    0.13 
   0   6 -10    0.84    0.13 
   0   6  10    0.86    0.14 
   0   6 -10    0.78    0.12 
   1  -6  10    2.79    0.24 
  -1  -6 -10    2.94    0.20 
  -1  -6 -10    2.93    0.21 
   1  -6  10    2.74    0.19 
  -1   6 -10    2.76    0.20 
   1   6  10    2.92    0.23 
  -2  -6 -10    0.42    0.13 
   2  -6  10    0.35    0.16 
  -2   6 -10    0.44    0.13 
   2   6  10    0.52    0.16 
  -3  -6 -10    2.03    0.24 
   3  -6  10    1.80    0.26 
  -3   6 -10    1.88    0.19 
   3   6  10    1.97    0.24 
   2  -7 -10    1.02    0.17 
  -2  -7  10    1.02    0.15 
  -2   7  10    1.04    0.17 
  -2   7  10    1.22    0.19 
   2   7 -10    0.75    0.17 
  -1  -7  10   -0.04    0.10 
   1  -7 -10    0.03    0.12 
   1   7 -10    0.06    0.11 
  -1   7  10    0.03    0.14 
   0  -7 -10    2.05    0.18 
   0  -7  10    2.28    0.18 
   0   7  10    2.49    0.22 
   0   7 -10    1.92    0.22 
   0   7 -10    2.42    0.20 
   1  -7  10    4.19    0.24 
  -1  -7 -10    4.32    0.24 
  -1  -7 -10    4.08    0.25 
   1   7  10    4.13    0.30 
  -1   7 -10    3.90    0.24 
  -2  -7 -10    0.52    0.15 
   2  -7  10    0.40    0.18 
   2   7  10    0.55    0.18 
  -2   7 -10    0.79    0.15 
  -2  -8  10    9.99    0.40 
   2  -8 -10    9.46    0.42 
   2   8 -10   10.10    0.47 
  -2   8  10    9.51    0.42 
   1  -8 -10    1.67    0.20 
  -1  -8  10    1.54    0.17 
   1   8 -10    1.48    0.20 
  -1   8  10    1.67    0.22 
   0  -8 -10    0.63    0.15 
   0  -8  10    0.60    0.14 
   0   8 -10    0.71    0.15 
   0   8  10    0.94    0.18 
   1  -8  10    3.42    0.25 
  -1  -8 -10    3.39    0.25 
  -1   8 -10    3.17    0.25 
   1   8  10    3.68    0.29 
  -2  -8 -10    5.84    0.35 
   2   8  10    6.53    0.39 
  -2   8 -10    6.11    0.32 
   0  -9  10    5.13    0.31 
   0  -9 -10    5.26    0.32 
   0   9  10    5.00    0.35 
  -4   0  11    1.89    0.24 
   4   0 -11    1.42    0.20 
   3   0 -11   -0.06    0.09 
   3   0 -11    0.04    0.12 
  -3   0  11    0.02    0.13 
  -2   0  11   -0.07    0.07 
   2   0 -11   -0.01    0.07 
  -2   0  11    0.09    0.10 
  -1   0  11    0.14    0.09 
  -1   0  11    0.04    0.06 
   1   0 -11    0.15    0.08 
   0   0  11   43.25    1.08 
   0   0  11   44.65    1.03 
   0   0 -11   45.05    1.08 
  -1   0 -11  159.61    3.60 
   1   0  11  158.61    3.64 
  -1   0 -11  153.63    3.64 
  -2   0 -11    0.94    0.11 
   2   0  11    0.82    0.15 
  -2   0 -11    0.66    0.11 
   3   0  11    2.51    0.27 
  -3   0 -11    3.04    0.21 
  -3   0 -11    2.72    0.23 
   4   0  11    2.56    0.33 
  -4   0 -11    2.76    0.32 
  -4   0 -11    2.62    0.26 
  -4  -1  11    2.46    0.28 
   4  -1 -11    2.09    0.21 
  -4   1  11    2.46    0.29 
  -3  -1  11    6.59    0.32 
   3  -1 -11    5.85    0.28 
  -3  -1  11    6.59    0.27 
  -3   1  11    6.28    0.33 
   3   1 -11    6.21    0.29 
  -2  -1  11    1.93    0.14 
   2  -1 -11    1.88    0.16 
   2  -1 -11    1.83    0.15 
  -2  -1  11    1.79    0.18 
  -2   1  11    1.85    0.19 
   2   1 -11    1.70    0.15 
   1  -1 -11   56.41    1.31 
  -1  -1  11   54.18    1.32 
   1  -1 -11   55.60    1.29 
  -1  -1  11   55.44    1.28 
  -1   1  11   54.13    1.33 
  -1   1  11   51.58    1.26 
   1   1 -11   55.69    1.32 
   0  -1 -11   58.08    1.36 
   0  -1  11   55.78    1.31 
   0  -1  11   56.21    1.37 
   0  -1 -11   56.73    1.32 
   0   1  11   56.54    1.36 
   0   1 -11   57.10    1.30 
   0   1  11   54.90    1.32 
   0   1 -11   58.40    1.36 
  -1  -1 -11   13.65    0.41 
   1  -1  11   13.78    0.42 
   1   1  11   14.13    0.43 
   1   1  11   13.46    0.37 
  -1   1 -11   13.66    0.40 
  -1   1 -11   13.87    0.36 
  -2  -1 -11   11.10    0.39 
   2  -1  11   11.65    0.42 
  -2   1 -11   11.59    0.38 
  -2   1 -11   12.15    0.35 
   2   1  11   11.53    0.40 
  -3  -1 -11   11.19    0.43 
   3  -1  11   11.59    0.47 
  -3   1 -11   11.08    0.40 
  -3   1 -11   10.84    0.37 
   3   1  11   10.80    0.44 
  -4  -1 -11    3.18    0.29 
   4  -1  11    2.96    0.35 
   4   1  11    4.59    0.34 
  -4   1 -11    3.23    0.26 
  -4  -2  11    0.47    0.16 
   4  -2 -11    0.99    0.17 
   4   2 -11    0.40    0.15 
  -4   2  11    0.62    0.21 
   3  -2 -11    3.29    0.24 
  -3  -2  11    3.67    0.22 
  -3  -2  11    3.51    0.24 
  -3   2  11    3.50    0.29 
   3   2 -11    3.29    0.24 
   2  -2 -11    3.26    0.20 
  -2  -2  11    3.60    0.18 
  -2  -2  11    3.63    0.21 
  -2   2  11    3.55    0.15 
   2   2 -11    3.58    0.21 
  -2   2  11    3.75    0.24 
   1  -2 -11   22.25    0.55 
  -1  -2  11   22.35    0.55 
  -1  -2  11   21.44    0.58 
   1  -2 -11   21.66    0.56 
  -1   2  11   20.05    0.53 
  -1   2  11   21.29    0.59 
   1   2 -11   22.61    0.59 
   0  -2  11   26.07    0.62 
   0  -2  11   26.16    0.69 
   0  -2 -11   25.60    0.66 
   0  -2 -11   26.11    0.64 
   0   2  11   25.10    0.67 
   0   2  11   24.53    0.64 
   0   2 -11   27.22    0.68 
   0   2 -11   26.37    0.61 
  -1  -2 -11    2.42    0.11 
  -1  -2 -11    2.69    0.17 
   1  -2  11    2.55    0.10 
   1  -2  11    2.70    0.20 
  -1   2 -11    2.66    0.13 
   1   2  11    2.89    0.16 
   1   2  11    2.73    0.19 
  -1   2 -11    2.48    0.15 
   2  -2  11    8.50    0.36 
  -2  -2 -11    8.46    0.33 
   2   2  11    8.46    0.33 
   2   2  11    8.02    0.30 
  -2   2 -11    8.15    0.30 
  -2   2 -11    8.13    0.28 
   3  -2  11    1.30    0.22 
  -3  -2 -11    1.31    0.18 
   3   2  11    1.69    0.19 
  -3   2 -11    1.55    0.16 
  -3   2 -11    1.22    0.19 
  -4  -2 -11    1.33    0.21 
   4  -2  11    0.94    0.25 
  -4   2 -11    1.16    0.18 
   4   2  11    1.30    0.22 
  -4  -3  11    0.44    0.15 
   4  -3 -11    0.43    0.16 
  -4   3  11    0.23    0.20 
   4   3 -11    0.27    0.16 
   3  -3 -11    1.99    0.18 
  -3  -3  11    2.20    0.20 
  -3   3  11    2.14    0.24 
   3   3 -11    2.05    0.21 
  -2  -3  11    7.30    0.26 
   2  -3 -11    6.92    0.28 
  -2  -3  11    7.48    0.28 
  -2   3  11    7.35    0.33 
  -2   3  11    7.08    0.24 
   1  -3 -11    1.60    0.14 
   1  -3 -11    1.68    0.11 
  -1  -3  11    1.71    0.14 
  -1  -3  11    1.54    0.12 
  -1   3  11    1.72    0.16 
  -1   3  11    1.49    0.12 
   1   3 -11    1.66    0.16 
   0  -3 -11   14.87    0.40 
   0  -3  11   14.69    0.45 
   0  -3 -11   15.12    0.42 
   0  -3  11   14.68    0.39 
   0   3 -11   14.99    0.44 
   0   3  11   14.13    0.42 
   0   3  11   14.01    0.40 
   0   3 -11   14.50    0.37 
   1  -3  11    1.30    0.10 
  -1  -3 -11    1.28    0.14 
  -1  -3 -11    1.24    0.11 
   1  -3  11    1.37    0.16 
  -1   3 -11    1.45    0.12 
  -1   3 -11    1.25    0.14 
   1   3  11    1.41    0.14 
   1   3  11    1.38    0.13 
   2  -3  11    2.54    0.25 
  -2  -3 -11    2.81    0.21 
   2   3  11    2.58    0.21 
  -2   3 -11    2.86    0.18 
  -2   3 -11    2.96    0.18 
  -3  -3 -11    0.96    0.17 
   3  -3  11    0.65    0.20 
  -3   3 -11    0.94    0.14 
   3   3  11    0.75    0.17 
  -4  -3 -11    1.57    0.23 
   4  -3  11    1.20    0.26 
  -4   3 -11    1.46    0.20 
   4   3  11    1.68    0.25 
  -4  -4  11    2.36    0.22 
   4  -4 -11    2.64    0.24 
  -4   4  11    2.33    0.30 
   4   4 -11    2.20    0.25 
  -3  -4  11    0.98    0.14 
   3  -4 -11    0.94    0.16 
  -3   4  11    1.00    0.20 
   3   4 -11    0.78    0.17 
  -2  -4  11    6.83    0.27 
   2  -4 -11    6.68    0.29 
  -2   4  11    7.00    0.34 
  -2   4  11    6.92    0.26 
   2   4 -11    7.27    0.33 
  -1  -4  11    3.81    0.20 
  -1  -4  11    3.82    0.18 
   1  -4 -11    3.69    0.20 
  -1   4  11    3.64    0.22 
  -1   4  11    3.69    0.19 
   0  -4  11   26.84    0.68 
   0  -4 -11   27.06    0.70 
   0  -4  11   27.90    0.72 
   0  -4 -11   27.38    0.69 
   0   4 -11   27.15    0.67 
   0   4  11   25.97    0.69 
   0   4 -11   28.24    0.73 
   0   4  11   25.76    0.70 
  -1  -4 -11    0.35    0.10 
  -1  -4 -11    0.30    0.08 
   1  -4  11    0.44    0.13 
   1  -4  11    0.40    0.08 
  -1   4 -11    0.37    0.09 
   1   4  11    0.32    0.11 
  -1   4 -11    0.44    0.10 
  -2  -4 -11    0.90    0.14 
   2  -4  11    0.95    0.18 
   2   4  11    0.81    0.15 
  -2   4 -11    0.75    0.12 
  -3  -4 -11    0.11    0.12 
   3  -4  11   -0.04    0.17 
  -3   4 -11    0.24    0.12 
   3   4  11   -0.14    0.15 
  -3  -5  11    2.91    0.23 
   3  -5 -11    3.38    0.27 
  -3   5  11    3.47    0.31 
   3   5 -11    3.39    0.30 
   2  -5 -11   11.91    0.42 
  -2  -5  11   12.37    0.40 
   2   5 -11   12.80    0.46 
  -2   5  11   12.84    0.40 
  -2   5  11   12.17    0.46 
   1  -5 -11    7.69    0.30 
  -1  -5  11    7.38    0.28 
  -1   5  11    7.31    0.30 
   1   5 -11    7.70    0.32 
  -1   5  11    7.91    0.30 
   0  -5  11    2.21    0.22 
   0  -5 -11    2.66    0.19 
   0  -5  11    2.35    0.17 
   0  -5 -11    2.30    0.16 
   0   5 -11    2.51    0.16 
   0   5  11    2.74    0.21 
   0   5 -11    2.44    0.20 
  -1  -5 -11    0.20    0.09 
  -1  -5 -11    0.18    0.09 
   1  -5  11    0.10    0.13 
   1  -5  11    0.18    0.08 
  -1   5 -11    0.17    0.10 
  -1   5 -11    0.10    0.10 
   1   5  11    0.28    0.12 
   2  -5  11    0.33    0.16 
  -2  -5 -11    0.46    0.13 
  -2   5 -11    0.28    0.11 
   2   5  11    0.58    0.15 
  -3  -5 -11    1.53    0.21 
   3  -5  11    1.35    0.24 
   3   5  11    1.73    0.23 
  -3   5 -11    1.43    0.18 
   3  -6 -11    0.04    0.14 
  -3  -6  11    0.04    0.13 
  -3   6  11    0.01    0.17 
   3   6 -11   -0.06    0.15 
  -2  -6  11    2.92    0.21 
   2  -6 -11    2.79    0.24 
  -2   6  11    2.66    0.23 
   2   6 -11    3.02    0.27 
  -2   6  11    2.91    0.26 
   1  -6 -11    1.63    0.17 
  -1  -6  11    2.10    0.18 
   1   6 -11    1.66    0.18 
  -1   6  11    1.62    0.18 
  -1   6  11    1.72    0.18 
   0  -6  11    6.18    0.26 
   0  -6 -11    6.29    0.28 
   0   6  11    5.90    0.29 
   0   6 -11    6.03    0.25 
   0   6 -11    6.13    0.30 
   1  -6  11    0.35    0.11 
   1  -6  11    0.30    0.15 
  -1  -6 -11    0.56    0.12 
  -1  -6 -11    0.46    0.12 
  -1   6 -11    0.55    0.12 
   1   6  11    0.60    0.15 
  -2  -6 -11    4.62    0.29 
   2  -6  11    4.23    0.32 
  -2   6 -11    4.37    0.25 
   2   6  11    4.72    0.33 
   3  -6  11    2.39    0.30 
  -3  -6 -11    2.06    0.25 
  -3   6 -11    1.91    0.20 
   3   6  11    1.97    0.25 
  -2  -7  11    0.30    0.13 
   2  -7 -11    0.41    0.15 
   2   7 -11    0.36    0.16 
  -2   7  11    0.45    0.15 
  -2   7  11    0.55    0.17 
   1  -7 -11    0.10    0.13 
  -1  -7  11    0.23    0.11 
  -1   7  11    0.25    0.14 
   1   7 -11    0.05    0.12 
   0  -7  11    0.01    0.11 
   0  -7 -11    0.07    0.12 
   0   7 -11    0.00    0.12 
   0   7 -11    0.10    0.11 
   0   7  11    0.24    0.14 
  -1  -7 -11    9.21    0.38 
  -1  -7 -11    9.71    0.36 
   1  -7  11    9.52    0.35 
   1   7  11    9.64    0.40 
  -1   7 -11    9.53    0.36 
  -2  -7 -11    6.81    0.37 
   2  -7  11    7.27    0.41 
   2   7  11    7.80    0.39 
  -2   7 -11    7.29    0.33 
   2  -8 -11    2.15    0.23 
  -2  -8  11    1.78    0.19 
   2   8 -11    1.61    0.23 
  -2   8  11    2.37    0.23 
  -1  -8  11    1.88    0.19 
   1  -8 -11    2.30    0.22 
   1   8 -11    2.13    0.23 
  -1   8  11    2.61    0.25 
   0  -8 -11    0.47    0.15 
   0  -8  11    0.44    0.14 
   0   8  11    0.64    0.17 
  -1  -8 -11    2.08    0.20 
  -1   8 -11    2.12    0.20 
   1   8  11    2.84    0.25 
   4   0 -12    1.64    0.20 
  -4   0  12    1.53    0.24 
   3   0 -12    3.76    0.26 
  -3   0  12    4.15    0.28 
   3   0 -12    3.88    0.23 
  -2   0  12    7.74    0.26 
   2   0 -12    7.69    0.28 
  -2   0  12    7.54    0.31 
   1   0 -12    2.69    0.17 
  -1   0  12    2.74    0.14 
  -1   0  12    2.92    0.19 
   0   0  12    2.33    0.18 
   0   0 -12    2.45    0.12 
   0   0 -12    2.40    0.16 
   0   0  12    2.31    0.10 
  -1   0 -12   39.72    0.94 
  -1   0 -12   38.98    0.99 
   1   0  12   39.27    1.00 
   2   0  12    0.12    0.13 
  -2   0 -12    0.12    0.08 
  -2   0 -12    0.09    0.09 
   3   0  12    0.49    0.18 
  -3   0 -12    0.32    0.12 
  -3   0 -12    0.40    0.13 
  -4   0 -12   12.61    0.53 
  -4   0 -12   11.30    0.44 
  -4  -1  12    6.06    0.37 
   4  -1 -12    5.96    0.33 
  -4   1  12    6.32    0.41 
  -3  -1  12    3.16    0.26 
   3  -1 -12    3.60    0.24 
  -3  -1  12    3.22    0.22 
   3   1 -12    3.54    0.24 
  -3   1  12    3.40    0.29 
   2  -1 -12    2.82    0.18 
  -2  -1  12    2.98    0.21 
  -2  -1  12    2.65    0.17 
   2  -1 -12    2.70    0.17 
  -2   1  12    2.62    0.22 
   2   1 -12    2.89    0.19 
   1  -1 -12    4.22    0.19 
   1  -1 -12    3.82    0.17 
  -1  -1  12    3.93    0.16 
  -1  -1  12    4.10    0.21 
  -1   1  12    3.55    0.12 
  -1   1  12    4.09    0.21 
   1   1 -12    3.95    0.20 
   0  -1 -12   29.17    0.75 
   0  -1  12   29.98    0.77 
   0  -1 -12   29.80    0.71 
   0  -1  12   29.22    0.70 
   0   1  12   29.89    0.71 
   0   1 -12   29.64    0.69 
   0   1  12   29.51    0.76 
   0   1 -12   30.09    0.76 
   1  -1  12    0.30    0.12 
  -1  -1 -12    0.22    0.08 
   1   1  12    0.20    0.12 
   1   1  12    0.36    0.08 
  -1   1 -12    0.42    0.06 
  -1   1 -12    0.29    0.09 
  -2  -1 -12    5.00    0.25 
   2  -1  12    5.17    0.29 
  -2   1 -12    4.90    0.21 
   2   1  12    4.96    0.28 
  -2   1 -12    4.88    0.23 
  -3  -1 -12    9.59    0.39 
   3  -1  12   10.24    0.45 
  -3   1 -12    9.64    0.38 
   3   1  12    9.47    0.42 
  -3   1 -12    9.61    0.35 
  -4  -1 -12    1.96    0.23 
   4  -1  12    1.86    0.29 
  -4   1 -12    2.04    0.21 
   4  -2 -12    0.48    0.15 
  -4  -2  12    0.40    0.15 
  -4   2  12    0.54    0.20 
   4   2 -12    0.09    0.15 
  -3  -2  12    7.81    0.31 
   3  -2 -12    7.21    0.32 
  -3  -2  12    7.86    0.34 
   3   2 -12    7.34    0.34 
  -3   2  12    8.19    0.39 
  -2  -2  12   10.15    0.33 
   2  -2 -12   10.40    0.35 
  -2  -2  12   10.28    0.36 
  -2   2  12   10.84    0.40 
   2   2 -12   10.83    0.38 
  -1  -2  12   23.00    0.58 
  -1  -2  12   22.50    0.62 
   1  -2 -12   23.30    0.59 
   1  -2 -12   24.05    0.59 
   1   2 -12   22.89    0.63 
  -1   2  12   23.24    0.63 
  -1   2  12   21.88    0.56 
   0  -2  12    1.14    0.09 
   0  -2 -12    1.43    0.11 
   0  -2  12    1.28    0.15 
   0  -2 -12    1.44    0.12 
   0   2  12    1.29    0.12 
   0   2 -12    1.10    0.13 
   0   2 -12    1.48    0.08 
   0   2  12    1.37    0.15 
   1  -2  12    0.73    0.13 
   1  -2  12    0.83    0.08 
  -1  -2 -12    0.66    0.10 
  -1  -2 -12    0.67    0.06 
   1   2  12    0.76    0.10 
   1   2  12    0.83    0.12 
  -1   2 -12    0.79    0.10 
  -1   2 -12    0.69    0.08 
  -2  -2 -12   30.74    0.84 
   2  -2  12   32.34    0.87 
  -2   2 -12   30.62    0.78 
  -2   2 -12   30.06    0.81 
   2   2  12   30.10    0.82 
   2   2  12   30.71    0.80 
   3  -2  12    0.52    0.19 
  -3  -2 -12    0.60    0.15 
  -3   2 -12    0.67    0.13 
   3   2  12    0.73    0.16 
  -3   2 -12    0.69    0.13 
   4  -2  12    1.95    0.29 
  -4  -2 -12    1.75    0.24 
  -4   2 -12    1.97    0.21 
   4   2  12    2.18    0.26 
   4  -3 -12    0.48    0.17 
  -4  -3  12    0.77    0.17 
  -4   3  12    0.72    0.23 
   4   3 -12    0.70    0.19 
  -3  -3  12    0.28    0.12 
   3  -3 -12    0.46    0.13 
  -3   3  12    0.61    0.18 
   3   3 -12    0.53    0.15 
  -2  -3  12    8.92    0.30 
  -2  -3  12    8.78    0.32 
   2  -3 -12    8.67    0.32 
  -2   3  12    8.87    0.37 
   2   3 -12    8.91    0.36 
   1  -3 -12    1.08    0.11 
   1  -3 -12    0.98    0.10 
  -1  -3  12    1.06    0.10 
  -1  -3  12    1.22    0.15 
  -1   3  12    1.10    0.13 
   1   3 -12    0.99    0.13 
  -1   3  12    0.97    0.10 
   0  -3  12   10.21    0.29 
   0  -3 -12   10.35    0.30 
   0  -3 -12   10.14    0.32 
   0  -3  12    9.92    0.36 
   0   3  12    9.83    0.31 
   0   3  12    9.93    0.33 
   0   3 -12   10.12    0.35 
   0   3 -12   10.24    0.28 
  -1  -3 -12   35.35    0.91 
   1  -3  12   36.30    0.92 
  -1  -3 -12   33.74    0.84 
   1  -3  12   35.42    0.83 
   1   3  12   35.53    0.88 
  -1   3 -12   34.13    0.88 
  -1   3 -12   34.59    0.85 
   1   3  12   32.49    0.87 
   2  -3  12    1.15    0.19 
  -2  -3 -12    1.14    0.15 
  -2   3 -12    1.38    0.16 
   2   3  12    1.38    0.16 
  -2   3 -12    1.26    0.13 
  -3  -3 -12    0.57    0.15 
   3  -3  12    0.48    0.20 
   3   3  12    0.60    0.17 
  -3   3 -12    0.68    0.13 
  -4  -3 -12   -0.03    0.15 
   4  -3  12   -0.23    0.21 
   4   3  12    0.01    0.22 
  -4   3 -12    0.07    0.14 
  -4  -4  12    1.40    0.20 
   4  -4 -12    1.58    0.21 
   4   4 -12    1.53    0.23 
  -4   4  12    1.35    0.31 
   3  -4 -12    8.57    0.37 
  -3  -4  12    8.67    0.34 
   3   4 -12    9.27    0.42 
  -3   4  12    8.89    0.43 
  -2  -4  12    5.12    0.24 
   2  -4 -12    4.73    0.25 
  -2   4  12    5.03    0.30 
  -2   4  12    4.92    0.22 
   2   4 -12    4.76    0.27 
  -1  -4  12   16.46    0.46 
   1  -4 -12   17.25    0.48 
  -1  -4  12   16.53    0.48 
  -1   4  12   15.72    0.46 
  -1   4  12   15.91    0.50 
   1   4 -12   16.78    0.52 
   0  -4  12    4.48    0.26 
   0  -4 -12    4.69    0.21 
   0  -4  12    4.76    0.19 
   0  -4 -12    4.88    0.21 
   0   4 -12    4.79    0.25 
   0   4  12    4.47    0.22 
   0   4 -12    4.64    0.18 
   0   4  12    4.46    0.21 
  -1  -4 -12    0.13    0.08 
  -1  -4 -12    0.15    0.09 
   1  -4  12    0.23    0.07 
   1  -4  12    0.12    0.13 
  -1   4 -12    0.17    0.08 
   1   4  12   -0.04    0.10 
  -1   4 -12    0.17    0.09 
   2  -4  12    4.15    0.31 
  -2  -4 -12    4.40    0.26 
   2   4  12    4.19    0.28 
  -2   4 -12    4.15    0.22 
   3  -4  12    0.08    0.18 
  -3  -4 -12    0.01    0.12 
   3   4  12    0.40    0.18 
  -3   4 -12    0.24    0.12 
   3  -5 -12    0.33    0.14 
  -3  -5  12    0.07    0.12 
  -3   5  12    0.18    0.17 
   3   5 -12    0.11    0.16 
   2  -5 -12    7.78    0.33 
  -2  -5  12    7.96    0.30 
   2   5 -12    8.12    0.37 
  -2   5  12    7.90    0.37 
  -2   5  12    7.42    0.29 
   1  -5 -12   25.69    0.70 
  -1  -5  12   25.89    0.68 
   1   5 -12   26.01    0.74 
  -1   5  12   27.36    0.70 
  -1   5  12   24.78    0.72 
   0  -5 -12    0.48    0.09 
   0  -5  12    0.64    0.10 
   0  -5 -12    0.55    0.11 
   0  -5  12    0.36    0.15 
   0   5  12    0.57    0.10 
   0   5 -12    0.55    0.13 
   0   5  12    0.62    0.13 
   0   5 -12    0.44    0.09 
  -1  -5 -12    3.12    0.19 
   1  -5  12    3.20    0.19 
  -1  -5 -12    2.85    0.21 
   1  -5  12    3.03    0.26 
   1   5  12    2.99    0.23 
  -1   5 -12    3.26    0.19 
  -1   5 -12    3.07    0.21 
   2  -5  12    2.64    0.29 
  -2  -5 -12    2.83    0.24 
  -2   5 -12    2.55    0.20 
   2   5  12    2.70    0.22 
   3  -5  12    0.54    0.21 
  -3  -5 -12    0.63    0.17 
   3   5  12    0.63    0.20 
  -3   5 -12    1.13    0.16 
   3  -6 -12    2.07    0.21 
  -3  -6  12    1.77    0.19 
   3   6 -12    2.20    0.26 
  -3   6  12    2.40    0.31 
  -2  -6  12    6.90    0.30 
   2  -6 -12    7.10    0.33 
  -2   6  12    7.03    0.36 
  -2   6  12    6.95    0.31 
   2   6 -12    7.41    0.37 
  -1  -6  12    1.34    0.14 
   1  -6 -12    1.48    0.17 
   1   6 -12    1.27    0.17 
  -1   6  12    1.70    0.18 
  -1   6  12    1.40    0.18 
   0  -6 -12    0.39    0.12 
   0  -6  12    0.36    0.11 
   0   6 -12    0.30    0.10 
   0   6 -12    0.26    0.13 
   0   6  12    0.56    0.14 
  -1  -6 -12    0.53    0.12 
   1  -6  12    0.61    0.17 
  -1  -6 -12    0.61    0.12 
  -1   6 -12    0.66    0.12 
   1   6  12    0.60    0.15 
   2  -6  12    7.54    0.41 
  -2  -6 -12    7.05    0.36 
  -2   6 -12    7.60    0.32 
   2   6  12    7.63    0.39 
   3  -6  12    5.44    0.42 
  -3  -6 -12    5.57    0.37 
  -3   6 -12    5.65    0.30 
   3   6  12    5.71    0.40 
  -2  -7  12    0.62    0.14 
   2  -7 -12    0.67    0.16 
  -2   7  12    0.57    0.16 
  -2   7  12    0.75    0.18 
   2   7 -12    0.50    0.17 
  -1  -7  12    0.83    0.14 
   1  -7 -12    0.73    0.15 
  -1   7  12    0.67    0.17 
   1   7 -12    0.57    0.15 
   0  -7  12    0.16    0.12 
   0  -7 -12    0.16    0.13 
   0   7  12    0.27    0.15 
   0   7 -12    0.18    0.14 
  -1  -7 -12    2.80    0.23 
  -1  -7 -12    2.73    0.23 
  -1   7 -12    3.05    0.23 
   1   7  12    3.22    0.29 
  -2  -7 -12    0.69    0.16 
   2  -7  12    0.63    0.21 
  -2   7 -12    1.17    0.17 
   2   7  12    1.13    0.21 
  -1  -8  12    1.29    0.17 
   1  -8 -12    1.44    0.20 
  -1   8  12    1.73    0.22 
   1   8 -12    1.17    0.20 
   0  -8  12    0.56    0.15 
   0  -8 -12    0.50    0.15 
   0   8  12    0.92    0.19 
  -1  -8 -12    2.20    0.20 
  -1   8 -12    2.27    0.21 
   1   8  12    2.67    0.25 
   4   0 -13    0.43    0.17 
  -4   0  13    0.70    0.20 
  -3   0  13    0.30    0.15 
   3   0 -13    0.22    0.14 
   3   0 -13    0.40    0.13 
   2   0 -13    4.21    0.22 
  -2   0  13    4.46    0.25 
  -2   0  13    4.15    0.20 
  -1   0  13    5.02    0.19 
   1   0 -13    4.85    0.23 
  -1   0  13    5.13    0.24 
   0   0 -13    9.63    0.31 
   0   0  13    8.43    0.31 
   0   0 -13    9.43    0.26 
   0   0  13    8.57    0.24 
   1   0  13    9.45    0.35 
  -1   0 -13    9.49    0.28 
  -1   0 -13    8.89    0.32 
   2   0  13    0.76    0.16 
  -2   0 -13    0.66    0.11 
  -2   0 -13    0.61    0.12 
   3   0  13    2.55    0.30 
  -3   0 -13    2.85    0.22 
  -3   0 -13    3.23    0.25 
  -4   0 -13   12.05    0.50 
  -4  -1  13    1.13    0.20 
   4  -1 -13    1.07    0.18 
  -4   1  13    1.11    0.23 
   4   1 -13    0.48    0.19 
  -3  -1  13    2.52    0.24 
   3  -1 -13    2.53    0.23 
  -3  -1  13    2.42    0.21 
  -3   1  13    2.44    0.27 
   3   1 -13    2.38    0.22 
  -2  -1  13    6.90    0.26 
   2  -1 -13    6.65    0.27 
   2  -1 -13    7.15    0.28 
  -2  -1  13    7.00    0.30 
   2   1 -13    7.11    0.29 
  -2   1  13    7.31    0.32 
  -1  -1  13    4.67    0.23 
   1  -1 -13    4.85    0.20 
   1  -1 -13    4.68    0.20 
  -1  -1  13    4.53    0.18 
   1   1 -13    4.81    0.23 
  -1   1  13    4.84    0.24 
   0  -1  13   18.17    0.45 
   0  -1 -13   18.39    0.46 
   0  -1 -13   18.67    0.50 
   0  -1  13   18.43    0.53 
   0   1 -13   18.11    0.51 
   0   1 -13   18.20    0.44 
   0   1  13   17.34    0.46 
   0   1  13   18.34    0.52 
   1  -1  13    1.88    0.18 
  -1  -1 -13    1.69    0.15 
   1   1  13    1.63    0.13 
  -1   1 -13    1.50    0.15 
   1   1  13    1.73    0.18 
  -1   1 -13    1.67    0.11 
  -2  -1 -13    0.49    0.12 
   2  -1  13    0.67    0.17 
   2   1  13    0.66    0.12 
  -2   1 -13    0.52    0.10 
   2   1  13    0.55    0.17 
  -2   1 -13    0.60    0.11 
   3  -1  13    5.49    0.38 
  -3  -1 -13    5.38    0.31 
   3   1  13    5.13    0.33 
  -3   1 -13    5.39    0.29 
   3   1  13    5.98    0.29 
  -3   1 -13    5.04    0.26 
  -4  -1 -13    5.99    0.37 
  -4   1 -13    5.80    0.32 
   4   1  13    6.88    0.41 
  -4  -2  13    6.75    0.34 
   4  -2 -13    6.82    0.34 
  -4   2  13    6.46    0.42 
  -3  -2  13    6.28    0.28 
  -3  -2  13    6.52    0.32 
   3  -2 -13    6.20    0.31 
  -3   2  13    6.69    0.37 
   3   2 -13    6.52    0.32 
  -2  -2  13    8.50    0.29 
  -2  -2  13    8.52    0.33 
   2  -2 -13    8.49    0.32 
   2   2 -13    8.78    0.34 
  -2   2  13    8.74    0.36 
   1  -2 -13    4.23    0.19 
  -1  -2  13    4.59    0.18 
   1  -2 -13    4.40    0.18 
  -1  -2  13    4.49    0.22 
  -1   2  13    4.04    0.16 
   1   2 -13    4.43    0.22 
  -1   2  13    4.24    0.23 
   0  -2  13    4.21    0.15 
   0  -2 -13    4.16    0.17 
   0  -2  13    4.11    0.24 
   0  -2 -13    4.13    0.19 
   0   2 -13    4.13    0.23 
   0   2  13    4.20    0.21 
   0   2  13    4.24    0.17 
   0   2 -13    4.20    0.13 
   1  -2  13    5.68    0.29 
  -1  -2 -13    5.49    0.24 
   1   2  13    5.62    0.26 
   1   2  13    5.68    0.23 
  -1   2 -13    5.59    0.19 
  -1   2 -13    5.44    0.23 
   2  -2  13   28.69    0.81 
  -2  -2 -13   27.29    0.78 
  -2   2 -13   27.87    0.76 
   2   2  13   27.66    0.74 
   2   2  13   26.93    0.77 
  -2   2 -13   28.74    0.72 
   3  -2  13    3.57    0.35 
  -3  -2 -13    3.34    0.27 
  -3   2 -13    2.99    0.23 
  -3   2 -13    3.02    0.22 
   3   2  13    2.96    0.27 
  -4  -2 -13    0.99    0.20 
   4  -2  13    0.78    0.26 
  -4   2 -13    0.97    0.18 
   4   2  13    1.46    0.24 
   4  -3 -13    1.08    0.19 
  -4  -3  13    1.27    0.19 
  -4   3  13    1.27    0.25 
   4   3 -13    0.98    0.20 
  -3  -3  13    7.56    0.32 
   3  -3 -13    7.23    0.33 
  -3   3  13    7.93    0.41 
   3   3 -13    8.00    0.37 
  -2  -3  13    1.25    0.14 
   2  -3 -13    1.03    0.14 
  -2  -3  13    1.02    0.12 
   2   3 -13    1.24    0.16 
  -2   3  13    1.37    0.18 
   1  -3 -13   21.26    0.56 
   1  -3 -13   21.83    0.58 
  -1  -3  13   21.91    0.56 
  -1  -3  13   20.73    0.59 
  -1   3  13   21.54    0.61 
   1   3 -13   22.27    0.62 
  -1   3  13   20.99    0.55 
   0  -3  13   13.36    0.36 
   0  -3 -13   13.24    0.40 
   0  -3  13   13.25    0.44 
   0  -3 -13   13.35    0.37 
   0   3  13   12.98    0.41 
   0   3 -13   13.31    0.34 
   0   3 -13   13.68    0.43 
   0   3  13   12.32    0.38 
  -1  -3 -13   16.32    0.51 
  -1  -3 -13   17.36    0.47 
   1  -3  13   16.99    0.53 
  -1   3 -13   16.51    0.45 
   1   3  13   15.72    0.48 
   1   3  13   17.25    0.48 
  -1   3 -13   16.71    0.49 
  -2  -3 -13    6.85    0.32 
   2  -3  13    7.95    0.38 
  -2   3 -13    7.36    0.30 
  -2   3 -13    7.39    0.28 
   2   3  13    6.92    0.31 
  -3  -3 -13    2.08    0.22 
   3  -3  13    1.96    0.27 
   3   3  13    1.75    0.21 
  -3   3 -13    2.17    0.21 
  -3  -4  13    0.26    0.13 
   3  -4 -13    0.35    0.14 
  -3   4  13    0.37    0.18 
   3   4 -13    0.22    0.15 
  -2  -4  13    4.92    0.24 
   2  -4 -13    4.37    0.25 
   2   4 -13    5.63    0.29 
  -2   4  13    5.42    0.31 
   1  -4 -13   27.23    0.72 
  -1  -4  13   27.65    0.70 
  -1  -4  13   27.59    0.73 
  -1   4  13   26.69    0.75 
  -1   4  13   26.25    0.70 
   1   4 -13   28.22    0.76 
   0  -4 -13   20.69    0.57 
   0  -4  13   19.89    0.60 
   0  -4  13   20.76    0.53 
   0  -4 -13   20.51    0.55 
   0   4 -13   20.29    0.59 
   0   4  13   20.41    0.56 
   0   4  13   18.91    0.56 
   0   4 -13   20.59    0.52 
  -1  -4 -13    4.22    0.19 
   1  -4  13    4.31    0.29 
  -1  -4 -13    4.00    0.23 
  -1   4 -13    4.24    0.19 
  -1   4 -13    4.41    0.23 
   1   4  13    4.28    0.24 
   2  -4  13    2.63    0.30 
  -2  -4 -13    2.84    0.23 
   2   4  13    2.85    0.26 
  -2   4 -13    3.16    0.20 
  -3  -4 -13    1.09    0.19 
   3  -4  13    1.22    0.24 
   3   4  13    1.31    0.21 
  -3   4 -13    1.15    0.16 
   3  -5 -13    0.68    0.16 
  -3  -5  13    0.37    0.13 
   3   5 -13    0.39    0.17 
  -3   5  13    0.85    0.21 
  -2  -5  13    8.60    0.33 
   2  -5 -13    8.75    0.35 
  -2   5  13    8.67    0.39 
   2   5 -13    8.91    0.39 
  -2   5  13    9.11    0.38 
  -1  -5  13   15.88    0.46 
   1  -5 -13   14.78    0.47 
   1   5 -13   15.08    0.51 
  -1   5  13   14.58    0.49 
  -1   5  13   16.29    0.47 
   0  -5 -13    0.65    0.12 
   0  -5 -13    0.52    0.10 
   0  -5  13    0.54    0.17 
   0  -5  13    0.55    0.10 
   0   5  13    0.59    0.11 
   0   5  13    0.49    0.13 
   0   5 -13    0.40    0.14 
  -1  -5 -13   -0.02    0.09 
   1  -5  13   -0.11    0.15 
  -1  -5 -13    0.05    0.09 
  -1   5 -13    0.24    0.10 
   1   5  13    0.09    0.12 
  -1   5 -13    0.19    0.11 
  -2  -5 -13    2.21    0.22 
   2  -5  13    2.11    0.25 
   2   5  13    2.19    0.21 
  -2   5 -13    2.20    0.20 
  -3  -5 -13    0.09    0.15 
   3  -5  13    0.02    0.21 
  -3   5 -13    0.22    0.14 
   3   5  13    0.34    0.20 
   3  -6 -13    3.45    0.29 
  -3  -6  13    3.03    0.26 
   3   6 -13    3.04    0.33 
  -3   6  13    3.20    0.33 
   2  -6 -13    2.70    0.22 
  -2  -6  13    2.60    0.22 
   2   6 -13    2.63    0.28 
  -2   6  13    2.96    0.23 
  -2   6  13    3.01    0.27 
   1  -6 -13    0.23    0.12 
  -1  -6  13   -0.08    0.10 
  -1   6  13    0.07    0.11 
   1   6 -13    0.18    0.13 
  -1   6  13    0.17    0.13 
   0  -6 -13    2.36    0.22 
   0  -6  13    2.50    0.19 
   0   6 -13    2.11    0.21 
   0   6  13    2.56    0.24 
   1  -6  13    0.40    0.18 
  -1  -6 -13    0.63    0.12 
  -1  -6 -13    0.59    0.13 
   1   6  13    0.72    0.16 
  -1   6 -13    0.67    0.12 
  -2  -6 -13    0.98    0.17 
   2  -6  13    1.14    0.23 
   2   6  13    1.37    0.21 
  -2   6 -13    1.29    0.16 
   2  -7 -13    1.60    0.20 
  -2  -7  13    1.18    0.16 
  -2   7  13    1.75    0.24 
  -2   7  13    1.52    0.19 
   2   7 -13    1.73    0.23 
  -1  -7  13    2.03    0.18 
   1  -7 -13    2.04    0.20 
   1   7 -13    1.84    0.21 
  -1   7  13    2.14    0.21 
   0  -7 -13    0.42    0.14 
   0  -7  13    0.47    0.13 
   0   7 -13    0.21    0.15 
   0   7  13    0.72    0.17 
  -1  -7 -13    2.39    0.22 
  -1  -7 -13    2.50    0.27 
   1   7  13    2.96    0.25 
  -1   7 -13    2.67    0.22 
  -2  -7 -13    3.49    0.29 
   2  -7  13    2.75    0.35 
  -2   7 -13    3.34    0.26 
   2   7  13    3.77    0.33 
   1  -8 -13    0.60    0.17 
  -1  -8  13    0.53    0.15 
  -1   8  13    0.90    0.20 
   1   8 -13    0.74    0.19 
   0  -8  13    0.68    0.15 
   0  -8 -13    0.97    0.17 
   0   8  13    0.93    0.20 
  -1  -8 -13    0.17    0.16 
   1   8  13    0.20    0.17 
  -1   8 -13    0.11    0.14 
   4   0 -14   -0.03    0.16 
  -4   0  14   -0.01    0.17 
  -3   0  14   17.46    0.58 
   3   0 -14   16.33    0.53 
   2   0 -14    1.47    0.16 
  -2   0  14    1.73    0.18 
  -1   0  14    1.65    0.18 
   1   0 -14    1.59    0.18 
   0   0 -14    0.38    0.09 
   0   0  14    0.23    0.10 
   0   0  14    0.29    0.05 
   1   0  14   28.44    0.78 
  -1   0 -14   28.19    0.76 
  -1   0 -14   29.36    0.71 
  -2   0 -14   28.52    0.80 
  -2   0 -14   29.14    0.75 
   2   0  14   29.30    0.82 
   3   0  14    6.38    0.38 
  -3   0 -14    7.24    0.35 
  -3   0 -14    7.16    0.31 
   4   0  14    2.62    0.32 
  -4   0 -14    3.03    0.29 
  -4   0 -14    2.53    0.25 
  -4  -1  14    0.13    0.17 
   4  -1 -14    0.03    0.15 
  -4   1  14    0.03    0.18 
   4   1 -14   -0.51    0.16 
  -3  -1  14   17.05    0.51 
  -3  -1  14   17.28    0.57 
   3  -1 -14   16.62    0.52 
  -3   1  14   17.19    0.60 
   3   1 -14   17.15    0.55 
   2  -1 -14   18.35    0.52 
  -2  -1  14   17.79    0.50 
   2  -1 -14   16.97    0.51 
  -2  -1  14   18.11    0.55 
   2   1 -14   18.09    0.54 
  -2   1  14   18.37    0.57 
   1  -1 -14    0.12    0.08 
   1  -1 -14    0.21    0.08 
  -1  -1  14    0.03    0.10 
  -1  -1  14    0.23    0.07 
  -1   1  14    0.22    0.11 
   1   1 -14    0.06    0.10 
   0  -1  14   13.58    0.43 
   0  -1 -14   13.42    0.40 
   0  -1 -14   13.50    0.36 
   0  -1  14   13.41    0.35 
   0   1  14   12.97    0.36 
   0   1  14   13.53    0.42 
   0   1 -14   13.54    0.41 
   0   1 -14   13.56    0.34 
   1  -1  14    9.42    0.37 
  -1  -1 -14    9.14    0.33 
  -1   1 -14    9.46    0.33 
   1   1  14    9.53    0.29 
  -1   1 -14    9.49    0.28 
   1   1  14    9.48    0.36 
   2  -1  14    2.14    0.25 
  -2  -1 -14    1.85    0.19 
  -2   1 -14    2.32    0.17 
   2   1  14    2.19    0.26 
   2   1  14    2.19    0.19 
  -2   1 -14    2.37    0.20 
   3  -1  14   13.92    0.55 
  -3  -1 -14   14.00    0.51 
   3   1  14   13.86    0.47 
   3   1  14   13.38    0.53 
  -3   1 -14   13.94    0.45 
  -3   1 -14   14.56    0.50 
   4  -1  14    0.53    0.25 
  -4  -1 -14    0.66    0.18 
   4   1  14    1.21    0.23 
  -4   1 -14    0.97    0.19 
  -4  -2  14    1.79    0.20 
   4  -2 -14    1.90    0.21 
  -4   2  14    2.22    0.29 
  -3  -2  14    0.30    0.13 
   3  -2 -14    0.11    0.13 
  -3  -2  14    0.23    0.12 
  -3   2  14    0.19    0.16 
   3   2 -14    0.14    0.13 
  -2  -2  14   28.00    0.74 
   2  -2 -14   28.48    0.76 
  -2  -2  14   28.88    0.78 
  -2   2  14   28.36    0.81 
   2   2 -14   29.88    0.80 
   1  -2 -14   10.59    0.33 
  -1  -2  14   10.54    0.36 
   1  -2 -14   10.58    0.33 
  -1  -2  14   10.83    0.32 
  -1   2  14   10.75    0.38 
   1   2 -14   10.60    0.37 
   0  -2 -14    8.26    0.29 
   0  -2  14    8.22    0.33 
   0  -2 -14    8.19    0.25 
   0  -2  14    8.28    0.24 
   0   2  14    8.38    0.31 
   0   2  14    7.39    0.25 
   0   2 -14    8.21    0.32 
   0   2 -14    8.23    0.22 
  -1  -2 -14    7.91    0.30 
   1  -2  14    8.03    0.35 
  -1   2 -14    7.70    0.29 
  -1   2 -14    7.93    0.25 
   1   2  14    7.63    0.28 
   1   2  14    7.45    0.31 
   2  -2  14   17.27    0.58 
  -2  -2 -14   16.73    0.55 
   2   2  14   15.98    0.54 
   2   2  14   16.58    0.50 
  -2   2 -14   16.92    0.52 
  -2   2 -14   17.13    0.48 
  -3  -2 -14    3.77    0.28 
   3  -2  14    3.69    0.36 
   3   2  14    3.80    0.30 
  -3   2 -14    3.91    0.26 
  -3   2 -14    3.56    0.24 
  -4  -3  14    0.44    0.16 
   4  -3 -14    0.42    0.17 
   4   3 -14    0.11    0.17 
  -4   3  14    0.42    0.21 
   3  -3 -14    5.49    0.29 
  -3  -3  14    4.94    0.27 
   3   3 -14    5.53    0.33 
  -3   3  14    5.46    0.36 
  -2  -3  14    0.13    0.11 
   2  -3 -14    0.10    0.11 
  -2  -3  14    0.12    0.10 
   2   3 -14    0.14    0.12 
  -2   3  14    0.14    0.14 
  -1  -3  14   12.06    0.40 
   1  -3 -14   12.33    0.36 
   1  -3 -14   12.48    0.38 
  -1  -3  14   12.43    0.36 
  -1   3  14   12.31    0.42 
   1   3 -14   12.34    0.42 
  -1   3  14   11.24    0.35 
   0  -3 -14   29.83    0.78 
   0  -3  14   29.51    0.81 
   0  -3 -14   29.68    0.74 
   0  -3  14   30.37    0.73 
   0   3 -14   30.15    0.81 
   0   3 -14   28.55    0.76 
   0   3  14   28.91    0.78 
   0   3  14   30.04    0.75 
  -1  -3 -14   44.77    1.18 
   1  -3  14   48.43    1.20 
  -1   3 -14   46.51    1.16 
   1   3  14   44.88    1.15 
  -1   3 -14   46.20    1.11 
   1   3  14   46.48    1.14 
  -2  -3 -14    0.77    0.15 
   2  -3  14    0.63    0.19 
  -2   3 -14    0.94    0.13 
  -2   3 -14    0.79    0.12 
   2   3  14    0.89    0.15 
   3  -3  14    1.91    0.28 
  -3  -3 -14    2.30    0.26 
  -3   3 -14    1.91    0.18 
   3   3  14    2.32    0.23 
   3  -4 -14    0.40    0.15 
  -3  -4  14    0.17    0.13 
   3   4 -14    0.17    0.16 
  -3   4  14    0.36    0.18 
   2  -4 -14    2.08    0.18 
  -2  -4  14    2.04    0.19 
   2   4 -14    2.06    0.24 
  -2   4  14    2.00    0.25 
  -1  -4  14   11.58    0.39 
   1  -4 -14   12.06    0.38 
  -1  -4  14   11.79    0.36 
  -1   4  14   11.40    0.41 
  -1   4  14   11.30    0.36 
   1   4 -14   11.73    0.43 
   0  -4  14   95.41    2.12 
   0  -4  14   90.87    2.18 
   0  -4 -14   91.82    2.13 
   0  -4 -14   88.90    2.16 
   0   4 -14   94.22    2.19 
   0   4  14   88.71    2.13 
   0   4  14   85.26    2.15 
  -1  -4 -14    5.48    0.27 
   1  -4  14    5.90    0.34 
  -1   4 -14    6.11    0.23 
   1   4  14    5.59    0.28 
  -1   4 -14    5.71    0.27 
   2  -4  14    5.73    0.37 
  -2  -4 -14    5.90    0.32 
  -2   4 -14    5.81    0.26 
   2   4  14    6.01    0.32 
  -2   4 -14    6.09    0.29 
  -3  -4 -14    0.52    0.16 
   3  -4  14    0.29    0.22 
   3   4  14    0.61    0.20 
  -3   4 -14    0.39    0.13 
  -3  -5  14    0.68    0.15 
   3  -5 -14    0.53    0.16 
   3   5 -14    0.39    0.19 
  -3   5  14    0.85    0.21 
   2  -5 -14    9.67    0.38 
  -2  -5  14   10.42    0.37 
   2   5 -14   10.43    0.43 
  -2   5  14   10.55    0.44 
  -1  -5  14   58.28    1.39 
   1  -5 -14   57.81    1.41 
   1   5 -14   58.06    1.46 
  -1   5  14   54.53    1.43 
  -1   5  14   56.95    1.39 
   0  -5  14    4.27    0.21 
   0  -5 -14    4.69    0.24 
   0  -5  14    4.22    0.30 
   0  -5 -14    4.29    0.22 
   0   5 -14    4.26    0.29 
   0   5  14    4.50    0.26 
   0   5  14    3.90    0.23 
  -1  -5 -14    0.28    0.11 
   1  -5  14    0.23    0.17 
   1   5  14    0.27    0.13 
  -1   5 -14    0.42    0.11 
  -1   5 -14    0.17    0.09 
   2  -5  14    6.33    0.39 
  -2  -5 -14    5.77    0.33 
  -2   5 -14    6.04    0.27 
   2   5  14    6.51    0.35 
  -3  -5 -14    2.48    0.28 
   3  -5  14    2.38    0.32 
   3   5  14    1.91    0.26 
  -3   5 -14    2.17    0.20 
   3  -6 -14    1.28    0.20 
  -3  -6  14    1.31    0.18 
  -3   6  14    1.48    0.25 
   3   6 -14    0.96    0.22 
  -2  -6  14    9.88    0.37 
   2  -6 -14    9.47    0.40 
  -2   6  14   10.02    0.43 
   2   6 -14   10.35    0.46 
   1  -6 -14    1.72    0.18 
  -1  -6  14    1.59    0.16 
   1   6 -14    1.59    0.20 
  -1   6  14    1.90    0.19 
  -1   6  14    1.61    0.20 
   0  -6  14   15.13    0.46 
   0  -6 -14   16.30    0.49 
   0   6  14   15.17    0.50 
   0   6 -14   15.00    0.53 
   1  -6  14    2.69    0.27 
  -1  -6 -14    2.65    0.23 
   1   6  14    3.12    0.28 
  -1   6 -14    2.93    0.20 
   2  -6  14   -0.09    0.19 
  -2  -6 -14    0.26    0.13 
  -2   6 -14    0.16    0.12 
   2   6  14    0.07    0.17 
   2  -7 -14    0.38    0.16 
  -2  -7  14    0.22    0.13 
   2   7 -14    0.30    0.18 
  -1  -7  14    1.28    0.16 
   1  -7 -14    1.36    0.18 
   1   7 -14    1.20    0.20 
  -1   7  14    1.80    0.20 
   0  -7  14    0.43    0.12 
   0  -7 -14    0.72    0.15 
   0   7 -14    0.02    0.16 
   0   7  14    0.61    0.17 
   1   7  14    1.55    0.21 
  -1   7 -14    1.44    0.17 
  -2  -7 -14    0.68    0.17 
   2  -7  14    0.51    0.23 
   2   7  14    0.90    0.21 
  -2   7 -14    0.73    0.16 
   1  -8 -14    2.45    0.24 
  -1  -8  14    2.35    0.21 
  -1   8  14    3.09    0.30 
   1   8 -14    2.62    0.27 
   0  -8 -14    1.13    0.18 
   0  -8  14    1.23    0.17 
   0   8  14    1.40    0.21 
   1   8  14    0.58    0.19 
  -4   0  15    6.35    0.40 
   4   0 -15    5.97    0.36 
  -3   0  15    8.15    0.39 
   3   0 -15    7.42    0.34 
  -2   0  15    0.98    0.16 
   2   0 -15    0.91    0.14 
   1   0 -15    4.07    0.23 
  -1   0  15    3.93    0.24 
   0   0 -15    0.53    0.08 
   0   0 -15    0.37    0.09 
   0   0  15    0.38    0.11 
   0   0  15    0.29    0.06 
  -1   0 -15    0.08    0.09 
   1   0  15    0.10    0.15 
  -2   0 -15    0.06    0.10 
  -2   0 -15    0.16    0.10 
   2   0  15   -0.05    0.16 
  -3   0 -15    1.46    0.19 
   3   0  15    1.31    0.24 
  -3   0 -15    1.25    0.17 
  -4  -1  15    1.48    0.23 
   4  -1 -15    1.07    0.20 
   4   1 -15    0.69    0.20 
  -4   1  15    1.16    0.24 
   3  -1 -15   11.86    0.44 
  -3  -1  15   13.10    0.43 
  -3  -1  15   12.98    0.49 
  -3   1  15   13.09    0.51 
   3   1 -15   13.38    0.47 
  -2  -1  15    1.73    0.19 
  -2  -1  15    1.71    0.15 
   2  -1 -15    1.50    0.17 
   2  -1 -15    1.65    0.15 
   2   1 -15    1.52    0.17 
  -2   1  15    1.52    0.19 
  -1  -1  15    7.38    0.31 
   1  -1 -15    7.44    0.26 
   1  -1 -15    7.21    0.27 
  -1  -1  15    7.45    0.25 
   1   1 -15    7.62    0.31 
  -1   1  15    7.28    0.31 
   0  -1  15    4.87    0.26 
   0  -1 -15    4.74    0.17 
   0  -1 -15    4.62    0.22 
   0  -1  15    4.76    0.17 
   0   1 -15    4.74    0.23 
   0   1  15    4.45    0.17 
   0   1  15    4.52    0.24 
   1  -1  15    9.83    0.39 
   1   1  15    9.35    0.30 
  -1   1 -15    9.90    0.29 
  -1   1 -15    9.89    0.35 
   1   1  15    9.43    0.38 
  -2  -1 -15   13.94    0.48 
   2  -1  15   14.54    0.52 
  -2   1 -15   13.64    0.47 
   2   1  15   14.38    0.43 
   2   1  15   13.32    0.49 
  -2   1 -15   13.62    0.42 
   3  -1  15   11.04    0.50 
  -3  -1 -15   11.05    0.45 
   3   1  15    9.77    0.47 
  -3   1 -15   10.76    0.44 
  -3   1 -15   10.39    0.38 
   3   1  15   11.00    0.42 
  -4  -2  15    2.46    0.23 
   4  -2 -15    2.24    0.23 
  -4   2  15    2.86    0.34 
  -3  -2  15    0.59    0.15 
   3  -2 -15    0.40    0.15 
  -3  -2  15    0.43    0.13 
  -3   2  15    0.87    0.20 
   3   2 -15    0.47    0.16 
  -2  -2  15   22.29    0.64 
  -2  -2  15   21.87    0.60 
   2  -2 -15   21.14    0.61 
   2   2 -15   22.56    0.65 
  -2   2  15   22.03    0.67 
  -1  -2  15    0.03    0.08 
  -1  -2  15    0.08    0.11 
   1  -2 -15    0.09    0.08 
   1  -2 -15    0.11    0.08 
   1   2 -15    0.14    0.12 
  -1   2  15    0.16    0.11 
   0  -2  15   27.01    0.74 
   0  -2 -15   26.93    0.71 
   0  -2 -15   26.20    0.66 
   0  -2  15   27.30    0.65 
   0   2  15   26.31    0.67 
   0   2 -15   26.30    0.72 
   0   2  15   25.99    0.72 
  -1  -2 -15    5.13    0.26 
   1  -2  15    5.68    0.32 
   1   2  15    5.34    0.27 
  -1   2 -15    5.18    0.26 
   1   2  15    5.12    0.23 
  -1   2 -15    5.56    0.20 
  -2  -2 -15   14.26    0.50 
   2  -2  15   14.75    0.54 
   2   2  15   13.48    0.50 
   2   2  15   15.04    0.46 
  -2   2 -15   14.13    0.47 
  -2   2 -15   14.76    0.43 
  -3  -2 -15    3.09    0.27 
   3  -2  15    2.98    0.36 
   3   2  15    2.95    0.29 
  -3   2 -15    3.30    0.26 
  -3   2 -15    3.06    0.24 
  -3  -3  15    4.41    0.26 
   3  -3 -15    3.87    0.27 
   3   3 -15    4.29    0.31 
  -3   3  15    4.61    0.34 
  -2  -3  15    0.63    0.13 
   2  -3 -15    0.56    0.13 
  -2  -3  15    0.55    0.12 
   2   3 -15    0.44    0.15 
  -2   3  15    0.79    0.17 
  -1  -3  15    8.80    0.34 
   1  -3 -15    9.05    0.31 
   1  -3 -15    8.77    0.30 
  -1  -3  15    8.99    0.29 
   1   3 -15    9.23    0.36 
  -1   3  15    8.74    0.35 
   0  -3 -15    9.55    0.30 
   0  -3 -15    9.31    0.33 
   0  -3  15    9.33    0.29 
   0  -3  15    9.92    0.39 
   0   3  15    9.46    0.35 
   0   3 -15    9.38    0.37 
   0   3  15    8.88    0.31 
   1  -3  15   49.98    1.26 
  -1  -3 -15   46.96    1.23 
   1   3  15   46.39    1.20 
  -1   3 -15   47.91    1.22 
   1   3  15   47.76    1.19 
  -1   3 -15   50.86    1.16 
   2  -3  15    6.10    0.37 
  -2  -3 -15    5.64    0.30 
   2   3  15    5.59    0.30 
  -2   3 -15    5.97    0.28 
  -2   3 -15    5.79    0.25 
   3  -3  15    0.31    0.23 
  -3  -3 -15    0.48    0.16 
   3   3  15    0.50    0.18 
  -3   3 -15    0.56    0.14 
   3  -4 -15    0.16    0.14 
  -3  -4  15    0.05    0.13 
   3   4 -15   -0.06    0.15 
  -3   4  15    0.17    0.17 
   2  -4 -15   12.95    0.45 
  -2  -4  15   13.63    0.43 
  -2   4  15   14.50    0.51 
   2   4 -15   13.96    0.50 
  -1  -4  15    3.19    0.20 
  -1  -4  15    3.52    0.23 
   1  -4 -15    3.31    0.22 
  -1   4  15    3.15    0.20 
  -1   4  15    3.28    0.24 
   1   4 -15    3.27    0.26 
   0  -4 -15   46.64    1.12 
   0  -4  15   47.72    1.11 
   0  -4  15   46.60    1.19 
   0  -4 -15   45.53    1.16 
   0   4  15   44.91    1.13 
   0   4  15   43.80    1.15 
   0   4 -15   46.19    1.19 
   1  -4  15   13.87    0.51 
  -1  -4 -15   12.62    0.45 
  -1   4 -15   12.50    0.43 
   1   4  15   13.38    0.43 
  -1   4 -15   12.95    0.38 
   2  -4  15    8.27    0.42 
  -2  -4 -15    6.79    0.35 
  -2   4 -15    7.42    0.29 
  -2   4 -15    7.87    0.33 
   2   4  15    7.20    0.35 
  -3  -4 -15    3.56    0.31 
   3  -4  15    3.21    0.39 
   3   4  15    3.72    0.30 
  -3   4 -15    3.52    0.25 
  -3  -5  15    1.32    0.18 
   3  -5 -15    1.16    0.18 
   3   5 -15    1.28    0.22 
  -3   5  15    1.69    0.25 
  -2  -5  15    1.52    0.16 
   2  -5 -15    1.76    0.18 
   2   5 -15    1.44    0.20 
  -2   5  15    1.54    0.21 
   1  -5 -15   15.25    0.47 
  -1  -5  15   14.54    0.45 
  -1   5  15   14.40    0.49 
  -1   5  15   15.04    0.46 
   1   5 -15   15.24    0.52 
   0  -5 -15    0.40    0.10 
   0  -5  15    0.30    0.10 
   0  -5  15    0.41    0.17 
   0  -5 -15    0.40    0.11 
   0   5  15    0.51    0.13 
   0   5  15    0.40    0.13 
   0   5 -15    0.27    0.15 
  -1  -5 -15    4.93    0.27 
   1  -5  15    4.42    0.34 
  -1   5 -15    5.19    0.26 
   1   5  15    5.18    0.29 
  -1   5 -15    5.05    0.23 
  -2  -5 -15    5.61    0.33 
   2  -5  15    5.80    0.40 
   2   5  15    5.49    0.34 
  -2   5 -15    5.68    0.27 
  -3  -5 -15    5.71    0.38 
   3  -5  15    5.72    0.45 
  -3   5 -15    5.12    0.30 
   3   5  15    5.25    0.41 
   2  -6 -15    9.97    0.41 
  -2  -6  15   10.69    0.40 
  -2   6  15   10.59    0.45 
   2   6 -15   11.11    0.47 
  -1  -6  15    1.93    0.17 
   1  -6 -15    1.70    0.18 
   1   6 -15    1.93    0.22 
  -1   6  15    2.13    0.19 
  -1   6  15    1.81    0.22 
   0  -6 -15    5.14    0.27 
   0  -6  15    4.82    0.25 
   0   6 -15    4.19    0.31 
   0   6  15    5.10    0.28 
   1  -6  15    3.21    0.33 
  -1  -6 -15    3.57    0.25 
   1   6  15    4.18    0.30 
  -1   6 -15    3.41    0.29 
  -2  -6 -15    0.14    0.13 
   2  -6  15   -0.21    0.19 
   2   6  15    0.12    0.17 
  -2   6 -15   -0.03    0.11 
  -2  -7  15    2.10    0.20 
   2  -7 -15    1.94    0.22 
   2   7 -15    2.00    0.26 
   1  -7 -15    1.20    0.18 
  -1  -7  15    0.91    0.15 
   1   7 -15    0.74    0.19 
  -1   7  15    1.53    0.20 
   0  -7 -15    0.61    0.15 
   0  -7  15    0.57    0.13 
   0   7  15    0.67    0.17 
   0   7 -15   -0.03    0.17 
   1   7  15    1.37    0.21 
   2  -7  15    1.10    0.27 
  -2  -7 -15    1.14    0.20 
  -2   7 -15    1.23    0.17 
   2   7  15    1.67    0.25 
  -1  -8  15   -0.02    0.14 
   1  -8 -15    0.15    0.16 
   1   8 -15   -0.20    0.17 
  -1   8  15    0.01    0.17 
   0  -8 -15    0.15    0.14 
   0  -8  15   -0.12    0.13 
   0   8  15   -0.05    0.16 
   4   0 -16    0.20    0.18 
  -4   0  16    0.18    0.18 
  -3   0  16   19.37    0.64 
   3   0 -16   18.58    0.58 
  -2   0  16   16.94    0.56 
   2   0 -16   17.75    0.54 
   2   0 -16   17.77    0.52 
  -1   0  16    0.25    0.12 
   1   0 -16    0.40    0.10 
   1   0 -16    0.31    0.12 
   0   0 -16    0.92    0.09 
   0   0  16    0.86    0.13 
   0   0 -16    0.88    0.12 
   1   0  16    0.11    0.16 
  -1   0 -16    0.08    0.10 
   2   0  16    5.42    0.35 
  -2   0 -16    5.79    0.30 
  -2   0 -16    6.19    0.26 
  -3   0 -16    3.70    0.26 
  -3   0 -16    3.87    0.29 
   3   0  16    3.52    0.34 
  -4  -1  16    6.33    0.40 
   4  -1 -16    6.47    0.37 
  -4   1  16    6.42    0.42 
   4   1 -16    5.66    0.38 
  -3  -1  16    2.11    0.18 
   3  -1 -16    1.83    0.19 
  -3  -1  16    2.27    0.26 
   3   1 -16    1.64    0.20 
  -3   1  16    2.11    0.25 
   2  -1 -16   26.24    0.73 
  -2  -1  16   28.05    0.78 
  -2  -1  16   26.96    0.72 
   2  -1 -16   27.56    0.75 
   2   1 -16   27.79    0.77 
  -2   1  16   27.99    0.79 
  -1  -1  16    6.01    0.22 
   1  -1 -16    6.09    0.24 
   1  -1 -16    5.61    0.25 
  -1  -1  16    5.66    0.29 
   1   1 -16    5.88    0.29 
  -1   1  16    6.21    0.30 
   0  -1  16    0.44    0.13 
   0  -1  16    0.40    0.07 
   0  -1 -16    0.49    0.10 
   0  -1 -16    0.51    0.08 
   0   1  16    0.56    0.13 
   0   1 -16    0.36    0.10 
   0   1  16    0.43    0.08 
  -1  -1 -16    4.77    0.24 
   1  -1  16    5.16    0.32 
   1   1  16    4.53    0.29 
   1   1  16    4.70    0.22 
  -1   1 -16    4.83    0.26 
  -1   1 -16    4.91    0.19 
   2  -1  16    3.66    0.31 
  -2  -1 -16    3.58    0.25 
  -2   1 -16    3.70    0.25 
   2   1  16    3.28    0.31 
   2   1  16    3.66    0.24 
  -2   1 -16    3.76    0.21 
   3  -1  16    1.60    0.26 
  -3  -1 -16    1.71    0.21 
   3   1  16    1.23    0.25 
  -3   1 -16    1.77    0.21 
   3   1  16    1.92    0.21 
  -3   1 -16    1.78    0.18 
   4  -2 -16    0.00    0.15 
  -4  -2  16    0.15    0.16 
  -4   2  16    0.20    0.20 
  -3  -2  16    3.78    0.28 
  -3  -2  16    3.78    0.25 
   3  -2 -16    3.84    0.27 
  -3   2  16    3.62    0.32 
   3   2 -16    3.56    0.29 
  -2  -2  16    5.09    0.28 
  -2  -2  16    5.11    0.24 
   2  -2 -16    4.84    0.26 
  -2   2  16    4.96    0.31 
   2   2 -16    5.25    0.30 
   1  -2 -16   40.03    1.00 
  -1  -2  16   40.38    1.05 
   1  -2 -16   40.44    1.02 
  -1  -2  16   41.32    0.99 
  -1   2  16   40.69    1.07 
   1   2 -16   40.90    1.06 
   0  -2  16    1.98    0.20 
   0  -2 -16    2.07    0.17 
   0  -2 -16    1.92    0.15 
   0  -2  16    1.84    0.13 
   0   2  16    2.05    0.15 
   0   2 -16    1.82    0.21 
   0   2  16    1.99    0.21 
  -1  -2 -16    5.71    0.27 
   1  -2  16    5.84    0.34 
   1   2  16    5.63    0.25 
   1   2  16    5.55    0.28 
  -1   2 -16    5.90    0.21 
  -1   2 -16    5.40    0.27 
   2  -2  16    2.62    0.27 
  -2  -2 -16    2.05    0.23 
  -2   2 -16    2.23    0.22 
   2   2  16    2.05    0.23 
  -2   2 -16    2.12    0.18 
   2   2  16    2.46    0.20 
   3  -2  16    2.69    0.32 
  -3  -2 -16    2.85    0.27 
  -3   2 -16    2.63    0.24 
  -3   2 -16    2.42    0.23 
   3   2  16    2.88    0.25 
   3  -3 -16    1.27    0.18 
  -3  -3  16    1.12    0.16 
  -3   3  16    1.43    0.23 
   3   3 -16    1.15    0.20 
  -2  -3  16    2.00    0.22 
   2  -3 -16    1.48    0.16 
  -2  -3  16    1.24    0.14 
  -2   3  16    1.80    0.21 
   2   3 -16    1.65    0.19 
  -1  -3  16    1.34    0.16 
   1  -3 -16    1.22    0.14 
  -1  -3  16    1.01    0.11 
   1  -3 -16    1.40    0.14 
  -1   3  16    1.19    0.17 
   1   3 -16    1.18    0.17 
   0  -3  16   25.07    0.71 
   0  -3 -16   24.10    0.67 
   0  -3 -16   24.54    0.63 
   0  -3  16   24.16    0.61 
   0   3  16   23.81    0.64 
   0   3  16   23.67    0.68 
   0   3 -16   24.91    0.70 
  -1  -3 -16   12.00    0.43 
   1  -3  16   12.86    0.49 
  -1   3 -16   12.70    0.36 
   1   3  16   12.73    0.41 
  -1   3 -16   12.43    0.42 
   1   3  16   12.69    0.42 
  -2  -3 -16    3.01    0.25 
   2  -3  16    3.25    0.33 
  -2   3 -16    3.18    0.20 
   2   3  16    3.06    0.26 
  -2   3 -16    3.63    0.24 
   3  -3  16    2.32    0.31 
  -3  -3 -16    2.79    0.29 
  -3   3 -16    2.38    0.23 
   3   3  16    2.13    0.23 
   3  -4 -16    0.65    0.16 
  -3  -4  16    0.54    0.14 
   3   4 -16    0.78    0.20 
  -3   4  16    0.92    0.22 
   2  -4 -16    2.96    0.24 
  -2  -4  16    2.45    0.21 
   2   4 -16    2.50    0.26 
  -2   4  16    2.89    0.28 
  -1  -4  16    0.65    0.11 
  -1  -4  16    0.84    0.14 
   1  -4 -16    0.78    0.13 
   1   4 -16    0.68    0.16 
  -1   4  16    0.73    0.15 
   0  -4  16    5.53    0.22 
   0  -4 -16    5.57    0.26 
   0  -4  16    5.66    0.33 
   0  -4 -16    5.74    0.24 
   0   4 -16    5.09    0.33 
   0   4  16    5.14    0.26 
   0   4  16    5.40    0.27 
   1  -4  16    2.97    0.32 
  -1  -4 -16    3.24    0.23 
   1   4  16    3.28    0.24 
  -1   4 -16    3.41    0.23 
  -1   4 -16    3.37    0.18 
   2  -4  16    3.45    0.35 
  -2  -4 -16    3.20    0.27 
  -2   4 -16    3.69    0.22 
  -2   4 -16    3.81    0.24 
   2   4  16    3.50    0.28 
   3  -4  16    0.18    0.24 
  -3  -4 -16    0.56    0.17 
   3   4  16    0.54    0.20 
  -3   4 -16    0.60    0.15 
  -3  -5  16    1.54    0.19 
   3  -5 -16    2.02    0.21 
  -3   5  16    2.51    0.29 
   3   5 -16    1.94    0.25 
  -2  -5  16    1.55    0.17 
   2  -5 -16    1.84    0.19 
   2   5 -16    1.82    0.23 
  -2   5  16    1.86    0.23 
  -1  -5  16   12.64    0.40 
   1  -5 -16   12.46    0.42 
   1   5 -16   12.11    0.47 
  -1   5  16   11.27    0.43 
   0  -5 -16    0.58    0.12 
   0  -5 -16    0.62    0.11 
   0  -5  16    0.66    0.11 
   0  -5  16    0.46    0.18 
   0   5  16    0.50    0.14 
   0   5 -16    0.54    0.17 
   1  -5  16    2.24    0.26 
  -1  -5 -16    2.09    0.21 
  -1   5 -16    2.57    0.21 
   1   5  16    2.29    0.21 
  -2  -5 -16    0.85    0.17 
   2  -5  16    0.82    0.23 
   2   5  16    1.01    0.19 
  -2   5 -16    1.04    0.15 
  -2  -6  16    2.23    0.20 
   2  -6 -16    2.93    0.26 
   2   6 -16    2.32    0.26 
  -2   6  16    2.92    0.28 
   1  -6 -16    2.54    0.21 
  -1  -6  16    2.39    0.21 
   1   6 -16    2.21    0.24 
  -1   6  16    2.55    0.24 
   0  -6 -16    0.99    0.15 
   0  -6  16    0.87    0.13 
   0   6 -16    0.64    0.19 
   0   6  16    1.29    0.18 
  -1  -6 -16    2.29    0.23 
   1  -6  16    1.89    0.26 
   1   6  16    2.84    0.24 
   2  -6  16    0.21    0.23 
  -2  -6 -16    0.54    0.16 
  -2   6 -16    0.63    0.14 
   2   6  16    0.85    0.20 
   2  -7 -16    1.52    0.20 
  -2  -7  16    1.31    0.18 
   2   7 -16    1.57    0.24 
   1  -7 -16    0.27    0.15 
  -1  -7  16    0.32    0.14 
   1   7 -16    0.03    0.17 
  -1   7  16    0.77    0.18 
   0  -7 -16    1.67    0.19 
   0  -7  16    1.33    0.16 
   0   7 -16    0.70    0.22 
   0   7  16    1.61    0.21 
   1   7  16    0.35    0.18 
   0  -8 -16    0.38    0.16 
   0   8  16    0.26    0.18 
   4   0 -17    0.94    0.20 
  -4   0  17    0.98    0.22 
   3   0 -17    1.71    0.20 
  -3   0  17    1.79    0.23 
   2   0 -17    4.13    0.25 
  -2   0  17    4.96    0.30 
   2   0 -17    4.71    0.29 
   1   0 -17   26.96    0.68 
  -1   0  17   26.09    0.74 
   1   0 -17   25.36    0.72 
   0   0 -17    0.30    0.08 
   0   0  17    0.41    0.13 
   0   0 -17    0.36    0.11 
   1   0  17    0.21    0.08 
  -1   0 -17    0.09    0.10 
   1   0  17    0.09    0.16 
  -2   0 -17    3.51    0.25 
   2   0  17    2.66    0.31 
   3   0  17    0.07    0.22 
  -3   0 -17    0.65    0.16 
   3  -1 -17    3.32    0.27 
  -3  -1  17    3.75    0.25 
  -3  -1  17    3.92    0.30 
   3   1 -17    3.34    0.28 
  -3   1  17    4.32    0.33 
  -2  -1  17   50.63    1.28 
   2  -1 -17   48.38    1.24 
   2  -1 -17   48.09    1.22 
  -2  -1  17   48.38    1.21 
  -2   1  17   49.86    1.29 
   2   1 -17   50.25    1.27 
  -1  -1  17    0.11    0.09 
  -1  -1  17    0.16    0.13 
   1  -1 -17    0.30    0.11 
   1  -1 -17    0.02    0.09 
  -1   1  17    0.09    0.13 
   1   1 -17    0.05    0.14 
   0  -1  17    5.44    0.29 
   0  -1 -17    5.62    0.26 
   0  -1 -17    5.73    0.21 
   0  -1  17    5.65    0.20 
   0   1 -17    5.49    0.27 
   0   1  17    5.80    0.29 
  -1  -1 -17    3.24    0.22 
   1  -1  17    3.41    0.31 
  -1   1 -17    3.31    0.17 
   1   1  17    3.20    0.27 
   1   1  17    3.39    0.20 
  -1   1 -17    2.99    0.22 
   2  -1  17   -0.06    0.19 
  -2  -1 -17    0.09    0.12 
   2   1  17   -0.06    0.19 
   2   1  17    0.10    0.12 
  -2   1 -17    0.13    0.10 
  -2   1 -17    0.26    0.12 
  -3  -1 -17    0.22    0.14 
   3  -1  17   -0.24    0.21 
   3   1  17    0.50    0.17 
  -3   1 -17    0.17    0.13 
  -3   1 -17    0.10    0.13 
   3   1  17   -0.46    0.21 
  -3  -2  17    0.77    0.17 
  -3  -2  17    0.82    0.15 
   3  -2 -17    0.59    0.16 
   3   2 -17    0.55    0.17 
  -3   2  17    0.77    0.20 
  -2  -2  17    4.98    0.25 
  -2  -2  17    5.24    0.30 
   2  -2 -17    4.82    0.26 
  -2   2  17    5.38    0.32 
   2   2 -17    4.92    0.30 
   1  -2 -17   83.87    2.00 
   1  -2 -17   83.51    2.03 
  -1  -2  17   85.58    1.99 
  -1  -2  17   84.39    2.06 
  -1   2  17   84.65    2.07 
   1   2 -17   88.61    2.07 
   0  -2 -17    4.18    0.19 
   0  -2 -17    4.16    0.23 
   0  -2  17    4.25    0.28 
   0  -2  17    4.05    0.17 
   0   2  17    4.10    0.26 
   0   2 -17    4.57    0.26 
   0   2  17    4.14    0.21 
   1  -2  17    0.77    0.20 
  -1  -2 -17    0.76    0.13 
  -1   2 -17    0.75    0.14 
   1   2  17    0.83    0.15 
   1   2  17    0.75    0.13 
  -1   2 -17    0.70    0.09 
   2  -2  17    2.27    0.28 
  -2  -2 -17    2.47    0.25 
   2   2  17    2.13    0.24 
  -2   2 -17    2.47    0.23 
   2   2  17    2.37    0.23 
  -2   2 -17    2.27    0.18 
  -3  -2 -17    1.10    0.19 
   3  -2  17    1.16    0.28 
  -3   2 -17    1.15    0.17 
  -3   2 -17    1.00    0.17 
   3   2  17    0.89    0.19 
   3  -3 -17    2.33    0.21 
  -3  -3  17    1.69    0.18 
   3   3 -17    2.17    0.25 
  -3   3  17    2.46    0.32 
  -2  -3  17    1.51    0.18 
   2  -3 -17    1.49    0.17 
  -2  -3  17    1.36    0.15 
   2   3 -17    1.03    0.18 
  -2   3  17    1.39    0.20 
  -1  -3  17    0.94    0.12 
  -1  -3  17    1.24    0.16 
   1  -3 -17    1.15    0.12 
   1  -3 -17    1.27    0.14 
   1   3 -17    1.10    0.18 
  -1   3  17    1.26    0.18 
   0  -3 -17   44.50    1.14 
   0  -3  17   45.04    1.07 
   0  -3  17   45.22    1.17 
   0  -3 -17   44.52    1.09 
   0   3 -17   46.02    1.16 
   0   3  17   43.95    1.15 
   0   3  17   42.78    1.09 
   1  -3  17   21.33    0.67 
  -1  -3 -17   19.85    0.62 
   1   3  17   20.74    0.58 
  -1   3 -17   19.07    0.54 
   1   3  17   19.41    0.59 
  -1   3 -17   19.59    0.60 
  -2  -3 -17   10.69    0.44 
   2  -3  17   10.72    0.50 
  -2   3 -17   11.74    0.42 
  -2   3 -17   11.06    0.37 
   2   3  17   10.81    0.41 
   3  -3  17    1.06    0.28 
  -3  -3 -17    1.04    0.19 
  -3   3 -17    1.26    0.17 
   3   3  17    1.13    0.21 
   3  -4 -17    0.61    0.16 
  -3  -4  17    0.36    0.15 
  -3   4  17    0.44    0.20 
   3   4 -17    0.29    0.18 
  -2  -4  17    1.62    0.16 
   2  -4 -17    1.80    0.18 
   2   4 -17    1.44    0.21 
  -2   4  17    1.61    0.22 
  -1  -4  17    1.66    0.14 
  -1  -4  17    2.24    0.22 
   1  -4 -17    1.90    0.17 
  -1   4  17    1.86    0.22 
   1   4 -17    1.83    0.21 
   0  -4 -17    2.48    0.19 
   0  -4  17    2.38    0.17 
   0  -4  17    2.30    0.29 
   0  -4 -17    2.27    0.19 
   0   4  17    2.07    0.19 
   0   4 -17    2.47    0.24 
   0   4  17    2.45    0.21 
   1  -4  17   65.12    1.61 
  -1  -4 -17   59.48    1.57 
   1   4  17   63.43    1.52 
  -1   4 -17   60.60    1.55 
   2  -4  17    2.07    0.29 
  -2  -4 -17    1.74    0.21 
  -2   4 -17    2.12    0.19 
   2   4  17    2.03    0.22 
  -2   4 -17    2.53    0.22 
   3  -4  17    4.03    0.45 
  -3  -4 -17    4.59    0.35 
   3   4  17    4.31    0.38 
  -3   4 -17    4.57    0.28 
  -3  -5  17    1.12    0.18 
   3  -5 -17    0.98    0.18 
  -3   5  17    1.17    0.24 
   3   5 -17    0.99    0.23 
   2  -5 -17    0.66    0.15 
  -2  -5  17    0.61    0.13 
   2   5 -17    0.45    0.17 
  -2   5  17    0.79    0.18 
  -1  -5  17    2.88    0.21 
   1  -5 -17    2.60    0.23 
  -1   5  17    2.85    0.24 
   1   5 -17    2.59    0.26 
   0  -5  17   12.68    0.48 
   0  -5 -17   12.52    0.41 
   0  -5  17   12.41    0.38 
   0  -5 -17   11.17    0.43 
   0   5  17   12.00    0.41 
   0   5 -17   12.07    0.49 
  -1  -5 -17    1.22    0.17 
   1  -5  17    1.41    0.25 
   1   5  17    1.07    0.17 
  -1   5 -17    2.01    0.21 
   2  -5  17   11.29    0.55 
  -2  -5 -17   10.05    0.45 
   2   5  17   10.86    0.45 
  -2   5 -17   10.37    0.38 
  -2  -6  17    3.62    0.27 
   2  -6 -17    3.37    0.28 
  -2   6  17    3.56    0.31 
   2   6 -17    3.44    0.34 
  -1  -6  17    4.06    0.26 
   1  -6 -17    4.11    0.27 
   1   6 -17    3.87    0.32 
   0  -6 -17    3.61    0.25 
   0   6  17    3.82    0.27 
   0   6 -17    3.55    0.30 
  -1  -6 -17   11.04    0.45 
   1  -6  17   11.58    0.53 
   1   6  17   12.47    0.46 
   2  -6  17   -0.07    0.24 
  -2  -6 -17    0.34    0.15 
  -2   6 -17    0.58    0.14 
   2   6  17    0.49    0.19 
  -1  -7  17    0.86    0.16 
   1  -7 -17    0.82    0.17 
   1   7 -17    0.49    0.20 
   0  -7 -17   10.53    0.41 
   0   7  17   10.42    0.43 
   0   7 -17    8.52    0.47 
   1   7  17    0.84    0.20 
   3   0 -18   32.51    0.90 
  -3   0  18   32.89    0.96 
   2   0 -18    0.67    0.17 
  -2   0  18    0.78    0.17 
   2   0 -18    0.84    0.15 
   1   0 -18    0.27    0.11 
   1   0 -18    0.45    0.13 
  -1   0  18    0.34    0.14 
   0   0 -18    0.60    0.13 
   0   0 -18    0.49    0.09 
   0   0  18    0.61    0.15 
  -1   0 -18    1.11    0.15 
   1   0  18    1.15    0.12 
   1   0  18    1.28    0.20 
   2   0  18    0.37    0.21 
  -2   0 -18    0.75    0.15 
  -3   0 -18    3.63    0.30 
   3   0  18    3.14    0.34 
   3  -1 -18    0.85    0.17 
  -3  -1  18    1.19    0.20 
   3   1 -18    0.83    0.19 
  -3   1  18    1.30    0.22 
  -2  -1  18   29.42    0.83 
   2  -1 -18   29.06    0.79 
  -2  -1  18   27.92    0.75 
   2  -1 -18   28.03    0.77 
   2   1 -18   28.87    0.82 
  -2   1  18   29.61    0.85 
  -1  -1  18   13.13    0.39 
   1  -1 -18   13.32    0.40 
   1  -1 -18   12.91    0.43 
  -1  -1  18   13.15    0.47 
   1   1 -18   12.62    0.47 
  -1   1  18   13.39    0.47 
   0  -1  18    0.49    0.15 
   0  -1 -18    0.59    0.09 
   0  -1 -18    0.49    0.12 
   0  -1  18    0.56    0.09 
   0   1  18    0.70    0.15 
   0   1 -18    0.38    0.12 
   1  -1  18    0.30    0.19 
  -1  -1 -18    0.33    0.11 
   1   1  18    0.34    0.11 
  -1   1 -18    0.37    0.12 
  -1   1 -18    0.39    0.09 
   1   1  18    0.47    0.16 
   2  -1  18    2.80    0.29 
  -2  -1 -18    3.06    0.26 
   2   1  18    3.21    0.24 
   2   1  18    2.79    0.29 
  -2   1 -18    2.89    0.21 
  -2   1 -18    3.21    0.25 
   3  -1  18   -0.09    0.24 
  -3  -1 -18    0.25    0.15 
  -3   1 -18    0.12    0.13 
  -3   1 -18    0.31    0.15 
   3   1  18    0.24    0.16 
  -3  -2  18    3.62    0.26 
  -3  -2  18    3.82    0.29 
   3  -2 -18    3.48    0.28 
   3   2 -18    3.02    0.30 
  -3   2  18    3.75    0.34 
   2  -2 -18    1.23    0.16 
  -2  -2  18    1.02    0.14 
  -2  -2  18    1.20    0.18 
   2   2 -18    0.93    0.18 
  -2   2  18    1.26    0.20 
  -1  -2  18   45.74    1.09 
  -1  -2  18   44.49    1.16 
   1  -2 -18   43.88    1.10 
   1  -2 -18   43.90    1.13 
  -1   2  18   44.97    1.18 
   1   2 -18   45.53    1.18 
   0  -2  18   23.36    0.69 
   0  -2 -18   23.85    0.67 
   0  -2 -18   23.38    0.61 
   0   2 -18   23.28    0.68 
   0   2  18   23.68    0.68 
  -1  -2 -18    0.71    0.14 
   1  -2  18    0.68    0.21 
  -1   2 -18    0.64    0.13 
   1   2  18    0.66    0.15 
   1   2  18    0.46    0.12 
   2  -2  18    0.34    0.22 
  -2  -2 -18    0.66    0.15 
   2   2  18    0.59    0.15 
   2   2  18    0.45    0.18 
  -2   2 -18    0.76    0.12 
  -2   2 -18    0.89    0.15 
  -3  -2 -18    1.40    0.21 
   3  -2  18    1.27    0.30 
   3   2  18    1.33    0.22 
  -3   2 -18    1.63    0.19 
  -3   2 -18    1.70    0.21 
   3  -3 -18    0.43    0.16 
  -3  -3  18    0.49    0.15 
  -3   3  18    0.54    0.20 
   3   3 -18    0.26    0.17 
  -2  -3  18    0.16    0.11 
  -2  -3  18    0.33    0.14 
   2  -3 -18    0.22    0.12 
   2   3 -18    0.25    0.15 
  -2   3  18    0.31    0.16 
   1  -3 -18    0.23    0.09 
  -1  -3  18    0.36    0.13 
   1  -3 -18    0.30    0.11 
  -1  -3  18    0.20    0.10 
   1   3 -18    0.01    0.14 
  -1   3  18    0.33    0.14 
   0  -3 -18   23.75    0.67 
   0  -3  18   23.68    0.71 
   0  -3 -18   23.52    0.62 
   0   3  18   23.37    0.69 
   0   3 -18   23.01    0.69 
  -1  -3 -18    8.93    0.38 
   1  -3  18    9.04    0.45 
   1   3  18    8.29    0.35 
   1   3  18    8.59    0.34 
  -1   3 -18    9.31    0.36 
   2  -3  18   10.93    0.52 
  -2  -3 -18   10.30    0.44 
   2   3  18   10.37    0.41 
  -2   3 -18   10.35    0.36 
  -2   3 -18   10.69    0.41 
   3  -3  18    5.27    0.47 
  -3  -3 -18    4.65    0.34 
   3   3  18    4.67    0.36 
  -3   3 -18    5.39    0.29 
   3  -4 -18    1.16    0.18 
  -3  -4  18    1.14    0.18 
   3   4 -18    0.87    0.21 
  -3   4  18    1.30    0.24 
  -2  -4  18    0.31    0.13 
   2  -4 -18    0.57    0.14 
   2   4 -18    0.18    0.16 
  -2   4  18    0.58    0.18 
  -1  -4  18    3.78    0.26 
   1  -4 -18    3.13    0.23 
  -1  -4  18    3.15    0.21 
  -1   4  18    3.26    0.27 
   1   4 -18    3.37    0.30 
   0  -4  18    0.05    0.16 
   0  -4 -18    0.18    0.10 
   0  -4 -18    0.15    0.10 
   0   4  18    0.18    0.12 
   0   4 -18    0.12    0.15 
   0   4  18    0.14    0.11 
   1  -4  18    0.73    0.23 
  -1  -4 -18    0.95    0.15 
   1   4  18    0.98    0.16 
  -1   4 -18    1.15    0.16 
   2  -4  18   17.18    0.67 
  -2  -4 -18   16.41    0.60 
  -2   4 -18   16.71    0.51 
  -2   4 -18   17.15    0.56 
   2   4  18   17.65    0.57 
  -3  -4 -18    0.54    0.22 
  -3   4 -18    0.79    0.16 
   3   4  18    0.64    0.21 
  -2  -5  18    0.06    0.12 
   2  -5 -18    0.09    0.13 
   2   5 -18   -0.05    0.16 
  -2   5  18    0.22    0.16 
  -1  -5  18    1.49    0.15 
   1  -5 -18    1.70    0.18 
   1   5 -18    1.26    0.21 
  -1   5  18    1.85    0.23 
   0  -5  18   11.74    0.47 
   0  -5 -18   11.16    0.39 
   0   5 -18   11.03    0.47 
   0   5  18   10.82    0.40 
   1  -5  18    9.98    0.50 
  -1  -5 -18   10.53    0.42 
  -1   5 -18   10.64    0.41 
   1   5  18   10.79    0.41 
   2  -5  18   15.37    0.65 
  -2  -5 -18   14.48    0.56 
   2   5  18   14.92    0.53 
  -2   5 -18   14.55    0.49 
  -2  -6  18    0.65    0.15 
   2  -6 -18    1.18    0.19 
   2   6 -18    0.53    0.20 
  -2   6  18    1.02    0.21 
  -1  -6  18    1.64    0.17 
   1  -6 -18    2.03    0.20 
   1   6 -18    1.70    0.24 
   0  -6 -18    0.60    0.14 
   0   6  18    0.46    0.15 
   0   6 -18    0.30    0.20 
  -1  -6 -18    2.08    0.24 
   1  -6  18    1.47    0.29 
   1   6  18    2.12    0.22 
  -2  -6 -18    4.52    0.33 
   2  -6  18    3.70    0.45 
   2   6  18    5.01    0.36 
   1  -7 -18    1.94    0.22 
  -1  -7  18    1.58    0.18 
   1   7 -18    1.32    0.25 
   0  -7 -18    7.14    0.34 
   0   7  18    6.65    0.35 
   0   7 -18    5.33    0.45 
   1   7  18    0.00    0.17 
   3   0 -19   27.75    0.80 
  -3   0  19   28.41    0.86 
   2   0 -19   11.73    0.46 
  -2   0  19   11.83    0.47 
   2   0 -19   11.76    0.41 
  -1   0  19   12.41    0.46 
   1   0 -19   11.92    0.43 
   1   0 -19   12.69    0.39 
   0   0  19   10.20    0.41 
   0   0 -19    9.87    0.38 
  -1   0 -19    0.01    0.10 
   1   0  19    0.03    0.17 
   2   0  19   -0.40    0.20 
   2   0  19    0.36    0.12 
  -2   0 -19    0.06    0.12 
   3   0  19    1.41    0.19 
  -3   0 -19    1.25    0.21 
  -3  -1  19    6.35    0.36 
   3  -1 -19    5.93    0.32 
   3   1 -19    4.95    0.36 
  -3   1  19    6.12    0.39 
   2  -1 -19    2.44    0.23 
  -2  -1  19    2.59    0.27 
   2  -1 -19    2.04    0.18 
  -2  -1  19    2.22    0.19 
   2   1 -19    2.05    0.23 
  -2   1  19    2.38    0.27 
  -1  -1  19   27.30    0.79 
   1  -1 -19   27.75    0.72 
  -1  -1  19   26.99    0.70 
   1  -1 -19   26.90    0.75 
   1   1 -19   27.36    0.78 
  -1   1  19   28.15    0.80 
   0  -1  19    5.80    0.31 
   0  -1 -19    6.21    0.29 
   0   1 -19    6.04    0.30 
   0   1  19    6.29    0.32 
   1  -1  19    0.30    0.19 
  -1  -1 -19    0.28    0.12 
  -1   1 -19    0.49    0.13 
   1   1  19    0.26    0.11 
   1   1  19    0.44    0.16 
  -2  -1 -19    1.48    0.19 
   2  -1  19    1.20    0.25 
  -2   1 -19    1.58    0.19 
  -2   1 -19    1.60    0.16 
   2   1  19    1.27    0.24 
   2   1  19    1.56    0.17 
   3  -1  19    1.25    0.31 
  -3  -1 -19    1.88    0.24 
  -3   1 -19    1.97    0.23 
   3   1  19    0.94    0.29 
  -3   1 -19    2.24    0.22 
   3   1  19    2.04    0.23 
  -3  -2  19    0.29    0.14 
   3  -2 -19    0.17    0.15 
  -3  -2  19    0.27    0.16 
   3   2 -19    0.01    0.17 
  -3   2  19    0.40    0.19 
  -2  -2  19    9.02    0.39 
  -2  -2  19    8.27    0.33 
   2  -2 -19    8.40    0.34 
  -2   2  19    9.03    0.42 
   2   2 -19    8.35    0.40 
   1  -2 -19    0.33    0.10 
  -1  -2  19    0.22    0.10 
  -1  -2  19    0.34    0.14 
   1  -2 -19    0.33    0.11 
  -1   2  19    0.27    0.15 
   1   2 -19    0.27    0.17 
   0  -2  19   19.23    0.61 
   0  -2 -19   19.43    0.58 
   0   2 -19   19.14    0.59 
   0   2  19   19.44    0.60 
  -1  -2 -19    0.64    0.14 
   1  -2  19    0.43    0.21 
  -1   2 -19    0.66    0.14 
   1   2  19    0.44    0.12 
   1   2  19    0.87    0.16 
  -2  -2 -19   -0.02    0.12 
   2  -2  19   -0.36    0.21 
  -2   2 -19    0.05    0.10 
  -2   2 -19    0.01    0.12 
   2   2  19   -0.02    0.13 
   2   2  19   -0.08    0.16 
   3  -2  19    2.82    0.37 
  -3  -2 -19    3.17    0.32 
  -3   2 -19    3.27    0.29 
   3   2  19    2.83    0.26 
  -3   2 -19    3.09    0.26 
   3  -3 -19    3.13    0.28 
  -3  -3  19    2.92    0.26 
  -3   3  19    3.44    0.35 
   3   3 -19    2.74    0.28 
  -2  -3  19    0.24    0.12 
   2  -3 -19    0.29    0.13 
  -2  -3  19    0.50    0.15 
  -2   3  19    0.42    0.18 
   2   3 -19    0.02    0.16 
   1  -3 -19    2.26    0.20 
   1  -3 -19    2.34    0.18 
  -1  -3  19    2.11    0.18 
  -1  -3  19    2.69    0.25 
  -1   3  19    2.38    0.26 
   1   3 -19    2.23    0.24 
   0  -3 -19    1.84    0.19 
   0  -3  19    2.11    0.27 
   0   3  19    2.00    0.24 
   0   3 -19    1.65    0.20 
   1  -3  19   12.51    0.54 
  -1  -3 -19   12.01    0.46 
  -1   3 -19   12.80    0.45 
   1   3  19   12.36    0.44 
   1   3  19   12.30    0.41 
   2  -3  19    2.13    0.31 
  -2  -3 -19    2.56    0.27 
  -2   3 -19    2.60    0.24 
  -2   3 -19    2.49    0.20 
   2   3  19    2.71    0.23 
   3  -3  19    0.89    0.31 
  -3  -3 -19    1.41    0.22 
  -3   3 -19    1.60    0.20 
   3   3  19    1.10    0.22 
  -3  -4  19    0.07    0.14 
   3  -4 -19    0.27    0.16 
   3   4 -19    0.07    0.18 
  -3   4  19    0.30    0.20 
   2  -4 -19    2.67    0.25 
  -2  -4  19    2.80    0.23 
   2   4 -19    2.17    0.25 
  -2   4  19    2.82    0.30 
  -1  -4  19    0.36    0.13 
  -1  -4  19    0.16    0.10 
   1  -4 -19    0.28    0.12 
  -1   4  19    0.21    0.14 
   1   4 -19    0.03    0.17 
   0  -4  19    2.51    0.29 
   0  -4 -19    2.36    0.21 
   0   4  19    2.54    0.23 
   0   4 -19    2.20    0.23 
   1  -4  19    9.79    0.51 
  -1  -4 -19   10.20    0.42 
  -1   4 -19   10.64    0.40 
   1   4  19   10.13    0.38 
   2  -4  19    4.51    0.45 
  -2  -4 -19    4.64    0.33 
   2   4  19    5.37    0.33 
  -2   4 -19    5.23    0.30 
   2  -5 -19    1.67    0.19 
  -2  -5  19    1.67    0.18 
   2   5 -19    1.58    0.24 
  -2   5  19    1.80    0.24 
  -1  -5  19    0.78    0.14 
   1  -5 -19    1.07    0.16 
  -1   5  19    0.97    0.18 
   1   5 -19    0.68    0.20 
   0  -5  19    1.03    0.20 
   0   5 -19    0.61    0.19 
   1  -5  19   -0.02    0.24 
  -1  -5 -19    0.53    0.14 
   1   5  19    0.79    0.17 
  -1   5 -19    0.97    0.16 
   2  -5  19    0.08    0.26 
  -2  -5 -19    0.48    0.16 
   2   5  19    0.48    0.19 
   2  -6 -19    0.95    0.18 
  -2  -6  19    0.53    0.15 
   2   6 -19    0.48    0.22 
  -2   6  19    0.81    0.21 
  -1  -6  19    0.42    0.14 
   1  -6 -19    0.29    0.14 
   1   6 -19   -0.02    0.19 
   0   6 -19   -0.48    0.18 
   0   6  19    0.08    0.17 
  -1  -6 -19    2.62    0.25 
   1  -6  19    2.02    0.33 
   1   6  19    2.78    0.25 
  -1  -7  19    0.22    0.14 
   1  -7 -19    0.39    0.17 
   1   7 -19   -0.30    0.20 
   0   7 -19    0.17    0.24 
   0   7  19    1.53    0.21 
   3   0 -20    2.09    0.22 
  -3   0  20    2.76    0.31 
   2   0 -20    0.01    0.15 
   2   0 -20    0.29    0.14 
  -2   0  20    0.34    0.16 
   1   0 -20    3.24    0.24 
   1   0 -20    3.15    0.22 
  -1   0  20    3.43    0.29 
   0   0 -20   23.47    0.70 
   0   0  20   24.99    0.73 
  -1   0 -20    3.88    0.27 
   1   0  20    3.52    0.31 
   2   0  20    0.22    0.12 
  -2   0 -20    0.10    0.13 
   2   0  20   -0.26    0.21 
   3   0  20    0.79    0.17 
   3   0  20   -0.21    0.27 
  -3   0 -20    0.77    0.19 
  -3  -1  20    0.32    0.16 
   3  -1 -20    0.03    0.15 
  -3   1  20    0.20    0.18 
   3   1 -20   -0.22    0.16 
   2  -1 -20    8.16    0.35 
  -2  -1  20    9.09    0.41 
  -2  -1  20    8.25    0.33 
   2  -1 -20    8.71    0.35 
   2   1 -20    8.35    0.41 
  -2   1  20    9.07    0.42 
  -1  -1  20   11.40    0.36 
   1  -1 -20   10.85    0.37 
  -1  -1  20   11.38    0.44 
   1  -1 -20   10.82    0.40 
  -1   1  20   11.98    0.46 
   1   1 -20   11.17    0.44 
   0  -1  20    3.95    0.28 
   0  -1 -20    4.29    0.26 
   0   1 -20    4.06    0.26 
   0   1  20    3.79    0.28 
   1  -1  20    4.55    0.35 
  -1  -1 -20    4.50    0.28 
  -1   1 -20    4.82    0.29 
   1   1  20    4.87    0.30 
   2  -1  20    3.09    0.32 
  -2  -1 -20    3.28    0.29 
  -2   1 -20    3.45    0.24 
  -2   1 -20    3.62    0.28 
   2   1  20    3.30    0.26 
   2   1  20    2.81    0.33 
   3  -1  20    0.36    0.30 
  -3  -1 -20    1.07    0.20 
  -3   1 -20    1.18    0.20 
  -3   1 -20    0.80    0.18 
   3   1  20    1.05    0.20 
  -3  -2  20    0.53    0.17 
  -3  -2  20    0.15    0.14 
   3  -2 -20    0.39    0.16 
  -3   2  20    0.46    0.20 
   3   2 -20    0.06    0.18 
   2  -2 -20    5.91    0.29 
  -2  -2  20    5.63    0.28 
  -2  -2  20    6.22    0.34 
  -2   2  20    6.22    0.37 
   2   2 -20    5.49    0.37 
  -1  -2  20    7.69    0.29 
   1  -2 -20    7.74    0.32 
  -1  -2  20    8.11    0.37 
   1  -2 -20    7.26    0.29 
   1   2 -20    7.53    0.38 
  -1   2  20    7.76    0.38 
   0  -2  20   15.86    0.54 
   0  -2 -20   15.55    0.51 
   0   2 -20   16.08    0.52 
   0   2  20   15.53    0.53 
  -1  -2 -20    3.34    0.25 
   1  -2  20    3.18    0.36 
   1   2  20    3.94    0.29 
   1   2  20    3.64    0.27 
  -1   2 -20    3.58    0.26 
  -2  -2 -20    2.68    0.28 
   2  -2  20    2.41    0.32 
   2   2  20    2.55    0.29 
  -2   2 -20    2.72    0.21 
   2   2  20    2.65    0.26 
  -2   2 -20    3.21    0.28 
   3  -2  20    0.27    0.30 
  -3  -2 -20    0.86    0.20 
   3   2  20    0.53    0.20 
  -3   2 -20    0.69    0.18 
  -3   2 -20    0.99    0.17 
   3  -3 -20    3.22    0.29 
  -3  -3  20    3.36    0.28 
   3   3 -20    3.09    0.34 
  -3   3  20    3.83    0.37 
   2  -3 -20    0.86    0.16 
  -2  -3  20    0.66    0.14 
  -2  -3  20    0.99    0.17 
   2   3 -20    0.39    0.18 
  -2   3  20    0.88    0.20 
   1  -3 -20    0.60    0.12 
  -1  -3  20    0.70    0.15 
   1  -3 -20    0.53    0.14 
  -1  -3  20    0.41    0.11 
   1   3 -20    0.23    0.18 
  -1   3  20    0.57    0.17 
   0  -3 -20    6.94    0.32 
   0  -3  20    7.03    0.36 
   0   3  20    6.98    0.35 
   0   3 -20    6.92    0.35 
  -1  -3 -20    8.86    0.39 
   1  -3  20    8.77    0.48 
   1   3  20    8.18    0.33 
   1   3  20    8.76    0.38 
  -1   3 -20    9.01    0.38 
   2  -3  20    5.56    0.47 
  -2  -3 -20    6.28    0.36 
  -2   3 -20    6.25    0.33 
   2   3  20    5.98    0.34 
   2  -4 -20    0.29    0.14 
  -2  -4  20    0.27    0.13 
  -2   4  20    0.47    0.18 
   2   4 -20    0.21    0.18 
  -1  -4  20    1.47    0.15 
  -1  -4  20    2.29    0.25 
   1  -4 -20    1.55    0.17 
  -1   4  20    1.74    0.21 
   1   4 -20    1.34    0.23 
   0  -4 -20    2.55    0.22 
   0  -4  20    3.02    0.30 
   0   4 -20    2.56    0.27 
   0   4  20    2.85    0.25 
   1  -4  20    1.32    0.28 
  -1  -4 -20    1.81    0.20 
  -1   4 -20    2.15    0.23 
   1   4  20    1.94    0.19 
  -2  -4 -20    2.57    0.28 
   2  -4  20    2.03    0.33 
   2   4  20    2.31    0.24 
  -2   4 -20    3.21    0.27 
   2  -5 -20    3.87    0.30 
  -2  -5  20    3.65    0.27 
   2   5 -20    3.51    0.37 
  -2   5  20    3.74    0.34 
  -1  -5  20    2.37    0.19 
   1  -5 -20    2.59    0.24 
  -1   5  20    2.57    0.27 
   1   5 -20    2.23    0.27 
   0  -5  20    0.05    0.16 
   0   5 -20   -0.10    0.16 
  -1  -5 -20    0.89    0.17 
   1  -5  20    0.07    0.26 
  -1   5 -20    1.22    0.17 
   1   5  20    1.06    0.18 
   2  -5  20    0.06    0.29 
  -2  -5 -20    0.79    0.18 
   2   5  20    0.41    0.19 
  -1  -6  20   -0.06    0.12 
   1  -6 -20    0.09    0.14 
   0   6 -20   -0.26    0.18 
  -1  -6 -20    0.37    0.14 
   1   6  20    0.60    0.18 
  -1   6 -20    0.68    0.21 
   3   0 -21    1.76    0.21 
  -3   0  21    1.78    0.25 
   2   0 -21    0.06    0.13 
   2   0 -21   -0.12    0.14 
  -2   0  21    0.23    0.16 
  -1   0  21    0.17    0.15 
   1   0 -21   -0.02    0.11 
   1   0 -21    0.10    0.11 
   0   0 -21    1.31    0.17 
   0   0  21    1.46    0.20 
  -1   0 -21   19.88    0.63 
   1   0  21   19.32    0.64 
  -2   0 -21    0.66    0.16 
   2   0  21    0.14    0.23 
   2   0  21    0.81    0.15 
   3   0  21    0.67    0.18 
  -3   0 -21    0.68    0.19 
   3   0  21   -0.40    0.29 
   3  -1 -21    1.37    0.20 
  -3  -1  21    1.40    0.22 
   3   1 -21    0.89    0.24 
  -3   1  21    1.87    0.26 
   3   1 -21    1.10    0.20 
   2  -1 -21    3.54    0.26 
   2  -1 -21    4.18    0.26 
  -2  -1  21    4.53    0.32 
   2   1 -21    3.13    0.34 
  -2   1  21    4.32    0.33 
   1  -1 -21   11.43    0.38 
   1  -1 -21   10.68    0.41 
  -1  -1  21   11.36    0.45 
   1   1 -21   11.08    0.44 
  -1   1  21   11.67    0.47 
   0  -1 -21   26.92    0.77 
   0  -1  21   26.36    0.78 
   0   1 -21   26.30    0.77 
   0   1  21   26.69    0.78 
  -1  -1 -21    5.11    0.29 
   1  -1  21    4.88    0.37 
  -1   1 -21    5.29    0.30 
   1   1  21    5.42    0.32 
  -2  -1 -21    1.71    0.22 
   2  -1  21    0.95    0.28 
  -2   1 -21    2.03    0.23 
   2   1  21    1.16    0.24 
   2   1  21    1.72    0.19 
  -3  -1 -21    0.16    0.16 
  -3   1 -21   -0.32    0.14 
   3   1  21   -0.01    0.18 
  -3   1 -21    0.02    0.15 
   3  -2 -21    0.60    0.17 
  -3  -2  21    0.45    0.15 
  -3  -2  21    0.66    0.18 
  -3   2  21    0.65    0.22 
   3   2 -21    0.19    0.20 
  -2  -2  21    4.42    0.26 
   2  -2 -21    4.59    0.27 
  -2  -2  21    5.08    0.33 
  -2   2  21    5.21    0.36 
   2   2 -21    4.27    0.35 
  -1  -2  21    5.60    0.25 
   1  -2 -21    5.51    0.27 
  -1  -2  21    6.22    0.33 
   1  -2 -21    5.86    0.29 
   1   2 -21    5.40    0.34 
  -1   2  21    6.19    0.35 
   0  -2  21    4.79    0.31 
   0  -2 -21    4.72    0.27 
   0   2 -21    4.79    0.29 
   0   2  21    5.03    0.31 
  -1  -2 -21   12.08    0.46 
   1  -2  21   11.94    0.53 
   1   2  21   11.97    0.46 
  -1   2 -21   12.26    0.46 
  -2  -2 -21    5.11    0.34 
   2  -2  21    3.76    0.43 
   2   2  21    4.85    0.31 
   2   2  21    4.69    0.33 
  -2   2 -21    5.07    0.33 
  -3  -3  21    0.40    0.16 
   3  -3 -21    0.41    0.17 
   3   3 -21    0.03    0.20 
  -3   3  21    0.47    0.21 
   2  -3 -21    1.36    0.18 
  -2  -3  21    0.97    0.16 
  -2  -3  21    1.52    0.20 
   2   3 -21    0.90    0.22 
  -2   3  21    1.27    0.22 
  -1  -3  21    1.93    0.16 
   1  -3 -21    1.93    0.17 
  -1  -3  21    2.79    0.26 
  -1   3  21    1.87    0.22 
   1   3 -21    2.08    0.26 
   0  -3 -21    2.58    0.23 
   0  -3  21    2.96    0.29 
   0   3  21    2.72    0.27 
   0   3 -21    2.92    0.26 
  -1  -3 -21    3.54    0.28 
   1  -3  21    3.31    0.33 
   1   3  21    4.23    0.30 
  -1   3 -21    3.97    0.28 
   2  -3  21    6.31    0.49 
  -2  -3 -21    7.15    0.39 
   2   3  21    7.10    0.36 
  -2   3 -21    7.27    0.37 
  -2  -4  21    3.45    0.25 
   2  -4 -21    3.06    0.26 
   2   4 -21    2.76    0.29 
  -2   4  21    3.42    0.34 
  -1  -4  21    0.56    0.13 
   1  -4 -21    0.38    0.13 
  -1  -4  21    0.88    0.16 
  -1   4  21    0.73    0.18 
   1   4 -21    0.25    0.20 
   0  -4 -21    2.20    0.22 
   0  -4  21    2.78    0.29 
   0   4 -21    2.51    0.28 
   0   4  21    2.35    0.25 
   1  -4  21   -0.16    0.23 
  -1  -4 -21    0.32    0.14 
  -1   4 -21    0.55    0.14 
   2  -4  21    4.83    0.49 
  -2  -4 -21    5.24    0.36 
   2   4  21    5.66    0.36 
  -2   4 -21    6.20    0.34 
  -2  -5  21    2.99    0.27 
   2  -5 -21    2.62    0.23 
  -2   5  21    3.08    0.34 
   2   5 -21    2.35    0.30 
  -1  -5  21    2.54    0.22 
   1  -5 -21    2.43    0.21 
  -1   5  21    2.37    0.28 
   1   5 -21    1.98    0.28 
   0  -5  21    1.71    0.22 
   0   5 -21    1.71    0.23 
  -1  -5 -21    1.00    0.17 
  -1   5 -21    1.16    0.17 
   1   5  21    1.27    0.19 
  -1  -6  21    1.61    0.18 
   1  -6 -21    1.75    0.20 
   1   6 -21    0.73    0.26 
   0   6 -21   -0.09    0.18 
  -1  -6 -21    1.19    0.20 
  -1   6 -21    1.45    0.22 
   1   6  21    0.96    0.20 
   3   0 -22    0.93    0.19 
  -3   0  22    1.27    0.23 
   2   0 -22    2.81    0.22 
   2   0 -22    2.69    0.28 
  -2   0  22    3.44    0.32 
   1   0 -22    4.84    0.28 
  -1   0  22    5.06    0.34 
   1   0 -22    4.18    0.24 
   0   0  22    0.47    0.16 
   0   0 -22    0.56    0.14 
  -1   0 -22    0.44    0.14 
   1   0  22    0.60    0.18 
   2   0  22   -0.04    0.24 
  -2   0 -22    0.25    0.15 
  -3  -1  22    0.35    0.17 
   3  -1 -22    0.25    0.17 
   3   1 -22    0.00    0.17 
  -3   1  22    0.31    0.20 
   2  -1 -22    4.71    0.29 
  -2  -1  22    5.81    0.36 
  -2   1  22    5.60    0.37 
   2   1 -22    4.49    0.37 
  -1  -1  22    1.58    0.21 
   1  -1 -22    1.24    0.15 
   1  -1 -22    1.31    0.16 
  -1   1  22    1.65    0.22 
   1   1 -22    1.32    0.19 
   0  -1 -22    5.58    0.31 
   0  -1  22    5.74    0.34 
   0   1 -22    5.33    0.30 
   0   1  22    5.47    0.34 
  -1  -1 -22    4.11    0.29 
   1  -1  22    3.84    0.34 
  -1   1 -22    3.97    0.28 
   1   1  22    4.08    0.30 
   2  -1  22    0.86    0.29 
  -2  -1 -22    1.70    0.22 
  -2   1 -22    1.47    0.21 
   2   1  22    1.05    0.24 
  -3  -2  22    1.43    0.19 
  -3  -2  22    1.50    0.23 
   3  -2 -22    1.55    0.20 
   3   2 -22    0.75    0.26 
  -3   2  22    1.64    0.27 
   2  -2 -22    0.93    0.15 
  -2  -2  22    0.89    0.19 
  -2  -2  22    0.67    0.14 
   2   2 -22    0.11    0.20 
  -2   2  22    0.93    0.21 
   1  -2 -22   10.31    0.40 
   1  -2 -22   10.46    0.37 
  -1  -2  22   10.61    0.35 
  -1  -2  22   10.78    0.44 
   1   2 -22    9.98    0.45 
  -1   2  22   10.74    0.46 
   0  -2  22    8.19    0.39 
   0  -2 -22    7.81    0.35 
   0   2 -22    8.04    0.37 
   0   2  22    7.82    0.38 
   1  -2  22    9.54    0.48 
  -1  -2 -22    9.34    0.41 
   1   2  22   10.26    0.44 
  -1   2 -22    9.85    0.42 
   2  -2  22    0.00    0.27 
  -2  -2 -22    0.89    0.20 
  -2   2 -22    0.90    0.18 
   2   2  22    0.84    0.20 
   2   2  22    0.70    0.18 
  -2  -3  22    4.86    0.29 
   2  -3 -22    4.74    0.30 
  -2  -3  22    5.89    0.34 
   2   3 -22    4.35    0.38 
  -2   3  22    5.74    0.39 
  -1  -3  22    1.11    0.15 
  -1  -3  22    1.50    0.20 
   1  -3 -22    1.17    0.15 
   1   3 -22    0.83    0.21 
  -1   3  22    1.49    0.22 
   0  -3 -22    1.80    0.21 
   0  -3  22    1.41    0.20 
   0   3  22    1.79    0.21 
   0   3 -22    2.14    0.25 
  -1  -3 -22    6.88    0.36 
   1  -3  22    6.18    0.44 
   1   3  22    6.66    0.36 
  -1   3 -22    7.09    0.35 
  -2  -3 -22    2.95    0.31 
   2  -3  22    1.93    0.35 
   2   3  22    2.50    0.24 
  -2   3 -22    3.42    0.29 
   2  -4 -22    0.23    0.14 
  -2  -4  22    0.05    0.14 
  -2   4  22    0.05    0.17 
  -1  -4  22    2.07    0.26 
  -1  -4  22    0.90    0.14 
   1  -4 -22    1.22    0.16 
   1   4 -22    0.60    0.24 
  -1   4  22    1.19    0.21 
   0  -4  22    0.53    0.18 
   0  -4 -22    0.13    0.11 
   0   4  22    0.27    0.14 
   1  -4  22   -0.12    0.24 
  -1  -4 -22    0.51    0.15 
  -1   4 -22    0.52    0.15 
  -2  -4 -22    0.31    0.15 
   2  -4  22   -0.39    0.29 
  -2   4 -22    0.57    0.16 
   2   4  22    0.25    0.18 
   1  -5 -22    0.14    0.13 
   1   5 -22   -0.39    0.21 
  -1   5  22    0.26    0.16 
   0  -5  22    5.59    0.36 
   0   5 -22    5.03    0.36 
   1  -5  22    0.12    0.28 
  -1  -5 -22    0.76    0.17 
  -1   5 -22    1.08    0.18 
   0   6 -22    1.35    0.24 
  -3   0  23    0.14    0.18 
   3   0 -23   -0.05    0.16 
   2   0 -23    3.19    0.28 
  -2   0  23    3.03    0.32 
   2   0 -23    2.04    0.20 
   1   0 -23    0.54    0.13 
   1   0 -23    0.72    0.15 
  -1   0  23    0.92    0.20 
   0   0 -23    4.86    0.30 
   0   0  23    5.11    0.33 
  -1   0 -23    0.80    0.16 
   1   0  23    0.92    0.20 
  -2   0 -23    0.77    0.18 
   2   0  23    0.43    0.24 
   2  -1 -23    2.09    0.20 
  -2  -1  23    2.59    0.31 
   2   1 -23    2.03    0.21 
  -2   1  23    2.47    0.32 
   2   1 -23    1.73    0.25 
   1  -1 -23    0.92    0.14 
  -1  -1  23    1.06    0.20 
   1  -1 -23    1.01    0.16 
   1   1 -23    1.10    0.17 
   1   1 -23    0.57    0.15 
  -1   1  23    1.23    0.21 
   0  -1 -23    1.51    0.18 
   0  -1  23    1.48    0.21 
   0   1  23    1.54    0.21 
   0   1 -23    1.29    0.18 
   1  -1  23    1.02    0.22 
  -1  -1 -23    0.85    0.17 
  -1   1 -23    1.02    0.18 
   1   1  23    0.89    0.18 
  -2  -1 -23    0.48    0.17 
   2  -1  23   -0.17    0.25 
   2   1  23    0.24    0.21 
  -2   1 -23    0.55    0.17 
  -2  -2  23    2.65    0.30 
   2  -2 -23    1.94    0.20 
  -2  -2  23    1.99    0.19 
  -2   2  23    2.28    0.27 
   2   2 -23    1.39    0.27 
  -1  -2  23    1.19    0.20 
   1  -2 -23    0.85    0.14 
   1  -2 -23    1.18    0.16 
   1   2 -23    1.10    0.20 
  -1   2  23    1.22    0.21 
   0  -2  23    2.39    0.28 
   0  -2 -23    2.18    0.23 
   0   2 -23    2.00    0.22 
   0   2  23    2.53    0.28 
   1  -2  23    2.30    0.28 
  -1  -2 -23    2.58    0.27 
  -1   2 -23    2.55    0.25 
   1   2  23    3.72    0.32 
   2  -2  23    1.94    0.35 
  -2  -2 -23    3.40    0.32 
  -2   2 -23    3.23    0.31 
   2   2  23    3.07    0.30 
  -2  -3  23    0.38    0.17 
  -2  -3  23   -0.20    0.12 
   2  -3 -23    0.27    0.14 
  -2   3  23    0.23    0.19 
   2   3 -23   -0.32    0.21 
  -1  -3  23    0.83    0.17 
   1  -3 -23    0.72    0.14 
   1   3 -23    0.47    0.20 
  -1   3  23    0.93    0.20 
   0  -3 -23    0.42    0.14 
   0  -3  23    0.64    0.18 
   0   3  23    0.48    0.17 
   0   3 -23    0.49    0.15 
   1  -3  23    0.21    0.23 
  -1  -3 -23    0.41    0.15 
  -1   3 -23    0.76    0.16 
   1   3  23    0.76    0.18 
  -2  -3 -23    8.49    0.44 
   2  -3  23    6.96    0.56 
  -2   3 -23    9.31    0.43 
   2  -4 -23    6.79    0.34 
  -2  -4  23    6.21    0.33 
   2   4 -23    4.65    0.43 
  -2   4  23    6.28    0.42 
   1  -4 -23    1.10    0.17 
  -1   4  23    0.91    0.20 
   1   4 -23    0.64    0.23 
   0  -4  23    1.61    0.22 
   0  -4 -23    1.41    0.18 
   0   4 -23    1.31    0.19 
   0   4  23    1.12    0.19 
  -1  -4 -23    3.90    0.30 
   1  -4  23    3.60    0.36 
  -1   4 -23    4.36    0.31 
   1  -5 -23    5.84    0.32 
  -1   5  23    5.13    0.37 
   1   5 -23    4.24    0.43 
   0  -5  23    3.09    0.32 
   0   5 -23    2.49    0.29 
  -1  -5 -23    0.27    0.14 
   1  -5  23   -0.68    0.25 
  -1   5 -23    0.66    0.16 
   2   0 -24    0.55    0.15 
   2   0 -24    0.12    0.14 
  -2   0  24    0.46    0.19 
  -1   0  24    2.69    0.31 
   1   0 -24    2.58    0.26 
   0   0 -24    2.33    0.26 
   0   0  24    2.73    0.30 
  -1   0 -24    1.04    0.18 
   1   0  24    1.37    0.22 
  -2   0 -24    6.93    0.39 
   2   0  24    6.19    0.45 
  -2  -1  24    0.45    0.18 
   2  -1 -24    0.45    0.15 
   2   1 -24    0.22    0.18 
   2   1 -24    0.08    0.16 
  -2   1  24    0.49    0.20 
  -1  -1  24    4.82    0.35 
   1  -1 -24    4.83    0.30 
   1   1 -24    5.01    0.31 
  -1   1  24    4.65    0.36 
   0  -1  24    0.54    0.18 
   0  -1 -24    0.26    0.14 
   0   1  24    0.64    0.18 
   0   1 -24    0.42    0.15 
   1  -1  24    4.92    0.37 
  -1  -1 -24    5.33    0.34 
  -1   1 -24    5.20    0.33 
   1   1  24    5.53    0.35 
  -2  -1 -24    0.30    0.16 
   2  -1  24   -0.32    0.25 
   2   1  24    0.26    0.21 
  -2   1 -24    0.00    0.14 
  -2  -2  24    0.37    0.17 
  -2  -2  24    0.07    0.13 
   2  -2 -24    0.22    0.14 
  -2   2  24    0.21    0.19 
   1  -2 -24    0.45    0.13 
  -1  -2  24    0.33    0.17 
  -1   2  24    0.46    0.18 
   1   2 -24    0.28    0.16 
   0  -2 -24    7.13    0.36 
   0  -2  24    8.35    0.41 
   0   2  24    7.59    0.40 
   0   2 -24    7.80    0.37 
  -1  -2 -24    2.27    0.26 
   1  -2  24    2.33    0.29 
   1   2  24    3.35    0.33 
  -1   2 -24    2.49    0.27 
   2  -2  24    0.08    0.30 
  -2  -2 -24    0.68    0.19 
   2   2  24    1.00    0.20 
  -2   2 -24    1.18    0.22 
   2  -3 -24    0.87    0.17 
  -2  -3  24    1.01    0.20 
  -2  -3  24    0.79    0.17 
  -2   3  24    0.81    0.22 
   2   3 -24    0.24    0.26 
  -1  -3  24    1.11    0.20 
  -1   3  24    1.03    0.21 
   1   3 -24    0.56    0.20 
   0  -3  24    2.32    0.29 
   0  -3 -24    1.69    0.20 
   0   3 -24    1.47    0.20 
   0   3  24    1.70    0.22 
  -1  -3 -24   -0.04    0.13 
   1  -3  24   -0.19    0.22 
  -1   3 -24    0.35    0.15 
  -1  -4  24    2.20    0.28 
   1   4 -24    0.58    0.23 
  -1   4  24    1.47    0.23 
   0  -4  24    2.96    0.31 
   0  -4 -24    2.26    0.25 
   0   4 -24    2.38    0.28 
   0   4  24    2.68    0.30 
   1  -4  24    1.62    0.31 
  -1  -4 -24    2.17    0.24 
  -1   4 -24    2.97    0.28 
   0  -5  24    1.04    0.20 
   0   5 -24    0.94    0.19 
   2   0 -25    9.02    0.41 
  -2   0  25    8.90    0.46 
   2   0 -25    8.03    0.37 
   1   0 -25    0.99    0.17 
  -1   0  25    1.30    0.23 
   0   0 -25    0.25    0.14 
   0   0  25    0.47    0.18 
   1   0  25    2.60    0.30 
  -1   0 -25    2.30    0.26 
  -2   0 -25    0.26    0.17 
   2   0  25   -0.12    0.23 
  -2  -1  25    0.84    0.21 
   2  -1 -25    0.70    0.17 
   2   1 -25    0.30    0.17 
   2   1 -25    0.65    0.20 
  -2   1  25    0.69    0.21 
   1  -1 -25    5.89    0.33 
  -1  -1  25    6.97    0.40 
   1   1 -25    6.16    0.36 
  -1   1  25    5.94    0.40 
   0  -1  25    1.09    0.20 
   0  -1 -25    1.05    0.18 
   0   1  25    1.23    0.21 
   0   1 -25    1.32    0.19 
  -1  -1 -25    2.82    0.30 
   1  -1  25    3.44    0.34 
  -1   1 -25    2.78    0.29 
   1   1  25    3.60    0.34 
   2  -2 -25    0.33    0.15 
  -2  -2  25    0.62    0.20 
  -2   2  25    0.48    0.21 
   2   2 -25   -0.19    0.21 
  -1  -2  25    0.59    0.18 
   1  -2 -25    0.53    0.14 
   1   2 -25    0.58    0.17 
  -1   2  25    0.52    0.19 
   0  -2  25    2.43    0.31 
   0  -2 -25    2.10    0.24 
   0   2 -25    1.72    0.21 
   0   2  25    2.44    0.31 
   1  -2  25    2.17    0.28 
  -1  -2 -25    2.55    0.28 
  -1   2 -25    2.04    0.24 
   1   3 -25    1.18    0.22 
  -1   3  25    1.28    0.23 
   0  -3  25    0.43    0.18 
   0  -3 -25    0.16    0.13 
   0   3  25    0.32    0.17 
   1  -3  25    6.12    0.45 
  -1  -3 -25    6.47    0.38 
  -1   3 -25    6.84    0.38 
   1   3  25    6.73    0.40 
  -1   4  25    1.14    0.22 
   1   4 -25    0.73    0.24 
   0  -4  25    1.44    0.22 
   0  -4 -25    1.16    0.20 
   0   4 -25    1.32    0.21 
   0   4  25    1.44    0.22 
  -2   0  26    6.04    0.42 
   2   0 -26    6.19    0.36 
   2   0 -26    5.23    0.33 
  -1   0  26    3.36    0.35 
   1   0 -26    3.10    0.28 
   0   0  26    0.49    0.18 
   0   0 -26    0.22    0.14 
   1   0  26    0.77    0.20 
  -1   0 -26    0.56    0.16 
   2  -1 -26    0.42    0.15 
  -2  -1  26    0.65    0.21 
   2   1 -26    0.57    0.19 
  -2   1  26    0.65    0.23 
   2   1 -26    0.10    0.16 
  -1  -1  26    1.65    0.25 
   1  -1 -26    1.32    0.19 
  -1   1  26    1.30    0.24 
   1   1 -26    1.23    0.20 
   0  -1  26    3.03    0.33 
   0  -1 -26    2.35    0.28 
   0   1  26    3.32    0.32 
   0   1 -26    2.96    0.27 
   1  -1  26    0.99    0.22 
  -1  -1 -26    0.62    0.18 
  -1   1 -26    0.81    0.18 
   1   1  26    1.32    0.23 
   1  -2 -26    1.03    0.17 
  -1  -2  26    1.07    0.22 
   1   2 -26    0.89    0.19 
  -1   2  26    0.88    0.21 
   0  -2 -26    1.17    0.19 
   0  -2  26    1.23    0.22 
   0   2 -26    1.24    0.20 
   0   2  26    1.38    0.23 
   1  -2  26    0.37    0.21 
  -1  -2 -26    0.14    0.15 
  -1   2 -26    0.38    0.16 
  -1  -3  26    0.57    0.18 
  -1   3  26    0.45    0.20 
   1   3 -26    0.29    0.18 
   0  -3  26    0.69    0.20 
   0  -3 -26    0.12    0.13 
   0   3  26    0.48    0.18 
   1   0 -27    0.43    0.16 
  -1   0  27    0.37    0.20 
   0   0 -27    1.55    0.22 
   0   0  27    2.56    0.32 
  -1   0 -27    3.34    0.32 
   1   0  27    3.85    0.36 
  -1  -1  27    3.28    0.36 
   1  -1 -27    3.36    0.31 
  -1   1  27    3.01    0.36 
   1   1 -27    3.15    0.31 
   0  -1 -27    1.93    0.23 
   0  -1  27    2.58    0.31 
   0   1  27    2.71    0.32 
   0   1 -27    1.80    0.23 
  -1  -1 -27    0.97    0.21 
   1  -1  27    1.30    0.24 
  -1   1 -27    1.01    0.20 
   1   1  27    1.36    0.25 
   1  -2 -27    3.88    0.31 
  -1  -2  27    5.12    0.38 
   1   2 -27    4.73    0.34 
  -1   2  27    4.76    0.40 
   0  -2  27    1.88    0.25 
   0  -2 -27    1.50    0.21 
   0   2  27    2.57    0.33 
   0   2 -27    1.84    0.23 
   0   0 -28    0.30    0.16 
   0   0  28    0.73    0.20 
   0  -1 -28    3.27    0.31 
   0  -1  28    3.76    0.42 
   0   1  28    4.09    0.36 
   0   1 -28    3.04    0.33 
   0   0   0    0.00    0.00 
;
_shelx_hkl_checksum              3157
loop_
_space_group_symop_operation_xyz
'x, y, z'
'-x, y+1/2, -z'
loop_
_atom_site_label
_atom_site_type_symbol
_atom_site_fract_x
_atom_site_fract_y
_atom_site_fract_z
_atom_site_U_iso_or_equiv
_atom_site_adp_type
_atom_site_occupancy
_atom_site_site_symmetry_order
_atom_site_calc_flag
_atom_site_refinement_flags_posn
_atom_site_refinement_flags_adp
_atom_site_refinement_flags_occupancy
_atom_site_disorder_assembly
_atom_site_disorder_group
B1 B 0.3942(7) 0.2057(3) 0.90490(12) 0.0205(5) Uani 1 1 d . . . . .
C1 C -0.0386(5) 0.6747(3) 0.88909(10) 0.0180(4) Uani 1 1 d . . . . .
C2 C -0.0734(6) 0.6995(3) 0.82534(10) 0.0214(5) Uani 1 1 d . . . . .
H2 H -0.170644 0.807265 0.808811 0.026 Uiso 1 1 calc R U . . .
C3 C 0.0342(6) 0.5668(3) 0.78678(10) 0.0224(5) Uani 1 1 d . . . . .
H3 H 0.008541 0.582721 0.743488 0.027 Uiso 1 1 calc R U . . .
C4 C 0.1810(5) 0.4087(3) 0.81090(10) 0.0188(4) Uani 1 1 d . . . . .
C5 C 0.2194(5) 0.3810(3) 0.87529(10) 0.0167(4) Uani 1 1 d . . . . .
C6 C 0.1062(6) 0.5172(3) 0.91320(10) 0.0177(4) Uani 1 1 d . . . . .
H6 H 0.128340 0.502113 0.956554 0.021 Uiso 1 1 calc R U . . .
C7 C 0.4038(6) 0.1554(3) 0.68029(10) 0.0217(5) Uani 1 1 d . . . . .
C8 C 0.5167(7) 0.1983(3) 0.62215(11) 0.0275(5) Uani 1 1 d . . . . .
H8 H 0.510129 0.318497 0.608403 0.033 Uiso 1 1 calc R U . . .
C9 C 0.6389(7) 0.0649(4) 0.58434(11) 0.0276(5) Uani 1 1 d . . . . .
H9 H 0.719557 0.092089 0.544758 0.033 Uiso 1 1 calc R U . . .
C10 C 0.6402(6) -0.1081(3) 0.60571(11) 0.0244(5) Uani 1 1 d . . . . .
C11 C 0.5157(6) -0.1554(3) 0.66230(11) 0.0254(5) Uani 1 1 d . . . . .
H11 H 0.511938 -0.276602 0.674876 0.030 Uiso 1 1 calc R U . . .
C12 C 0.3974(6) -0.0223(3) 0.69991(11) 0.0223(5) Uani 1 1 d . . . . .
H12 H 0.311717 -0.051132 0.739017 0.027 Uiso 1 1 calc R U . . .
H1O H -0.240(8) 0.885(5) 0.9073(14) 0.034 Uiso 1 1 d . U . . .
H2O H 0.344(8) 0.233(4) 0.9886(15) 0.034 Uiso 1 1 d . U . . .
H3O H 0.528(8) 0.107(4) 0.8315(15) 0.034 Uiso 1 1 d . U . . .
N1 N 0.2996(5) 0.2698(2) 0.77285(9) 0.0206(4) Uani 1 1 d . . . . .
N2 N 0.2896(5) 0.3016(3) 0.71606(9) 0.0248(4) Uani 1 1 d . . . . .
N3 N 0.7849(6) -0.2488(3) 0.56679(12) 0.0371(6) Uani 1 1 d . . . . .
O1 O -0.1407(5) 0.8018(2) 0.92878(8) 0.0251(4) Uani 1 1 d . . . . .
O2 O 0.4228(5) 0.1688(2) 0.96495(8) 0.0319(4) Uani 1 1 d . . . . .
O3 O 0.5387(5) 0.0781(2) 0.86887(8) 0.0285(4) Uani 1 1 d . . . . .
O4 O 0.8866(7) -0.2078(3) 0.51688(10) 0.0535(6) Uani 1 1 d . . . . .
O5 O 0.8112(9) -0.3987(3) 0.58830(15) 0.0802(11) Uani 1 1 d . . . . .
loop_
_atom_site_aniso_label
_atom_site_aniso_U_11
_atom_site_aniso_U_22
_atom_site_aniso_U_33
_atom_site_aniso_U_23
_atom_site_aniso_U_13
_atom_site_aniso_U_12
B1 0.0224(12) 0.0157(11) 0.0234(13) 0.0007(10) -0.0004(9) 0.0032(9)
C1 0.0191(10) 0.0139(10) 0.0212(10) -0.0027(9) 0.0032(8) 0.0012(8)
C2 0.0246(11) 0.0156(10) 0.0240(11) 0.0051(9) 0.0021(8) 0.0059(8)
C3 0.0268(11) 0.0233(11) 0.0173(11) 0.0035(9) 0.0025(9) 0.0047(9)
C4 0.0189(10) 0.0173(10) 0.0203(11) -0.0019(9) 0.0008(8) 0.0020(8)
C5 0.0169(9) 0.0133(9) 0.0199(10) -0.0001(8) 0.0006(8) 0.0013(7)
C6 0.0212(10) 0.0160(10) 0.0159(11) 0.0011(8) 0.0009(8) 0.0005(7)
C7 0.0239(11) 0.0221(11) 0.0191(11) -0.0027(9) 0.0010(8) 0.0026(9)
C8 0.0394(14) 0.0225(11) 0.0207(11) 0.0006(10) 0.0023(10) 0.0014(10)
C9 0.0338(13) 0.0320(13) 0.0174(11) -0.0024(10) 0.0057(9) -0.0018(11)
C10 0.0236(11) 0.0256(12) 0.0242(12) -0.0095(10) 0.0024(8) -0.0002(9)
C11 0.0285(12) 0.0212(11) 0.0265(12) -0.0026(9) 0.0022(9) -0.0010(9)
C12 0.0269(11) 0.0242(11) 0.0161(11) 0.0000(9) 0.0029(8) 0.0000(9)
N1 0.0230(9) 0.0196(9) 0.0192(9) -0.0019(8) 0.0017(7) 0.0031(7)
N2 0.0315(10) 0.0234(10) 0.0197(10) -0.0014(8) 0.0022(8) 0.0064(8)
N3 0.0399(13) 0.0315(12) 0.0407(14) -0.0162(10) 0.0109(10) -0.0037(10)
O1 0.0385(9) 0.0146(7) 0.0226(8) 0.0006(7) 0.0046(7) 0.0093(7)
O2 0.0532(12) 0.0226(9) 0.0201(8) 0.0018(7) 0.0036(7) 0.0164(8)
O3 0.0463(10) 0.0186(8) 0.0208(9) 0.0014(7) 0.0023(7) 0.0153(7)
O4 0.0704(15) 0.0560(14) 0.0360(11) -0.0143(11) 0.0215(11) 0.0071(12)
O5 0.129(3) 0.0280(13) 0.089(2) -0.0088(13) 0.059(2) 0.0085(14)
loop_
_atom_type_symbol
_atom_type_description
_atom_type_scat_dispersion_real
_atom_type_scat_dispersion_imag
_atom_type_scat_source
C C 0.0033 0.0016 'International Tables Vol C Tables 4.2.6.8 and 6.1.1.4'
H H 0.0000 0.0000 'International Tables Vol C Tables 4.2.6.8 and 6.1.1.4'
N N 0.0061 0.0033 'International Tables Vol C Tables 4.2.6.8 and 6.1.1.4'
O O 0.0106 0.0060 'International Tables Vol C Tables 4.2.6.8 and 6.1.1.4'
B B 0.0013 0.0007 'International Tables Vol C Tables 4.2.6.8 and 6.1.1.4'
loop_
_geom_angle_atom_site_label_1
_geom_angle_atom_site_label_2
_geom_angle_atom_site_label_3
_geom_angle
_geom_angle_site_symmetry_1
_geom_angle_site_symmetry_3
_geom_angle_publ_flag
O2 B1 O3 113.7(2) . . ?
O2 B1 C5 125.4(2) . . ?
O3 B1 C5 120.9(2) . . ?
O1 C1 C6 118.30(19) . . ?
O1 C1 C2 121.62(19) . . ?
C6 C1 C2 120.08(19) . . ?
C3 C2 C1 119.6(2) . . ?
C3 C2 H2 120.2 . . ?
C1 C2 H2 120.2 . . ?
C2 C3 C4 120.4(2) . . ?
C2 C3 H3 119.8 . . ?
C4 C3 H3 119.8 . . ?
C3 C4 N1 122.22(19) . . ?
C3 C4 C5 120.91(19) . . ?
N1 C4 C5 116.87(18) . . ?
C6 C5 C4 117.41(19) . . ?
C6 C5 B1 119.83(19) . . ?
C4 C5 B1 122.74(18) . . ?
C1 C6 C5 121.6(2) . . ?
C1 C6 H6 119.2 . . ?
C5 C6 H6 119.2 . . ?
C8 C7 C12 120.5(2) . . ?
C8 C7 N2 115.7(2) . . ?
C12 C7 N2 123.8(2) . . ?
C9 C8 C7 119.8(2) . . ?
C9 C8 H8 120.1 . . ?
C7 C8 H8 120.1 . . ?
C10 C9 C8 118.3(2) . . ?
C10 C9 H9 120.9 . . ?
C8 C9 H9 120.9 . . ?
C9 C10 C11 123.1(2) . . ?
C9 C10 N3 118.4(2) . . ?
C11 C10 N3 118.6(2) . . ?
C12 C11 C10 118.4(2) . . ?
C12 C11 H11 120.8 . . ?
C10 C11 H11 120.8 . . ?
C11 C12 C7 119.8(2) . . ?
C11 C12 H12 120.1 . . ?
C7 C12 H12 120.1 . . ?
N2 N1 C4 116.17(18) . . ?
N1 N2 C7 113.39(18) . . ?
O4 N3 O5 123.8(2) . . ?
O4 N3 C10 118.5(2) . . ?
O5 N3 C10 117.6(2) . . ?
C1 O1 H1O 107(2) . . ?
B1 O2 H2O 120(2) . . ?
B1 O3 H3O 112(2) . . ?
loop_
_geom_bond_atom_site_label_1
_geom_bond_atom_site_label_2
_geom_bond_distance
_geom_bond_site_symmetry_2
_geom_bond_publ_flag
B1 O2 1.335(3) . ?
B1 O3 1.367(3) . ?
B1 C5 1.591(3) . ?
C1 O1 1.355(3) . ?
C1 C6 1.392(3) . ?
C1 C2 1.400(3) . ?
C2 C3 1.376(3) . ?
C2 H2 0.9500 . ?
C3 C4 1.398(3) . ?
C3 H3 0.9500 . ?
C4 N1 1.416(3) . ?
C4 C5 1.417(3) . ?
C5 C6 1.393(3) . ?
C6 H6 0.9500 . ?
C7 C8 1.393(3) . ?
C7 C12 1.401(3) . ?
C7 N2 1.424(3) . ?
C8 C9 1.388(3) . ?
C8 H8 0.9500 . ?
C9 C10 1.378(4) . ?
C9 H9 0.9500 . ?
C10 C11 1.386(3) . ?
C10 N3 1.474(3) . ?
C11 C12 1.378(3) . ?
C11 H11 0.9500 . ?
C12 H12 0.9500 . ?
N1 N2 1.258(3) . ?
N3 O4 1.209(3) . ?
N3 O5 1.220(4) . ?
O1 H1O 0.85(3) . ?
O2 H2O 0.78(3) . ?
O3 H3O 0.84(3) . ?
loop_
_geom_hbond_atom_site_label_D
_geom_hbond_atom_site_label_H
_geom_hbond_atom_site_label_A
_geom_hbond_distance_DH
_geom_hbond_distance_HA
_geom_hbond_distance_DA
_geom_hbond_angle_DHA
_geom_hbond_site_symmetry_A
_geom_hbond_publ_flag
O3 H3O N1 0.84(3) 1.94(3) 2.655(3) 143(3) . yes
O2 H2O O1 0.78(3) 2.05(3) 2.778(3) 155(3) 2_547 yes
O1 H1O O3 0.85(3) 1.85(3) 2.697(2) 174(3) 1_465 yes
C9 H9 O4 0.95 2.54 3.365(3) 145.9 2_756 yes
C8 H8 O5 0.95 2.45 3.314(4) 150.8 1_565 yes
C6 H6 O2 0.95 2.65 3.311(3) 127.2 2_657 yes
O3 H3O N1 0.84(3) 1.94(3) 2.655(3) 143(3) . yes
O2 H2O O1 0.78(3) 2.05(3) 2.778(3) 155(3) 2_547 yes
O1 H1O O3 0.85(3) 1.85(3) 2.697(2) 174(3) 1_465 yes
C9 H9 O4 0.95 2.54 3.365(3) 145.9 2_756 yes
C8 H8 O5 0.95 2.45 3.314(4) 150.8 1_565 yes
C6 H6 O2 0.95 2.65 3.311(3) 127.2 2_657 yes
loop_
_geom_torsion_atom_site_label_1
_geom_torsion_atom_site_label_2
_geom_torsion_atom_site_label_3
_geom_torsion_atom_site_label_4
_geom_torsion
_geom_torsion_site_symmetry_1
_geom_torsion_site_symmetry_2
_geom_torsion_site_symmetry_3
_geom_torsion_site_symmetry_4
_geom_torsion_publ_flag
O1 C1 C2 C3 179.9(2) . . . . ?
C6 C1 C2 C3 0.4(3) . . . . ?
C1 C2 C3 C4 -0.7(3) . . . . ?
C2 C3 C4 N1 -179.1(2) . . . . ?
C2 C3 C4 C5 0.5(3) . . . . ?
C3 C4 C5 C6 -0.1(3) . . . . ?
N1 C4 C5 C6 179.53(18) . . . . ?
C3 C4 C5 B1 -178.3(2) . . . . ?
N1 C4 C5 B1 1.3(3) . . . . ?
O2 B1 C5 C6 5.0(3) . . . . ?
O3 B1 C5 C6 -173.6(2) . . . . ?
O2 B1 C5 C4 -176.8(2) . . . . ?
O3 B1 C5 C4 4.6(3) . . . . ?
O1 C1 C6 C5 -179.56(19) . . . . ?
C2 C1 C6 C5 0.0(3) . . . . ?
C4 C5 C6 C1 -0.1(3) . . . . ?
B1 C5 C6 C1 178.1(2) . . . . ?
C12 C7 C8 C9 -2.9(4) . . . . ?
N2 C7 C8 C9 178.9(2) . . . . ?
C7 C8 C9 C10 0.8(4) . . . . ?
C8 C9 C10 C11 2.0(4) . . . . ?
C8 C9 C10 N3 -177.3(2) . . . . ?
C9 C10 C11 C12 -2.5(4) . . . . ?
N3 C10 C11 C12 176.8(2) . . . . ?
C10 C11 C12 C7 0.3(4) . . . . ?
C8 C7 C12 C11 2.3(4) . . . . ?
N2 C7 C12 C11 -179.6(2) . . . . ?
C3 C4 N1 N2 4.9(3) . . . . ?
C5 C4 N1 N2 -174.7(2) . . . . ?
C4 N1 N2 C7 -178.54(18) . . . . ?
C8 C7 N2 N1 -158.6(2) . . . . ?
C12 C7 N2 N1 23.2(3) . . . . ?
C9 C10 N3 O4 -2.2(4) . . . . ?
C11 C10 N3 O4 178.5(2) . . . . ?
C9 C10 N3 O5 174.2(3) . . . . ?
C11 C10 N3 O5 -5.1(4) . . . . ?
