#------------------------------------------------------------------------------
#$Date: 2020-05-17 02:28:34 +0300 (Sun, 17 May 2020) $
#$Revision: 252115 $
#$URL: file:///home/coder/svn-repositories/cod/cif/4/03/83/4038371.cif $
#------------------------------------------------------------------------------
#
# This file is available in the Crystallography Open Database (COD),
# http://www.crystallography.net/
#
# All data on this site have been placed in the public domain by the
# contributors.
#
data_4038371
loop_
_publ_author_name
'Schoemaker, Robin'
'Schwedtmann, Kai'
'Hennersdorf, Felix'
'Bauz\'a, Antonio'
'Frontera, Antonio'
'Weigand, Jan J.'
_publ_section_title
;
 Toward N,P-Doped \p-Extended PAHs: A One-Pot Synthesis to Diannulated
 1,4,2-Diazaphospholium Triflate Salts.
;
_journal_name_full               'The Journal of organic chemistry'
_journal_paper_doi               10.1021/acs.joc.0c00577
_journal_year                    2020
_chemical_absolute_configuration ad
_chemical_formula_moiety         'C10 H8 Cl4 N2 P, C F3 O3 S'
_chemical_formula_sum            'C11 H8 Cl4 F3 N2 O3 P S'
_chemical_formula_weight         478.02
_space_group_crystal_system      monoclinic
_space_group_IT_number           7
_space_group_name_Hall           'P -2yac'
_space_group_name_H-M_alt        'P 1 n 1'
_atom_sites_solution_hydrogens   geom
_audit_creation_date             2016-02-26
_audit_creation_method
;
Olex2 1.2
(compiled 2015.09.30 svn.r3233 for OlexSys, GUI svn.r5103)
;
_cell_angle_alpha                90
_cell_angle_beta                 109.4015(14)
_cell_angle_gamma                90
_cell_formula_units_Z            2
_cell_length_a                   9.33396(12)
_cell_length_b                   8.28139(10)
_cell_length_c                   11.25557(14)
_cell_measurement_reflns_used    11804
_cell_measurement_temperature    100.01(10)
_cell_measurement_theta_max      76.0980
_cell_measurement_theta_min      4.1600
_cell_volume                     820.629(19)
_computing_cell_refinement       'CrysAlisPro 1.171.38.41 (Rigaku OD, 2015)'
_computing_data_collection       'CrysAlisPro 1.171.38.41 (Rigaku OD, 2015)'
_computing_data_reduction        'CrysAlisPro 1.171.38.41 (Rigaku OD, 2015)'
_computing_molecular_graphics    'Olex2 (Dolomanov et al., 2009)'
_computing_publication_material  'Olex2 (Dolomanov et al., 2009)'
_computing_structure_refinement  'ShelXL (Sheldrick, 2015)'
_computing_structure_solution    'ShelXT (Sheldrick, 2015)'
_diffrn_ambient_environment      N~2~
_diffrn_ambient_temperature      100.01(10)
_diffrn_detector                 'CCD plate'
_diffrn_detector_area_resol_mean 5.2850
_diffrn_detector_type            AtlasS2
_diffrn_measured_fraction_theta_full 1.000
_diffrn_measured_fraction_theta_max 0.998
_diffrn_measurement_details
;
List of Runs (angles in degrees, time in seconds):

  # Type    Start    End  Width  t~exp~   \w     \q     \k     \f   Frames
--------------------------------------------------------------------------
  1  \w    -47.00 -17.00   0.50    1.00    --  -38.50 -57.00 -30.00   60
  2  \w    -65.00 -16.00   0.50    1.00    --  -38.50 -38.00-180.00   98
  3  \w      2.00  74.00   0.50    1.00    --   42.50 -99.00-180.00  144
  4  \w     58.00  98.00   0.50    4.00    --  111.00 -61.00-180.00   80
  5  \w    105.00 137.00   0.50    4.00    --  111.00 -61.00-180.00   64
  6  \w    111.00 136.00   0.50    4.00    --  111.00 -61.00-120.00   50
  7  \w     86.00 116.00   0.50    4.00    --  111.00-125.00 -30.00   60
  8  \w     80.00 109.00   0.50    4.00    --  111.00 -94.00-150.00   58
  9  \w     46.00  91.00   0.50    4.00    --  111.00 -94.00-180.00   90
 10  \w     40.00 120.00   0.50    4.00    --  111.00-125.00-180.00  160
 11  \w     41.00  70.00   0.50    4.00    --  111.00 -61.00-120.00   58
 12  \w     37.00  65.00   0.50    4.00    --  111.00 -94.00-150.00   56
 13  \w     32.00 100.00   0.50    4.00    --  111.00 -94.00 -30.00  136
 14  \w     52.00  77.00   0.50    4.00    --  111.00 -94.00  90.00   50
 15  \w     93.00 121.00   0.50    4.00    --  111.00-125.00 150.00   56
 16  \w     41.00  85.00   0.50    4.00    --  111.00-125.00 150.00   88
 17  \w     32.00 106.00   0.50    4.00    --  111.00 -94.00  30.00  148
 18  \w     24.00  84.00   0.50    1.00    --   42.50-125.00   0.00  120
 19  \w    -27.00  65.00   0.50    1.00    --   42.50 -57.00  30.00  184
 20  \w     86.00 163.00   0.50    4.00    --  111.00  61.00 -90.00  154
 21  \w    127.00 156.00   0.50    4.00    --  111.00  61.00-120.00   58
 22  \w    142.00 178.00   0.50    4.00    --  111.00  77.00-180.00   72
 23  \w     88.00 136.00   0.50    1.00    --   62.00  77.00 -94.72   96
 24  \w     84.00 109.00   0.50    4.00    --  111.00  61.00-120.00   50
 25  \w     81.00 108.00   0.50    4.00    --  111.00  77.00-120.00   54
 26  \w     80.00 175.00   0.50    4.00    --  111.00  77.00-150.00  190
 27  \w    128.00 175.00   0.50    4.00    --  111.00  61.00   0.00   94
 28  \w    122.00 169.00   0.50    4.00    --  111.00  77.00  30.00   94
 29  \w    127.00 161.00   0.50    4.00    --  111.00  61.00  60.00   68
 30  \w    103.00 130.00   0.50    1.00    --   62.00  76.00 106.13   54
 31  \w     81.00 147.00   0.50    1.00    --   74.00  77.00  18.64  132
 32  \w     87.00 120.00   0.50    4.00    --  111.00  61.00 -60.00   66
 33  \w     82.00 166.00   0.50    4.00    --  111.00  77.00 -60.00  168
 34  \w     83.00 112.00   0.50    4.00    --  111.00  61.00  90.00   58
 35  \w     84.00 122.00   0.50    4.00    --  111.00  61.00  60.00   76
 36  \w     84.00 136.00   0.50    4.00    --  111.00  61.00  30.00  104
 37  \w     83.00 116.00   0.50    4.00    --  111.00  61.00   0.00   66
 38  \w     81.00 108.00   0.50    4.00    --  111.00  77.00  60.00   54
 39  \w     80.00 151.00   0.50    4.00    --  111.00  77.00  90.00  142
 40  \w     84.00 128.00   0.50    4.00    --  111.00  61.00 150.00   88
 41  \w     82.00 174.00   0.50    4.00    --  111.00  77.00 150.00  184
 42  \w     83.00 178.00   0.50    4.00    --  111.00  61.00 120.00  190
 43  \w     80.00 106.00   0.50    4.00    --  111.00  77.00  30.00   52
 44  \w     80.00 178.00   0.50    4.00    --  111.00  77.00 -30.00  196
 45  \w     85.00 110.00   0.50    4.00    --  111.00  61.00-180.00   50
 46  \w     81.00 141.00   0.50    4.00    --  111.00  77.00-180.00  120
 47  \w     80.00 108.00   0.50    4.00    --  111.00  77.00 -90.00   56
 48  \w     43.00  76.00   0.50    1.00    --   74.00  77.00  18.64   66
 49  \w     38.00  65.00   0.50    1.00    --   66.00  74.00  62.90   54
 50  \w     32.00  61.00   0.50    1.00    --   62.00  76.00 106.13   58
 51  \w     29.00  57.00   0.50    1.00    --   58.00  77.00 135.48   56
 52  \w     31.00  63.00   0.50    1.00    --   62.00  77.00 174.78   64
 53  \w     80.00 106.00   0.50    4.00    --  111.00  77.00 120.00   52
 54  \w     33.00  74.00   0.50    1.00    --   62.00  76.00  -6.53   82
 55  \w     36.00  75.00   0.50    1.00    --   66.00  76.00 -63.26   78
 56  \w     31.00  57.00   0.50    1.00    --   62.00  77.00 -94.72   52
 57  \w     23.00  48.00   0.50    1.00    --   54.00  78.00 -70.19   50
 58  \w     17.00  42.00   0.50    1.00    --   50.00  82.00 -32.96   50
 59  \w     22.00  47.00   0.50    1.00    --   54.00  78.00  19.44   50
 60  \w      6.00  31.00   0.50    1.00    --   42.00  90.00 -19.65   50
 61  \w     18.00  44.00   0.50    1.00    --   50.00  80.00-123.98   52
 62  \w     44.00  86.00   0.50    1.00    --   74.00  76.00-154.72   84
 63  \w      6.00  32.00   0.50    1.00    --   42.00  90.00-172.74   52
 64  \w   -104.00 -60.00   0.50    1.00    --  -38.50 -57.00 -30.00   88
 65  \w   -108.00 -18.00   0.50    1.00    --  -38.50 -38.00  90.00  180
 66  \w      7.00  32.00   0.50    1.00    --   42.00  87.00 104.13   50
 67  \w   -109.00 -82.00   0.50    1.00    --  -38.50 -38.00-180.00   54
;
_diffrn_measurement_device       'four-circle diffractometer'
_diffrn_measurement_device_type  'SuperNova, Dual, Cu at zero, AtlasS2'
_diffrn_measurement_method       '\w scans'
_diffrn_orient_matrix_type
'CrysAlisPro convention (1999,Acta A55,543-557)'
_diffrn_orient_matrix_UB_11      -0.1413772000
_diffrn_orient_matrix_UB_12      -0.0067946000
_diffrn_orient_matrix_UB_13      0.0415879000
_diffrn_orient_matrix_UB_21      0.0978145000
_diffrn_orient_matrix_UB_22      0.0500469000
_diffrn_orient_matrix_UB_23      0.1343116000
_diffrn_orient_matrix_UB_31      -0.0328502000
_diffrn_orient_matrix_UB_32      0.1789979000
_diffrn_orient_matrix_UB_33      -0.0358805000
_diffrn_radiation_monochromator  mirror
_diffrn_radiation_probe          x-ray
_diffrn_radiation_type           CuK\a
_diffrn_radiation_wavelength     1.54184
_diffrn_reflns_av_R_equivalents  0.0229
_diffrn_reflns_av_unetI/netI     0.0142
_diffrn_reflns_Laue_measured_fraction_full 1.000
_diffrn_reflns_Laue_measured_fraction_max 0.998
_diffrn_reflns_limit_h_max       11
_diffrn_reflns_limit_h_min       -11
_diffrn_reflns_limit_k_max       10
_diffrn_reflns_limit_k_min       -9
_diffrn_reflns_limit_l_max       14
_diffrn_reflns_limit_l_min       -14
_diffrn_reflns_number            14816
_diffrn_reflns_point_group_measured_fraction_full 1.000
_diffrn_reflns_point_group_measured_fraction_max 0.991
_diffrn_reflns_theta_full        67.684
_diffrn_reflns_theta_max         76.573
_diffrn_reflns_theta_min         5.341
_diffrn_source                   'micro-focus sealed X-ray tube'
_diffrn_source_type              'SuperNova (Cu) X-ray Source'
_exptl_absorpt_coefficient_mu    9.153
_exptl_absorpt_correction_T_max  0.633
_exptl_absorpt_correction_T_min  0.306
_exptl_absorpt_correction_type   gaussian
_exptl_absorpt_process_details
;
CrysAlisPro 1.171.38.41 (Rigaku Oxford Diffraction, 2015)
Numerical absorption correction based on gaussian integration over
			a multifaceted crystal model
Empirical absorption correction using spherical harmonics,
 implemented in SCALE3 ABSPACK scaling algorithm.
;
_exptl_crystal_colour            'clear colourless'
_exptl_crystal_colour_lustre     clear
_exptl_crystal_colour_primary    colourless
_exptl_crystal_density_diffrn    1.935
_exptl_crystal_description       block
_exptl_crystal_F_000             476
_exptl_crystal_size_max          0.188
_exptl_crystal_size_mid          0.115
_exptl_crystal_size_min          0.059
_refine_diff_density_max         0.236
_refine_diff_density_min         -0.397
_refine_diff_density_rms         0.062
_refine_ls_abs_structure_details
;
 Flack x determined using 1671 quotients [(I+)-(I-)]/[(I+)+(I-)]
 (Parsons, Flack and Wagner, Acta Cryst. B69 (2013) 249-259).
;
_refine_ls_abs_structure_Flack   -0.023(12)
_refine_ls_extinction_method     none
_refine_ls_goodness_of_fit_ref   1.092
_refine_ls_hydrogen_treatment    constr
_refine_ls_matrix_type           full
_refine_ls_number_parameters     227
_refine_ls_number_reflns         3415
_refine_ls_number_restraints     2
_refine_ls_restrained_S_all      1.092
_refine_ls_R_factor_all          0.0246
_refine_ls_R_factor_gt           0.0246
_refine_ls_shift/su_max          0.000
_refine_ls_shift/su_mean         0.000
_refine_ls_structure_factor_coef Fsqd
_refine_ls_weighting_details
'w=1/[\s^2^(Fo^2^)+(0.0115P)^2^+1.5744P] where P=(Fo^2^+2Fc^2^)/3'
_refine_ls_weighting_scheme      calc
_refine_ls_wR_factor_gt          0.0587
_refine_ls_wR_factor_ref         0.0587
_reflns_Friedel_coverage         0.981
_reflns_Friedel_fraction_full    1.000
_reflns_Friedel_fraction_max     0.984
_reflns_number_gt                3415
_reflns_number_total             3415
_reflns_threshold_expression     'I > 2\s(I)'
_cod_data_source_file            jo0c00577_si_003.cif
_cod_data_source_block           jjw0439
_cod_database_code               4038371
_chemical_oxdiff_formula         'C22 H16 Cl8 F6 N4 O6 P2 S2 '
_shelx_space_group_comment
;
The symmetry employed for this shelxl refinement is uniquely defined
by the following loop, which should always be used as a source of
symmetry information in preference to the above space-group names.
They are only intended as comments.
;
_reflns_odcompleteness_completeness 100.00
_reflns_odcompleteness_iscentric 1
_reflns_odcompleteness_theta     66.97
_olex2_refinement_description
;
1. Fixed Uiso
 At 1.2 times of:
  All C(H) groups, All C(H,H) groups
2. Shared sites
{N2A, C1B}
{C6A, N1B}
{N1A, C6B}
{C1A, N2B}
3. Uiso/Uaniso restraints and constraints
Uanis(N2A) = Uanis(C1B)
Uanis(C6A) = Uanis(N1B)
Uanis(C1A) = Uanis(N2B)
Uanis(N2A) = Uanis(C1B)
Uanis(C6A) = Uanis(N1B)
Uanis(C1A) = Uanis(N2B)
Uanis(N1A) = Uanis(C6B)
Uanis(N1A) = Uanis(C6B)
4. Others
 Sof(H10A)=Sof(H7B)=Sof(H5B)=Sof(H2B)=Sof(C1B)=Sof(C6B)=Sof(N2B)=Sof(N1B)=1-
 FVAR(1)
 Sof(N2A)=Sof(N1A)=Sof(C1A)=Sof(C6A)=Sof(H10)=Sof(H7)=Sof(H5)=Sof(H2)=FVAR(1)
5.a Aromatic/amide H refined with riding coordinates:
 C8(H8), C10(H10), C10(H10A), C7(H7), C7(H7B), C9(H9), C5(H5), C5(H5B), C4(H4),
  C2(H2), C2(H2B), C3(H3)
;
_shelx_res_file
;
    jjw0439.res created by SHELXL-2014/7

TITL jjw0439_a.res in Pn
REM Old TITL jjw0439 in Pn #7
REM SHELXT solution in Pn
REM R1 0.052, Rweak 0.215, Alpha 0.005, Orientation as input
REM Flack x = -0.076 ( 0.011 ) from Parsons' quotients
REM Formula found by SHELXT: C12 N O3 F3 P S Cl4
CELL 1.54184 9.333958 8.281394 11.255569 90 109.4015 90
ZERR 2 0.000121 0.000098 0.000142 0 0.0014 0
LATT -1
SYMM 0.5+X,-Y,0.5+Z
SFAC C H Cl F N O P S
UNIT 22 16 8 6 4 6 2 2
EADP N2A C1B
EADP C6A N1B
EADP C1A N2B
EADP N2A C1B
EADP C6A N1B
EADP C1A N2B
EADP N1A C6B
EADP N1A C6B
EXYZ N2A C1B
EXYZ C6A N1B
EXYZ N1A C6B
EXYZ C1A N2B

L.S. 10
PLAN  20
BOND $H
LIST 6
MORE -1
CONF
fmap 2
ACTA
REM <olex2.extras>
REM <HklSrc "%.\\jjw0439.hkl">
REM </olex2.extras>

WGHT    0.011500    1.574400
FVAR       0.90182   0.68137
CL4   3    0.767258    0.832040    0.545763    11.00000    0.01123    0.02035 =
         0.01594    0.00198    0.00145    0.00219
CL2   3    0.506583    0.904170    0.642959    11.00000    0.01633    0.02687 =
         0.01194   -0.00293    0.00405   -0.00134
CL3   3    0.316527    1.011225    0.380010    11.00000    0.01171    0.01778 =
         0.01747    0.00145    0.00207    0.00238
P1    7    0.544911    0.929576    0.470991    11.00000    0.01029    0.01257 =
         0.01181   -0.00037    0.00140    0.00011
CL1   3    0.624553    1.166878    0.517258    11.00000    0.01823    0.01286 =
         0.02688   -0.00384    0.00383   -0.00212
S1    8   -0.155901    0.462545    0.316458    11.00000    0.03039    0.01855 =
         0.01622   -0.00450    0.00851   -0.00512
F5    4    0.061599    0.664247    0.433005    11.00000    0.02338    0.03317 =
         0.02119   -0.00645   -0.00066   -0.00480
F7    4   -0.129792    0.776520    0.295871    11.00000    0.02921    0.02009 =
         0.03985    0.01189    0.01693    0.00936
F6    4    0.027904    0.636269    0.235641    11.00000    0.02829    0.03505 =
         0.02644    0.00081    0.01652    0.00203
O1    6   -0.215504    0.484347    0.418374    11.00000    0.03837    0.02444 =
         0.02236   -0.00078    0.01677   -0.00454
PART 1
N2A   5    0.469024    0.715537    0.417341    21.00000    0.01120    0.01330 =
         0.01088    0.00110    0.00188   -0.00035

PART 0
O2    6   -0.044363    0.335676    0.337059    11.00000    0.06560    0.01731 =
         0.04369   -0.00159    0.03041    0.00796
O3    6   -0.267555    0.467472    0.191878    11.00000    0.03924    0.05761 =
         0.02003   -0.00662    0.00306   -0.02127

PART 1
N1A   5    0.517434    0.804358    0.239407    21.00000    0.01161    0.01506 =
         0.01321    0.00248    0.00438    0.00125
C1A   1    0.570188    0.936746    0.310776    21.00000    0.00986    0.01570 =
         0.01470    0.00468    0.00183    0.00250
C6A   1    0.458072    0.681550    0.298279    21.00000    0.01095    0.01731 =
         0.01332    0.00383    0.00354    0.00169
PART 0
C8    1    0.338769    0.432677    0.305510    11.00000    0.02197    0.01413 =
         0.02291    0.00196    0.00332   -0.00183
AFIX  43
H8    2    0.291949    0.338115    0.267210    11.00000   -1.20000
AFIX   0
C10   1    0.419044    0.606298    0.484327    11.00000    0.01768    0.01721 =
         0.01451    0.00347    0.00601    0.00137
PART 1
AFIX  43
H10   2    0.429052    0.627985    0.567775    21.00000   -1.20000
AFIX  43
PART 0
PART 2
H10A  2    0.429052    0.627985    0.567775   -21.00000   -1.20000
AFIX   0
PART 0
C7    1    0.392753    0.540811    0.238612    11.00000    0.01970    0.01784 =
         0.01600   -0.00262    0.00504    0.00209
PART 1
AFIX  43
H7    2    0.385676    0.520179    0.155632    21.00000   -1.20000
AFIX  43
PART 0
PART 2
H7B   2    0.385676    0.520179    0.155632   -21.00000   -1.20000
AFIX   0
PART 0
C9    1    0.353602    0.463540    0.430006    11.00000    0.02023    0.01343 =
         0.02230    0.00426    0.00715   -0.00083
AFIX  43
H9    2    0.319768    0.388743    0.476346    11.00000   -1.20000
AFIX   0
C5    1    0.520212    0.788584    0.118633    11.00000    0.01712    0.02469 =
         0.01508    0.00154    0.00754    0.00427
PART 1
AFIX  43
H5    2    0.483117    0.695860    0.071933    21.00000   -1.20000
AFIX  43
PART 0
PART 2
H5B   2    0.483117    0.695860    0.071933   -21.00000   -1.20000
AFIX   0
PART 0
C4    1    0.579411    0.913719    0.068218    11.00000    0.01882    0.03271 =
         0.01750    0.00994    0.00827    0.00744
AFIX  43
H4    2    0.580598    0.907217   -0.013937    11.00000   -1.20000
AFIX   0

C11   1   -0.043098    0.643660    0.320672    11.00000    0.01811    0.02166 =
         0.01376    0.00050    0.00414    0.00584
C2    1    0.631837    1.060301    0.262222    11.00000    0.01392    0.01639 =
         0.02462    0.00278    0.00613    0.00013
PART 1
AFIX  43
H2    2    0.670113    1.151513    0.310541    21.00000   -1.20000
AFIX  43
PART 0
PART 2
H2B   2    0.670113    1.151513    0.310541   -21.00000   -1.20000
AFIX   0
PART 0
C3    1    0.636706    1.048277    0.140530    11.00000    0.01313    0.02877 =
         0.02503    0.01356    0.00736    0.00523
AFIX  43
H3    2    0.678896    1.131549    0.107608    11.00000   -1.20000
AFIX   0

PART 2
C1B   1    0.469024    0.715537    0.417341   -21.00000    0.01120    0.01330 =
         0.01088    0.00110    0.00188   -0.00035

C6B   1    0.517434    0.804358    0.239407   -21.00000    0.01161    0.01506 =
         0.01321    0.00248    0.00438    0.00125
N2B   5    0.570188    0.936746    0.310776   -21.00000    0.00986    0.01570 =
         0.01470    0.00468    0.00183    0.00250
N1B   5    0.458072    0.681550    0.298279   -21.00000    0.01095    0.01731 =
         0.01332    0.00383    0.00354    0.00169
HKLF 4

REM  jjw0439_a.res in Pn
REM R1 =  0.0246 for    3415 Fo > 4sig(Fo)  and  0.0246 for all    3415 data
REM    227 parameters refined using      2 restraints

END

WGHT      0.0115      1.5745

REM Highest difference peak  0.236,  deepest hole -0.397,  1-sigma level  0.062
Q1    1   0.0557  0.5715  0.4575  11.00000  0.05    0.24
Q2    1  -0.2710  0.6525  0.3747  11.00000  0.05    0.24
Q3    1   0.3261  0.7009  0.5359  11.00000  0.05    0.22
Q4    1   0.4794  0.6311  0.4573  11.00000  0.05    0.22
Q5    1   0.4238  0.8246  0.6951  11.00000  0.05    0.22
Q6    1   0.0248  0.1829  0.3549  11.00000  0.05    0.22
Q7    1   0.4748  0.7900  0.6051  11.00000  0.05    0.21
Q8    1   0.6695  0.7471  0.5736  11.00000  0.05    0.21
Q9    1   0.6712  1.2003  0.3643  11.00000  0.05    0.21
Q10   1   0.7504  1.0807  0.5971  11.00000  0.05    0.20
Q11   1   0.7337  0.7566  0.5243  11.00000  0.05    0.20
Q12   1   0.1081  0.3915  0.4019  11.00000  0.05    0.20
Q13   1   0.7916  1.2544  0.4252  11.00000  0.05    0.20
Q14   1   0.4768  0.6214  0.7040  11.00000  0.05    0.19
Q15   1   0.6638  0.9137  0.6792  11.00000  0.05    0.19
Q16   1  -0.0969  0.3902  0.3478  11.00000  0.05    0.19
Q17   1   0.4399  0.3585  0.0601  11.00000  0.05    0.19
Q18   1   0.5091  0.8299  0.4320  11.00000  0.05    0.19
Q19   1   0.2770  1.1082  0.2344  11.00000  0.05    0.19
Q20   1   0.2429  1.0965  0.4357  11.00000  0.05    0.19
;
_shelx_res_checksum              21007
_shelx_hkl_file
;
 -11   0   0    0.80    0.32
 -11   0   1  225.38    4.81
 -11   0   2    0.56    0.39
 -11   0   3  701.39    9.32
 -11   0   4    3.35    0.74
 -11   0   4    3.47    0.68
 -11   0   5  425.45    7.16
 -11   0   5  412.75    6.78
 -11   0   6    0.68    0.35
 -11   0   6    0.22    0.37
 -11   0   7  284.12    5.74
 -11   0   8    0.28    0.32
 -11   0   9   91.83    2.50
 -11  -1   0  219.16    3.98
 -11   1   1   17.02    1.32
 -11  -1   1   21.26    1.45
 -11  -1   2  381.29    6.39
 -11   1   2  392.08    6.73
 -11  -1   3   80.19    3.00
 -11   1   3   85.48    3.28
 -11   1   4  285.29    6.00
 -11  -1   4  284.58    5.52
 -11  -1   4  278.92    5.48
 -11  -1   5  351.47    5.63
 -11   1   5  357.35    6.45
 -11   1   5  358.43    6.31
 -11   1   6  110.66    3.31
 -11  -1   6  108.65    3.63
 -11   1   6  115.38    3.67
 -11   1   7   96.86    3.28
 -11  -1   7  104.88    3.42
 -11  -1   8  126.84    3.40
 -11   1   8  126.77    3.45
 -11   2   1  109.03    2.92
 -11  -2   1  120.11    3.06
 -11  -2   2  684.08    7.69
 -11   2   2  662.74    8.19
 -11   2   3  399.41    6.74
 -11  -2   3  385.90    6.15
 -11   2   4  496.29    6.65
 -11  -2   4  519.75    7.10
 -11  -2   4  540.53    7.67
 -11  -2   4  500.87    6.22
 -11   2   4  553.74    8.05
 -11   2   5  290.42    5.68
 -11   2   5  273.58    4.95
 -11   2   6  156.04    3.85
 -11   2   6  165.73    4.02
 -11  -2   6  164.92    4.21
 -11   2   7  301.20    5.30
 -11  -2   7  331.68    5.63
 -11   2   8  176.72    3.72
 -11  -2   8  173.22    3.57
 -11   3   2   84.14    2.47
 -11  -3   3   69.48    2.34
 -11   3   3   69.79    2.51
 -11  -3   4  155.50    3.69
 -11   3   4  145.53    3.72
 -11  -3   4  152.50    3.41
 -11   3   5   10.32    0.90
 -11  -3   5   13.49    1.09
 -11  -3   6   70.89    2.41
 -11   3   6   50.31    2.01
 -11   3   7   30.94    1.48
 -11  -3   7   41.41    1.69
 -10   0  -2  109.98    3.02
 -10   0  -2  119.07    3.43
 -10   0  -1    1.57    0.47
 -10   0  -1    3.22    0.74
 -10   0   0  421.93    8.39
 -10   0   1    1.02    0.59
 -10   0   2  339.57    8.14
 -10   0   2  322.48    6.95
 -10   0   2  315.68    7.28
 -10   0   3    3.44    0.94
 -10   0   3    5.96    1.22
 -10   0   3    3.53    0.91
 -10   0   4 1038.94   14.23
 -10   0   4 1032.80   14.26
 -10   0   4 1071.73   14.40
 -10   0   5    3.61    0.94
 -10   0   5    4.86    1.11
 -10   0   6   38.32    2.52
 -10   0   6   37.92    2.80
 -10   0   7    5.84    1.24
 -10   0   8 1075.06   13.33
 -10   0   8 1020.74   10.98
 -10   0   9    1.89    0.60
 -10   0   9    1.37    0.49
 -10   0  10  107.22    3.15
 -10   0  10  101.69    3.00
 -10   1  -2   17.32    1.22
 -10   1  -2   17.90    1.25
 -10  -1  -2   19.74    1.43
 -10   1  -1  240.99    5.05
 -10   1  -1  252.44    5.72
 -10  -1  -1  250.87    5.85
 -10  -1   0  204.05    5.74
 -10   1   0  198.09    4.77
 -10   1   0  197.57    5.67
 -10  -1   1  445.83    8.87
 -10  -1   1  424.52    7.88
 -10   1   1  420.05    8.85
 -10   1   2  541.90   10.32
 -10  -1   2  544.95   10.10
 -10  -1   2  520.13    8.90
 -10  -1   2  532.37    9.61
 -10   1   3  239.61    6.37
 -10  -1   3  214.47    6.16
 -10  -1   3  223.67    6.51
 -10   1   3  247.26    7.10
 -10  -1   3  216.38    6.42
 -10  -1   4 1421.15   15.87
 -10  -1   4 1424.81   16.72
 -10  -1   4 1388.17   16.33
 -10   1   4 1398.63   16.82
 -10  -1   5  330.00    7.31
 -10  -1   5  340.22    8.18
 -10  -1   5  345.16    8.28
 -10   1   5  359.54    8.25
 -10   1   5  351.31    8.35
 -10  -1   5  323.37    6.91
 -10   1   5  340.12    6.83
 -10   1   6   60.08    3.46
 -10  -1   6   48.69    3.10
 -10  -1   6   47.32    3.02
 -10   1   6   57.80    3.17
 -10   1   7   90.24    3.59
 -10   1   7   97.14    4.26
 -10  -1   7   86.51    3.98
 -10   1   8  119.79    4.44
 -10  -1   8  114.25    4.27
 -10  -1   9  326.50    6.02
 -10  -1   9  339.83    6.55
 -10   1   9  335.23    6.71
 -10  -1  10  138.44    3.51
 -10  -1  10  134.31    3.27
 -10   1  10  140.55    3.61
 -10  -2  -2   81.05    2.68
 -10   2  -2   77.49    2.38
 -10   2  -1   58.79    2.40
 -10   2  -1   59.76    2.55
 -10  -2  -1   67.10    2.87
 -10  -2   0  241.52    5.93
 -10   2   0  230.35    5.77
 -10  -2   0  238.19    5.06
 -10   2   1  265.52    5.49
 -10  -2   1  265.66    6.54
 -10   2   1  270.16    6.80
 -10  -2   1  254.91    6.06
 -10  -2   2  137.65    4.81
 -10   2   2  120.27    3.98
 -10  -2   2  134.53    4.75
 -10  -2   2  124.42    4.24
 -10   2   2  131.35    5.02
 -10  -2   3  736.52   10.97
 -10  -2   3  724.91   11.43
 -10  -2   3  713.15   10.91
 -10   2   3  722.82   10.13
 -10   2   3  721.12   10.32
 -10  -2   4  156.67    4.61
 -10  -2   4  155.15    5.30
 -10  -2   4  158.23    4.92
 -10  -2   4  163.65    5.55
 -10   2   4  148.65    5.38
 -10  -2   5  450.90    9.11
 -10   2   5  455.57    8.24
 -10  -2   5  422.40    7.49
 -10   2   5  438.00    8.93
 -10   2   5  451.27    9.19
 -10  -2   5  426.28    7.98
 -10  -2   5  453.00    9.14
 -10   2   6  182.07    5.78
 -10  -2   6  180.45    5.29
 -10  -2   6  192.70    5.78
 -10   2   6  177.99    5.08
 -10  -2   6  186.87    5.78
 -10   2   6  182.91    5.57
 -10  -2   7  173.36    4.62
 -10  -2   7  171.75    5.09
 -10   2   7  176.84    5.54
 -10  -2   7  180.72    5.46
 -10   2   7  171.41    4.99
 -10  -2   8  326.37    6.24
 -10  -2   8  345.87    6.97
 -10   2   8  347.97    7.29
 -10  -2   9  152.64    4.01
 -10   2   9  160.71    4.49
 -10  -2   9  149.68    3.93
 -10  -2  10  175.92    3.71
 -10   2  10  162.42    3.66
 -10  -3  -1  152.89    3.86
 -10   3  -1  117.57    2.99
 -10   3   0    6.79    0.95
 -10  -3   0    9.44    1.10
 -10  -3   0    9.08    0.97
 -10   3   0    6.27    0.80
 -10   3   1  114.02    3.62
 -10  -3   1  103.77    3.66
 -10   3   1  102.63    3.86
 -10  -3   1  104.83    3.73
 -10   3   1  101.34    3.11
 -10  -3   2   34.28    2.30
 -10   3   2   34.33    2.42
 -10  -3   2   34.28    2.12
 -10   3   2   37.82    2.24
 -10  -3   2   33.94    2.19
 -10  -3   3  267.33    5.90
 -10  -3   3  265.41    6.33
 -10   3   3  291.32    6.37
 -10   3   3  285.73    7.16
 -10  -3   3  276.46    6.67
 -10   3   3  269.20    6.21
 -10  -3   4  260.68    6.53
 -10  -3   4  250.54    5.68
 -10   3   4  263.12    6.19
 -10   3   4  241.69    5.84
 -10   3   4  255.84    6.76
 -10  -3   4  250.21    6.39
 -10  -3   4  244.28    5.27
 -10  -3   5  112.69    4.28
 -10   3   5  101.41    4.22
 -10   3   5   95.32    3.87
 -10  -3   5  103.55    3.81
 -10  -3   5  110.30    4.23
 -10   3   5   97.03    3.75
 -10  -3   6  746.61   10.71
 -10   3   6  727.72   10.01
 -10  -3   6  706.78    9.95
 -10   3   6  723.55   10.72
 -10  -3   6  723.34   10.29
 -10   3   6  701.82   10.67
 -10  -3   7    6.28    0.89
 -10  -3   7    5.78    0.99
 -10  -3   7    7.84    1.11
 -10   3   7    7.67    1.16
 -10  -3   8    5.47    0.83
 -10  -3   8    4.39    0.72
 -10   3   8    5.57    0.94
 -10   3   8    5.04    0.89
 -10  -3   9  282.30    4.87
 -10   3   9  285.41    5.16
 -10  -4   0   22.43    1.36
 -10  -4   0   21.08    1.22
 -10  -4   1   22.28    1.43
 -10   4   1   19.03    1.42
 -10   4   1   20.57    1.42
 -10  -4   1   23.55    1.57
 -10  -4   2   46.34    2.05
 -10  -4   2   49.08    2.23
 -10   4   2   46.03    2.45
 -10   4   2   55.21    2.48
 -10  -4   2   51.78    2.51
 -10   4   3  124.90    4.25
 -10  -4   3  123.35    3.89
 -10   4   3  131.98    3.98
 -10  -4   3  121.47    3.31
 -10   4   3  115.86    3.36
 -10  -4   3  130.82    4.15
 -10  -4   4  228.24    5.48
 -10   4   4  239.72    5.45
 -10   4   4  222.51    5.78
 -10  -4   4  221.98    4.92
 -10   4   4  219.90    5.25
 -10  -4   4  226.35    5.49
 -10   4   5    7.61    1.07
 -10  -4   5   10.04    1.17
 -10  -4   5   10.08    1.13
 -10   4   5    8.02    1.05
 -10  -4   5   10.16    1.20
 -10   4   5    7.26    0.95
 -10  -4   6  166.43    4.53
 -10   4   6  165.78    4.36
 -10   4   6  155.53    4.31
 -10  -4   6  165.42    4.36
 -10   4   6  162.92    4.65
 -10  -4   6  156.20    4.12
 -10  -4   7   84.07    2.61
 -10  -4   7   92.92    3.13
 -10  -4   7   93.82    3.15
 -10   4   7  104.99    3.59
 -10   4   7  103.88    3.43
 -10  -4   8    3.60    0.54
 -10  -4   8    3.53    0.54
 -10   4   8    6.63    0.83
 -10   4   8    5.70    0.78
 -10   5   2  316.80    4.91
 -10  -5   2  376.00    5.45
 -10  -5   3   51.27    2.04
 -10  -5   3   57.03    2.25
 -10   5   4    5.66    0.75
 -10  -5   4    4.19    0.66
 -10  -5   4    4.63    0.63
 -10  -5   4    4.34    0.67
 -10  -5   5   62.48    2.19
 -10   5   5   74.97    2.46
 -10  -5   5   70.49    2.51
 -10  -5   5   68.84    2.36
 -10   5   5   81.21    2.64
 -10  -5   6   80.30    2.48
 -10  -5   6   69.76    2.33
 -10  -5   7    2.69    0.46
  -9   0  -5   78.29    2.36
  -9   0  -4    2.72    0.68
  -9   0  -3  490.17    9.02
  -9   0  -3  484.56    8.29
  -9   0  -2    3.45    0.96
  -9   0  -2    1.16    0.65
  -9   0  -1  856.23   13.39
  -9   0  -1  845.54   13.49
  -9   0   0    3.45    1.01
  -9   0   0    2.76    1.01
  -9   0   1  842.14   14.28
  -9   0   1  858.68   13.40
  -9   0   1  811.23   13.10
  -9   0   2    0.63    0.73
  -9   0   2    1.50    0.76
  -9   0   2    0.82    0.60
  -9   0   3   54.90    3.63
  -9   0   3   51.20    3.58
  -9   0   3   52.29    3.61
  -9   0   4    0.62    0.65
  -9   0   4    1.29    0.69
  -9   0   5  797.74   12.77
  -9   0   5  842.18   13.66
  -9   0   5  829.92   14.34
  -9   0   5  829.62   14.45
  -9   0   6    8.96    1.48
  -9   0   6    7.79    1.24
  -9   0   6    7.64    1.54
  -9   0   6    6.87    1.33
  -9   0   6    9.18    1.69
  -9   0   7  731.14   12.15
  -9   0   7  753.20   13.43
  -9   0   8    9.55    1.50
  -9   0   8    8.67    1.51
  -9   0   9  379.67    8.40
  -9   0   9  364.96    8.20
  -9   0  10    4.77    0.92
  -9   0  10    4.96    1.00
  -9   0  11  619.85    8.76
  -9   0  12   14.12    1.09
  -9  -1  -4  343.41    5.55
  -9  -1  -4  349.85    6.47
  -9  -1  -3  125.19    4.26
  -9   1  -3  114.43    4.25
  -9   1  -3  111.15    4.29
  -9  -1  -3  118.60    4.33
  -9   1  -3  113.08    3.76
  -9  -1  -2  336.15    7.88
  -9   1  -2  338.19    8.14
  -9   1  -2  333.61    7.63
  -9  -1  -2  337.55    7.90
  -9   1  -1 1202.54   15.89
  -9  -1  -1 1230.02   15.61
  -9   1  -1 1206.83   16.13
  -9  -1  -1 1235.33   16.26
  -9   1   0  128.29    5.33
  -9   1   0  128.97    5.49
  -9  -1   0  128.42    5.07
  -9  -1   0  119.89    4.79
  -9  -1   0  129.39    5.50
  -9   1   1  185.71    5.98
  -9  -1   1  182.92    6.62
  -9  -1   1  182.47    5.92
  -9   1   1  178.94    6.61
  -9  -1   1  178.94   12.94
  -9  -1   1  177.19    6.19
  -9  -1   1  171.19    5.76
  -9   1   1  173.96    5.84
  -9  -1   2   95.97    4.82
  -9  -1   2   87.31    4.39
  -9  -1   2   87.61    8.97
  -9   1   2   89.46    4.39
  -9  -1   2   86.50    4.53
  -9   1   2   89.26    4.74
  -9   1   2   86.24    4.39
  -9  -1   3   73.68    4.25
  -9  -1   3   82.37    4.43
  -9   1   3   64.84    3.95
  -9   1   3   69.20    4.22
  -9   1   3   73.51    3.77
  -9  -1   3   74.29    4.16
  -9   1   3   67.37    3.99
  -9  -1   4  533.17   11.43
  -9   1   4  538.80   11.44
  -9  -1   4  537.90   10.87
  -9   1   4  539.86   11.50
  -9  -1   4  536.08   11.41
  -9   1   4  526.83   11.32
  -9   1   4  547.47   10.28
  -9  -1   4  514.85   10.17
  -9  -1   5   69.54    4.18
  -9   1   5   56.05    3.81
  -9  -1   5   64.58    4.04
  -9   1   5   58.04    3.74
  -9  -1   5   66.46    3.71
  -9   1   5   53.73    3.29
  -9  -1   5   63.45    3.73
  -9  -1   6  279.85    7.47
  -9   1   6  262.41    7.17
  -9  -1   6  288.03    8.23
  -9   1   6  268.02    7.70
  -9  -1   6  285.78    8.34
  -9   1   6  270.86    8.28
  -9  -1   6  279.96    7.86
  -9  -1   7  619.71   11.74
  -9  -1   7  611.66   11.56
  -9  -1   7  638.26   12.09
  -9   1   7  642.74   11.11
  -9   1   7  640.51   11.01
  -9   1   7  618.04   10.73
  -9   1   7  649.83   12.52
  -9  -1   7  616.23   11.26
  -9   1   8   34.36    2.80
  -9  -1   8   26.99    2.43
  -9  -1   8   24.95    2.37
  -9  -1   8   23.98    2.26
  -9   1   8   31.32    2.46
  -9   1   9   70.90    3.53
  -9  -1   9   73.43    3.61
  -9  -1   9   74.66    3.75
  -9   1   9   74.19    3.77
  -9  -1  10  123.07    3.98
  -9  -1  10  126.55    4.49
  -9   1  10  147.19    4.72
  -9   1  10  154.73    4.76
  -9   1  11  374.37    6.61
  -9  -1  11  390.40    6.87
  -9   1  12   38.58    1.68
  -9  -1  12   32.84    1.58
  -9  -2  -4  306.31    5.50
  -9  -2  -4  295.93    4.99
  -9  -2  -3   75.34    3.22
  -9  -2  -3   75.05    3.21
  -9   2  -3   72.88    3.26
  -9  -2  -2  531.37    9.68
  -9  -2  -2  528.91    9.24
  -9   2  -2  521.11    9.48
  -9   2  -2  515.77    8.90
  -9   2  -1   73.30    3.76
  -9  -2  -1   72.24    3.86
  -9  -2  -1   74.08    3.62
  -9   2  -1   75.89    3.84
  -9  -2  -1   72.77    3.36
  -9   2   0  205.54    6.35
  -9  -2   0  195.69    6.13
  -9   2   0  203.79    6.72
  -9  -2   0  202.77    5.98
  -9  -2   0  203.20    6.68
  -9  -2   1  274.92    7.71
  -9  -2   1  282.41    8.03
  -9   2   1  281.32    8.22
  -9   2   1  284.11    7.37
  -9  -2   1  275.42    7.26
  -9  -2   2  434.11    9.68
  -9  -2   2  422.29   18.99
  -9  -2   2  449.45   10.06
  -9  -2   2  443.90   10.11
  -9   2   2  459.25   10.68
  -9   2   3 1057.04   15.36
  -9  -2   3 1106.20   16.24
  -9   2   3 1088.21   16.51
  -9  -2   3 1093.27   15.89
  -9  -2   3 1114.41   15.48
  -9  -2   3 1071.15   14.25
  -9  -2   4  684.75   11.67
  -9  -2   4  654.75   11.60
  -9   2   4  704.84   12.15
  -9   2   4  687.13   13.19
  -9   2   4  694.68   12.88
  -9  -2   4  686.69   12.87
  -9  -2   4  682.81   12.82
  -9  -2   5  165.84    6.22
  -9  -2   5  161.03    5.52
  -9   2   5  185.46    6.77
  -9  -2   5  172.18    5.53
  -9   2   5  182.34    6.68
  -9   2   5  190.70    6.33
  -9  -2   5  170.66    6.41
  -9  -2   5  169.89    6.07
  -9   2   6   42.95    3.32
  -9  -2   6   39.55    2.86
  -9  -2   6   41.02    3.07
  -9  -2   6   42.19    3.08
  -9  -2   6   42.51    3.19
  -9   2   6   40.17    2.92
  -9   2   6   36.83    2.99
  -9   2   7  127.68    5.53
  -9  -2   7  136.84    5.43
  -9  -2   7  127.75    5.26
  -9   2   7  118.91    4.92
  -9  -2   7  137.29    5.28
  -9  -2   7  134.09    5.24
  -9   2   7  120.42    4.91
  -9   2   8   32.19    2.69
  -9   2   8   30.34    2.28
  -9  -2   8   36.68    2.68
  -9  -2   8   35.58    2.66
  -9  -2   8   36.57    2.77
  -9   2   9  313.12    6.97
  -9   2   9  332.97    7.76
  -9  -2   9  337.58    7.73
  -9  -2   9  325.04    7.10
  -9   2  10  100.38    3.73
  -9  -2  10  107.10    3.99
  -9  -2  10   97.95    3.18
  -9   2  10   97.82    3.62
  -9   2  11  122.45    3.02
  -9   2  11  138.96    3.72
  -9   3  -4    1.87    0.43
  -9  -3  -3  524.97    7.79
  -9   3  -3  520.06    7.97
  -9  -3  -3  505.10    7.17
  -9  -3  -2  436.18    8.20
  -9  -3  -2  422.58    7.29
  -9  -3  -1   23.89    1.85
  -9   3  -1   22.60    2.02
  -9  -3  -1   24.37    1.90
  -9   3  -1   18.15    1.77
  -9  -3  -1   26.86    2.22
  -9  -3   0   13.52    1.62
  -9   3   0   16.80    1.80
  -9   3   0   14.07    1.73
  -9   3   1  142.85    5.66
  -9   3   1  138.33    5.04
  -9  -3   1  160.15    5.72
  -9  -3   1  166.78    5.79
  -9  -3   1  151.95    5.24
  -9  -3   2  153.87    5.55
  -9  -3   2  152.84    5.77
  -9   3   2  160.57    5.26
  -9   3   2  165.59    6.27
  -9  -3   2  150.52    5.59
  -9   3   3  407.42    9.11
  -9  -3   3  439.29    9.91
  -9  -3   3  422.10    8.94
  -9   3   3  411.02   10.03
  -9  -3   3  419.49    9.63
  -9  -3   4  827.02   12.95
  -9  -3   4  846.72   13.73
  -9  -3   4  832.90   13.66
  -9   3   4  858.96   13.41
  -9  -3   4  810.07   11.65
  -9   3   4  830.91   13.63
  -9   3   4  849.98   14.43
  -9  -3   5  315.52    8.43
  -9  -3   5  318.38    8.25
  -9   3   5  304.38    8.39
  -9   3   5  308.58    8.55
  -9  -3   5  310.22    8.04
  -9   3   5  325.36    8.21
  -9  -3   5  297.06    7.43
  -9   3   6   61.52    3.79
  -9   3   6   64.02    3.80
  -9  -3   6   59.14    3.48
  -9  -3   6   57.31    3.50
  -9  -3   6   62.14    3.66
  -9   3   6   66.58    3.69
  -9  -3   6   58.21    3.38
  -9  -3   7  466.81    9.10
  -9   3   7  474.53    9.63
  -9   3   7  471.29   10.16
  -9   3   7  475.90    9.48
  -9  -3   7  489.01    9.69
  -9  -3   7  471.48    9.47
  -9  -3   7  473.36    9.67
  -9  -3   8  237.69    6.59
  -9   3   8  221.74    6.64
  -9  -3   8  234.89    6.23
  -9  -3   8  243.06    6.58
  -9   3   9  746.93   10.76
  -9  -3   9  738.54   10.72
  -9  -3   9  750.51   10.74
  -9   3   9  765.94   11.11
  -9   3  10  151.58    3.93
  -9   3  10  164.22    4.40
  -9   3  10  149.88    3.80
  -9  -3  10  150.56    4.34
  -9   3  11  151.58    3.17
  -9  -3  11  224.84    4.34
  -9  -4  -3  127.95    3.24
  -9   4  -3  122.83    3.26
  -9   4  -2  276.08    5.75
  -9  -4  -2  272.69    5.72
  -9  -4  -1  155.83    4.40
  -9  -4  -1  160.15    4.82
  -9   4  -1  147.02    4.59
  -9  -4   0  181.12    4.76
  -9  -4   0  180.94    5.41
  -9   4   0  199.85    5.64
  -9  -4   0  183.82    5.39
  -9   4   0  194.16    5.52
  -9  -4   1  486.29    9.31
  -9  -4   1  473.76    8.67
  -9  -4   1  490.54    9.01
  -9   4   1  463.72    9.42
  -9   4   1  483.47    8.82
  -9   4   2   40.32    2.52
  -9   4   2   39.43    2.90
  -9  -4   2   46.93    2.96
  -9  -4   2   49.99    3.15
  -9   4   2   37.84    2.60
  -9  -4   2   46.99    2.76
  -9   4   3  353.59    8.83
  -9   4   3  337.95    8.34
  -9  -4   3  357.25    7.25
  -9  -4   3  379.42    8.64
  -9  -4   3  363.48    8.45
  -9   4   3  337.92    7.52
  -9   4   4  214.77    6.37
  -9   4   4  226.59    7.15
  -9   4   4  229.32    6.64
  -9  -4   4  233.94    6.74
  -9  -4   4  224.41    6.71
  -9  -4   5  264.50    7.02
  -9  -4   5  256.54    6.96
  -9  -4   5  253.37    6.53
  -9   4   5  273.83    7.68
  -9   4   5  260.99    7.26
  -9   4   5  270.85    7.18
  -9  -4   5  271.00    7.30
  -9  -4   6   29.15    2.26
  -9   4   6   32.35    2.46
  -9   4   6   28.50    2.43
  -9  -4   6   28.51    2.34
  -9  -4   6   30.72    2.39
  -9  -4   6   30.25    2.27
  -9   4   7   91.70    3.90
  -9  -4   7   68.41    3.38
  -9  -4   7   71.03    3.40
  -9   4   7   83.81    3.97
  -9  -4   7   69.75    3.51
  -9   4   7   83.98    4.04
  -9  -4   7   66.90    3.02
  -9  -4   8  352.22    7.26
  -9   4   8  358.32    7.67
  -9  -4   8  353.32    7.26
  -9   4   8  365.29    7.62
  -9  -4   9  337.70    6.30
  -9   4   9  329.82    6.23
  -9  -4   9  337.27    6.50
  -9   4   9  336.52    6.63
  -9   4  10   68.29    2.42
  -9  -4  10   70.42    2.54
  -9  -5  -2  205.62    3.80
  -9   5  -2  211.82    3.93
  -9  -5  -1   59.53    2.30
  -9  -5  -1   62.00    2.44
  -9   5  -1   54.89    2.38
  -9  -5   0   27.07    1.84
  -9  -5   0   23.56    1.45
  -9   5   0   28.55    1.86
  -9  -5   0   27.33    1.76
  -9  -5   1  330.97    6.41
  -9   5   1  321.10    6.35
  -9  -5   1  329.22    6.10
  -9   5   2   77.77    3.12
  -9  -5   2   74.63    2.82
  -9  -5   2   77.31    3.40
  -9  -5   2   84.59    3.63
  -9  -5   3  147.54    4.85
  -9   5   3  153.89    4.89
  -9  -5   3  142.74    4.73
  -9  -5   4   60.63    3.07
  -9   5   4   61.67    3.13
  -9   5   4   54.90    2.77
  -9  -5   4   62.09    3.19
  -9   5   4   58.63    3.19
  -9  -5   5  261.89    5.95
  -9   5   5  241.99    6.04
  -9  -5   5  278.07    6.51
  -9  -5   5  281.86    6.61
  -9   5   5  247.29    6.54
  -9  -5   5  269.02    6.09
  -9   5   5  248.11    6.11
  -9  -5   6  375.44    7.19
  -9  -5   6  372.87    7.12
  -9   5   6  369.88    7.78
  -9  -5   6  386.40    7.49
  -9   5   6  346.56    7.25
  -9  -5   6  343.06    6.25
  -9   5   6  352.12    7.00
  -9   5   7   59.44    2.92
  -9  -5   7   53.31    2.61
  -9  -5   7   51.22    2.42
  -9  -5   7   55.37    2.70
  -9   5   7   57.19    2.85
  -9  -5   8   42.02    1.80
  -9  -5   8   53.27    2.39
  -9   5   8   35.60    2.09
  -9  -5   8   50.50    2.34
  -9   5   8   33.95    1.97
  -9  -5   9  191.85    3.94
  -9   5   9  203.47    4.15
  -9  -6   0   16.64    1.10
  -9   6   0   23.59    1.32
  -9  -6   1  267.97    4.96
  -9   6   1  274.53    4.92
  -9  -6   1  222.27    4.07
  -9  -6   2   86.72    2.93
  -9   6   2   82.22    2.88
  -9   6   3   98.17    3.22
  -9  -6   3  100.51    3.33
  -9  -6   3  104.60    3.31
  -9  -6   4   10.68    1.06
  -9   6   4   13.77    1.21
  -9   6   4   15.36    1.30
  -9  -6   4   10.95    1.15
  -9  -6   4    9.24    0.87
  -9  -6   4   11.05    1.16
  -9   6   5  799.87    9.32
  -9  -6   5  765.40    8.10
  -9  -6   5  861.39    9.39
  -9   6   5  826.27    8.89
  -9  -6   5  925.54    9.82
  -9  -6   6   17.02    1.22
  -9  -6   6   16.99    1.22
  -9   6   7  412.86    5.81
  -9  -6   7  409.99    5.46
  -8   0  -6   14.06    1.30
  -8   0  -5    3.39    0.89
  -8   0  -4  943.19   12.69
  -8   0  -4  963.01   14.49
  -8   0  -3    1.76    0.79
  -8   0  -3    0.82    0.74
  -8   0  -3    2.19    0.94
  -8   0  -2 3555.26   30.41
  -8   0  -2 3475.32   60.41
  -8   0  -2 3523.21   29.48
  -8   0  -1    2.69    1.04
  -8   0  -1    4.63    2.52
  -8   0  -1    3.36    1.15
  -8   0   0  205.11   14.81
  -8   0   0  215.70    7.41
  -8   0   0  213.78    6.90
  -8   0   0  209.25    7.44
  -8   0   1    5.08    2.51
  -8   0   1    4.42    1.18
  -8   0   1    4.09    1.09
  -8   0   1    5.14    1.26
  -8   0   1    5.28    1.26
  -8   0   2 1051.29   15.11
  -8   0   2 1019.83   16.12
  -8   0   2  989.46   15.51
  -8   0   2  990.34   30.87
  -8   0   2 1006.30   15.77
  -8   0   3    4.93    1.29
  -8   0   3    2.81    0.97
  -8   0   3    2.76    1.02
  -8   0   4  113.52    5.27
  -8   0   4  111.17    4.98
  -8   0   4  119.20    5.58
  -8   0   4  112.48    5.41
  -8   0   5    2.19    0.92
  -8   0   5    2.26    0.88
  -8   0   5    1.52    0.85
  -8   0   5    2.68    0.81
  -8   0   5    2.45    0.83
  -8   0   6  365.83    9.27
  -8   0   6  357.00    9.40
  -8   0   6  368.85    9.86
  -8   0   6  390.19    8.94
  -8   0   6  386.69    9.13
  -8   0   6  355.53    9.64
  -8   0   7    1.57    0.87
  -8   0   7    2.39    1.00
  -8   0   7    1.91    0.83
  -8   0   7    2.82    1.04
  -8   0   8   13.58    1.93
  -8   0   8   16.47    2.06
  -8   0   9   22.56    2.34
  -8   0   9   22.65    2.47
  -8   0  10 2955.19   22.66
  -8   0  10 3024.35   25.44
  -8   0  11   13.08    1.64
  -8   0  12  193.73    4.95
  -8  -1  -6  290.54    5.69
  -8   1  -6  298.19    5.73
  -8   1  -5  112.60    4.32
  -8  -1  -5  114.04    4.40
  -8  -1  -5  112.98    3.65
  -8   1  -5  123.50    4.60
  -8  -1  -4   62.58    3.68
  -8   1  -4   66.78    3.81
  -8   1  -4   63.12    3.77
  -8  -1  -4   60.96    3.32
  -8   1  -3  824.59   14.56
  -8  -1  -3  818.74   14.03
  -8   1  -3  803.22   14.07
  -8  -1  -3  804.16   13.32
  -8  -1  -2  564.30   24.32
  -8   1  -2  549.43   11.41
  -8  -1  -2  562.47   11.90
  -8  -1  -2  580.10   12.13
  -8   1  -2  552.90   12.07
  -8   1  -2  546.15   12.32
  -8  -1  -1  270.72    8.44
  -8   1  -1  298.43    9.31
  -8   1  -1  279.85    8.62
  -8  -1  -1  273.24   17.09
  -8  -1  -1  268.11    8.25
  -8  -1  -1  258.29    7.36
  -8   1  -1  277.36    8.44
  -8  -1   0  547.14   23.92
  -8  -1   0  551.00   11.26
  -8   1   0  546.94   11.91
  -8   1   0  524.00   12.41
  -8   1   0  535.35   11.87
  -8  -1   0  567.74   11.72
  -8  -1   0  562.59   12.27
  -8  -1   1   83.81    4.54
  -8  -1   1   80.73    4.36
  -8  -1   1   83.18    4.68
  -8   1   1   82.58    4.53
  -8   1   1   77.85    4.58
  -8   1   1   76.50    4.24
  -8  -1   1   83.41    9.19
  -8  -1   1   85.22    4.41
  -8   1   2  594.62   12.05
  -8   1   2  612.21   12.65
  -8  -1   2  594.74   12.18
  -8   1   2  596.95   12.08
  -8  -1   2  597.78   12.25
  -8  -1   2  619.37   24.04
  -8  -1   2  598.89   12.11
  -8   1   2  600.30   11.82
  -8   1   3   22.19    2.41
  -8  -1   3   18.82    4.03
  -8   1   3   22.37    2.47
  -8   1   3   19.39    2.29
  -8  -1   3   24.74    2.56
  -8  -1   3   21.64    2.32
  -8  -1   3   24.46    2.55
  -8  -1   3   22.10    2.23
  -8  -1   4  246.39    7.50
  -8  -1   4  238.02    7.79
  -8   1   4  256.78    8.05
  -8  -1   4  230.43    7.31
  -8  -1   4  245.14    8.02
  -8   1   4  253.37    8.13
  -8   1   4  260.73    8.28
  -8   1   5   52.58    3.81
  -8  -1   5   55.45    3.46
  -8   1   5   49.32    3.34
  -8   1   5   53.73    3.52
  -8  -1   5   49.70    3.60
  -8   1   5   52.14    3.62
  -8   1   5   48.26    3.64
  -8  -1   5   50.56    3.44
  -8  -1   5   51.86    3.74
  -8  -1   5   52.99    3.63
  -8  -1   6 1106.40   16.62
  -8   1   6 1079.65   17.14
  -8  -1   6 1121.22   16.81
  -8   1   6 1108.23   15.81
  -8  -1   6 1122.66   16.52
  -8   1   6 1082.90   15.94
  -8   1   6 1071.40   15.63
  -8  -1   6 1100.37   16.93
  -8  -1   7   31.78    2.81
  -8  -1   7   36.25    3.07
  -8   1   7   34.96    3.13
  -8  -1   7   32.25    2.92
  -8  -1   7   33.04    2.93
  -8   1   7   38.70    2.96
  -8   1   7   38.22    3.07
  -8  -1   8 1112.78   16.20
  -8   1   8 1103.73   16.33
  -8  -1   8 1122.79   16.73
  -8  -1   8 1114.09   16.59
  -8   1   8 1120.91   16.81
  -8  -1   9  548.56   11.44
  -8  -1   9  543.52   10.58
  -8   1   9  598.63   11.79
  -8   1   9  603.31   11.66
  -8   1  10  545.06   10.65
  -8   1  10  552.11    9.98
  -8  -1  10  576.31   11.06
  -8  -1  10  558.79    9.41
  -8   1  11  189.16    5.70
  -8  -1  11  190.90    5.72
  -8   1  12  104.05    3.58
  -8  -1  12  106.56    3.58
  -8   2  -6  209.30    4.36
  -8  -2  -6  207.96    4.43
  -8   2  -5  163.36    5.01
  -8  -2  -5  169.69    5.07
  -8  -2  -5  162.55    4.34
  -8   2  -5  163.65    5.15
  -8   2  -4  145.84    5.59
  -8  -2  -4  143.23    4.99
  -8   2  -4  151.18    5.49
  -8  -2  -4  150.33    5.44
  -8   2  -3  368.87    8.12
  -8  -2  -3  352.18    8.77
  -8  -2  -3  366.42    9.08
  -8   2  -3  369.06    9.34
  -8   2  -2  497.94   10.55
  -8  -2  -2  545.34   11.39
  -8  -2  -2  545.12   23.55
  -8   2  -2  521.58   11.61
  -8  -2  -2  535.92    9.92
  -8  -2  -2  546.26   11.57
  -8   2  -2  500.77   11.58
  -8  -2  -1  526.62   10.69
  -8   2  -1  524.20   11.39
  -8  -2  -1  533.34   23.55
  -8  -2  -1  533.90   11.80
  -8  -2  -1  543.87   11.40
  -8   2  -1  509.80   11.92
  -8   2  -1  513.64   11.72
  -8  -2  -1  552.42   12.01
  -8  -2   0  460.24   21.66
  -8  -2   0  487.29   10.53
  -8  -2   0  468.32   11.15
  -8   2   0  461.59   11.41
  -8  -2   0  481.44   11.30
  -8   2   0  463.73   11.08
  -8  -2   0  479.05   10.70
  -8   2   0  484.51   11.29
  -8  -2   0  468.35    9.98
  -8   2   1  300.28    9.12
  -8  -2   1  317.64    8.92
  -8   2   1  315.30    8.61
  -8   2   1  308.13    9.10
  -8  -2   1  315.45    9.02
  -8  -2   1  322.28    9.26
  -8  -2   1  319.60   17.62
  -8  -2   1  307.64    8.54
  -8   2   2  295.33    8.46
  -8  -2   2  296.72    8.74
  -8  -2   2  298.21    8.55
  -8   2   2  320.16    8.34
  -8  -2   2  292.82   16.30
  -8   2   2  294.79    8.94
  -8  -2   2  296.70    8.63
  -8  -2   2  299.60    8.77
  -8   2   3  299.97    8.96
  -8  -2   3  291.27    8.66
  -8   2   3  315.61    9.03
  -8  -2   3  289.67    8.67
  -8  -2   3  302.66    8.35
  -8  -2   3  278.97   15.17
  -8   2   4  635.21   13.04
  -8  -2   4  626.94   12.62
  -8   2   4  637.69   12.99
  -8  -2   4  659.38   13.10
  -8   2   5  182.54    6.91
  -8  -2   5  180.37    6.89
  -8   2   5  188.34    7.25
  -8  -2   5  180.65    6.75
  -8   2   5  203.73    6.97
  -8  -2   6  205.21    7.06
  -8   2   6  196.42    6.83
  -8   2   6  191.98    6.48
  -8  -2   6  207.95    7.26
  -8  -2   6  205.43    7.21
  -8   2   6  196.60    7.40
  -8   2   6  192.58    6.96
  -8  -2   6  214.88    7.31
  -8   2   7   48.51    3.69
  -8   2   7   50.12    3.43
  -8  -2   7   61.27    3.88
  -8  -2   7   56.89    3.81
  -8   2   7   45.57    3.32
  -8  -2   7   59.14    3.90
  -8  -2   7   54.38    3.55
  -8   2   7   48.94    3.40
  -8  -2   8  165.10    5.78
  -8   2   8  171.26    6.30
  -8  -2   8  166.20    6.43
  -8  -2   8  169.22    6.40
  -8  -2   8  161.68    6.00
  -8   2   8  172.82    6.64
  -8   2   9  354.38    8.90
  -8   2   9  350.56    8.78
  -8  -2   9  350.70    8.95
  -8  -2   9  336.45    8.64
  -8  -2   9  340.21    7.95
  -8   2  10  384.54    8.27
  -8   2  10  376.58    8.52
  -8  -2  10  395.83    7.47
  -8  -2  11  437.39    6.81
  -8   2  11  445.44    7.10
  -8   2  11  461.25    8.49
  -8  -2  11  466.34    8.53
  -8   2  12  195.66    4.59
  -8  -2  12  169.11    4.19
  -8  -3  -5   10.41    1.16
  -8  -3  -5   11.41    1.11
  -8   3  -5   11.52    1.28
  -8   3  -5   12.06    1.26
  -8  -3  -4   24.71    2.05
  -8   3  -4   26.91    2.19
  -8  -3  -4   23.06    1.94
  -8  -3  -3  186.36    6.02
  -8  -3  -3  182.72    6.09
  -8   3  -3  175.36    6.20
  -8   3  -3  188.49    6.31
  -8  -3  -2  164.61    6.10
  -8   3  -2  148.66    5.36
  -8  -3  -2  162.88    6.18
  -8  -3  -2  149.34    5.25
  -8   3  -2  150.43    5.94
  -8   3  -2  141.30    5.84
  -8  -3  -2  158.36    5.74
  -8   3  -1 1249.23   17.77
  -8  -3  -1 1244.87   16.54
  -8  -3  -1 1287.88   17.88
  -8  -3  -1 1237.52   17.59
  -8   3  -1 1250.41   16.91
  -8   3  -1 1277.31   17.76
  -8  -3  -1 1292.81   16.46
  -8  -3  -1 1230.17   34.77
  -8   3   0 1934.14   21.75
  -8   3   0 1954.08   22.41
  -8  -3   0 1837.04   19.88
  -8  -3   0 1938.57   22.22
  -8   3   0 1945.52   22.14
  -8  -3   0 1871.10   21.30
  -8  -3   0 1842.94   42.62
  -8  -3   0 2012.71   20.19
  -8  -3   0 1919.64   22.36
  -8  -3   1   48.48    3.55
  -8  -3   1   49.95    3.58
  -8   3   1   55.13    3.63
  -8   3   1   55.90    3.91
  -8  -3   1   49.64    6.90
  -8  -3   1   50.24    3.51
  -8  -3   1   48.97    3.64
  -8   3   2  595.82   11.81
  -8  -3   2  617.21   23.21
  -8   3   2  617.51   11.81
  -8  -3   2  630.73   12.54
  -8  -3   2  640.44   12.25
  -8  -3   2  636.32   12.78
  -8   3   2  597.86   12.83
  -8  -3   2  636.90   12.68
  -8  -3   3  213.60    7.14
  -8  -3   3  209.89    7.38
  -8  -3   3  221.07    6.94
  -8   3   3  219.43    7.80
  -8  -3   3  213.78    7.38
  -8   3   3  214.59    7.42
  -8   3   4  247.09    8.14
  -8  -3   4  251.89    8.09
  -8  -3   4  252.45    7.94
  -8   3   4  232.74    8.06
  -8  -3   5  722.59   13.20
  -8   3   5  763.48   14.31
  -8   3   5  781.41   14.61
  -8  -3   5  726.66   13.62
  -8   3   5  790.09   13.78
  -8  -3   6  878.12   14.74
  -8   3   6  901.45   14.74
  -8  -3   6  889.69   14.71
  -8   3   6  875.44   15.53
  -8   3   6  865.66   14.90
  -8  -3   6  884.47   14.13
  -8  -3   7   51.93    3.48
  -8  -3   7   50.90    3.28
  -8   3   7   45.70    3.32
  -8  -3   7   58.73    3.85
  -8   3   7   43.46    3.05
  -8   3   7   47.71    3.61
  -8  -3   7   55.99    3.77
  -8   3   7   43.81    3.31
  -8   3   8  406.85    9.39
  -8  -3   8  403.14    8.96
  -8   3   8  405.06    9.96
  -8  -3   8  394.38   17.41
  -8  -3   8  406.52    9.74
  -8  -3   8  391.60    8.17
  -8   3   8  400.51    9.13
  -8  -3   8  401.67    9.51
  -8  -3   9  245.34    6.96
  -8  -3   9  252.45    7.30
  -8   3   9  217.54    6.80
  -8  -3   9  239.51    6.13
  -8   3   9  203.09    6.31
  -8  -3  10   97.57    3.60
  -8   3  10  104.28    4.16
  -8   3  10  103.79    3.77
  -8  -3  10  105.34    4.30
  -8   3  10  103.26    4.18
  -8  -3  11  222.26    4.60
  -8   3  11  211.56    4.55
  -8   3  12   54.40    2.09
  -8  -3  12   52.37    1.97
  -8   4  -5   37.96    1.76
  -8  -4  -5   35.72    1.65
  -8   4  -4  135.09    4.28
  -8  -4  -4  120.78    3.81
  -8   4  -4  137.97    4.33
  -8  -4  -4  122.34    3.96
  -8   4  -3   49.58    2.94
  -8  -4  -3   47.38    2.36
  -8  -4  -3   45.27    2.81
  -8  -4  -3   45.50    2.63
  -8   4  -3   50.74    3.03
  -8  -4  -2   39.50    2.60
  -8  -4  -2   39.42    2.88
  -8   4  -2   41.97    2.92
  -8  -4  -2   41.62    2.93
  -8  -4  -2   39.82    2.62
  -8   4  -2   40.43    2.93
  -8  -4  -1  347.91    8.89
  -8  -4  -1  336.00    7.62
  -8  -4  -1  321.24    7.32
  -8  -4  -1  346.36    8.79
  -8   4  -1  357.19    8.95
  -8   4  -1  325.71    8.29
  -8  -4  -1  330.12    8.27
  -8   4  -1  322.88    7.93
  -8   4   0  361.27    8.77
  -8  -4   0  394.46    9.77
  -8   4   0  385.89    9.46
  -8  -4   0  394.19    9.53
  -8   4   0  395.30    9.51
  -8  -4   0  381.74    8.83
  -8  -4   0  401.95    9.59
  -8  -4   1  537.88   21.59
  -8  -4   1  544.69   11.52
  -8   4   1  541.35   11.70
  -8  -4   1  551.86   11.15
  -8   4   1  551.70   11.24
  -8  -4   1  543.25   11.50
  -8  -4   2   23.65    2.42
  -8   4   2   24.53    2.59
  -8   4   2   28.36    2.51
  -8  -4   2   25.58    2.36
  -8  -4   2   24.42    2.55
  -8  -4   3  374.29    8.44
  -8   4   3  379.93   10.12
  -8   4   3  361.95    9.31
  -8   4   3  364.63    8.52
  -8  -4   3  364.63    8.94
  -8  -4   3  362.50    9.41
  -8   4   4  199.50    7.37
  -8  -4   4  187.09    6.66
  -8  -4   4  186.11    6.83
  -8   4   4  202.04    7.16
  -8  -4   5  585.32   11.34
  -8  -4   5  585.02   11.89
  -8   4   5  556.94   11.99
  -8   4   5  558.40   11.41
  -8   4   5  554.45   12.06
  -8   4   6  213.61    7.47
  -8   4   6  217.91    6.99
  -8   4   6  207.55    7.31
  -8  -4   6  196.99    6.27
  -8  -4   6  210.12    6.90
  -8  -4   7  282.20    7.89
  -8  -4   7  272.32    6.82
  -8   4   7  272.11    7.60
  -8  -4   7  281.51    7.51
  -8  -4   7  272.43   14.40
  -8   4   7  273.34    8.22
  -8  -4   8  504.56   10.27
  -8  -4   8  494.71    9.83
  -8   4   8  483.96   10.27
  -8   4   8  514.68   10.66
  -8  -4   9   53.11    3.13
  -8   4   9   62.62    3.41
  -8   4   9   63.03    3.25
  -8   4   9   57.64    3.04
  -8  -4   9   53.62    2.99
  -8  -4  10   22.50    1.83
  -8   4  10   20.17    1.63
  -8  -4  10   19.55    1.50
  -8   4  10   21.04    1.71
  -8   4  10   18.43    1.37
  -8   4  11  171.97    3.94
  -8  -4  11  156.54    3.24
  -8  -5  -4  301.61    4.93
  -8   5  -4  298.07    5.00
  -8  -5  -3   81.67    2.73
  -8  -5  -3   83.67    2.66
  -8  -5  -3   88.25    3.32
  -8   5  -2   42.86    2.68
  -8  -5  -2   40.59    2.13
  -8  -5  -2   42.93    2.45
  -8  -5  -2   40.80    2.54
  -8  -5  -2   41.54    2.61
  -8  -5  -1  177.91    5.79
  -8  -5  -1  171.45    4.86
  -8  -5  -1  179.61    5.62
  -8   5  -1  179.06    5.79
  -8  -5  -1  177.45    5.55
  -8  -5   0   57.24    3.27
  -8  -5   0   53.42    3.29
  -8   5   0   61.72    3.37
  -8  -5   0   51.57    3.05
  -8  -5   0   52.57    3.30
  -8  -5   1   29.77    2.53
  -8  -5   1   30.28    2.60
  -8   5   1   29.49    2.55
  -8   5   1   29.17    2.47
  -8  -5   1   31.56    2.41
  -8  -5   2  140.85    5.58
  -8   5   2  144.64    5.33
  -8   5   2  146.95    5.85
  -8  -5   2  137.37    4.79
  -8  -5   2  136.50    5.27
  -8   5   2  132.49    5.38
  -8   5   3  117.63    4.88
  -8  -5   3  142.90    5.55
  -8   5   3  122.38    5.49
  -8   5   3  115.92    4.63
  -8   5   3  119.57    5.35
  -8  -5   3  140.41    5.09
  -8  -5   4 1247.07   16.67
  -8   5   4 1216.99   17.47
  -8   5   4 1184.26   16.09
  -8  -5   4 1203.25   15.65
  -8   5   4 1223.58   17.31
  -8   5   4 1275.99   16.32
  -8  -5   5  105.92    4.71
  -8   5   5  111.66    4.79
  -8   5   5  107.21    5.17
  -8   5   5  100.16    4.79
  -8  -5   5  102.23    4.35
  -8   5   6   23.57    2.37
  -8   5   6   21.06    2.09
  -8   5   6   23.41    2.40
  -8  -5   6   28.92    2.37
  -8  -5   6   28.50    2.14
  -8   5   7  221.63    6.19
  -8   5   7  224.29    6.81
  -8   5   7  213.04    6.74
  -8  -5   7  210.68    6.14
  -8  -5   7  200.69    5.66
  -8  -5   8  222.46    6.15
  -8   5   8  185.82    4.69
  -8   5   8  198.37    5.81
  -8  -5   8  193.13    4.76
  -8  -5   8  209.50    5.63
  -8   5   8  211.61    6.16
  -8   5   9  157.63    4.71
  -8  -5   9  159.93    4.69
  -8   5   9  151.48    4.22
  -8  -5   9  153.10    4.18
  -8   5  10  106.74    2.80
  -8  -5  10   96.49    2.60
  -8  -6  -2  265.75    4.83
  -8  -6  -2  270.51    5.27
  -8   6  -2  255.30    5.26
  -8  -6  -2  268.99    5.01
  -8   6  -1   36.03    2.22
  -8  -6  -1   32.17    1.92
  -8  -6  -1   30.81    2.02
  -8  -6  -1   28.64    1.61
  -8  -6  -1   34.75    2.11
  -8  -6   0   10.13    1.29
  -8   6   0    8.28    1.17
  -8  -6   0   10.44    1.14
  -8  -6   0    9.84    1.25
  -8  -6   0    9.82    1.17
  -8  -6   1   40.56    2.61
  -8  -6   1   37.51    2.42
  -8  -6   1   35.37    2.04
  -8   6   2  792.03   10.94
  -8   6   2  755.74   10.88
  -8  -6   2  760.83   10.56
  -8  -6   2  792.07   11.52
  -8  -6   3  246.46    5.62
  -8   6   3  232.69    6.17
  -8  -6   3  275.32    7.02
  -8   6   3  225.67    5.76
  -8  -6   3  265.60    6.58
  -8   6   3  224.25    6.32
  -8   6   4 1358.64   16.01
  -8   6   4 1342.81   14.61
  -8  -6   4 1377.83   14.33
  -8   6   5  306.10    6.78
  -8   6   5  293.81    7.05
  -8   6   5  304.41    7.54
  -8  -6   5  286.34    6.01
  -8  -6   5  316.97    7.07
  -8  -6   6  745.29   10.52
  -8   6   6  693.19   10.62
  -8  -6   6  700.25    9.74
  -8   6   6  681.27    9.56
  -8   6   6  730.86   11.26
  -8   6   7   45.51    2.60
  -8  -6   7   53.43    2.60
  -8   6   7   45.49    2.64
  -8  -6   7   44.84    2.14
  -8   6   8    6.27    0.86
  -8  -6   8    7.33    0.86
  -8  -6   8    8.00    1.01
  -8  -6   9   48.23    1.96
  -8  -7   0   78.38    2.58
  -8   7   0   78.21    2.60
  -8   7   0   74.87    2.28
  -8   7   1  186.38    4.27
  -8  -7   1  221.52    4.68
  -8  -7   1  207.25    4.48
  -8   7   1  182.87    3.93
  -8   7   2  257.73    4.83
  -8   7   2  259.91    5.07
  -8  -7   2  289.16    5.70
  -8  -7   2  284.32    5.38
  -8  -7   3   22.27    1.65
  -8   7   3   31.53    1.73
  -8   7   3   28.81    1.70
  -8  -7   3   20.67    1.42
  -8   7   3   30.13    1.64
  -8  -7   4  599.49    6.73
  -8   7   4  601.81    7.15
  -8  -7   5   39.42    2.03
  -8   7   5   40.89    2.14
  -8  -7   5   34.67    1.81
  -8  -7   6  191.89    4.01
  -8   7   6  200.41    4.45
  -8   7   7   27.71    1.43
  -8  -7   7   29.21    1.48
  -7   0  -7 1248.04   13.00
  -7   0  -6    3.78    0.92
  -7   0  -6    4.10    1.01
  -7   0  -5  219.23    7.26
  -7   0  -5  224.34    7.59
  -7   0  -4    3.09    2.16
  -7   0  -4    4.18    1.23
  -7   0  -4    3.85    1.07
  -7   0  -4    3.32    1.16
  -7   0  -3  197.99    7.16
  -7   0  -3  204.10   15.09
  -7   0  -3  211.91    7.75
  -7   0  -3  205.35    7.79
  -7   0  -2    1.76    0.87
  -7   0  -2    1.80    0.85
  -7   0  -2    2.57    2.03
  -7   0  -2    1.17    0.79
  -7   0  -1  154.48    6.45
  -7   0  -1  163.83    6.65
  -7   0  -1  153.05   12.74
  -7   0  -1  155.64    6.67
  -7   0   0    2.86    2.06
  -7   0   0    0.91    0.60
  -7   0   0    1.14    0.75
  -7   0   0    0.85    0.59
  -7   0   0    2.04    0.94
  -7   0   1 2223.05   23.31
  -7   0   1 2191.66   45.16
  -7   0   1 2218.84   24.47
  -7   0   1 2157.98   22.18
  -7   0   1 2119.15   21.87
  -7   0   1 2122.13   21.86
  -7   0   2    4.35    1.14
  -7   0   2    3.94    1.07
  -7   0   2    3.19    2.09
  -7   0   3  167.67    6.34
  -7   0   3  169.92    6.16
  -7   0   3  164.04   11.49
  -7   0   3  171.10    6.34
  -7   0   4    2.17    0.77
  -7   0   4    2.88    0.88
  -7   0   4    2.35    0.85
  -7   0   4    2.44    0.84
  -7   0   5 1758.93   20.76
  -7   0   5 1795.30   42.03
  -7   0   5 1703.62   19.14
  -7   0   5 1745.01   18.74
  -7   0   5 1690.93   19.91
  -7   0   5 1728.21   20.28
  -7   0   5 1689.72   19.80
  -7   0   6    4.82    2.46
  -7   0   6    8.84    1.48
  -7   0   6    6.78    1.43
  -7   0   6    7.92    1.52
  -7   0   6    7.75    1.52
  -7   0   6    5.77    1.34
  -7   0   7 2262.87   24.05
  -7   0   7 2298.45   24.22
  -7   0   7 2284.16   48.12
  -7   0   7 2278.40   22.63
  -7   0   7 2360.57   24.83
  -7   0   7 2226.22   23.35
  -7   0   8   11.04    1.87
  -7   0   8   11.29    1.88
  -7   0   8   14.83    2.02
  -7   0   9 2031.03   23.43
  -7   0   9 2017.03   21.62
  -7   0  10   17.82    2.27
  -7   0  10   15.12    1.78
  -7   0  11  383.40    8.02
  -7   0  11  413.31    9.38
  -7   0  12    2.38    0.62
  -7   0  12    1.20    0.59
  -7   0  13   24.96    1.55
  -7   0  13   23.22    1.30
  -7   1  -7  609.06    9.19
  -7   1  -7  591.25    8.75
  -7  -1  -7  616.14    9.16
  -7  -1  -6  130.12    5.16
  -7   1  -6  133.18    5.12
  -7   1  -6  126.50    4.95
  -7   1  -5  835.17   14.42
  -7  -1  -5  853.04   13.00
  -7   1  -5  836.14   14.27
  -7  -1  -5  897.85   15.10
  -7  -1  -5  925.99   14.03
  -7   1  -4   20.97    2.15
  -7   1  -4   20.05    2.44
  -7  -1  -4   19.89    4.74
  -7  -1  -4   19.57    2.25
  -7  -1  -4   22.02    2.43
  -7   1  -4   22.11    2.51
  -7  -1  -4   19.33    2.39
  -7   1  -3 1301.27   17.92
  -7  -1  -3 1359.53   19.11
  -7   1  -3 1289.89   19.54
  -7  -1  -3 1365.74   19.51
  -7   1  -3 1340.13   19.45
  -7  -1  -3 1337.35   19.42
  -7  -1  -3 1337.75   38.72
  -7   1  -3 1317.59   37.92
  -7  -1  -2  208.29   15.16
  -7   1  -2  218.35    7.94
  -7  -1  -2  221.28    7.81
  -7  -1  -2  226.62    7.78
  -7  -1  -2  212.39    7.67
  -7   1  -2  218.94    7.95
  -7   1  -2  220.55    7.58
  -7   1  -2  214.85   15.38
  -7  -1  -2  214.13    7.83
  -7  -1  -1   49.63    7.29
  -7  -1  -1   58.75    4.05
  -7  -1  -1   46.47    3.52
  -7  -1  -1   48.92    3.75
  -7  -1  -1   48.05    3.60
  -7   1  -1   45.85    3.51
  -7   1  -1   41.87    3.46
  -7   1  -1   44.41    3.55
  -7  -1  -1   46.07    3.29
  -7   1  -1   39.39    6.52
  -7   1   0   25.57    2.61
  -7  -1   0    7.86    1.54
  -7  -1   0   11.17    1.72
  -7  -1   0    9.91    1.62
  -7  -1   0   11.46    1.85
  -7   1   0   14.81    2.08
  -7   1   0   12.20    1.83
  -7   1   0   27.40    5.41
  -7  -1   0    7.62    3.14
  -7  -1   0    8.15    3.06
  -7  -1   1  396.88    9.35
  -7   1   1  390.88    9.94
  -7   1   1  375.25    9.49
  -7   1   1  378.95   19.08
  -7  -1   1  391.46    9.90
  -7  -1   1  386.81    9.82
  -7   1   1  390.81    9.40
  -7   1   1  383.71   10.08
  -7  -1   1  384.16    9.59
  -7  -1   1  359.53   18.12
  -7  -1   1  365.41    9.21
  -7  -1   1  394.84   20.48
  -7  -1   2   68.98    8.37
  -7  -1   2   61.62    3.84
  -7   1   2   62.57    3.74
  -7  -1   2   56.86    3.71
  -7  -1   2   61.41    3.82
  -7   1   2   67.09    7.44
  -7  -1   2   55.35    6.85
  -7   1   2   66.38    3.98
  -7   1   2   65.47    4.06
  -7   1   2   66.01    3.97
  -7  -1   2   58.90    3.83
  -7  -1   3  183.88    6.66
  -7  -1   3  183.33    6.34
  -7   1   3  175.87    6.51
  -7   1   3  178.31    6.59
  -7  -1   3  182.46    6.55
  -7  -1   3  178.99   13.25
  -7   1   3  177.82    6.45
  -7  -1   3  187.00   12.00
  -7  -1   4  865.90   14.57
  -7  -1   4  882.28   24.61
  -7   1   4  865.26   14.17
  -7  -1   4  852.38   28.57
  -7   1   4  876.60   14.81
  -7   1   4  848.73   13.44
  -7  -1   4  857.53   14.17
  -7   1   4  887.52   14.76
  -7  -1   4  846.15   13.27
  -7  -1   5  456.96   10.62
  -7   1   5  427.67    9.87
  -7   1   5  431.55   10.56
  -7   1   5  410.51    9.77
  -7  -1   5  498.79   22.42
  -7   1   5  407.13    9.46
  -7   1   5  416.30   10.17
  -7  -1   5  452.98   10.42
  -7  -1   5  459.80   10.40
  -7  -1   5  476.51   21.38
  -7   1   5  425.81    9.95
  -7  -1   6  314.28    8.96
  -7   1   6  334.24    8.80
  -7  -1   6  308.98    8.74
  -7   1   6  328.67    8.99
  -7   1   6  327.46    9.11
  -7  -1   6  312.04   17.73
  -7  -1   6  304.36    8.71
  -7   1   6  322.18   17.68
  -7   1   6  337.36    8.78
  -7   1   6  324.46    9.11
  -7   1   6  333.43    9.43
  -7  -1   6  298.25    8.42
  -7  -1   7   81.36    4.39
  -7  -1   7   84.43    4.74
  -7   1   7   95.47    5.08
  -7   1   7   95.90    5.03
  -7  -1   7   81.94    4.73
  -7   1   7   92.82    4.72
  -7   1   7   82.89   10.37
  -7   1   7   86.39    9.35
  -7  -1   7   83.44    4.58
  -7  -1   7   89.62    8.69
  -7  -1   8  361.39    9.27
  -7   1   8  324.85    9.28
  -7  -1   8  365.57   10.00
  -7  -1   8  346.48    9.50
  -7  -1   8  352.02   17.70
  -7   1   8  328.03    9.50
  -7   1   9  351.14    9.69
  -7  -1   9  356.34    9.49
  -7  -1   9  356.59    8.80
  -7   1   9  360.02    9.30
  -7  -1   9  342.43    8.69
  -7  -1   9  348.50    9.69
  -7   1  10  355.33    8.44
  -7   1  10  349.00    9.29
  -7  -1  10  335.21    9.14
  -7   1  11   85.98    4.28
  -7  -1  11   83.99    4.19
  -7  -1  11   80.30    3.79
  -7   1  11   79.58    3.43
  -7  -1  12   55.89    2.72
  -7   1  12   56.19    3.01
  -7   1  12   56.70    2.49
  -7  -1  12   54.39    2.92
  -7  -1  13  315.71    4.87
  -7  -1  13  306.52    5.02
  -7   2  -7   37.34    2.10
  -7   2  -7   36.46    2.17
  -7   2  -6  119.56    4.78
  -7  -2  -6  128.61    4.95
  -7   2  -6  119.33    4.73
  -7  -2  -6  130.68    4.20
  -7  -2  -5   36.09    2.74
  -7   2  -5   38.79    3.08
  -7  -2  -5   35.02    2.94
  -7   2  -5   36.89    2.94
  -7  -2  -4    8.91    3.17
  -7  -2  -4    8.57    1.60
  -7   2  -4    6.12    1.47
  -7  -2  -4    8.98    1.59
  -7   2  -4    9.78    1.74
  -7  -2  -3  450.53   11.06
  -7  -2  -3  433.37   10.63
  -7   2  -3  444.44   11.17
  -7   2  -3  449.13   10.13
  -7  -2  -3  414.40   21.48
  -7   2  -3  456.76   11.48
  -7  -2  -3  435.83   10.92
  -7   2  -2  410.63   10.16
  -7   2  -2  413.66   10.95
  -7   2  -2  432.00   11.01
  -7  -2  -2  397.59    9.56
  -7  -2  -2  411.57   10.41
  -7  -2  -2  393.64   20.96
  -7  -2  -2  404.17   10.59
  -7  -2  -2  402.82   10.58
  -7   2  -1  798.30   30.57
  -7   2  -1  839.50   15.27
  -7  -2  -1  837.91   29.98
  -7  -2  -1  828.87   14.26
  -7  -2  -1  845.75   14.52
  -7  -2  -1  814.18   15.05
  -7   2  -1  819.79   15.23
  -7  -2  -1  835.95   15.10
  -7   2  -1  820.87   14.62
  -7  -2   0  433.32   10.07
  -7  -2   0  427.08   10.63
  -7   2   0  413.35   10.56
  -7   2   0  414.17   20.96
  -7   2   0  411.57   10.53
  -7  -2   0  432.15   10.44
  -7  -2   0  425.76   23.03
  -7  -2   0  410.38   20.29
  -7  -2   0  440.84   10.89
  -7   2   0  411.67   10.39
  -7   2   1   74.64    4.38
  -7  -2   1   81.21    8.69
  -7  -2   1   81.49    4.62
  -7  -2   1   83.90    4.63
  -7   2   1   76.92    4.19
  -7   2   1   85.52    4.74
  -7   2   1   75.11    8.55
  -7   2   1   80.21    4.59
  -7  -2   1   75.25    9.67
  -7  -2   1   78.25    4.48
  -7  -2   2  396.14   21.30
  -7   2   2  362.27    9.26
  -7   2   2  358.73    9.60
  -7  -2   2  386.71    9.56
  -7   2   2  377.59    9.67
  -7   2   2  380.61    9.86
  -7   2   2  361.72   17.63
  -7  -2   2  397.67    9.94
  -7   2   2  378.56    9.12
  -7  -2   2  383.17   17.89
  -7  -2   2  380.02    9.72
  -7  -2   3  224.97    7.05
  -7   2   3  236.85    7.62
  -7  -2   3  227.44   13.11
  -7   2   3  243.64    7.89
  -7  -2   3  224.96    7.23
  -7  -2   3  226.58   15.81
  -7   2   3  244.61    7.91
  -7   2   3  250.81   15.48
  -7  -2   3  228.36    7.49
  -7   2   4  812.56   29.11
  -7   2   4  807.46   14.32
  -7  -2   4  795.11   14.13
  -7  -2   4  784.65   29.08
  -7   2   4  826.28   14.76
  -7  -2   4  803.47   13.15
  -7  -2   4  779.19   13.69
  -7  -2   4  798.06   12.73
  -7   2   5 1644.93   43.03
  -7  -2   5 1740.80   20.87
  -7  -2   5 1716.99   20.06
  -7  -2   5 1785.40   42.65
  -7  -2   5 1727.05   42.71
  -7   2   5 1671.94   19.90
  -7   2   5 1627.22   20.17
  -7   2   5 1639.00   21.26
  -7   2   6  204.40    7.06
  -7  -2   6  198.02    7.04
  -7   2   6  204.47    7.15
  -7   2   6  193.74   15.22
  -7  -2   6  195.16   14.18
  -7   2   6  200.34    7.06
  -7  -2   6  201.35    6.84
  -7   2   6  207.83    7.61
  -7  -2   6  200.48   12.85
  -7   2   7  643.79   12.64
  -7  -2   7  619.69   23.59
  -7   2   7  655.67   13.01
  -7  -2   7  624.01   12.31
  -7   2   7  642.88   13.37
  -7  -2   7  615.57   12.63
  -7   2   7  650.97   12.56
  -7  -2   7  642.10   12.08
  -7  -2   8   88.03    4.93
  -7  -2   8   84.60    4.72
  -7  -2   8   88.49    4.31
  -7   2   8   80.66    4.68
  -7  -2   8   84.98    4.41
  -7   2   8   79.35    4.48
  -7   2   8   77.16    4.55
  -7  -2   8   76.23    8.47
  -7  -2   9  402.87    8.94
  -7  -2   9  371.39   18.55
  -7  -2   9  389.74   10.13
  -7   2   9  404.54   10.28
  -7   2   9  402.76    9.93
  -7  -2   9  382.94    9.63
  -7  -2  10  130.07    5.21
  -7  -2  10  134.86    5.64
  -7   2  10  122.78    5.01
  -7   2  10  127.21    5.51
  -7  -2  11    9.96    1.45
  -7   2  11    6.55    1.26
  -7  -2  11   11.14    1.44
  -7  -2  12  187.77    4.23
  -7   2  12  201.33    5.41
  -7  -2  12  198.01    4.98
  -7  -2  12  195.02    5.13
  -7  -2  13   58.11    1.98
  -7   2  13   73.88    2.43
  -7  -3  -7  227.54    4.73
  -7   3  -7  239.65    4.97
  -7   3  -6  260.16    6.35
  -7   3  -6  263.58    6.65
  -7  -3  -6  248.03    5.54
  -7  -3  -6  258.57    6.47
  -7  -3  -5  237.88    7.04
  -7   3  -5  234.55    7.07
  -7  -3  -5  229.90    6.62
  -7   3  -5  237.19    7.18
  -7  -3  -4   44.87    3.14
  -7   3  -4   51.45    3.62
  -7  -3  -4   48.75    3.45
  -7   3  -4   56.34    3.82
  -7  -3  -4   50.86    3.49
  -7  -3  -3  845.70   13.31
  -7   3  -3  866.75   15.64
  -7  -3  -3  886.57   14.91
  -7   3  -3  855.91   15.03
  -7  -3  -3  871.61   15.11
  -7  -3  -3  870.19   14.93
  -7  -3  -2  220.44    7.79
  -7  -3  -2  216.75    7.36
  -7   3  -2  211.86    7.61
  -7   3  -2  213.76    7.12
  -7   3  -2  210.66    7.79
  -7  -3  -2  220.28    7.73
  -7  -3  -1 1621.28   19.67
  -7   3  -1 1516.79   20.85
  -7   3  -1 1540.77   20.81
  -7  -3  -1 1589.05   21.14
  -7   3  -1 1539.41   20.33
  -7  -3  -1 1613.40   20.85
  -7   3  -1 1526.15   19.88
  -7   3   0  445.54   10.99
  -7  -3   0  450.59   10.85
  -7  -3   0  484.13   10.36
  -7   3   0  437.56   10.84
  -7   3   0  439.54   10.74
  -7   3   0  421.52   21.57
  -7  -3   0  459.63   11.30
  -7  -3   1  346.02    9.37
  -7  -3   1  353.11   21.86
  -7   3   1  361.36    9.90
  -7   3   1  352.60    9.45
  -7   3   1  355.98   19.03
  -7  -3   1  356.86    9.76
  -7   3   1  359.70    9.58
  -7  -3   2  403.94   10.32
  -7   3   2  424.07   10.78
  -7   3   2  420.88    9.99
  -7  -3   2  404.94   10.19
  -7  -3   2  390.66   22.25
  -7  -3   2  415.13    9.97
  -7   3   2  404.16   19.24
  -7  -3   2  407.41   18.63
  -7   3   2  433.27   10.57
  -7   3   2  417.62   10.04
  -7   3   3  798.64   14.60
  -7  -3   3  844.55   13.60
  -7  -3   3  833.73   14.63
  -7  -3   3  775.45   30.85
  -7  -3   3  825.36   14.03
  -7   3   3  774.12   14.83
  -7  -3   4  676.72   12.95
  -7   3   4  647.43   26.10
  -7  -3   4  671.98   23.30
  -7   3   4  681.54   13.80
  -7  -3   4  655.96   28.02
  -7   3   4  662.07   13.45
  -7  -3   4  697.28   12.34
  -7  -3   5  733.46   25.11
  -7  -3   5  715.80   13.02
  -7   3   5  727.07   14.18
  -7   3   5  747.99   14.61
  -7   3   5  708.38   28.33
  -7  -3   5  723.30   13.65
  -7   3   6  123.85    6.00
  -7   3   6  133.20    5.81
  -7  -3   6  103.50    4.85
  -7   3   6  121.73    5.77
  -7  -3   6  103.00    9.72
  -7  -3   6  106.29    5.19
  -7   3   6  122.98    5.48
  -7  -3   7  782.44   13.57
  -7   3   7  780.92   14.05
  -7  -3   7  781.56   27.17
  -7   3   7  766.05   14.11
  -7  -3   7  814.68   13.09
  -7  -3   7  774.17   14.09
  -7   3   7  783.65   15.00
  -7   3   7  798.67   14.28
  -7   3   8   76.87    4.35
  -7  -3   8   82.21    8.87
  -7  -3   8   79.33    4.44
  -7   3   8   82.49    4.75
  -7   3   8   85.22    4.71
  -7  -3   8   81.88    4.73
  -7  -3   8   84.11    4.23
  -7  -3   9  127.96    5.37
  -7  -3   9  127.89   10.86
  -7   3   9  130.74    5.65
  -7   3   9  128.84    5.66
  -7  -3   9  132.05    5.76
  -7  -3  10  299.96    8.00
  -7   3  10  243.43    6.90
  -7  -3  10  290.83   15.43
  -7   3  10  250.77    7.38
  -7  -3  11  322.65    7.36
  -7  -3  11  316.41    7.10
  -7  -3  12   86.41    2.78
  -7  -3  12   85.85    3.03
  -7  -3  12   80.11    2.87
  -7   4  -6   24.77    1.67
  -7  -4  -6   27.42    1.65
  -7  -4  -6   28.17    1.87
  -7   4  -6   23.98    1.77
  -7   4  -5   38.51    2.61
  -7  -4  -5   41.94    2.68
  -7  -4  -5   39.74    2.57
  -7   4  -5   39.12    2.64
  -7  -4  -4  310.86    8.07
  -7  -4  -4  309.23    7.76
  -7   4  -4  327.61    8.52
  -7   4  -4  315.06    8.15
  -7  -4  -4  311.68    7.92
  -7   4  -3   36.50    3.13
  -7   4  -3   36.13    2.94
  -7  -4  -3   38.03    3.04
  -7  -4  -3   41.81    3.07
  -7  -4  -3   39.28    3.11
  -7  -4  -2  234.25    7.71
  -7  -4  -2  223.20    7.68
  -7   4  -2  235.97    7.58
  -7  -4  -2  224.29    7.14
  -7   4  -2  237.43    8.06
  -7   4  -1  395.57    9.87
  -7  -4  -1  409.34   10.55
  -7  -4  -1  427.56    9.69
  -7   4  -1  405.04    9.93
  -7  -4  -1  419.48   10.41
  -7   4  -1  404.68   10.62
  -7   4   0   67.27    4.25
  -7   4   0   72.32    4.46
  -7   4   0   62.94    3.91
  -7  -4   0   78.23    4.64
  -7  -4   0   83.35    4.61
  -7  -4   1  121.20   10.58
  -7  -4   1  119.51    5.40
  -7   4   1  110.81    5.44
  -7   4   1  109.71    5.56
  -7  -4   1  119.87    5.67
  -7   4   2  114.16    5.42
  -7  -4   2  109.52    5.34
  -7   4   2  108.61    5.57
  -7   4   2  122.15    5.52
  -7  -4   2  108.18    5.01
  -7  -4   2  105.82   10.24
  -7  -4   3 1783.56   21.61
  -7   4   3 1743.57   19.92
  -7  -4   3 1794.08   20.70
  -7   4   3 1740.75   21.74
  -7  -4   3 1750.72   42.45
  -7   4   3 1739.90   22.49
  -7   4   4  258.99    8.58
  -7  -4   4  225.46   14.37
  -7  -4   4  239.91    7.16
  -7  -4   4  223.75    7.48
  -7   4   4  245.80    8.47
  -7   4   5  347.79    9.31
  -7  -4   5  369.20    9.24
  -7  -4   5  366.01   18.52
  -7   4   5  342.32   10.05
  -7   4   5  344.16   10.02
  -7   4   6  111.25    5.08
  -7  -4   6  126.91    5.19
  -7  -4   6  119.50   10.73
  -7   4   6  107.71    5.54
  -7   4   6  108.77    5.65
  -7  -4   6  121.85    5.46
  -7   4   6  115.40    5.35
  -7   4   7   44.96    3.33
  -7   4   7   42.47    3.57
  -7  -4   7   55.69    7.37
  -7  -4   7   54.40    3.47
  -7   4   7   42.20    3.21
  -7   4   8  343.92    8.76
  -7   4   8  354.40    9.60
  -7  -4   8  361.30   18.26
  -7  -4   8  371.71    8.29
  -7  -4   8  373.05    9.13
  -7   4   8  342.84    8.97
  -7   4   8  339.39    9.24
  -7  -4   9   63.85    3.78
  -7   4   9   75.39    4.09
  -7  -4   9   57.80    3.40
  -7   4   9   77.78    4.17
  -7  -4   9   56.17    7.00
  -7   4   9   73.07    3.84
  -7   4  10  249.33    6.54
  -7   4  10  260.77    6.91
  -7  -4  11  375.97    7.04
  -7  -4  11  368.42    6.83
  -7  -4  12  419.94    5.64
  -7   4  12  437.06    6.05
  -7  -5  -5  392.65    6.79
  -7   5  -5  395.59    6.67
  -7  -5  -5  386.99    6.63
  -7   5  -5  398.00    6.88
  -7  -5  -4   60.61    3.02
  -7  -5  -4   60.99    2.73
  -7   5  -4   69.74    3.48
  -7   5  -4   71.55    3.30
  -7  -5  -4   60.62    3.21
  -7  -5  -4   58.22    3.01
  -7   5  -3  200.89    6.54
  -7  -5  -3  192.96    5.76
  -7  -5  -3  185.42    6.15
  -7  -5  -3  192.30    6.17
  -7   5  -3  193.39    5.89
  -7  -5  -2   41.11    3.05
  -7  -5  -2   37.59    2.64
  -7  -5  -2   39.56    3.09
  -7   5  -2   36.15    3.01
  -7   5  -2   29.52    2.42
  -7  -5  -1  979.20   14.99
  -7  -5  -1  952.44   15.42
  -7   5  -1  957.03   15.62
  -7  -5  -1  975.81   13.24
  -7  -5   0  308.86    8.84
  -7   5   0  295.70    8.41
  -7   5   0  299.70    8.81
  -7  -5   0  312.86    8.45
  -7  -5   1  224.71    7.50
  -7  -5   1  231.30    7.14
  -7   5   1  224.41    7.55
  -7  -5   1  229.81   14.82
  -7   5   1  221.65    7.49
  -7   5   1  226.27    7.67
  -7  -5   2   15.11    4.16
  -7  -5   2   17.50    1.92
  -7   5   2   17.43    2.12
  -7   5   2   16.20    2.21
  -7  -5   2   15.57    2.00
  -7   5   2   15.46    2.17
  -7  -5   3  188.07    6.46
  -7   5   3  185.84    6.97
  -7   5   3  187.32    7.33
  -7  -5   3  193.74    7.00
  -7   5   3  188.03    6.56
  -7   5   3  184.33    7.43
  -7  -5   3  184.61   14.02
  -7   5   4  101.98    5.30
  -7   5   4  104.05    5.51
  -7   5   4  103.68    4.67
  -7  -5   4  104.64    4.95
  -7   5   4  101.72    5.63
  -7  -5   5  306.46    8.01
  -7  -5   5  322.84   17.48
  -7   5   5  302.23    9.18
  -7   5   5  300.97    9.47
  -7   5   5  304.18    8.38
  -7  -5   6  411.40   19.63
  -7   5   6  437.72   10.93
  -7   5   6  438.30    9.91
  -7   5   6  447.45   11.25
  -7  -5   6  427.20    8.71
  -7  -5   6  446.48    9.92
  -7  -5   7  166.19    5.57
  -7   5   7  143.99    5.47
  -7   5   7  140.54    6.07
  -7   5   7  138.51    5.32
  -7  -5   7  165.28   12.25
  -7   5   7  155.24    6.37
  -7   5   8   66.10    3.94
  -7  -5   8   74.96    3.73
  -7   5   8   58.87    3.42
  -7  -5   8   81.92    8.27
  -7   5   8   69.55    3.90
  -7   5   9    5.39    1.10
  -7  -5   9    5.05    1.04
  -7   5   9    5.71    1.06
  -7   5   9    4.92    0.94
  -7  -5   9    4.18    0.88
  -7   5  10  297.20    6.31
  -7  -5  10  314.82    6.44
  -7  -5  11  188.03    4.06
  -7  -5  11  160.08    3.36
  -7  -6  -4   60.83    2.46
  -7  -6  -4   57.15    2.15
  -7  -6  -3  433.84    6.79
  -7   6  -3  421.26    6.71
  -7  -6  -3  470.50    8.19
  -7  -6  -3  448.10    8.12
  -7   6  -3  488.06    8.61
  -7  -6  -3  455.01    7.69
  -7   6  -2  330.45    7.84
  -7  -6  -2  327.90    7.40
  -7  -6  -2  320.67    7.63
  -7   6  -1 1184.18   15.71
  -7  -6  -1 1212.03   14.69
  -7  -6  -1 1220.52   15.73
  -7  -6   0  329.75    7.72
  -7  -6   0  326.43    8.31
  -7   6   0  322.54    8.44
  -7   6   1  793.69   13.30
  -7  -6   1  759.15   11.48
  -7   6   1  746.82   12.28
  -7  -6   1  785.55   12.86
  -7   6   2   59.82    3.65
  -7   6   2   57.54    3.75
  -7  -6   2   70.14    3.77
  -7  -6   3  730.19   11.35
  -7   6   3  725.59   12.56
  -7   6   3  764.46   13.83
  -7   6   3  767.07   12.61
  -7  -6   3  753.17   12.58
  -7   6   4    2.99    1.00
  -7   6   4    3.31    0.86
  -7   6   4    5.30    1.12
  -7   6   4    4.59    1.23
  -7  -6   4    2.99    0.91
  -7  -6   5  126.86   10.43
  -7   6   5  104.20    4.13
  -7  -6   5  122.52    4.44
  -7   6   5  110.90    5.14
  -7   6   5  100.60    4.38
  -7   6   5  111.35    5.27
  -7   6   6  469.84    9.00
  -7   6   6  460.77   10.40
  -7   6   6  471.75   10.34
  -7   6   7  474.51    9.67
  -7  -6   7  440.19    8.47
  -7   6   7  426.95    7.70
  -7   6   7  466.33    9.80
  -7  -6   7  420.28    7.47
  -7   6   8    1.60    0.60
  -7   6   8    3.27    0.70
  -7   6   8    1.44    0.68
  -7  -6   8    1.99    0.60
  -7   6   9   31.07    1.75
  -7   6   9   33.08    1.87
  -7  -6  10   28.57    1.52
  -7   6  10   23.10    1.27
  -7  -7  -3    3.76    0.57
  -7  -7  -2   37.67    2.04
  -7  -7  -2   36.47    1.86
  -7  -7  -2   37.57    2.07
  -7  -7  -1  442.36    6.85
  -7   7  -1  453.72    8.07
  -7  -7  -1  473.02    7.97
  -7  -7  -1  478.72    8.09
  -7  -7   0    2.67    0.73
  -7  -7   0    2.02    0.55
  -7   7   0    3.89    0.89
  -7  -7   1  568.86    9.57
  -7   7   1  549.34    9.61
  -7  -7   1  542.10    8.91
  -7   7   2   68.33    3.41
  -7   7   2   62.70    3.20
  -7  -7   2   71.23    3.38
  -7   7   2   61.44    2.96
  -7  -7   2   67.08    3.01
  -7   7   3  332.48    6.75
  -7   7   3  362.53    7.62
  -7   7   3  356.02    8.04
  -7  -7   3  329.45    6.92
  -7   7   4   81.26    3.39
  -7   7   4   87.28    4.04
  -7   7   4   81.46    3.26
  -7   7   5   78.35    3.03
  -7  -7   5   72.58    3.20
  -7   7   5   67.75    2.80
  -7   7   5   80.88    3.79
  -7   7   6  124.41    4.43
  -7  -7   6  119.09    3.56
  -7  -7   6  131.70    4.06
  -7  -7   7    2.50    0.54
  -7   7   7    1.91    0.58
  -7   7   8  538.34    6.66
  -7  -7   8  594.29    7.40
  -7   8   0   69.51    2.40
  -7  -8   0   68.24    2.23
  -7  -8   0   63.00    2.14
  -7   8   1   32.44    1.77
  -7  -8   1   31.71    1.58
  -7  -8   2   24.69    1.35
  -7   8   2   20.63    1.43
  -7  -8   3   39.61    1.98
  -7   8   3   38.40    1.88
  -7  -8   4   95.69    2.82
  -7   8   4   94.25    3.02
  -7  -8   5  173.51    3.43
  -7   8   5  204.56    4.31
  -7   8   6   99.08    2.67
  -6   0  -8 1716.40   15.78
  -6   0  -7    3.53    0.91
  -6   0  -7    3.68    1.07
  -6   0  -7    2.98    0.96
  -6   0  -6 1575.30   20.05
  -6   0  -6 1553.65   20.82
  -6   0  -6 1585.22   19.64
  -6   0  -5    4.46    2.41
  -6   0  -5   -0.13    0.60
  -6   0  -5    0.42    0.56
  -6   0  -5    4.23    1.22
  -6   0  -4   78.03    4.51
  -6   0  -4   82.68    5.03
  -6   0  -4   80.52    4.61
  -6   0  -4   82.00    4.77
  -6   0  -4   80.51    9.43
  -6   0  -3    5.20    1.32
  -6   0  -3    6.06    1.37
  -6   0  -3    8.42    1.68
  -6   0  -3    4.86    1.28
  -6   0  -3    5.86    2.54
  -6   0  -2 1874.85   22.24
  -6   0  -2 1833.84   21.23
  -6   0  -2 1875.67   21.63
  -6   0  -2 1847.53   20.41
  -6   0  -2 1824.81   21.55
  -6   0  -1    0.21    0.99
  -6   0   0  425.07   19.01
  -6   0   0  400.43   17.04
  -6   0   1    4.32    1.98
  -6   0   1    0.78    1.10
  -6   0   2  870.62   24.85
  -6   0   2  913.37   26.10
  -6   0   3    6.62    2.20
  -6   0   3    5.31    2.22
  -6   0   3    4.27    2.24
  -6   0   4 3991.78   57.34
  -6   0   5   14.37    3.60
  -6   0   6 1017.91   15.41
  -6   0   6 1064.84   30.47
  -6   0   6 1028.08   27.26
  -6   0   7    6.31    2.51
  -6   0   7    7.02    1.40
  -6   0   7    7.31    2.60
  -6   0   7    8.00    1.46
  -6   0   7    8.70    1.57
  -6   0   7    8.12    1.57
  -6   0   8  300.04    8.87
  -6   0   8  311.59    9.22
  -6   0   8  304.91    8.52
  -6   0   8  315.61   17.74
  -6   0   8  296.70    8.47
  -6   0   8  283.55   18.59
  -6   0   9    1.45    0.76
  -6   0   9    2.37    0.91
  -6   0   9    0.87    0.60
  -6   0  10  265.38    7.98
  -6   0  10  267.97    8.54
  -6   0  11   11.97    1.85
  -6   0  11   13.08    1.79
  -6   0  12  431.93    8.86
  -6   0  12  431.07    8.64
  -6   0  13    1.35    0.51
  -6   0  13    1.32    0.48
  -6  -1  -8 1382.53   14.36
  -6   1  -8 1370.58   13.83
  -6   1  -7  189.42    6.28
  -6   1  -7  187.34    5.49
  -6   1  -7  178.29    6.06
  -6  -1  -7  191.15    6.18
  -6  -1  -7  176.88    6.36
  -6  -1  -6  494.73   11.72
  -6   1  -6  504.95   11.57
  -6   1  -6  500.94   10.04
  -6   1  -6  501.28   11.21
  -6  -1  -6  501.37   10.45
  -6  -1  -6  506.87   10.85
  -6  -1  -5   39.16    3.19
  -6   1  -5   50.77    7.35
  -6  -1  -5   43.03    3.63
  -6   1  -5   47.14    3.27
  -6  -1  -5   41.56    3.22
  -6   1  -5   41.66    3.56
  -6  -1  -5   40.57    6.75
  -6  -1  -5   43.61    3.37
  -6   1  -5   47.80    3.65
  -6   1  -5   42.38    3.54
  -6  -1  -4  806.60   14.66
  -6   1  -4  724.14   14.15
  -6  -1  -4  754.69   29.22
  -6  -1  -4  771.89   15.05
  -6  -1  -4  781.39   14.58
  -6   1  -4  753.60   15.17
  -6  -1  -4  765.42   13.92
  -6   1  -4  727.26   28.00
  -6  -1  -4  785.92   13.76
  -6   1  -4  758.98   13.25
  -6   1  -4  752.01   14.57
  -6  -1  -3  255.75    8.22
  -6   1  -3  261.00    8.80
  -6   1  -3  257.84    8.32
  -6  -1  -3  257.43    8.49
  -6   1  -3  267.71    8.21
  -6  -1  -3  259.59    8.35
  -6   1  -3  266.91    7.80
  -6  -1  -3  253.76   16.65
  -6  -1  -3  268.24    7.82
  -6  -1  -3  251.13    8.14
  -6  -1  -3  243.00   16.18
  -6   1  -3  272.92    8.54
  -6   1  -3  254.40   16.41
  -6   1  -2  271.20   16.49
  -6  -1  -2  268.24   16.41
  -6   1  -2  301.38    8.15
  -6  -1  -2  291.03    8.65
  -6  -1  -2  289.15    8.61
  -6  -1  -2  293.11    8.69
  -6   1  -2  291.34    8.95
  -6   1  -2  292.68    8.63
  -6  -1  -2  292.03    8.59
  -6   1  -2  278.07    8.31
  -6  -1  -1  151.33   11.95
  -6  -1  -1  165.04    6.28
  -6   1  -1  172.79    6.42
  -6  -1  -1  163.94    6.35
  -6   1  -1  160.31   12.26
  -6   1  -1  169.33    6.55
  -6   1   0  246.08   14.71
  -6  -1   0  261.42   15.37
  -6  -1   1  820.34   25.13
  -6  -1   1  799.57   26.82
  -6   1   1  773.26   25.09
  -6  -1   2   44.60    5.63
  -6  -1   2   44.48    6.47
  -6   1   2   45.51    5.89
  -6   1   3  128.71    8.52
  -6  -1   3  112.47    8.40
  -6  -1   3  116.42   10.04
  -6  -1   3  125.18   10.54
  -6  -1   4 2278.73   35.50
  -6  -1   4 2291.96   43.93
  -6   1   4 2192.10   42.28
  -6  -1   5 1558.58   36.57
  -6  -1   5 1488.52   31.80
  -6   1   5 1598.55   36.01
  -6  -1   6  914.42   14.58
  -6  -1   6  892.87   14.18
  -6  -1   6  945.47   29.20
  -6  -1   6  926.56   26.81
  -6   1   6  902.42   14.82
  -6   1   6  913.57   14.11
  -6   1   6  891.89   14.50
  -6   1   6  909.91   27.70
  -6   1   6  877.61   14.32
  -6   1   6  892.95   14.70
  -6   1   7  386.78   21.45
  -6   1   7  385.74   18.62
  -6  -1   7  419.30   10.18
  -6   1   7  421.07   10.47
  -6  -1   7  421.33   10.63
  -6   1   7  400.57    9.72
  -6  -1   7  406.16    9.67
  -6   1   7  386.20    9.87
  -6  -1   7  440.50   20.72
  -6  -1   7  410.08    9.42
  -6  -1   7  415.09   19.10
  -6  -1   8  744.72   26.78
  -6  -1   8  766.86   28.25
  -6   1   8  708.64   29.73
  -6   1   8  731.83   13.65
  -6  -1   8  763.04   13.17
  -6  -1   8  771.67   14.60
  -6   1   8  728.62   26.17
  -6  -1   8  742.18   13.83
  -6   1   8  752.55   14.49
  -6  -1   9   77.97    4.66
  -6  -1   9   74.51    8.66
  -6   1   9   64.04    3.90
  -6   1   9   73.33    4.22
  -6  -1   9   75.82    4.46
  -6   1   9   65.97    4.35
  -6  -1   9   76.63    4.46
  -6  -1  10  443.54   10.81
  -6  -1  10  436.19   10.47
  -6   1  10  437.47   10.87
  -6   1  10  431.91    9.85
  -6  -1  11   71.77    4.11
  -6   1  11   68.26    4.09
  -6  -1  11   75.35    4.14
  -6   1  11   67.36    3.71
  -6   1  12  160.55    5.06
  -6  -1  12  145.31    4.53
  -6  -1  12  150.08    5.12
  -6  -1  12  151.21    5.09
  -6   1  12  160.90    5.44
  -6  -1  13  253.92    4.55
  -6  -1  13  248.16    4.85
  -6   1  13  236.53    4.99
  -6   1  13  235.30    5.09
  -6   2  -8   16.70    1.58
  -6  -2  -8   15.63    1.50
  -6   2  -8   15.45    1.35
  -6   2  -7  338.47    8.37
  -6  -2  -7  331.82    7.42
  -6   2  -7  342.36    7.67
  -6  -2  -7  323.55    8.35
  -6   2  -6  416.08   10.18
  -6  -2  -6  385.00   10.06
  -6  -2  -6  383.06    9.12
  -6   2  -6  405.51    9.96
  -6   2  -6  417.83    9.52
  -6  -2  -6  397.36    8.94
  -6  -2  -5   40.58    3.28
  -6  -2  -5   40.04    3.01
  -6   2  -5   43.95    3.52
  -6   2  -5   39.77    3.40
  -6   2  -5   42.63    3.27
  -6  -2  -5   40.39    6.85
  -6  -2  -5   42.73    3.55
  -6  -2  -5   36.76    2.95
  -6   2  -4 1088.33   17.36
  -6   2  -4 1113.95   18.23
  -6  -2  -4 1096.78   17.29
  -6  -2  -4 1088.28   17.75
  -6  -2  -4 1164.95   15.89
  -6  -2  -4 1195.39   17.27
  -6  -2  -4 1070.61   16.87
  -6   2  -4 1094.68   16.67
  -6  -2  -3  141.72    6.20
  -6  -2  -3  135.59   12.95
  -6  -2  -3  141.36    6.04
  -6  -2  -3  148.97    6.42
  -6   2  -3  152.09    6.40
  -6   2  -3  147.60    6.63
  -6  -2  -3  145.59    6.35
  -6   2  -3  157.07   14.14
  -6   2  -3  153.04    6.22
  -6   2  -2    6.87    1.36
  -6  -2  -2    3.18    1.09
  -6   2  -2    3.03    1.03
  -6  -2  -2    7.36    1.48
  -6   2  -2    6.26    1.36
  -6   2  -2    3.89    1.07
  -6  -2  -2    3.91    1.12
  -6  -2  -2    7.54    3.11
  -6   2  -2    2.79    2.19
  -6  -2  -2    3.37    1.03
  -6  -2  -1  810.73   14.28
  -6   2  -1  817.27   13.91
  -6  -2  -1  795.20   13.85
  -6   2  -1  822.72   14.06
  -6   2  -1  848.41   14.90
  -6   2  -1  823.07   14.11
  -6   2  -1  801.04   28.88
  -6  -2  -1  748.49   28.84
  -6  -2  -1  786.60   13.45
  -6   2   0  528.96   22.26
  -6  -2   0  531.98   23.95
  -6   2   1  127.49   10.26
  -6  -2   1  114.74    8.98
  -6  -2   1  128.41   11.67
  -6   2   2  978.44   26.83
  -6  -2   2 1040.36   27.91
  -6  -2   3  459.47   21.47
  -6  -2   3  465.24   17.06
  -6   2   3  470.92   16.97
  -6  -2   3  470.58   20.65
  -6  -2   4  225.33   13.99
  -6  -2   4  217.02   12.38
  -6   2   4  192.65   13.48
  -6  -2   5 2348.41   42.72
  -6  -2   5 2385.47   45.99
  -6   2   5 2419.18   44.03
  -6   2   5 2386.05   50.12
  -6   2   5 2450.21   24.77
  -6   2   6  309.23    8.56
  -6   2   6  320.90    8.67
  -6   2   6  315.95    8.86
  -6  -2   6  345.00   17.37
  -6   2   6  306.94   15.84
  -6  -2   6  337.25    8.82
  -6  -2   6  357.23    8.67
  -6   2   6  319.84    9.11
  -6  -2   6  351.69   18.16
  -6   2   6  299.67   18.54
  -6   2   7  305.98    8.66
  -6  -2   7  363.05    8.75
  -6   2   7  300.79    8.98
  -6  -2   7  366.25   19.10
  -6  -2   7  370.31   18.69
  -6   2   7  302.23    8.70
  -6  -2   7  355.63    8.99
  -6   2   7  314.71    9.16
  -6  -2   7  345.26    9.30
  -6   2   7  299.94   19.28
  -6  -2   8  814.91   15.13
  -6   2   8  835.10   32.69
  -6  -2   8  765.62   14.07
  -6   2   8  851.93   15.12
  -6   2   8  868.82   15.56
  -6  -2   8  835.01   13.50
  -6  -2   8  807.32   28.65
  -6  -2   9   41.18    3.40
  -6  -2   9   43.07    6.83
  -6   2   9   46.42    3.45
  -6   2   9   52.49    3.89
  -6  -2   9   39.40    3.20
  -6   2  10   31.47    2.96
  -6   2  10   31.94    2.65
  -6  -2  10   34.61    3.00
  -6  -2  10   31.96    2.90
  -6  -2  10   29.06    5.39
  -6   2  10   30.90    2.54
  -6  -2  11   97.62    4.60
  -6   2  11  110.57    5.04
  -6   2  11  104.02    4.32
  -6  -2  11  101.78    4.77
  -6  -2  12  290.08    7.00
  -6  -2  12  278.69    6.36
  -6   2  12  310.00    7.27
  -6  -2  12  277.50    6.43
  -6   2  12  307.28    6.47
  -6  -2  13  167.77    4.24
  -6   2  13  158.87    3.97
  -6   2  13  156.71    3.58
  -6  -2  13  159.43    3.65
  -6   3  -8   33.05    2.05
  -6  -3  -8   32.40    1.93
  -6   3  -7  206.28    5.85
  -6  -3  -7  219.24    5.39
  -6   3  -7  203.59    6.16
  -6  -3  -7  212.70    6.29
  -6  -3  -6 1065.58   15.91
  -6   3  -6 1064.77   15.75
  -6   3  -6 1040.09   15.75
  -6  -3  -6 1050.75   14.76
  -6   3  -6 1064.17   15.18
  -6   3  -5   91.22    4.89
  -6  -3  -5   87.51    4.89
  -6  -3  -5   77.67    4.27
  -6   3  -5   99.85    5.16
  -6  -3  -5   87.35    4.70
  -6   3  -5   97.18    4.95
  -6  -3  -4  606.64   12.92
  -6  -3  -4  590.11   12.62
  -6   3  -4  601.88   12.68
  -6   3  -4  586.95   12.63
  -6  -3  -4  571.77   12.43
  -6   3  -4  599.59   13.15
  -6  -3  -3  392.51   10.47
  -6  -3  -3  413.93   10.59
  -6  -3  -3  389.55   10.30
  -6   3  -3  423.21   11.17
  -6   3  -3  425.33   10.73
  -6   3  -3  413.80   10.61
  -6  -3  -2 1379.64   18.58
  -6   3  -2 1334.52   18.55
  -6   3  -2 1333.08   19.73
  -6  -3  -2 1383.60   19.32
  -6  -3  -2 1321.53   41.39
  -6   3  -2 1324.76   18.95
  -6   3  -2 1347.20   40.40
  -6  -3  -2 1379.71   19.06
  -6   3  -1 1744.99   44.35
  -6  -3  -1 1713.97   46.32
  -6  -3  -1 1759.95   21.40
  -6  -3  -1 1774.87   21.06
  -6  -3  -1 1746.99   20.20
  -6   3  -1 1663.93   20.58
  -6   3  -1 1706.47   21.79
  -6   3  -1 1684.86   20.40
  -6  -3   0   60.26    3.57
  -6  -3   0   61.99    3.92
  -6   3   0   64.39    4.07
  -6  -3   0   59.93    6.75
  -6   3   0   61.01    4.07
  -6   3   0   62.73    8.03
  -6  -3   0   55.47    3.65
  -6  -3   0   56.19    8.31
  -6   3   0   62.38    3.83
  -6   3   1  255.60    7.57
  -6   3   1  282.24    8.36
  -6   3   1  256.01    7.87
  -6  -3   1  271.98    8.01
  -6   3   1  279.44   15.84
  -6  -3   1  263.17   14.62
  -6  -3   1  278.90    7.85
  -6  -3   1  260.88   17.61
  -6  -3   2 1791.06   39.31
  -6  -3   2 1801.91   20.02
  -6  -3   2 1808.91   46.22
  -6   3   2 1850.11   21.41
  -6   3   2 1796.77   38.09
  -6   3   3   92.82    4.88
  -6   3   3   99.85    9.46
  -6  -3   3   87.02   10.00
  -6  -3   3   84.17    8.87
  -6   3   3  103.28    5.13
  -6   3   4  716.73   13.63
  -6   3   4  728.75   26.96
  -6   3   4  735.57   13.93
  -6  -3   4  731.95   26.35
  -6  -3   4  738.21   25.74
  -6  -3   4  744.53   12.95
  -6  -3   4  728.80   28.37
  -6  -3   5 1361.98   17.22
  -6   3   5 1318.41   18.93
  -6  -3   5 1421.84   35.80
  -6   3   5 1281.47   17.49
  -6   3   5 1325.25   38.13
  -6  -3   5 1357.14   35.14
  -6   3   5 1305.38   18.43
  -6  -3   5 1406.47   32.50
  -6  -3   6 1275.63   34.99
  -6   3   6 1281.11   18.46
  -6   3   6 1358.68   18.42
  -6   3   6 1299.04   39.24
  -6  -3   6 1288.07   17.55
  -6  -3   6 1312.08   35.36
  -6   3   6 1330.33   19.35
  -6   3   6 1320.22   18.47
  -6  -3   6 1318.16   16.61
  -6   3   7  208.23    7.39
  -6   3   7  198.43   15.88
  -6   3   7  207.76    7.52
  -6  -3   7  200.97    6.77
  -6   3   7  202.36    7.62
  -6  -3   7  188.83   13.88
  -6   3   8  422.55   10.47
  -6  -3   8  406.88   10.12
  -6   3   8  424.04   10.95
  -6   3   8  427.58   10.99
  -6  -3   8  409.26   20.69
  -6   3   9  233.84    7.78
  -6  -3   9  231.48    7.86
  -6   3   9  230.40    8.01
  -6  -3   9  225.50    7.34
  -6  -3   9  232.77   15.59
  -6   3  10   45.92    2.84
  -6  -3  10   37.03    3.01
  -6   3  10   42.44    3.34
  -6   3  10   41.79    2.99
  -6  -3  10   35.59    6.01
  -6  -3  11  481.38    9.90
  -6  -3  11  482.03    9.47
  -6  -3  12   12.88    1.25
  -6   3  12   10.96    1.09
  -6   3  12   11.32    1.37
  -6  -3  13   36.09    1.78
  -6  -3  13   34.54    1.57
  -6   3  13   31.46    1.54
  -6   4  -7  138.58    3.91
  -6  -4  -7  129.03    3.76
  -6  -4  -7  134.19    4.47
  -6  -4  -6  343.62    7.92
  -6   4  -6  363.85    8.42
  -6   4  -6  355.04    8.38
  -6  -4  -6  351.32    8.37
  -6   4  -5   85.25    4.47
  -6   4  -5   89.22    4.68
  -6   4  -5   86.54    4.69
  -6  -4  -5   94.44    4.51
  -6  -4  -5   97.41    4.75
  -6  -4  -5   97.94    4.89
  -6  -4  -4  876.76   15.01
  -6  -4  -4  859.94   14.85
  -6  -4  -4  831.51   14.58
  -6   4  -4  802.25   15.06
  -6   4  -4  763.98   13.87
  -6   4  -4  797.49   14.66
  -6   4  -3  269.12    8.32
  -6  -4  -3  296.51    8.75
  -6  -4  -3  289.59    8.86
  -6  -4  -3  281.64    8.74
  -6   4  -3  279.14    9.12
  -6  -4  -2  446.05   11.05
  -6   4  -2  431.31   10.39
  -6  -4  -2  445.82   10.53
  -6   4  -2  430.92   11.39
  -6  -4  -2  446.72   10.94
  -6   4  -1  831.31   31.44
  -6   4  -1  780.56   13.78
  -6  -4  -1  820.06   13.77
  -6  -4  -1  801.37   14.38
  -6   4  -1  832.71   14.59
  -6   4  -1  804.92   15.44
  -6   4   0  270.92   17.33
  -6  -4   0  307.04    8.70
  -6  -4   0  289.14   19.57
  -6  -4   0  300.93   16.23
  -6   4   0  272.29    8.60
  -6   4   0  271.41    8.76
  -6   4   0  253.00    7.65
  -6   4   1  240.56    7.94
  -6  -4   1  235.66    7.38
  -6  -4   1  231.22   14.62
  -6   4   1  240.51    8.11
  -6  -4   1  237.79   17.48
  -6   4   1  246.08   15.77
  -6   4   2  802.04   14.84
  -6  -4   2  761.31   31.30
  -6   4   2  780.42   13.89
  -6  -4   2  748.37   26.98
  -6  -4   2  827.54   13.30
  -6  -4   2  776.02   13.49
  -6   4   2  802.55   14.32
  -6   4   2  783.87   26.80
  -6   4   3  561.39   12.45
  -6  -4   3  553.22   26.25
  -6  -4   3  600.92   24.70
  -6   4   3  551.00   11.30
  -6   4   3  546.16   12.39
  -6  -4   3  581.56   11.32
  -6  -4   4  450.77   23.33
  -6   4   4  501.32   12.01
  -6   4   4  501.00   10.43
  -6   4   4  507.92   12.04
  -6  -4   4  455.52   20.53
  -6   4   4  513.18   23.29
  -6  -4   4  477.58   22.63
  -6  -4   5   47.02    7.62
  -6   4   5   52.61    4.00
  -6   4   5   53.37    3.68
  -6  -4   5   60.93    8.13
  -6  -4   5   51.49    7.00
  -6   4   5   55.40    3.81
  -6  -4   5   62.86    3.79
  -6   4   5   55.52    4.08
  -6   4   5   49.12    7.62
  -6   4   6  102.57    5.55
  -6  -4   6   89.55    9.75
  -6   4   6  104.75   11.40
  -6   4   6   98.20    5.09
  -6   4   6   96.10    5.31
  -6   4   6  109.04    5.27
  -6  -4   6   85.65    8.97
  -6   4   7  244.60    8.51
  -6  -4   7  233.20   14.83
  -6   4   7  243.47    7.90
  -6  -4   7  247.23    7.38
  -6   4   7  250.02    8.25
  -6  -4   7  231.71   15.71
  -6   4   8  114.92    5.70
  -6   4   8  106.31    5.35
  -6  -4   8  129.80    5.57
  -6   4   8  115.24    5.63
  -6  -4   8  140.33   12.13
  -6   4   9 1295.68   16.78
  -6   4   9 1339.47   18.23
  -6   4   9 1386.03   18.99
  -6  -4   9 1410.94   37.37
  -6  -4   9 1377.83   16.94
  -6  -4   9 1452.74   18.85
  -6  -4  10  312.25    7.99
  -6  -4  10  312.48   16.55
  -6   4  11  241.80    6.50
  -6  -4  11  262.52    6.74
  -6  -4  11  249.69    6.01
  -6   4  12   11.16    1.20
  -6  -4  12    9.90    1.13
  -6  -5  -7    7.60    0.87
  -6   5  -7    7.54    0.83
  -6  -5  -6   19.37    1.73
  -6   5  -6   11.84    1.29
  -6  -5  -6   17.62    1.60
  -6   5  -6   10.93    1.29
  -6  -5  -5   47.65    2.94
  -6  -5  -5   48.21    3.06
  -6  -5  -5   48.46    3.07
  -6   5  -5   50.18    3.17
  -6   5  -5   48.25    3.00
  -6   5  -4   40.32    3.18
  -6   5  -4   40.80    2.95
  -6  -5  -4   40.59    3.01
  -6  -5  -4   37.74    2.97
  -6  -5  -4   40.20    3.11
  -6  -5  -3  225.85    7.58
  -6  -5  -3  232.82    7.31
  -6   5  -3  251.60    7.49
  -6   5  -3  247.67    8.26
  -6  -5  -3  224.72    7.49
  -6   5  -2 1238.96   19.03
  -6   5  -2 1215.21   16.51
  -6  -5  -2 1173.74   17.32
  -6  -5  -2 1175.58   16.34
  -6  -5  -1  473.82   10.91
  -6  -5  -1  480.16   10.14
  -6   5   0  191.92    7.46
  -6   5   0  188.69    7.10
  -6  -5   0  227.36    7.42
  -6  -5   0  231.76   15.02
  -6  -5   1  325.79    8.62
  -6  -5   1  318.53   18.02
  -6   5   1  326.69    9.57
  -6   5   1  317.74    9.35
  -6   5   1  310.49    9.39
  -6   5   2   58.89    3.94
  -6   5   2   53.04    4.04
  -6   5   2   49.92    3.70
  -6   5   2   53.28    3.99
  -6  -5   2   64.97    8.38
  -6  -5   3  342.43   19.39
  -6   5   3  310.64    9.59
  -6   5   3  313.71    9.41
  -6  -5   3  344.30    8.77
  -6   5   3  298.93    8.70
  -6   5   3  304.59    9.86
  -6  -5   4    9.81    3.54
  -6   5   4    6.07    1.49
  -6   5   4    6.03    1.27
  -6   5   4    6.22    1.47
  -6   5   4    6.34    1.56
  -6   5   5  181.17    6.68
  -6   5   5  176.51    7.36
  -6  -5   5  171.22    6.07
  -6   5   5  176.24    7.60
  -6  -5   5  168.47   13.89
  -6   5   5  173.76    6.49
  -6   5   5  187.75    6.37
  -6   5   6 1111.39   16.31
  -6  -5   6 1187.08   35.66
  -6   5   6 1162.25   18.96
  -6   5   6 1106.98   16.68
  -6   5   6 1167.95   18.72
  -6   5   7  455.96   11.48
  -6  -5   7  435.28   21.37
  -6   5   7  455.42   11.38
  -6  -5   7  466.34    9.57
  -6   5   7  447.42   10.66
  -6   5   7  444.39   10.06
  -6   5   8   83.71    4.70
  -6  -5   8   54.78    7.45
  -6   5   8   78.34    4.42
  -6  -5   8   57.48    3.47
  -6   5   8   78.65    4.36
  -6   5   9  242.52    7.24
  -6   5   9  239.96    6.55
  -6   5   9  235.74    7.22
  -6  -5   9  233.92   14.37
  -6  -5   9  239.78    7.06
  -6  -5   9  222.81    5.91
  -6  -5  10  461.18    8.41
  -6   5  10  515.20    9.57
  -6  -5  11 1032.64   11.47
  -6   5  11 1020.41   11.43
  -6  -6  -6   68.14    2.37
  -6  -6  -6   68.01    2.38
  -6   6  -5  127.87    3.69
  -6  -6  -5  112.02    3.72
  -6  -6  -5  121.10    3.92
  -6  -6  -5  116.54    4.01
  -6   6  -5  134.17    4.12
  -6  -6  -5  116.81    3.39
  -6   6  -4  178.18    4.97
  -6  -6  -4  177.44    5.32
  -6   6  -4  175.98    5.67
  -6  -6  -4  174.44    5.54
  -6  -6  -4  170.51    5.51
  -6  -6  -3   57.92    3.23
  -6  -6  -3   61.67    3.58
  -6  -6  -3   59.92    3.59
  -6  -6  -2 1510.64   18.77
  -6  -6  -2 1516.87   18.07
  -6   6  -2 1555.46   19.79
  -6  -6  -2 1493.45   16.42
  -6  -6  -1  146.70    5.70
  -6   6  -1  154.75    6.46
  -6   6  -1  152.38    5.87
  -6  -6   0 1305.47   35.59
  -6  -6   0 1371.28   17.13
  -6   6   0 1292.45   16.75
  -6   6   0 1300.52   18.79
  -6  -6   1  893.08   30.29
  -6   6   1  863.47   14.77
  -6   6   1  886.28   15.40
  -6  -6   1  931.90   13.62
  -6  -6   2   25.18    5.23
  -6   6   2   33.08    2.86
  -6  -6   2   27.66    2.52
  -6   6   2   34.73    3.14
  -6   6   2   34.36    3.05
  -6   6   3   48.53    3.62
  -6   6   3   45.89    3.40
  -6  -6   3   49.63    3.19
  -6  -6   3   47.22    7.31
  -6   6   3   48.40    3.86
  -6   6   4  226.85    8.30
  -6   6   4  216.59    6.94
  -6   6   4  225.64    7.99
  -6   6   4  222.45    7.17
  -6  -6   4  215.86    6.80
  -6  -6   4  211.08   15.53
  -6  -6   5   60.99    8.22
  -6   6   5   53.43    3.38
  -6   6   5   51.96    3.90
  -6   6   5   46.27    3.17
  -6   6   5   52.68    3.98
  -6   6   6  530.55   11.97
  -6   6   6  497.10   10.27
  -6   6   6  528.45   12.00
  -6  -6   6  546.50   23.33
  -6  -6   7   90.39    9.20
  -6   6   7  103.23    5.13
  -6   6   7  103.27    4.95
  -6   6   7   96.86    4.49
  -6   6   8  136.29    5.43
  -6  -6   8  143.98   10.89
  -6   6   8  136.29    5.09
  -6   6   8  130.71    4.97
  -6  -6   8  132.72    4.38
  -6  -6   9  135.93    4.48
  -6   6   9  138.32    4.68
  -6   6  10  268.62    5.63
  -6  -6  10  207.62    4.25
  -6  -7  -4  120.14    3.65
  -6  -7  -4  120.85    3.62
  -6  -7  -4  106.86    2.88
  -6   7  -4  125.38    3.56
  -6   7  -4  112.50    3.35
  -6  -7  -3  307.62    5.55
  -6   7  -3  326.39    6.59
  -6  -7  -3  325.72    6.65
  -6   7  -3  328.10    7.04
  -6  -7  -3  321.14    6.94
  -6   7  -2  976.16   13.41
  -6  -7  -2  988.38   12.33
  -6  -7  -2  990.66   13.19
  -6  -7  -1  265.91    7.13
  -6   7  -1  266.84    6.64
  -6   7  -1  277.34    7.62
  -6  -7  -1  263.49    6.51
  -6  -7   0  617.66    9.82
  -6   7   0  640.99   12.00
  -6  -7   0  653.46   11.32
  -6   7   1  421.67    9.84
  -6   7   1  405.36    9.05
  -6   7   2   50.05    3.39
  -6  -7   2   51.30    3.02
  -6   7   2   49.87    3.41
  -6  -7   3  320.59    7.67
  -6   7   3  322.34    8.89
  -6   7   3  325.31    8.35
  -6   7   3  296.77    7.08
  -6   7   4   91.12    3.79
  -6   7   4   93.34    4.31
  -6   7   4   93.86    4.87
  -6   7   5   18.07    2.14
  -6   7   5   25.00    2.16
  -6  -7   5   29.10    5.15
  -6  -7   6   20.72    1.69
  -6   7   6   25.01    1.88
  -6   7   6   27.07    2.40
  -6   7   7  270.78    6.74
  -6   7   7  259.16    5.86
  -6   7   8   48.99    2.36
  -6   7   8   49.87    2.44
  -6   7   9  306.37    5.02
  -6  -8  -2   88.57    2.98
  -6   8  -2   75.20    2.79
  -6   8  -1  171.81    4.74
  -6  -8  -1  163.75    4.40
  -6   8   0  102.95    3.93
  -6  -8   0   98.67    3.49
  -6   8   1  114.16    3.69
  -6  -8   1  105.55    3.52
  -6   8   1  120.06    4.39
  -6   8   2  309.76    6.76
  -6   8   2  310.45    7.03
  -6   8   3   42.31    2.63
  -6   8   3   41.37    2.52
  -6   8   4   54.06    2.79
  -6   8   4   43.08    2.63
  -6   8   5  261.25    6.18
  -6  -8   5  236.39    4.70
  -6   8   6   99.46    3.49
  -6   8   7  297.48    4.99
  -5   0  -9  272.29    7.02
  -5   0  -8   10.30    1.48
  -5   0  -8    8.76    1.46
  -5   0  -8    8.28    1.52
  -5   0  -7  101.88    5.28
  -5   0  -7  101.48    4.95
  -5   0  -7  106.41    5.56
  -5   0  -6   12.33    1.89
  -5   0  -6   19.26    2.27
  -5   0  -5 1272.69   18.20
  -5   0  -5 1269.59   36.51
  -5   0  -5 1264.04   17.98
  -5   0  -5 1311.15   19.78
  -5   0  -4    2.62    0.89
  -5   0  -4    1.97    1.89
  -5   0  -4    4.00    1.09
  -5   0  -4    3.30    1.03
  -5   0  -4    4.02    1.17
  -5   0  -3  500.02   19.56
  -5   0  -3  501.17   21.57
  -5   0  -2   -0.28    1.26
  -5   0  -2    1.14    1.21
  -5   0  -1  270.28   14.29
  -5   0  -1  287.35   13.15
  -5   0   0    3.14    1.45
  -5   0   0    3.22    1.76
  -5   0   1  234.08   11.52
  -5   0   1  236.22   11.94
  -5   0   2    3.31    1.65
  -5   0   2    0.59    0.87
  -5   0   3 3283.11   40.84
  -5   0   3 3452.60   48.27
  -5   0   4   12.43    2.71
  -5   0   4   12.20    2.98
  -5   0   5  185.40   10.64
  -5   0   5  202.21   11.93
  -5   0   6    1.38    1.36
  -5   0   7  428.86   18.93
  -5   0   8    1.28    0.69
  -5   0   8    1.82    0.86
  -5   0   8    2.79    1.94
  -5   0   8    1.38    0.72
  -5   0   8    1.71    2.12
  -5   0   9  142.63   13.17
  -5   0   9  146.27    6.45
  -5   0   9  151.07    6.36
  -5   0  10    8.37    1.65
  -5   0  10    7.87    1.63
  -5   0  11 1118.97   16.58
  -5   0  11 1146.36   16.93
  -5   0  11 1096.30   15.16
  -5   0  12   23.51    2.04
  -5   0  12   25.57    2.39
  -5   0  12   19.77    2.02
  -5   0  13   62.73    2.64
  -5   0  13   64.76    3.09
  -5   0  14    6.18    0.72
  -5   1  -9  164.70    4.76
  -5   1  -9  156.13    4.22
  -5  -1  -9  152.34    5.03
  -5  -1  -9  147.15    4.36
  -5   1  -8  201.73    7.02
  -5  -1  -8  196.17    6.57
  -5   1  -8  196.84    6.12
  -5   1  -8  205.69    6.05
  -5  -1  -8  193.80    6.72
  -5   1  -8  194.97    6.40
  -5   1  -7  636.74   12.69
  -5   1  -7  642.05   13.43
  -5   1  -7  648.69   11.91
  -5  -1  -7  633.23   13.43
  -5   1  -7  634.34   13.10
  -5  -1  -7  642.89   12.75
  -5   1  -6   16.25    2.00
  -5  -1  -6   19.42    4.70
  -5   1  -6   13.98    1.99
  -5   1  -6   14.99    1.96
  -5   1  -6   15.19    2.24
  -5  -1  -6   17.60    2.41
  -5   1  -6   14.96    2.18
  -5  -1  -6   23.47    2.42
  -5  -1  -6   16.69    2.14
  -5   1  -5  172.58   13.24
  -5   1  -5  161.36    6.75
  -5  -1  -5  167.56    6.46
  -5   1  -5  168.91    6.23
  -5  -1  -5  160.03    6.93
  -5   1  -5  174.13   14.59
  -5   1  -5  160.71    6.13
  -5  -1  -5  153.38   13.15
  -5   1  -5  163.07    7.09
  -5  -1  -5  158.78    6.42
  -5  -1  -5  169.69    6.52
  -5  -1  -4  376.40    9.48
  -5  -1  -4  382.37    9.77
  -5  -1  -4  393.07   10.36
  -5   1  -4  394.73    9.32
  -5  -1  -4  372.08   19.30
  -5   1  -4  404.32   10.75
  -5   1  -4  400.49    9.24
  -5  -1  -4  381.11    9.31
  -5   1  -4  403.65   19.89
  -5   1  -4  393.27   10.04
  -5   1  -3  466.80   20.68
  -5  -1  -3  514.29   21.52
  -5   1  -2 1070.25   29.84
  -5  -1  -2 1075.08   29.53
  -5   1  -1 1025.07   28.06
  -5  -1  -1 1047.94   27.69
  -5  -1   0  628.86   17.20
  -5   1   0  635.55   21.16
  -5   1   0  626.52   16.04
  -5  -1   0  616.60   20.80
  -5   1   1 1356.47   23.56
  -5   1   1 1407.08   30.04
  -5  -1   1 1446.80   32.06
  -5  -1   1 1421.49   27.18
  -5   1   2 1317.76   24.60
  -5  -1   2 1311.91   27.41
  -5  -1   2 1350.88   31.47
  -5   1   2 1273.31   27.46
  -5   1   3  877.17   24.40
  -5  -1   3  875.10   24.69
  -5   1   3  795.73   18.59
  -5  -1   3  850.62   20.17
  -5  -1   3  850.16   20.55
  -5  -1   4  525.47   14.89
  -5  -1   4  495.14   16.84
  -5   1   4  483.71   17.90
  -5  -1   4  523.56   19.11
  -5  -1   5 1893.52   35.42
  -5   1   5 1868.20   35.67
  -5  -1   6 1437.72   33.02
  -5   1   6 1472.93   33.02
  -5   1   7   48.95    3.55
  -5   1   7   46.91    7.12
  -5  -1   8  194.65   13.84
  -5  -1   8  194.82    6.96
  -5   1   8  210.55    7.09
  -5   1   8  182.47   14.76
  -5  -1   8  202.87    7.40
  -5   1   8  196.18    6.98
  -5   1   8  204.21    7.51
  -5   1   9   48.55    7.84
  -5  -1   9   39.89    3.40
  -5   1   9   43.85    3.60
  -5   1   9   44.48    3.44
  -5  -1   9   40.13    6.96
  -5  -1   9   40.74    6.60
  -5   1  10  455.99   11.28
  -5  -1  10  514.96   11.81
  -5  -1  10  502.49   11.75
  -5   1  10  478.54   11.13
  -5  -1  11  552.19   11.86
  -5   1  11  606.62   12.35
  -5   1  11  574.47   10.26
  -5   1  11  601.41   12.01
  -5  -1  11  540.98   11.28
  -5   1  12  131.10    4.33
  -5   1  12  131.50    5.06
  -5  -1  12  121.92    5.05
  -5  -1  12  119.14    4.58
  -5  -1  12  124.93    4.75
  -5   1  12  136.56    5.20
  -5   1  13  331.84    6.74
  -5  -1  13  327.94    6.27
  -5  -1  13  336.13    6.92
  -5  -1  14  244.20    4.18
  -5   1  14  248.96    4.07
  -5   2  -9  211.27    5.50
  -5   2  -9  210.42    5.12
  -5  -2  -9  201.78    5.11
  -5  -2  -9  208.59    5.31
  -5   2  -8  196.88    6.44
  -5  -2  -8  217.74    6.44
  -5   2  -8  201.16    6.12
  -5  -2  -8  203.04    6.71
  -5   2  -8  195.79    6.00
  -5   2  -7  516.91   11.41
  -5   2  -7  525.52   11.00
  -5  -2  -7  528.14   10.89
  -5  -2  -7  508.12   11.86
  -5   2  -7  513.21   10.95
  -5   2  -7  522.63   12.13
  -5   2  -6  344.55   10.17
  -5   2  -6  356.16   10.10
  -5  -2  -6  332.72   10.03
  -5   2  -6  348.60    9.38
  -5  -2  -6  324.33    9.10
  -5  -2  -6  335.76    8.97
  -5  -2  -5   95.21    5.06
  -5   2  -5  104.10    5.60
  -5   2  -5  107.02    5.24
  -5   2  -5  109.25    5.74
  -5  -2  -5   99.92    4.86
  -5  -2  -5   93.89    5.30
  -5  -2  -4  235.80    7.13
  -5   2  -4  256.77   17.48
  -5   2  -4  247.43    8.34
  -5  -2  -4  227.34    7.79
  -5  -2  -4  223.29    7.88
  -5   2  -4  247.02    7.75
  -5  -2  -4  227.29    7.71
  -5  -2  -4  200.83   15.04
  -5   2  -4  256.07    8.65
  -5  -2  -4  221.75    7.62
  -5   2  -3  372.94    9.81
  -5   2  -3  369.28   20.31
  -5  -2  -3  351.24    9.24
  -5   2  -3  361.60   18.41
  -5   2  -3  355.06    8.95
  -5  -2  -3  369.62    9.37
  -5  -2  -3  365.97    9.55
  -5   2  -3  369.51   10.01
  -5  -2  -3  356.11    9.32
  -5  -2  -3  322.44   18.33
  -5   2  -2 1969.33   41.46
  -5  -2  -2 1941.93   43.05
  -5   2  -1 2112.29   43.01
  -5   2  -1 2128.77   41.73
  -5  -2  -1 2120.47   43.29
  -5  -2   0 4720.00   62.91
  -5  -2   0 4888.24   52.26
  -5   2   0 4758.37   60.11
  -5   2   0 4795.81   60.71
  -5  -2   1   66.96    6.38
  -5  -2   1   62.33    7.19
  -5   2   1   64.09    6.64
  -5   2   2   54.98    5.73
  -5  -2   2   56.37    7.00
  -5  -2   2   63.44    7.05
  -5  -2   2   67.81    6.64
  -5  -2   3  556.37   19.85
  -5  -2   3  551.95   20.04
  -5   2   3  546.30   16.46
  -5   2   4 1606.85   32.24
  -5   2   4 1543.31   35.71
  -5  -2   4 1578.49   34.79
  -5  -2   4 1643.23   34.64
  -5  -2   5 2238.65   40.97
  -5  -2   5 2243.69   41.93
  -5   2   5 2260.66   38.47
  -5   2   5 2191.33   45.64
  -5  -2   5 2112.07   35.62
  -5  -2   6  357.22   17.36
  -5  -2   6  339.52   15.12
  -5   2   6  375.62   16.18
  -5   2   6  371.47   19.56
  -5  -2   7  503.01   10.79
  -5   2   7  456.21   18.62
  -5   2   7  460.83   10.97
  -5  -2   7  527.05   19.92
  -5   2   7  457.25   10.71
  -5   2   7  462.77   10.63
  -5   2   7  442.10   22.72
  -5  -2   7  512.64   22.00
  -5  -2   8  969.37   16.25
  -5   2   8  952.98   15.68
  -5  -2   8  935.35   15.14
  -5   2   8  964.41   16.38
  -5   2   8  919.02   14.74
  -5   2   8  950.63   34.43
  -5  -2   8  951.79   31.42
  -5  -2   9  553.74   24.57
  -5   2   9  578.89   12.01
  -5  -2   9  537.41   12.15
  -5  -2   9  532.17   11.48
  -5   2   9  533.04   11.61
  -5   2   9  541.44   12.60
  -5  -2  10  512.18   23.50
  -5   2  10  484.14   11.65
  -5   2  10  486.06   10.85
  -5  -2  10  507.95   11.47
  -5   2  11  601.43   12.18
  -5  -2  11  615.78   11.56
  -5  -2  11  629.70   12.52
  -5   2  11  605.61   11.59
  -5  -2  12    4.00    0.78
  -5  -2  12    4.04    1.03
  -5  -2  12    3.33    0.77
  -5   2  12    3.75    0.96
  -5  -2  12    3.72    0.93
  -5   2  12    5.13    1.03
  -5   2  13   16.36    1.41
  -5  -2  13   21.95    1.62
  -5  -2  13   21.60    1.72
  -5   2  13   15.86    1.32
  -5  -3  -9  280.59    4.82
  -5  -3  -9  295.64    5.66
  -5   3  -8   67.02    3.04
  -5  -3  -8   64.18    3.07
  -5   3  -8   70.07    3.56
  -5  -3  -8   62.27    3.53
  -5   3  -8   69.57    3.69
  -5   3  -7 1214.90   16.69
  -5   3  -7 1227.45   17.12
  -5  -3  -7 1132.65   15.38
  -5   3  -7 1159.98   16.15
  -5  -3  -7 1191.29   14.88
  -5  -3  -7 1165.96   17.37
  -5  -3  -6  816.15   13.07
  -5   3  -6  790.38   14.07
  -5  -3  -6  792.95   14.16
  -5  -3  -6  808.94   15.30
  -5   3  -6  769.55   14.13
  -5  -3  -5 1169.98   18.20
  -5  -3  -5 1138.48   17.33
  -5  -3  -5 1171.29   17.82
  -5   3  -5 1188.12   18.39
  -5   3  -5 1200.94   18.00
  -5  -3  -5 1191.87   18.73
  -5  -3  -4  344.58    9.59
  -5  -3  -4  352.25    9.97
  -5   3  -4  380.63    9.86
  -5  -3  -4  359.17    9.83
  -5   3  -4  372.26   10.48
  -5   3  -4  373.49   10.00
  -5   3  -4  390.11   21.97
  -5  -3  -4  362.27    9.85
  -5  -3  -3 1150.74   17.10
  -5   3  -3 1184.65   37.31
  -5   3  -3 1165.62   17.06
  -5  -3  -3 1140.02   16.78
  -5   3  -3 1165.23   18.09
  -5   3  -3 1134.22   16.79
  -5  -3  -3 1178.57   17.45
  -5   3  -2  450.29   22.04
  -5   3  -2  408.24   10.37
  -5  -3  -2  365.30    8.94
  -5  -3  -2  350.62   19.56
  -5   3  -2  412.54    9.86
  -5  -3  -2  371.50    9.29
  -5   3  -2  405.31    9.81
  -5  -3  -1 1196.85   27.97
  -5   3  -1 1211.12   34.25
  -5  -3  -1 1192.82   34.80
  -5   3   0  751.41   25.23
  -5  -3   0  717.00   26.25
  -5  -3   0  739.01   22.40
  -5   3   1 1056.23   28.44
  -5  -3   1 1043.84   31.42
  -5  -3   1 1022.38   26.94
  -5  -3   1 1050.37   24.62
  -5   3   2  222.69   12.36
  -5   3   2  231.81   12.56
  -5  -3   2  229.64   13.11
  -5  -3   2  231.15   14.91
  -5  -3   2  213.72   11.75
  -5  -3   3  118.46    9.45
  -5   3   3  131.67   10.35
  -5  -3   3  121.75   10.79
  -5  -3   3  114.00    9.50
  -5   3   3  120.08    8.48
  -5   3   4  322.84   17.19
  -5  -3   4  290.75   15.80
  -5  -3   4  299.22   15.07
  -5   3   5  187.42   13.81
  -5  -3   5  201.18   12.78
  -5  -3   5  201.78   13.50
  -5   3   6  713.04   12.99
  -5   3   6  697.92   27.82
  -5   3   6  689.91   13.32
  -5   3   6  723.16   13.80
  -5  -3   6  811.73   25.77
  -5  -3   6  777.62   27.25
  -5   3   6  723.29   13.65
  -5  -3   7  522.20   21.49
  -5   3   7  548.76   12.25
  -5   3   7  524.82   12.06
  -5  -3   7  535.28   23.48
  -5   3   7  537.03   11.77
  -5   3   7  536.71   25.86
  -5   3   8  418.23   11.01
  -5   3   8  405.90   10.65
  -5   3   8  394.32    9.46
  -5  -3   8  416.02   10.03
  -5  -3   8  422.87   21.46
  -5   3   8  402.74   23.16
  -5  -3   9  107.84   11.01
  -5   3   9  117.67    5.23
  -5   3   9  121.81    5.67
  -5   3   9  121.87    5.98
  -5  -3   9  105.29    4.98
  -5  -3   9  102.73    5.29
  -5   3  10  322.57    8.46
  -5   3  10  325.35    9.45
  -5  -3  10  336.54    8.96
  -5  -3  10  335.14   18.77
  -5  -3  11  128.15    5.47
  -5   3  11  124.81    5.40
  -5   3  11  121.27    4.85
  -5  -3  11  121.48    4.82
  -5   3  12  257.35    6.10
  -5   3  12  253.05    6.54
  -5  -3  13  178.27    4.36
  -5  -3  13  176.47    4.18
  -5   3  13  183.33    3.95
  -5   3  13  173.51    3.71
  -5   4  -8  173.89    5.25
  -5  -4  -8  184.44    5.45
  -5   4  -8  180.53    5.27
  -5   4  -7  334.61    8.39
  -5  -4  -7  346.97    8.07
  -5  -4  -7  351.93    8.80
  -5   4  -7  338.93    7.68
  -5   4  -7  349.60    8.55
  -5  -4  -6  409.21    9.46
  -5   4  -6  418.34   10.28
  -5  -4  -6  416.70   10.47
  -5  -4  -6  405.40    9.80
  -5   4  -6  419.61   10.14
  -5  -4  -5   28.81    2.78
  -5  -4  -5   31.32    2.96
  -5   4  -5   38.69    3.42
  -5  -4  -5   30.74    3.01
  -5   4  -5   36.84    3.23
  -5  -4  -5   33.15    3.01
  -5  -4  -4  298.22    9.07
  -5   4  -4  292.06    8.94
  -5  -4  -4  300.77    8.86
  -5   4  -4  299.09    9.67
  -5   4  -4  286.13    8.94
  -5  -4  -4  299.39    9.14
  -5   4  -3  355.82   21.21
  -5   4  -3  345.76    9.71
  -5   4  -3  348.01    9.77
  -5   4  -3  363.56   10.59
  -5  -4  -3  413.09   10.47
  -5  -4  -3  411.11   10.00
  -5   4  -2   47.92    7.76
  -5   4  -2   52.37    3.74
  -5  -4  -2   54.54    3.71
  -5   4  -2   48.28    3.82
  -5  -4  -2   58.15    3.59
  -5   4  -2   48.06    3.66
  -5  -4  -2   52.23    8.10
  -5   4  -1  374.22   20.31
  -5   4  -1  348.76    8.61
  -5  -4  -1  339.45   16.50
  -5  -4  -1  325.92   19.26
  -5   4  -1  355.68    9.46
  -5   4  -1  354.33    9.95
  -5  -4  -1  346.11    8.71
  -5   4  -1  354.13    9.53
  -5   4   0  161.84    6.23
  -5   4   0  164.06    6.38
  -5   4   0  156.88   12.51
  -5   4   0  149.10    6.25
  -5  -4   0  148.82   11.11
  -5  -4   0  149.30   12.83
  -5   4   1  417.83   19.41
  -5  -4   1  390.60   18.12
  -5  -4   1  402.04   17.22
  -5  -4   1  407.86   20.96
  -5  -4   2  278.23   17.30
  -5  -4   2  281.69   15.70
  -5  -4   2  283.05   15.00
  -5   4   2  242.77   14.14
  -5   4   3  426.97   18.90
  -5   4   3  418.60   10.40
  -5  -4   3  435.87   18.46
  -5  -4   3  408.08   21.25
  -5   4   3  392.28   16.97
  -5  -4   3  406.55   19.30
  -5  -4   4 1200.86   34.16
  -5   4   4 1194.27   34.10
  -5   4   4 1195.58   18.03
  -5   4   4 1196.67   17.84
  -5  -4   4 1142.76   35.48
  -5   4   5 1610.94   20.31
  -5  -4   5 1611.79   36.58
  -5  -4   5 1625.29   40.80
  -5   4   5 1639.91   19.64
  -5   4   5 1610.28   21.34
  -5   4   5 1655.50   21.64
  -5   4   5 1663.80   42.87
  -5  -4   6  733.43   26.73
  -5   4   6  678.72   28.91
  -5   4   6  650.28   12.72
  -5   4   6  685.62   14.30
  -5   4   6  708.61   13.92
  -5  -4   6  740.70   25.96
  -5  -4   6  725.37   27.82
  -5  -4   7  449.07   22.33
  -5   4   7  484.98   11.15
  -5   4   7  483.72   25.09
  -5   4   7  478.78   11.92
  -5   4   7  493.97   11.93
  -5   4   8  244.70    8.42
  -5   4   8  249.83    8.18
  -5   4   8  249.41    8.55
  -5  -4   8  243.50   16.49
  -5  -4   8  238.52    7.46
  -5  -4   8  230.35   15.48
  -5   4   9  357.56   10.12
  -5   4   9  354.31    8.56
  -5  -4   9  371.58   20.08
  -5  -4   9  367.76    9.65
  -5   4   9  357.90    9.66
  -5  -4  10 1481.70   37.88
  -5  -4  10 1451.00   17.40
  -5   4  10 1427.59   16.99
  -5   4  10 1400.84   16.22
  -5  -4  11   33.77    2.24
  -5  -4  11   36.86    2.79
  -5   4  11   46.05    3.08
  -5   4  11   41.79    2.54
  -5  -4  12  112.74    4.00
  -5   4  12  103.13    3.68
  -5   4  12  105.02    3.27
  -5  -5  -8  129.19    3.70
  -5   5  -8  133.34    3.70
  -5  -5  -7  351.77    7.23
  -5   5  -7  372.83    7.73
  -5  -5  -7  358.05    7.85
  -5  -5  -6  444.97    9.88
  -5  -5  -6  423.55    9.33
  -5   5  -6  449.38    9.17
  -5  -5  -6  434.34    9.01
  -5   5  -6  460.47   10.02
  -5   5  -6  438.36    9.38
  -5   5  -5  334.01    9.24
  -5  -5  -5  371.74    9.37
  -5  -5  -5  370.82    9.55
  -5   5  -5  340.72    9.25
  -5  -5  -5  379.37    9.75
  -5  -5  -5  383.40    9.30
  -5   5  -4   23.33    2.60
  -5  -5  -4   30.77    2.92
  -5  -5  -4   27.23    2.73
  -5  -5  -4   30.12    2.69
  -5   5  -4   22.93    2.70
  -5   5  -4   22.77    2.55
  -5   5  -3  723.02   14.87
  -5  -5  -3  718.65   13.61
  -5   5  -3  690.92   13.92
  -5   5  -3  718.05   14.29
  -5  -5  -3  745.18   13.06
  -5  -5  -2  156.00   11.80
  -5   5  -2  161.27    6.72
  -5   5  -2  159.07    5.98
  -5   5  -2  164.80    7.15
  -5  -5  -2  162.95    5.90
  -5  -5  -2  154.11    6.14
  -5   5  -1  617.18   13.67
  -5   5  -1  612.91   12.95
  -5  -5  -1  594.94   23.49
  -5  -5  -1  631.42   11.89
  -5   5  -1  648.86   28.26
  -5  -5   0   43.18    6.49
  -5   5   0   48.42    7.50
  -5   5   0   46.58    3.70
  -5  -5   0   36.54    6.70
  -5   5   0   46.40    3.57
  -5   5   0   41.40    3.29
  -5   5   0   42.81    3.30
  -5  -5   1  918.81   28.89
  -5   5   1  891.70   15.41
  -5   5   1  888.41   15.70
  -5  -5   1  923.92   14.11
  -5  -5   1  865.77   29.18
  -5   5   1  910.62   15.68
  -5   5   1  877.21   30.43
  -5  -5   1  837.35   31.68
  -5  -5   2  581.31   24.28
  -5  -5   2  603.04   24.07
  -5   5   2  621.01   13.45
  -5   5   2  598.31   12.59
  -5   5   2  594.13   12.31
  -5   5   2  601.52   12.98
  -5   5   2  605.40   24.17
  -5  -5   2  578.80   26.13
  -5   5   3   58.95    4.23
  -5  -5   3   70.53    8.68
  -5   5   3   59.82    4.08
  -5  -5   3   63.00    8.12
  -5  -5   3   72.80    9.43
  -5   5   3   52.50    3.74
  -5   5   3   66.17    4.48
  -5  -5   4   76.35    9.70
  -5   5   4   69.32    4.15
  -5   5   4   70.63    4.20
  -5  -5   4   82.56    9.51
  -5   5   4   79.65    4.80
  -5   5   4   73.64    4.82
  -5   5   4   66.83    8.40
  -5   5   5  378.28   21.02
  -5   5   5  365.79   10.69
  -5   5   5  359.00    9.29
  -5   5   5  390.67    9.58
  -5   5   5  366.28    9.90
  -5  -5   5  393.24   21.04
  -5   5   5  388.04   10.87
  -5  -5   6 1328.82   38.28
  -5   5   6 1362.14   20.61
  -5   5   6 1363.81   19.56
  -5  -5   6 1350.31   38.12
  -5   5   6 1312.38   20.18
  -5  -5   6 1394.27   39.97
  -5   5   6 1258.50   17.50
  -5   5   7  332.15    9.89
  -5  -5   7  347.88   19.88
  -5   5   7  323.21    9.93
  -5  -5   7  343.78   19.32
  -5   5   7  335.88    9.85
  -5   5   7  311.59    8.59
  -5  -5   8  796.83   29.22
  -5  -5   8  793.42   12.63
  -5   5   8  798.25   14.99
  -5   5   8  791.83   14.89
  -5   5   8  793.18   14.04
  -5  -5   9  261.40   16.07
  -5  -5   9  249.36    7.35
  -5   5   9  286.69    8.28
  -5   5   9  296.43    8.71
  -5   5  10   74.24    3.19
  -5   5  10   76.75    4.09
  -5  -5  10   85.77    3.69
  -5   5  11   50.94    2.21
  -5  -5  11   45.21    2.69
  -5   5  11   50.75    2.83
  -5  -5  12  272.36    4.91
  -5   5  12  284.29    4.87
  -5  -5  12  284.30    5.00
  -5  -6  -7  356.01    5.72
  -5   6  -7  341.65    5.37
  -5  -6  -6   28.35    2.12
  -5  -6  -6   28.76    2.17
  -5   6  -6   29.19    1.83
  -5   6  -6   28.98    2.00
  -5  -6  -6   27.45    1.92
  -5  -6  -5  830.55   12.58
  -5  -6  -5  876.03   13.06
  -5  -6  -5  861.33   13.06
  -5   6  -5  823.98   12.30
  -5   6  -5  824.66   11.71
  -5  -6  -4  471.90   10.37
  -5   6  -4  515.38   11.12
  -5  -6  -4  469.00   10.12
  -5   6  -4  504.73    9.66
  -5  -6  -3  705.07   12.62
  -5   6  -3  720.79   14.15
  -5  -6  -3  708.48   11.47
  -5   6  -3  717.46   13.69
  -5  -6  -2  259.89   15.62
  -5  -6  -2  273.64    7.80
  -5   6  -2  266.25    8.51
  -5   6  -2  262.44    8.78
  -5  -6  -1  688.32   11.99
  -5  -6  -1  629.66   25.10
  -5   6  -1  643.10   13.79
  -5  -6   0   54.11    7.58
  -5  -6   0   58.62    3.66
  -5   6   0   63.03    4.33
  -5   6   0   69.85    4.34
  -5   6   0   65.02    4.01
  -5   6   1  413.09   10.57
  -5   6   1  414.28   10.14
  -5   6   1  410.82   10.97
  -5  -6   1  410.83   21.14
  -5   6   2   16.71    2.29
  -5   6   2   18.38    2.24
  -5   6   2   16.96    2.26
  -5   6   3   47.53    3.69
  -5   6   3   49.22    3.94
  -5  -6   3   57.06    8.09
  -5   6   3   51.49    3.84
  -5   6   4   32.60    3.29
  -5  -6   4   23.80    5.40
  -5   6   4   34.91    3.08
  -5   6   4   32.02    3.14
  -5   6   4   36.55    2.89
  -5   6   5  414.90   11.35
  -5   6   5  414.54   11.23
  -5   6   5  401.04    9.84
  -5   6   5  386.03    9.97
  -5   6   5  375.73    9.04
  -5  -6   5  428.55   22.09
  -5   6   6  111.62    5.71
  -5   6   6  109.54    5.82
  -5   6   6  115.82    4.98
  -5   6   6  107.60    4.70
  -5   6   6  113.58    5.51
  -5  -6   7  186.82   14.04
  -5   6   7  202.99    7.22
  -5   6   7  207.72    7.34
  -5   6   7  210.60    7.73
  -5   6   8   88.31    4.65
  -5   6   8   88.88    4.58
  -5   6   8   89.22    4.29
  -5   6   9  243.04    6.92
  -5  -6   9  221.52    5.92
  -5   6  10   19.22    1.74
  -5  -6  11   42.46    1.97
  -5   6  11   46.92    2.10
  -5  -7  -6   52.32    2.11
  -5  -7  -6   49.26    1.96
  -5   7  -5  195.13    4.37
  -5  -7  -5  214.84    5.10
  -5  -7  -5  214.69    5.25
  -5   7  -5  202.03    5.41
  -5  -7  -5  224.40    5.45
  -5  -7  -4  281.32    6.95
  -5  -7  -4  291.93    6.97
  -5   7  -4  254.11    6.42
  -5  -7  -4  284.32    6.51
  -5   7  -4  249.26    6.84
  -5  -7  -3  751.74   11.94
  -5   7  -3  798.16   13.05
  -5  -7  -3  737.98   11.00
  -5   7  -3  804.39   13.18
  -5  -7  -2    9.54    1.34
  -5  -7  -2    8.76    1.39
  -5   7  -2    7.66    1.44
  -5   7  -2    6.71    1.42
  -5  -7  -1  428.05    9.24
  -5   7  -1  404.72    9.82
  -5   7  -1  413.11   10.41
  -5  -7   0  244.00   15.76
  -5  -7   0  245.16    6.80
  -5   7   0  268.23    8.54
  -5   7   0  267.39    7.95
  -5   7   0  261.83    7.54
  -5  -7   1   21.26    4.83
  -5   7   1   17.48    2.23
  -5   7   1   16.15    1.96
  -5   7   1   17.78    2.15
  -5   7   2  359.26    9.81
  -5   7   2  351.09    9.67
  -5   7   2  351.95    8.56
  -5   7   3   26.81    2.70
  -5   7   3   27.30    2.84
  -5  -7   3   22.84    5.04
  -5  -7   4 1291.95   37.13
  -5   7   4 1304.36   17.72
  -5   7   4 1330.89   19.33
  -5   7   5  269.27    8.49
  -5   7   5  247.98    7.18
  -5   7   5  257.70    7.41
  -5   7   6  117.11    5.27
  -5   7   6  118.31    4.95
  -5   7   7  191.59    6.02
  -5   7   7  187.69    6.07
  -5   7   8   26.82    2.12
  -5   7   8   29.22    2.03
  -5   7   9  104.43    3.63
  -5  -7  10  272.64    4.53
  -5   7  10  286.70    4.72
  -5  -8  -4  195.30    4.33
  -5  -8  -4  190.09    3.99
  -5   8  -3  133.88    4.04
  -5  -8  -3  137.42    4.24
  -5  -8  -3  136.53    3.84
  -5   8  -3  133.85    4.12
  -5   8  -2  153.30    4.98
  -5  -8  -2  140.47    4.12
  -5   8  -2  143.21    4.65
  -5   8  -1  127.73    4.92
  -5  -8  -1  114.80    3.74
  -5   8  -1  118.62    4.42
  -5   8   0  166.87    5.86
  -5   8   0  158.49    5.16
  -5   8   0  170.62    5.05
  -5   8   1   48.74    3.01
  -5   8   1   53.24    3.02
  -5   8   1   51.05    3.31
  -5   8   2  272.93    7.48
  -5   8   2  275.41    7.59
  -5   8   3  131.07    5.09
  -5   8   3  137.48    5.43
  -5   8   4  281.57    7.17
  -5   8   4  290.47    7.83
  -5   8   5  207.87    6.26
  -5   8   6  249.52    6.26
  -5   8   7  183.64    4.57
  -5   9  -1  397.86    5.85
  -5   9   0  146.01    4.05
  -5  -9   0  133.44    3.24
  -5   9   1  248.42    5.45
  -5   9   1  198.64    4.07
  -5   9   2   51.35    2.37
  -5   9   3   43.93    2.28
  -5   9   4  392.54    6.57
  -5   9   5  131.89    3.46
  -4   0 -10  266.19    6.90
  -4   0  -9    3.88    0.91
  -4   0  -9    3.25    0.80
  -4   0  -9    2.32    0.91
  -4   0  -8    7.49    1.40
  -4   0  -8    6.67    1.26
  -4   0  -8    5.40    1.31
  -4   0  -8    4.65    1.34
  -4   0  -8    4.08    0.98
  -4   0  -7    3.78    1.03
  -4   0  -7    2.39    1.00
  -4   0  -7    2.87    1.08
  -4   0  -7    2.44    0.81
  -4   0  -6  103.14    5.27
  -4   0  -6  101.70    4.74
  -4   0  -6   97.80   10.06
  -4   0  -6   97.10    5.38
  -4   0  -5    1.83    0.82
  -4   0  -5    3.64    1.01
  -4   0  -5    1.43    1.27
  -4   0  -5    2.87    1.78
  -4   0  -4 1036.90   27.43
  -4   0  -3    1.32    1.01
  -4   0  -2 3288.76   41.04
  -4   0  -1    1.51    0.90
  -4   0   0 5030.78   45.54
  -4   0   1    2.04    1.16
  -4   0   1    2.88    1.25
  -4   0   2  878.41   21.83
  -4   0   2  829.79   18.49
  -4   0   3    1.49    0.65
  -4   0   3    1.52    1.06
  -4   0   3    1.61    1.34
  -4   0   3    3.25    1.29
  -4   0   4 2021.87   31.32
  -4   0   4 1929.73   23.25
  -4   0   5    2.27    1.46
  -4   0   6  979.66   26.40
  -4   0   7   13.24    3.61
  -4   0   7   13.77    3.74
  -4   0   8    6.47    1.37
  -4   0   8    7.00    1.44
  -4   0   8    8.73    3.27
  -4   0   9   26.88    2.88
  -4   0   9   20.44    2.45
  -4   0   9   25.59    5.51
  -4   0  10  989.11   16.92
  -4   0  10  983.58   16.37
  -4   0  11    7.10    1.48
  -4   0  11    6.60    1.22
  -4   0  11    7.98    1.63
  -4   0  11    5.43    1.32
  -4   0  12  852.67   12.38
  -4   0  12  819.63   12.75
  -4   0  12  865.16   14.02
  -4   0  13   12.89    1.52
  -4   0  13   11.12    1.28
  -4   0  14  135.84    3.38
  -4   1 -10  106.31    3.60
  -4   1 -10  113.69    4.46
  -4  -1 -10  109.34    4.31
  -4   1  -9   40.82    3.17
  -4   1  -9   43.08    2.90
  -4  -1  -9   43.78    3.22
  -4  -1  -9   42.42    2.94
  -4   1  -9   42.76    2.87
  -4   1  -9   42.12    2.93
  -4  -1  -8  199.82    7.53
  -4   1  -8  209.13    6.99
  -4   1  -8  206.34    7.67
  -4   1  -8  207.22    6.96
  -4  -1  -8  201.56    7.39
  -4   1  -7  407.87   10.03
  -4   1  -7  410.70   10.96
  -4  -1  -7  420.23   10.78
  -4   1  -7  413.36   11.01
  -4  -1  -7  426.56   11.47
  -4   1  -7  404.94   10.00
  -4   1  -6  114.94   11.01
  -4   1  -6  111.13    5.59
  -4   1  -6  108.57    5.11
  -4   1  -6  111.17    5.42
  -4  -1  -6  121.99    6.04
  -4  -1  -6  120.26   11.57
  -4   1  -6  112.24    5.80
  -4  -1  -6  134.52    6.25
  -4  -1  -6  131.14    5.83
  -4  -1  -5  216.83    7.66
  -4   1  -5  242.09    7.60
  -4  -1  -5  226.32    7.67
  -4  -1  -5  209.95   14.18
  -4   1  -5  253.04   15.02
  -4   1  -5  250.12    7.89
  -4  -1  -5  216.76    7.15
  -4   1  -5  232.98    7.13
  -4   1  -5  246.53    8.29
  -4  -1  -5  211.33    6.98
  -4  -1  -4   38.76    5.70
  -4   1  -4   36.99    5.59
  -4   1  -3 1185.99   24.71
  -4  -1  -3 1119.22   28.08
  -4   1  -3 1144.26   29.08
  -4   1  -2  525.83   18.67
  -4   1  -2  529.12   14.71
  -4  -1  -2  474.47   17.11
  -4  -1  -1 1845.93   25.03
  -4  -1  -1 1801.88   31.43
  -4   1  -1 1881.60   25.05
  -4   1  -1 1876.64   33.42
  -4  -1   0 1185.26   24.90
  -4  -1   0 1218.53   21.35
  -4   1   0 1187.42   25.28
  -4   1   0 1185.84   18.61
  -4  -1   1 1264.17   26.06
  -4  -1   1 1292.91   23.04
  -4   1   1 1263.53   19.48
  -4  -1   1 1296.79   26.55
  -4   1   2  204.00   10.19
  -4  -1   2  205.21   10.96
  -4  -1   2  193.90    9.56
  -4   1   2  197.35    9.57
  -4  -1   3  639.95   18.38
  -4  -1   3  678.07   19.38
  -4  -1   3  643.23   14.94
  -4   1   3  604.36   17.67
  -4   1   4  154.14    9.05
  -4  -1   4  145.00    8.93
  -4  -1   4  147.80    7.69
  -4   1   4  151.36    8.41
  -4   1   5   16.24    3.20
  -4  -1   5   19.57    3.12
  -4  -1   5   21.42    3.78
  -4  -1   6 1799.97   36.47
  -4  -1   6 1780.65   32.30
  -4   1   6 1834.84   40.02
  -4  -1   7  747.76   25.53
  -4  -1   7  780.61   26.71
  -4   1   7  745.79   27.13
  -4   1   8  777.57   14.31
  -4  -1   8  662.84   12.96
  -4  -1   8  650.25   12.36
  -4   1   8  756.53   13.90
  -4  -1   8  729.59   27.85
  -4   1   8  734.45   28.78
  -4  -1   8  644.37   25.53
  -4  -1   8  665.31   25.83
  -4   1   9 1060.09   15.67
  -4   1   9 1074.10   36.17
  -4   1   9 1100.84   17.59
  -4   1   9 1119.13   17.56
  -4  -1   9 1094.31   17.16
  -4  -1   9 1096.26   34.54
  -4  -1   9 1126.58   36.40
  -4   1  10 1877.67   21.22
  -4   1  10 1906.33   23.13
  -4  -1  10 2078.35   23.44
  -4   1  10 1942.71   23.41
  -4  -1  10 2021.72   24.46
  -4   1  11  179.14    6.71
  -4  -1  11  210.68    7.60
  -4   1  11  175.39    6.24
  -4  -1  11  203.54    6.87
  -4   1  11  180.08    6.96
  -4   1  12  322.72    7.81
  -4   1  12  317.05    7.53
  -4  -1  12  316.87    7.21
  -4   1  12  316.86    8.36
  -4  -1  12  324.81    8.17
  -4  -1  12  336.63    8.69
  -4   1  13   39.00    2.47
  -4  -1  13   46.03    2.70
  -4  -1  13   47.78    2.62
  -4  -1  13   45.72    2.15
  -4  -1  14   47.98    1.94
  -4   1  14   43.05    1.85
  -4   2 -10  171.20    4.73
  -4  -2 -10  163.52    4.85
  -4   2 -10  173.04    4.69
  -4  -2  -9   47.74    3.17
  -4  -2  -9   45.57    3.03
  -4   2  -9   42.53    2.92
  -4   2  -9   40.01    2.89
  -4  -2  -8   81.03    4.50
  -4   2  -8  100.42    5.30
  -4   2  -8   99.37    4.93
  -4  -2  -8   80.44    4.76
  -4   2  -8  106.73    5.12
  -4  -2  -7 1149.89   17.27
  -4  -2  -7 1145.56   18.78
  -4   2  -7 1165.80   18.09
  -4   2  -7 1154.50   17.40
  -4   2  -7 1155.70   18.54
  -4   2  -7 1163.61   17.55
  -4  -2  -7 1147.39   18.58
  -4  -2  -6  325.05    9.75
  -4   2  -6  302.41    9.06
  -4  -2  -6  310.28    8.78
  -4   2  -6  325.37   18.65
  -4   2  -6  313.82    9.56
  -4   2  -6  303.77    8.88
  -4   2  -6  321.60    9.66
  -4  -2  -6  318.17    9.79
  -4  -2  -6  306.25    8.88
  -4   2  -6  314.91    9.07
  -4  -2  -5  640.24   12.07
  -4  -2  -5  625.31   25.89
  -4   2  -5  644.56   13.50
  -4   2  -5  638.51   12.63
  -4   2  -5  645.23   25.96
  -4  -2  -5  664.99   13.59
  -4   2  -5  645.68   12.51
  -4  -2  -5  632.90   12.57
  -4   2  -5  646.11   12.46
  -4  -2  -5  655.19   13.17
  -4   2  -5  657.24   13.36
  -4  -2  -4  925.73   29.47
  -4   2  -4 1030.18   31.44
  -4   2  -4  977.75   28.04
  -4   2  -3  816.96   26.75
  -4   2  -3  835.99   25.34
  -4   2  -2 3089.36   49.51
  -4   2  -2 3049.57   46.31
  -4   2  -1 3669.63   51.00
  -4   2  -1 3590.56   48.13
  -4   2   0 2181.80   36.10
  -4   2   0 2267.12   36.98
  -4  -2   0 2193.96   27.48
  -4  -2   0 2209.46   31.55
  -4  -2   0 2221.16   37.57
  -4   2   0 2214.46   28.09
  -4  -2   1  873.71   22.05
  -4  -2   1  834.33   19.96
  -4  -2   1  874.74   23.61
  -4   2   1  807.15   20.99
  -4  -2   1  830.95   18.15
  -4   2   2 1457.98   25.72
  -4  -2   2 1438.66   27.39
  -4  -2   2 1405.01   25.40
  -4   2   3 1475.19   24.12
  -4  -2   3 1569.11   30.11
  -4   2   3 1561.38   27.77
  -4  -2   3 1630.33   30.78
  -4   2   3 1528.19   31.10
  -4  -2   4  222.88   12.21
  -4   2   4  190.94    9.84
  -4   2   4  186.35   11.91
  -4  -2   5  751.02   23.22
  -4   2   5  771.05   20.50
  -4  -2   5  746.37   21.22
  -4   2   5  738.73   25.15
  -4  -2   6  212.23   12.14
  -4  -2   6  219.82   13.37
  -4   2   6  198.09   13.92
  -4  -2   7  586.06   21.70
  -4   2   7  590.95   25.17
  -4  -2   7  593.60   23.51
  -4  -2   8  160.67    6.44
  -4  -2   8  157.65   13.37
  -4  -2   8  157.97   12.88
  -4   2   8  146.75    6.37
  -4   2   8  136.99    5.87
  -4   2   8  128.19   12.53
  -4  -2   8  152.07    5.94
  -4  -2   9   53.54    7.84
  -4   2   9   50.69    3.71
  -4  -2   9   57.12    3.91
  -4   2   9   44.43    7.65
  -4   2   9   55.63    4.07
  -4  -2  10  545.86   11.78
  -4   2  10  636.90   11.62
  -4  -2  10  529.81   24.47
  -4   2  10  638.13   13.55
  -4   2  10  652.53   13.23
  -4   2  11 1193.87   17.26
  -4  -2  11 1173.07   15.68
  -4   2  11 1143.86   14.75
  -4   2  11 1210.75   17.32
  -4  -2  11 1182.94   17.72
  -4  -2  12  478.63   10.09
  -4  -2  12  465.37    8.79
  -4  -2  12  474.41    9.80
  -4   2  12  443.44    9.48
  -4  -2  13   35.17    2.20
  -4   2  13   35.66    2.21
  -4  -2  13   35.45    2.27
  -4  -2  13   34.09    1.87
  -4  -3 -10  914.02    9.50
  -4   3 -10  932.43   10.22
  -4   3 -10  918.21   10.36
  -4  -3  -9   64.00    3.26
  -4  -3  -9   64.89    3.49
  -4   3  -9   58.85    3.31
  -4   3  -9   58.33    3.37
  -4  -3  -8  174.90    6.80
  -4  -3  -8  181.99    6.22
  -4   3  -8  184.83    6.64
  -4  -3  -7  174.14    6.59
  -4   3  -7  155.88    6.65
  -4  -3  -7  168.56    6.28
  -4   3  -7  160.80    6.69
  -4   3  -7  150.68    6.15
  -4  -3  -7  167.60    7.11
  -4   3  -7  156.97    6.53
  -4  -3  -7  162.68    6.92
  -4   3  -6  354.42    9.96
  -4  -3  -6  358.70   10.46
  -4   3  -6  379.66    9.60
  -4  -3  -6  354.86    9.18
  -4   3  -6  352.76    9.98
  -4   3  -6  379.17   10.75
  -4  -3  -6  353.01    9.79
  -4   3  -6  355.26    9.90
  -4  -3  -6  353.60   10.15
  -4  -3  -5  680.41   28.34
  -4   3  -5  709.06   14.45
  -4   3  -5  678.23   13.45
  -4   3  -5  672.24   12.78
  -4   3  -5  692.97   27.54
  -4   3  -5  690.44   13.64
  -4   3  -5  694.94   13.88
  -4  -3  -5  709.20   14.29
  -4  -3  -5  698.96   13.73
  -4   3  -5  676.73   13.38
  -4   3  -4 1395.65   18.35
  -4  -3  -4 1466.73   17.82
  -4   3  -4 1418.29   38.39
  -4  -3  -4 1464.91   18.86
  -4   3  -4 1436.68   19.79
  -4   3  -4 1350.58   17.60
  -4   3  -4 1409.58   18.71
  -4  -3  -4 1388.80   38.60
  -4   3  -4 1387.21   19.38
  -4  -3  -4 1479.11   19.53
  -4   3  -4 1437.40   18.57
  -4   3  -3  849.70   28.53
  -4  -3  -3  742.12   26.76
  -4  -3  -2  435.03   19.30
  -4  -3  -2  439.31   18.20
  -4   3  -1  283.10   15.17
  -4  -3  -1  261.25   13.57
  -4  -3  -1  264.91   14.41
  -4   3   0  161.46   10.82
  -4  -3   0  158.68   10.14
  -4  -3   0  150.33    8.55
  -4  -3   0  151.57   10.64
  -4   3   1  695.94   21.09
  -4  -3   1  678.11   18.85
  -4  -3   1  698.95   20.13
  -4  -3   1  690.76   20.70
  -4   3   1  656.57   17.46
  -4  -3   1  687.03   22.66
  -4   3   2 1226.67   26.74
  -4   3   2 1194.83   26.06
  -4  -3   2 1239.47   30.76
  -4  -3   2 1153.84   25.73
  -4  -3   2 1234.49   27.26
  -4  -3   2 1152.47   26.78
  -4  -3   3 1016.50   26.13
  -4   3   3 1030.67   23.03
  -4   3   3  983.74   25.75
  -4  -3   3 1004.22   25.34
  -4  -3   3 1068.69   25.69
  -4   3   4  529.97   20.40
  -4  -3   4  495.53   19.20
  -4   3   4  521.44   15.87
  -4  -3   5  268.05   14.81
  -4   3   5  258.25   15.33
  -4  -3   6  961.73   28.29
  -4  -3   6 1007.91   30.45
  -4   3   6 1032.43   32.88
  -4  -3   7  325.35   18.23
  -4  -3   7  319.65   17.26
  -4   3   7  294.82    8.97
  -4   3   7  292.87    8.18
  -4   3   7  304.18    8.79
  -4   3   7  292.54    8.80
  -4   3   7  287.75   18.61
  -4   3   8  868.66   15.92
  -4   3   8  858.19   14.62
  -4   3   8  854.02   15.25
  -4  -3   8  813.21   29.74
  -4   3   8  878.27   33.78
  -4  -3   9  151.06    6.25
  -4   3   9  143.42    6.56
  -4   3   9  154.85    6.36
  -4  -3   9  137.02   12.47
  -4  -3   9  147.85   12.08
  -4   3  10  163.59    6.83
  -4   3  10  161.12    6.42
  -4  -3  10  149.89    5.90
  -4  -3  10  148.72   12.86
  -4   3  11   89.42    4.49
  -4  -3  11   95.24    4.90
  -4   3  12  355.63    7.83
  -4  -3  12  327.53    7.78
  -4  -3  12  332.03    7.93
  -4   3  12  354.92    7.68
  -4  -3  13   56.57    2.53
  -4  -3  13   53.05    2.17
  -4  -4  -9  277.28    5.41
  -4   4  -9  300.33    6.91
  -4  -4  -9  278.24    6.51
  -4   4  -9  304.92    6.83
  -4   4  -8   17.79    2.01
  -4  -4  -8   22.34    1.90
  -4  -4  -8   21.16    2.00
  -4  -4  -8   20.64    2.24
  -4  -4  -7  749.30   14.48
  -4   4  -7  756.12   13.99
  -4   4  -7  771.14   12.97
  -4  -4  -7  735.54   13.33
  -4   4  -7  732.52   12.28
  -4  -4  -7  761.09   12.07
  -4   4  -7  752.57   13.87
  -4  -4  -7  759.70   14.27
  -4   4  -6  300.69    9.04
  -4  -4  -6  332.70    8.24
  -4   4  -6  293.51    8.76
  -4  -4  -6  323.99    9.87
  -4  -4  -6  321.12    9.51
  -4   4  -6  296.39    9.07
  -4   4  -6  301.29    8.73
  -4   4  -5  225.44    7.91
  -4  -4  -5  221.01    8.05
  -4  -4  -5  211.31    7.64
  -4   4  -5  231.54    8.24
  -4   4  -5  214.64    7.53
  -4   4  -5  221.99    7.70
  -4  -4  -4  602.14   26.53
  -4   4  -4  641.68   12.73
  -4   4  -4  642.20   12.94
  -4  -4  -4  624.75   12.60
  -4   4  -4  675.78   14.23
  -4   4  -4  646.29   13.13
  -4  -4  -4  651.01   13.35
  -4   4  -4  705.92   28.41
  -4   4  -3   47.11    7.25
  -4   4  -3   47.51    3.46
  -4  -4  -3   57.51    7.94
  -4   4  -3   65.82    4.02
  -4   4  -3   48.66    3.35
  -4   4  -3   55.23    4.06
  -4  -4  -3   63.70    7.79
  -4  -4  -3   61.86    3.77
  -4   4  -2 1888.72   43.81
  -4  -4  -2 1871.86   42.84
  -4   4  -2 1802.68   20.24
  -4   4  -2 1805.19   22.19
  -4  -4  -2 1897.88   40.32
  -4   4  -2 1826.95   20.46
  -4   4  -1  219.97   14.42
  -4  -4  -1  198.84   13.45
  -4  -4  -1  203.00   13.02
  -4  -4   0  692.34   21.23
  -4  -4   0  687.37   23.27
  -4   4   0  690.05   24.71
  -4  -4   0  665.88   24.14
  -4  -4   1 1251.38   33.04
  -4  -4   1 1206.93   30.17
  -4  -4   1 1192.92   28.50
  -4  -4   2   62.66    7.46
  -4  -4   2   70.97    7.39
  -4  -4   2   63.77    6.82
  -4  -4   2   73.54    7.40
  -4  -4   2   67.82    6.35
  -4   4   2   45.52    5.43
  -4   4   2   45.52    5.83
  -4  -4   3  610.75   22.25
  -4  -4   3  638.07   20.43
  -4   4   3  558.58   20.67
  -4  -4   3  596.98   21.80
  -4   4   3  571.13   19.52
  -4  -4   3  626.17   23.87
  -4  -4   4  376.89   18.08
  -4  -4   4  391.04   16.38
  -4  -4   4  356.15   17.71
  -4   4   4  399.18   18.67
  -4  -4   5 3901.83   60.11
  -4   4   5 3791.68   61.71
  -4  -4   6   20.01    4.77
  -4  -4   6   23.71    4.95
  -4  -4   6   25.69    5.17
  -4   4   6   46.78    3.36
  -4   4   6   36.60    3.23
  -4   4   6   37.05    3.21
  -4   4   6   37.08    6.63
  -4   4   7  840.86   15.59
  -4   4   7  837.58   15.22
  -4  -4   7  901.39   30.80
  -4   4   7  845.95   32.96
  -4  -4   7  888.10   31.31
  -4   4   7  782.13   14.09
  -4   4   7  827.22   13.93
  -4   4   7  848.72   15.71
  -4  -4   8   86.24   10.00
  -4   4   8   97.85    5.34
  -4  -4   8   95.35   10.32
  -4   4   8   95.37    5.42
  -4   4   8   90.69    4.74
  -4   4   9  108.22    5.16
  -4  -4   9  102.49    5.05
  -4   4   9  110.38    5.74
  -4   4   9  110.63    5.43
  -4  -4   9  100.03   10.34
  -4  -4   9  106.63   11.05
  -4  -4  10  389.58   20.01
  -4   4  10  368.48    9.15
  -4   4  10  379.03   10.05
  -4   4  11  393.39    8.66
  -4   4  11  403.87    9.24
  -4   4  12  407.81    7.31
  -4  -4  12  353.80    7.29
  -4  -4  12  353.88    7.29
  -4   4  12  388.88    7.13
  -4  -4  13    5.90    0.71
  -4   5  -9   85.49    3.02
  -4  -5  -9   79.17    2.72
  -4  -5  -8  211.30    5.53
  -4   5  -8  209.68    5.97
  -4  -5  -8  213.20    6.21
  -4   5  -7  229.87    7.14
  -4  -5  -7  212.40    6.88
  -4  -5  -7  205.74    6.63
  -4  -5  -7  209.02    7.05
  -4   5  -6 1189.39   17.11
  -4  -5  -6 1217.29   17.38
  -4  -5  -6 1226.00   18.24
  -4   5  -6 1211.92   17.20
  -4   5  -6 1179.00   16.04
  -4   5  -6 1194.10   17.44
  -4   5  -5   43.08    3.45
  -4   5  -5   43.20    3.36
  -4  -5  -5   43.19    3.35
  -4   5  -5   41.84    3.36
  -4   5  -5   42.31    3.43
  -4  -5  -5   40.46    3.44
  -4  -5  -4   23.65    2.61
  -4   5  -4   20.49    2.32
  -4  -5  -4   22.42    2.40
  -4   5  -4   22.39    2.55
  -4   5  -4   22.63    2.62
  -4   5  -4   21.33    2.47
  -4   5  -3  400.91   10.38
  -4   5  -3  416.38   11.24
  -4   5  -3  403.67   10.41
  -4   5  -3  391.41    9.56
  -4  -5  -3  389.06   20.31
  -4  -5  -3  416.93    9.81
  -4   5  -3  433.05   22.96
  -4  -5  -2  137.46    5.33
  -4  -5  -2  132.97   12.12
  -4   5  -2  135.05    5.97
  -4   5  -2  131.27    5.81
  -4   5  -2  133.30    5.99
  -4   5  -2  137.00    6.40
  -4  -5  -2  129.18   11.43
  -4   5  -2  136.51    6.23
  -4   5  -2  139.65   12.89
  -4   5  -1  601.92   13.18
  -4   5  -1  594.98   12.06
  -4  -5  -1  551.75   23.94
  -4   5  -1  574.80   11.77
  -4  -5  -1  579.78   23.59
  -4   5  -1  568.90   12.18
  -4   5  -1  623.39   26.43
  -4  -5   0  309.16   16.90
  -4   5   0  331.35    8.87
  -4   5   0  355.54    9.89
  -4   5   0  378.28   20.03
  -4   5   0  349.86    9.05
  -4  -5   0  299.65   17.33
  -4   5   0  335.75    8.82
  -4  -5   0  324.37   16.46
  -4  -5   1   28.14    4.97
  -4  -5   1   25.25    4.78
  -4   5   1   22.95    2.38
  -4   5   1   22.68    2.27
  -4  -5   1   27.21    5.28
  -4   5   1   25.20    2.63
  -4   5   1   25.94    2.55
  -4   5   1   19.16    4.43
  -4  -5   2  343.68   17.19
  -4  -5   2  357.63   18.07
  -4   5   2  329.51    9.22
  -4  -5   2  360.52   18.15
  -4   5   2  329.71    9.17
  -4   5   2  327.46    8.77
  -4  -5   2  325.97   18.03
  -4   5   2  332.52    9.29
  -4   5   2  330.61   17.35
  -4   5   3 1721.77   20.80
  -4  -5   3 1781.65   42.43
  -4  -5   3 1748.43   41.33
  -4   5   3 1720.73   21.51
  -4   5   3 1631.06   20.39
  -4   5   3 1761.90   38.72
  -4  -5   3 1731.08   40.80
  -4   5   3 1674.26   37.31
  -4   5   4  884.42   14.81
  -4  -5   4  804.81   28.54
  -4   5   4  886.34   15.39
  -4   5   4  870.67   14.59
  -4  -5   4  816.91   29.19
  -4  -5   4  820.94   29.47
  -4   5   4  877.69   15.76
  -4   5   4  896.47   29.63
  -4   5   5  588.16   12.99
  -4   5   5  545.54   11.63
  -4   5   5  575.12   12.40
  -4  -5   5  580.56   25.12
  -4  -5   5  608.88   25.10
  -4   5   5  597.20   13.05
  -4   5   5  568.13   25.09
  -4   5   5  549.82   11.16
  -4  -5   6  546.33   24.84
  -4  -5   6  547.71   24.06
  -4   5   6  588.71   13.11
  -4   5   6  592.67   11.72
  -4   5   6  607.06   27.35
  -4   5   6  597.92   11.83
  -4   5   6  597.74   13.35
  -4   5   6  603.37   13.14
  -4   5   7 1174.51   18.19
  -4   5   7 1113.28   15.87
  -4  -5   7 1134.84   36.24
  -4   5   7 1126.02   18.66
  -4   5   7 1129.23   18.53
  -4  -5   7 1131.13   36.16
  -4  -5   8  567.44   25.35
  -4   5   8  598.67   11.63
  -4   5   8  600.13   13.17
  -4   5   8  597.90   13.37
  -4   5   8  636.99   12.44
  -4   5   9  540.48   10.73
  -4  -5   9  491.60   10.17
  -4  -5   9  465.67   21.99
  -4   5   9  551.07   12.40
  -4  -5   9  478.96   22.32
  -4   5  10   49.61    3.03
  -4   5  10   46.47    3.30
  -4  -5  11   10.06    1.35
  -4   5  11    8.95    1.14
  -4   5  11    8.49    1.24
  -4   5  12  127.48    3.13
  -4  -5  12  112.76    3.22
  -4   5  12  130.79    3.33
  -4  -5  12  118.88    3.42
  -4   6  -8  788.86    8.69
  -4  -6  -8  743.80    9.16
  -4   6  -7  136.36    4.48
  -4  -6  -7  127.67    4.53
  -4  -6  -7  125.43    4.71
  -4   6  -6 1096.77   15.05
  -4   6  -6 1083.85   12.92
  -4  -6  -6 1107.91   15.29
  -4  -6  -6 1136.68   15.79
  -4  -6  -6 1138.46   14.81
  -4   6  -6 1095.51   15.24
  -4  -6  -5   74.81    4.02
  -4   6  -5   65.97    4.01
  -4   6  -5   69.89    4.22
  -4   6  -5   63.73    3.74
  -4  -6  -5   71.71    4.26
  -4   6  -4   82.59    4.64
  -4   6  -4   83.65    4.77
  -4   6  -4   86.93    4.77
  -4  -6  -4   85.05    4.66
  -4  -6  -4   79.89    4.20
  -4   6  -3  326.53    9.49
  -4  -6  -3  345.28    8.54
  -4   6  -3  335.86    9.85
  -4   6  -2   50.15    3.70
  -4   6  -2   54.61    4.15
  -4   6  -2   59.82    4.19
  -4   6  -1   13.13    1.86
  -4   6  -1   15.32    4.48
  -4  -6  -1   14.98    4.12
  -4   6  -1   14.14    2.00
  -4   6  -1   15.83    2.17
  -4  -6  -1   12.81    3.69
  -4   6  -1   17.30    2.38
  -4  -6   0   20.43    4.95
  -4   6   0   38.74    3.15
  -4   6   0   43.81    7.36
  -4   6   0   40.52    3.46
  -4  -6   0   26.75    5.36
  -4   6   0   41.36    3.59
  -4   6   0   40.14    3.21
  -4  -6   0   24.50    4.98
  -4   6   0   43.11    3.25
  -4   6   0   41.38    3.31
  -4   6   1  980.02   16.08
  -4   6   1  962.13   15.20
  -4  -6   1  906.43   31.23
  -4   6   1  972.99   16.98
  -4   6   1  967.17   33.30
  -4   6   1  943.97   15.13
  -4  -6   1  952.20   31.00
  -4   6   1  983.75   16.36
  -4   6   1  927.84   14.79
  -4  -6   1  955.50   31.57
  -4   6   2  572.90   12.69
  -4  -6   2  600.30   25.30
  -4  -6   2  607.95   24.20
  -4   6   2  575.88   12.25
  -4   6   2  583.60   12.99
  -4   6   2  562.74   12.00
  -4  -6   2  579.00   24.78
  -4  -6   2  613.93   25.85
  -4  -6   3  776.66   29.02
  -4   6   3  783.73   14.99
  -4   6   3  808.09   14.94
  -4   6   3  816.77   13.91
  -4   6   3  789.46   13.68
  -4  -6   3  779.52   28.93
  -4  -6   3  784.26   29.90
  -4   6   3  789.93   15.22
  -4  -6   4  800.15   30.88
  -4  -6   4  798.80   29.77
  -4   6   4  840.89   15.83
  -4   6   4  853.33   15.40
  -4   6   4  863.96   30.15
  -4   6   4  848.71   15.77
  -4   6   4  828.40   14.55
  -4   6   5  455.33   11.68
  -4   6   5  428.70   10.71
  -4   6   5  457.80   11.77
  -4   6   5  448.94   11.10
  -4  -6   5  462.17   22.49
  -4  -6   6  777.14   30.00
  -4  -6   6  715.04   29.12
  -4  -6   6  711.21   27.60
  -4   6   6  728.32   14.59
  -4   6   6  722.25   14.39
  -4   6   6  720.80   14.91
  -4   6   7  530.40   11.85
  -4   6   7  528.29   12.59
  -4   6   7  526.42   12.32
  -4  -6   8  139.31   11.81
  -4   6   8  142.22    5.08
  -4   6   8  156.18    6.48
  -4   6   8  151.32    5.64
  -4   6   9  121.46    4.35
  -4  -6   9  114.91    9.88
  -4   6   9  129.69    5.43
  -4   6  10   15.80    1.70
  -4   6  10   14.49    1.33
  -4  -6  11   31.67    1.77
  -4   6  11   29.53    1.77
  -4  -7  -7  124.30    3.35
  -4  -7  -7  127.16    3.49
  -4   7  -6  661.47   10.57
  -4  -7  -6  631.59    9.09
  -4  -7  -6  647.96    9.73
  -4  -7  -6  667.54    9.88
  -4   7  -5  710.98   11.81
  -4   7  -5  697.99    9.97
  -4  -7  -5  622.34   10.73
  -4  -7  -5  629.77    9.45
  -4  -7  -5  631.84   10.71
  -4   7  -4  200.53    6.79
  -4   7  -4  204.83    6.40
  -4  -7  -4  209.33    6.53
  -4  -7  -4  212.04    5.77
  -4   7  -3  523.50   11.41
  -4   7  -3  531.90   11.36
  -4   7  -3  537.88   12.24
  -4   7  -2  111.16    5.32
  -4   7  -2  112.11    5.55
  -4  -7  -2  122.69    5.05
  -4   7  -2  111.66    5.69
  -4   7  -1  207.18    6.68
  -4  -7  -1  211.22   15.20
  -4   7  -1  209.14    7.25
  -4   7  -1  213.47    7.87
  -4   7  -1  213.91    7.97
  -4   7  -1  203.35    7.02
  -4   7  -1  212.05    7.54
  -4  -7   0  197.28   14.62
  -4   7   0  179.72    6.66
  -4   7   0  179.60    6.74
  -4   7   0  179.41    6.44
  -4  -7   0  185.31   14.14
  -4   7   0  186.64    7.49
  -4   7   0  183.10    7.19
  -4  -7   1  840.78   29.70
  -4  -7   1  849.28   30.70
  -4   7   1  886.50   16.21
  -4   7   1  889.73   15.39
  -4   7   1  881.35   15.36
  -4   7   1  853.39   14.07
  -4   7   2  125.17    5.91
  -4  -7   2  115.89   11.44
  -4   7   2  129.72    6.21
  -4   7   2  134.33    5.82
  -4   7   3  341.76    9.91
  -4   7   3  352.54   10.08
  -4   7   4  630.13   13.41
  -4  -7   4  626.22   26.23
  -4   7   4  622.23   12.93
  -4   7   4  633.96   12.39
  -4   7   5  901.16   14.84
  -4   7   5  932.60   16.02
  -4   7   5  896.89   15.04
  -4   7   6   73.99    4.35
  -4   7   6   75.92    4.46
  -4  -7   7  120.25   10.47
  -4   7   7  115.90    5.17
  -4   7   7  122.58    5.12
  -4   7   8    7.56    1.34
  -4   7   8    6.56    1.04
  -4   7   9  123.09    4.35
  -4  -7  10   76.29    2.53
  -4   7  10  101.03    3.15
  -4  -8  -5  466.75    7.06
  -4  -8  -5  471.91    7.03
  -4   8  -5  445.06    7.33
  -4  -8  -5  464.02    6.54
  -4   8  -4  119.34    3.64
  -4  -8  -4  138.70    4.08
  -4  -8  -4  142.34    4.42
  -4   8  -4  121.67    4.47
  -4  -8  -3   42.38    2.40
  -4  -8  -3   41.47    2.57
  -4   8  -3   47.99    2.81
  -4   8  -3   49.56    3.13
  -4  -8  -2  122.24    4.47
  -4   8  -2  136.07    5.40
  -4   8  -2  129.46    5.14
  -4   8  -1   75.42    4.23
  -4   8  -1   69.79    3.99
  -4   8   0   35.82    3.04
  -4   8   0   36.79    2.65
  -4   8   0   35.18    2.67
  -4   8   0   35.30    2.86
  -4   8   1   79.35    4.51
  -4   8   1   79.25    4.21
  -4   8   1   79.53    4.22
  -4   8   2  190.38    6.75
  -4   8   2  196.50    7.01
  -4   8   3 1161.64   16.76
  -4   8   3 1163.27   16.52
  -4   8   4  250.34    7.69
  -4   8   4  265.02    7.67
  -4   8   5  229.28    7.09
  -4   8   6  343.61    7.90
  -4   8   7  595.27    8.80
  -4   8   7  550.11    7.27
  -4  -9  -3   95.64    2.92
  -4   9  -3  127.31    3.39
  -4   9  -2   84.97    2.96
  -4   9  -2   87.16    3.22
  -4   9  -1  375.37    7.12
  -4   9  -1  371.22    6.96
  -4   9   0   14.61    1.73
  -4   9   0    7.27    0.97
  -4   9   1   76.88    3.62
  -4   9   1   58.48    2.90
  -4   9   2  186.21    5.38
  -4   9   3   74.77    3.45
  -4   9   4   87.37    3.60
  -4   9   5  156.95    4.39
  -4   9   6  191.03    3.99
  -3   0 -11   22.61    1.99
  -3   0 -11   21.01    1.60
  -3   0 -10    2.91    0.79
  -3   0 -10    1.49    0.89
  -3   0 -10    0.94    0.59
  -3   0  -9 1114.57   17.80
  -3   0  -9 1129.55   16.26
  -3   0  -8    2.11    0.94
  -3   0  -8    2.71    0.99
  -3   0  -7  143.75    6.33
  -3   0  -7  142.72    5.88
  -3   0  -7  137.94    5.82
  -3   0  -7  146.81    6.56
  -3   0  -6    2.15    0.78
  -3   0  -6    0.64    0.49
  -3   0  -6    1.17    0.67
  -3   0  -6    0.99    0.67
  -3   0  -5  386.01   16.82
  -3   0  -4    5.46    1.96
  -3   0  -3  409.17   13.89
  -3   0  -2    4.58    1.41
  -3   0  -1  665.54   14.42
  -3   0   0    4.90    1.27
  -3   0   0    1.48    0.72
  -3   0   1 1638.96   24.29
  -3   0   2    1.32    0.70
  -3   0   2    1.40    1.13
  -3   0   3 3801.46   31.77
  -3   0   3 3742.80   28.91
  -3   0   4    7.43    2.08
  -3   0   4    5.47    1.45
  -3   0   4    6.93    1.96
  -3   0   5 8196.68   68.65
  -3   0   5 8363.11   70.34
  -3   0   6    7.54    1.88
  -3   0   6    8.07    2.50
  -3   0   6   10.83    2.94
  -3   0   7 3842.41   56.42
  -3   0   7 3728.91   56.59
  -3   0   8   12.34    3.51
  -3   0   8   11.37    3.65
  -3   0   8   12.50    3.54
  -3   0   9  984.97   17.07
  -3   0   9  975.70   16.08
  -3   0  10   15.38    2.11
  -3   0  10   14.19    2.17
  -3   0  10   16.30    2.22
  -3   0  11  704.35   14.09
  -3   0  11  694.42   13.68
  -3   0  11  687.39   12.48
  -3   0  12    1.23    0.63
  -3   0  12    2.62    0.84
  -3   0  12    1.58    0.78
  -3   0  13  352.15    7.56
  -3   0  13  349.72    6.32
  -3   0  13  351.18    7.30
  -3   0  14   16.10    1.14
  -3   1 -11   67.53    2.87
  -3   1 -11   67.45    3.19
  -3   1 -10  160.98    5.70
  -3   1 -10  158.00    6.05
  -3  -1 -10  168.90    6.27
  -3  -1 -10  164.56    5.14
  -3   1 -10  161.54    5.59
  -3   1 -10  159.27    5.40
  -3  -1  -9  245.47    8.29
  -3   1  -9  229.09    8.03
  -3  -1  -9  251.15    7.27
  -3   1  -9  230.58    7.59
  -3   1  -8  914.32   15.54
  -3  -1  -8  839.45   15.66
  -3   1  -8  915.27   16.50
  -3   1  -8  903.48   15.52
  -3  -1  -8  869.18   14.14
  -3  -1  -8  838.56   15.72
  -3  -1  -7  188.41   14.51
  -3  -1  -7  194.96    7.67
  -3  -1  -7  194.16    7.50
  -3   1  -7  203.74    7.62
  -3   1  -7  198.82    7.16
  -3  -1  -7  202.14    6.77
  -3   1  -7  208.38    7.37
  -3  -1  -6  825.01   28.04
  -3   1  -6  835.85   26.54
  -3   1  -6  824.61   14.37
  -3  -1  -6  838.46   14.72
  -3   1  -6  779.46   13.52
  -3   1  -6  837.56   14.98
  -3  -1  -6  840.56   15.06
  -3   1  -6  791.01   13.56
  -3   1  -5 2163.83   38.70
  -3  -1  -5 2059.65   40.56
  -3  -1  -4  108.86    8.57
  -3   1  -4  120.47    8.89
  -3   1  -4  121.87    8.05
  -3  -1  -3 2157.73   34.32
  -3   1  -3 2247.07   35.66
  -3   1  -3 2172.57   29.64
  -3   1  -2  489.46   15.70
  -3   1  -2  468.56   11.96
  -3  -1  -2  467.57   14.72
  -3   1  -1 4370.86   43.97
  -3   1  -1 4358.36   31.52
  -3   1   0 6206.88   49.92
  -3   1   0 6168.77   33.74
  -3  -1   0 6336.48   41.81
  -3  -1   0 6317.54   35.05
  -3  -1   1 2188.70   29.06
  -3   1   1 2180.57   28.35
  -3  -1   1 2184.31   26.46
  -3  -1   1 2233.54   23.75
  -3  -1   2 1986.11   26.92
  -3   1   2 1910.59   26.93
  -3   1   3   62.78    3.58
  -3  -1   3   58.44    5.07
  -3  -1   3   56.69    3.59
  -3  -1   4  995.99   22.47
  -3  -1   4  946.76   19.62
  -3   1   4  941.37   20.77
  -3  -1   4 1003.59   23.22
  -3  -1   5 3054.93   39.16
  -3   1   5 3098.54   41.75
  -3  -1   5 3095.65   42.97
  -3  -1   5 3189.03   45.26
  -3   1   5 3043.73   40.63
  -3   1   5 2969.28   44.94
  -3  -1   6  437.21   17.68
  -3  -1   6  430.91   16.39
  -3  -1   6  463.64   18.67
  -3   1   6  491.93   17.97
  -3   1   6  523.27   20.24
  -3  -1   7  517.24   21.05
  -3  -1   7  553.92   21.99
  -3   1   7  594.22   23.14
  -3  -1   8  321.01   15.52
  -3   1   8  321.93    9.21
  -3  -1   8  353.40   19.18
  -3  -1   8  338.15   17.46
  -3  -1   8  345.04   18.54
  -3   1   8  340.99   18.01
  -3   1   8  321.91   18.38
  -3   1   9  673.67   13.06
  -3   1   9  678.87   13.60
  -3  -1   9  675.21   13.20
  -3   1   9  669.30   13.89
  -3  -1   9  695.56   29.18
  -3   1   9  661.52   26.58
  -3  -1   9  656.55   26.96
  -3   1   9  654.68   27.70
  -3   1  10  329.33    9.48
  -3   1  10  317.23    9.66
  -3  -1  10  314.09    9.82
  -3   1  10  309.34    8.34
  -3   1  10  319.04    9.19
  -3  -1  11  431.52   10.95
  -3   1  11  408.39    9.90
  -3   1  11  407.31   10.61
  -3   1  11  400.53    9.99
  -3   1  11  399.38    9.04
  -3  -1  12  189.53    6.03
  -3  -1  12  193.37    6.70
  -3   1  12  200.51    6.77
  -3   1  12  200.61    6.38
  -3   1  12  199.42    5.63
  -3  -1  12  190.70    6.55
  -3  -1  13  184.36    5.34
  -3  -1  13  186.79    4.80
  -3  -1  13  190.31    5.44
  -3   1  14   28.95    1.48
  -3   2 -11  136.91    4.05
  -3  -2 -11  135.11    4.35
  -3   2 -10  190.68    6.32
  -3   2 -10  186.78    6.06
  -3   2 -10  185.20    6.12
  -3  -2 -10  166.91    5.95
  -3  -2  -9  115.52    5.53
  -3   2  -9  110.26    5.26
  -3   2  -9  123.07    5.59
  -3   2  -9  110.59    5.44
  -3  -2  -9  104.31    5.01
  -3   2  -9  113.06    5.37
  -3  -2  -8 1125.42   17.73
  -3  -2  -8 1129.88   18.55
  -3   2  -8 1137.09   17.78
  -3   2  -8 1175.38   18.02
  -3  -2  -8 1151.38   18.59
  -3   2  -8 1151.38   18.39
  -3   2  -7 1160.58   18.28
  -3   2  -7 1114.06   17.47
  -3  -2  -7 1109.45   18.06
  -3  -2  -7 1124.86   18.57
  -3   2  -7 1145.62   17.69
  -3   2  -6 1912.17   22.52
  -3   2  -6 1840.83   21.54
  -3  -2  -6 1803.97   21.91
  -3  -2  -6 1801.07   43.44
  -3  -2  -6 1838.45   22.76
  -3   2  -6 1856.04   21.53
  -3   2  -6 1916.12   41.00
  -3  -2  -6 1835.27   21.16
  -3  -2  -6 1848.69   22.14
  -3  -2  -5  289.81   16.04
  -3   2  -5  303.44   15.85
  -3   2  -4  546.22   20.19
  -3   2  -4  551.70   18.22
  -3   2  -3   97.74    8.05
  -3   2  -3  100.96    7.65
  -3  -2  -3   85.42    6.75
  -3  -2  -3   75.87    7.03
  -3  -2  -2  613.96   18.50
  -3  -2  -2  637.76   17.58
  -3   2  -2  616.21   18.34
  -3   2  -2  599.26   18.89
  -3   2  -1 1999.20   32.41
  -3  -2  -1 2084.54   32.12
  -3  -2  -1 2022.07   30.14
  -3   2  -1 1995.57   31.64
  -3   2  -1 1962.99   17.08
  -3   2   0 5667.20   51.71
  -3  -2   0 5759.26   48.92
  -3   2   0 5712.58   38.62
  -3   2   1  740.56   17.53
  -3  -2   1  787.38   17.69
  -3  -2   1  792.88   16.38
  -3  -2   1  804.35   18.06
  -3   2   1  759.23   16.20
  -3  -2   1  806.26   19.55
  -3   2   2 2355.86   29.20
  -3   2   2 2348.30   28.02
  -3  -2   2 2215.00   30.67
  -3  -2   2 2263.60   29.91
  -3   2   2 2382.57   31.91
  -3  -2   2 2370.34   33.22
  -3   2   3  446.98   13.01
  -3   2   3  439.18   15.24
  -3  -2   3  452.00   14.81
  -3  -2   3  464.49   14.88
  -3   2   3  464.97   12.06
  -3  -2   4   99.75    7.52
  -3  -2   4  100.85    7.72
  -3   2   4   95.95    7.80
  -3   2   4  103.91    5.03
  -3  -2   5  778.37   23.03
  -3  -2   5  750.16   21.65
  -3  -2   5  785.77   22.17
  -3   2   5  867.10   24.73
  -3  -2   5  850.68   24.21
  -3  -2   6  549.20   20.71
  -3  -2   6  541.63   19.75
  -3   2   6  504.75   20.62
  -3  -2   6  560.21   21.20
  -3  -2   7  779.30   25.60
  -3  -2   7  877.33   28.84
  -3  -2   7  796.95   26.80
  -3   2   7  852.53   28.75
  -3  -2   8  135.51   11.93
  -3   2   8  164.21    6.55
  -3   2   8  157.22    6.54
  -3  -2   8  141.13   12.59
  -3  -2   8  128.56   10.82
  -3  -2   8  134.03    5.75
  -3   2   8  151.40   13.02
  -3  -2   9  631.93   26.64
  -3  -2   9  629.52   24.49
  -3   2   9  630.29   13.48
  -3   2   9  641.25   13.51
  -3  -2   9  665.50   12.90
  -3   2   9  625.57   12.22
  -3  -2   9  694.03   29.67
  -3   2   9  617.76   27.69
  -3  -2  10  698.86   25.56
  -3  -2  10  678.22   14.30
  -3   2  10  731.10   14.30
  -3   2  10  737.46   14.55
  -3   2  10  726.55   13.27
  -3   2  11  211.10    6.88
  -3   2  11  211.44    7.16
  -3   2  11  215.28    7.56
  -3  -2  11  234.44    8.05
  -3   2  12  731.34   12.53
  -3  -2  12  748.38   12.68
  -3  -2  12  734.17   11.83
  -3  -2  12  753.12   12.77
  -3   2  13    5.85    0.96
  -3  -2  13    5.76    0.86
  -3  -2  13    5.79    0.95
  -3  -2  13    6.33    1.01
  -3  -3 -11   51.29    2.22
  -3   3 -11   57.70    2.41
  -3  -3 -10  149.27    5.10
  -3  -3 -10  143.50    4.32
  -3  -3  -9  133.97    5.58
  -3   3  -9  133.50    5.75
  -3   3  -9  140.20    5.85
  -3  -3  -9  135.66    5.67
  -3   3  -9  133.69    5.71
  -3  -3  -9  134.34    5.91
  -3   3  -8  341.47    9.84
  -3  -3  -8  321.01    9.76
  -3  -3  -8  324.54    9.93
  -3   3  -8  346.54    9.86
  -3   3  -8  337.54    9.66
  -3   3  -8  352.21    9.93
  -3   3  -7  120.49    5.91
  -3   3  -7  116.29    5.78
  -3   3  -7  125.29    6.08
  -3  -3  -7  137.32    6.62
  -3  -3  -7  138.93    6.40
  -3  -3  -7  138.63    6.45
  -3   3  -6  259.13   15.74
  -3   3  -6  253.07    8.31
  -3   3  -6  245.05    8.14
  -3  -3  -6  302.65    9.22
  -3  -3  -6  299.67    8.59
  -3  -3  -6  304.29    9.05
  -3   3  -6  249.52    7.67
  -3  -3  -6  296.14   18.43
  -3  -3  -6  298.52    9.39
  -3   3  -6  257.84    8.57
  -3   3  -5  505.23   21.47
  -3  -3  -5  480.36   21.94
  -3   3  -5  500.60   11.42
  -3   3  -5  505.78   10.96
  -3   3  -5  484.58   10.32
  -3  -3  -5  501.08   10.32
  -3   3  -5  502.33   11.10
  -3  -3  -5  494.17   10.80
  -3  -3  -5  498.23   11.07
  -3   3  -4  467.07   19.75
  -3  -3  -4  415.13   17.13
  -3  -3  -4  432.93   19.49
  -3   3  -3  773.28   24.27
  -3  -3  -3  699.97   23.01
  -3  -3  -3  720.99   21.58
  -3   3  -2 1682.45   33.84
  -3  -3  -2 1630.25   32.33
  -3  -3  -2 1619.40   30.86
  -3   3  -1 1702.57   32.78
  -3  -3  -1 1619.28   31.05
  -3  -3  -1 1643.33   29.93
  -3  -3  -1 1664.20   30.32
  -3   3   0  268.90   12.48
  -3  -3   0  290.90   11.74
  -3  -3   0  287.22   12.09
  -3  -3   0  284.75   12.74
  -3   3   0  268.14    8.84
  -3   3   1 1480.42   28.14
  -3  -3   1 1402.90   23.75
  -3  -3   1 1388.63   23.92
  -3  -3   1 1396.89   25.98
  -3   3   1 1397.39   23.25
  -3  -3   1 1390.10   28.21
  -3  -3   2  217.90   10.62
  -3  -3   2  206.26    9.88
  -3   3   2  218.39   10.24
  -3  -3   2  231.61   10.61
  -3   3   2  225.78   10.74
  -3  -3   3 1579.54   30.65
  -3   3   3 1586.89   30.18
  -3  -3   3 1620.43   30.38
  -3  -3   3 1659.52   27.45
  -3   3   3 1581.78   26.88
  -3  -3   4  674.78   20.66
  -3  -3   4  658.27   21.02
  -3   3   4  633.49   20.90
  -3  -3   5 1176.34   28.87
  -3  -3   5 1115.08   29.10
  -3  -3   5 1201.71   29.69
  -3   3   5 1176.49   30.82
  -3  -3   6  425.40   19.17
  -3  -3   6  439.01   19.69
  -3  -3   6  458.15   19.91
  -3   3   6  438.22   20.35
  -3  -3   7   23.08    4.89
  -3  -3   7   26.67    5.23
  -3   3   7   17.87    2.20
  -3  -3   7   20.00    4.66
  -3   3   7   18.70    4.61
  -3  -3   8  483.37   22.94
  -3   3   8  518.96   11.68
  -3   3   8  516.01   12.13
  -3  -3   8  505.40   24.45
  -3   3   8  505.97   24.87
  -3  -3   9  271.21   17.08
  -3  -3   9  290.92   18.27
  -3   3   9  269.08    8.99
  -3   3   9  272.03    8.75
  -3   3   9  264.49   18.72
  -3  -3  10  696.45   26.62
  -3  -3  10  708.30   28.11
  -3   3  10  716.78   14.19
  -3   3  10  714.79   14.08
  -3  -3  11  568.92   12.08
  -3   3  11  590.56   11.66
  -3   3  12  203.63    6.17
  -3  -3  12  222.94    6.47
  -3  -3  12  224.19    6.60
  -3  -3  13  265.26    5.22
  -3  -3  13  275.22    5.67
  -3   3  13  275.10    5.58
  -3  -4 -10  173.38    4.50
  -3  -4 -10  162.93    4.03
  -3   4  -9   27.78    2.50
  -3  -4  -9   24.79    2.34
  -3  -4  -9   28.24    2.58
  -3  -4  -9   28.52    2.29
  -3   4  -9   25.54    2.38
  -3   4  -8   31.10    2.88
  -3  -4  -8   24.99    2.73
  -3  -4  -8   25.53    2.39
  -3  -4  -8   24.98    2.44
  -3   4  -8   31.64    2.94
  -3   4  -8   32.47    2.63
  -3  -4  -8   26.64    2.74
  -3   4  -7  646.85   13.77
  -3   4  -7  646.26   13.43
  -3   4  -7  660.68   12.83
  -3  -4  -7  669.89   14.43
  -3  -4  -7  684.80   13.65
  -3   4  -7  650.20   13.52
  -3  -4  -7  670.12   14.12
  -3   4  -6   26.37    2.83
  -3  -4  -6   30.15    2.87
  -3  -4  -6   37.78    3.47
  -3   4  -6   28.39    2.81
  -3  -4  -6   29.73    2.95
  -3   4  -6   28.46    2.74
  -3   4  -6   27.42    2.63
  -3   4  -6   29.82    2.92
  -3  -4  -6   34.77    2.86
  -3   4  -5  250.69    8.34
  -3  -4  -5  269.96   15.57
  -3  -4  -5  270.74    8.48
  -3   4  -5  249.46    7.97
  -3  -4  -5  274.60   17.42
  -3   4  -5  239.13    7.77
  -3   4  -5  244.32    8.05
  -3  -4  -5  269.08    8.19
  -3   4  -5  250.58    8.10
  -3   4  -5  259.34   16.32
  -3  -4  -4 1516.70   35.85
  -3  -4  -4 1483.04   38.10
  -3   4  -4 1605.79   19.22
  -3   4  -4 1653.26   20.72
  -3   4  -4 1638.32   19.31
  -3   4  -4 1648.04   19.85
  -3  -4  -4 1637.60   18.83
  -3  -4  -4 1564.27   19.03
  -3   4  -4 1654.52   40.09
  -3  -4  -3  112.12    9.42
  -3  -4  -3  113.98    9.99
  -3  -4  -3  128.93   10.61
  -3   4  -3   93.44    9.22
  -3  -4  -2 1032.56   27.64
  -3  -4  -2 1055.91   28.33
  -3  -4  -2 1049.77   28.68
  -3   4  -2 1118.54   30.60
  -3  -4  -1  338.88   15.08
  -3  -4  -1  340.61   15.29
  -3   4  -1  317.48   15.76
  -3  -4  -1  333.29   15.44
  -3  -4   0  622.13   19.03
  -3  -4   0  643.19   20.89
  -3  -4   0  612.43   19.75
  -3   4   0  661.50   22.08
  -3  -4   1  903.31   24.72
  -3  -4   1  928.72   23.67
  -3  -4   1  928.93   21.73
  -3   4   1  959.56   25.96
  -3   4   1  920.63   20.80
  -3  -4   2 2443.39   41.38
  -3  -4   2 2298.35   39.17
  -3  -4   2 2363.35   37.15
  -3  -4   2 2482.30   32.97
  -3  -4   2 2465.07   33.70
  -3   4   2 2242.43   35.94
  -3   4   2 2401.46   40.17
  -3  -4   3  337.56   13.68
  -3  -4   3  315.16   15.24
  -3   4   3  406.85   15.96
  -3  -4   3  311.24   13.25
  -3  -4   3  304.79   14.64
  -3   4   3  375.06   15.99
  -3  -4   4  985.38   28.22
  -3  -4   4  985.79   27.30
  -3   4   4 1020.31   28.48
  -3  -4   5  903.15   27.08
  -3   4   5  860.95   28.36
  -3  -4   6 2016.77   41.88
  -3  -4   6 2013.61   45.35
  -3   4   6 2055.60   22.67
  -3   4   6 1931.19   21.88
  -3  -4   6 2092.62   43.34
  -3   4   6 2107.69   47.28
  -3  -4   6 1955.83   44.80
  -3  -4   7  107.92   10.98
  -3   4   7   97.82    5.24
  -3   4   7   98.74   10.96
  -3   4   7   93.88    4.94
  -3  -4   7  100.74   10.25
  -3   4   7   93.42    5.02
  -3  -4   7  103.79   10.65
  -3  -4   8   49.41    7.57
  -3  -4   8   46.92    7.45
  -3   4   8   39.19    3.29
  -3   4   8   35.44    3.32
  -3   4   8   37.36    3.26
  -3   4   8   34.21    6.69
  -3  -4   9  448.36   22.89
  -3  -4   9  444.80   22.46
  -3   4   9  516.01   11.79
  -3   4   9  503.63   12.47
  -3  -4  10   54.89    7.61
  -3   4  10   60.56    4.08
  -3   4  10   58.44    3.88
  -3  -4  10   60.87    7.96
  -3   4  11  528.91   10.54
  -3  -4  11  501.45   10.46
  -3   4  11  526.36   10.34
  -3  -4  12  321.54    6.99
  -3   4  12  277.19    6.41
  -3  -4  12  305.76    6.60
  -3   4  12  269.18    5.53
  -3  -4  13   39.87    1.68
  -3  -4  13   39.61    1.71
  -3   5 -10  182.36    4.17
  -3  -5  -9  218.48    6.15
  -3  -5  -9  195.63    4.68
  -3  -5  -9  189.31    4.46
  -3  -5  -9  208.69    5.82
  -3  -5  -8  199.79    5.54
  -3   5  -8  205.98    6.71
  -3  -5  -8  207.36    7.15
  -3  -5  -8  202.55    6.47
  -3   5  -8  204.09    6.63
  -3   5  -8  208.20    6.31
  -3  -5  -8  208.91    6.93
  -3   5  -7  550.49   11.73
  -3  -5  -7  514.58   11.66
  -3   5  -7  548.69   11.52
  -3  -5  -7  520.95   10.94
  -3   5  -7  549.16   11.79
  -3  -5  -7  511.11   12.09
  -3   5  -6  305.37    8.92
  -3  -5  -6  294.52    8.98
  -3   5  -6  292.98    8.84
  -3  -5  -6  281.86    9.25
  -3  -5  -6  303.36    8.52
  -3   5  -6  295.96    8.97
  -3  -5  -5   10.14    3.34
  -3  -5  -5    9.99    1.57
  -3   5  -5   12.44    1.84
  -3   5  -5   12.19    1.87
  -3   5  -5   11.66    1.82
  -3   5  -5   12.63    1.93
  -3  -5  -5   10.40    1.71
  -3  -5  -4  141.31    5.93
  -3   5  -4  154.25    7.26
  -3  -5  -4  137.04   12.22
  -3   5  -4  125.63    5.53
  -3   5  -4  128.24    5.83
  -3   5  -4  124.41    5.82
  -3   5  -4  132.92    5.90
  -3  -5  -4  141.82   11.93
  -3   5  -4  130.81   12.13
  -3   5  -4  126.78    6.41
  -3  -5  -3  660.97   25.69
  -3   5  -3  623.86   25.81
  -3   5  -3  572.49   11.14
  -3   5  -3  581.47   11.97
  -3   5  -3  595.74   12.76
  -3   5  -3  583.33   11.93
  -3   5  -3  593.05   13.35
  -3  -5  -3  660.22   24.97
  -3   5  -3  591.60   13.09
  -3  -5  -3  637.90   25.10
  -3  -5  -2  512.77   21.58
  -3  -5  -2  543.66   22.27
  -3   5  -2  515.30   10.87
  -3   5  -2  533.28   12.03
  -3  -5  -2  518.51   21.59
  -3   5  -2  511.55   11.88
  -3   5  -2  525.17   10.94
  -3   5  -2  512.22   11.53
  -3   5  -2  539.93   23.51
  -3  -5  -1  348.56   17.16
  -3  -5  -1  349.03   17.18
  -3  -5  -1  357.82   16.96
  -3   5  -1  380.28   19.19
  -3  -5   0 1825.72   38.35
  -3  -5   0 1856.58   36.53
  -3  -5   0 1842.48   38.44
  -3   5   0 1962.18   42.76
  -3  -5   1 2074.50   40.45
  -3  -5   1 2126.04   36.76
  -3  -5   1 2090.45   41.12
  -3  -5   1 2074.88   39.53
  -3   5   1 2128.03   43.93
  -3  -5   2  921.76   27.27
  -3  -5   2  912.59   25.58
  -3  -5   2  925.45   22.59
  -3   5   2  862.73   27.27
  -3   5   2  849.95   24.31
  -3  -5   2  891.82   27.59
  -3  -5   3  405.21   18.66
  -3  -5   3  414.54   19.51
  -3  -5   3  410.25   16.90
  -3   5   3  445.10   19.01
  -3  -5   3  432.02   18.99
  -3   5   4 1993.13   42.95
  -3  -5   4 1963.58   42.18
  -3  -5   4 2021.49   42.36
  -3   5   4 1916.78   21.83
  -3   5   4 1975.41   22.13
  -3   5   4 1932.94   21.30
  -3  -5   4 1977.69   44.27
  -3   5   5  378.15   19.97
  -3   5   5  375.56    9.95
  -3   5   5  374.31    9.84
  -3  -5   5  354.45   18.30
  -3   5   5  371.98    9.85
  -3   5   5  370.91    9.81
  -3   5   6  458.73   10.71
  -3   5   6  455.21   23.17
  -3  -5   6  443.60   20.81
  -3   5   6  453.46   10.89
  -3   5   6  459.54   11.34
  -3  -5   6  437.90   22.64
  -3   5   6  470.31   11.48
  -3  -5   7  127.56   12.24
  -3  -5   7  114.36   11.89
  -3   5   7  130.01    5.83
  -3   5   7  124.79   12.65
  -3   5   7  129.33    6.11
  -3   5   7  122.61    6.02
  -3   5   7  137.14    5.90
  -3  -5   8  285.91   18.83
  -3   5   8  281.07    8.59
  -3   5   8  273.25    9.07
  -3  -5   8  287.03   18.00
  -3  -5   9  333.36   18.66
  -3  -5   9  327.38   19.36
  -3   5   9  317.45    8.81
  -3   5   9  324.46    9.59
  -3   5  10  121.74    5.08
  -3  -5  10  115.10   10.08
  -3   5  10  128.52    5.49
  -3   5  11   90.61    3.81
  -3  -5  11   86.97    3.76
  -3   5  11   95.60    3.91
  -3  -5  12   54.79    2.29
  -3   5  12   46.93    2.14
  -3   6  -9   96.34    3.01
  -3  -6  -9  102.93    3.06
  -3  -6  -8  172.91    5.16
  -3   6  -8  191.28    5.34
  -3  -6  -8  180.42    5.46
  -3  -6  -8  171.72    5.54
  -3   6  -8  192.29    5.34
  -3   6  -7  852.25   12.95
  -3   6  -7  859.82   13.45
  -3  -6  -7  823.77   13.15
  -3  -6  -7  817.08   13.76
  -3   6  -7  862.09   13.00
  -3   6  -6  224.42    7.05
  -3   6  -6  223.28    7.50
  -3  -6  -6  187.41    7.06
  -3   6  -6  226.07    7.23
  -3  -6  -6  184.64    6.60
  -3  -6  -6  187.81    5.95
  -3  -6  -5   68.83    8.52
  -3   6  -5   60.45    3.72
  -3  -6  -5   73.10    4.23
  -3   6  -5   58.51    4.02
  -3   6  -5   58.95    3.66
  -3   6  -5   59.26    3.88
  -3  -6  -4  211.56   15.13
  -3   6  -4  192.34    6.55
  -3   6  -4  199.68    8.12
  -3   6  -4  186.44    6.98
  -3   6  -4  185.54    7.17
  -3   6  -4  188.61    6.98
  -3  -6  -4  223.59    7.30
  -3   6  -3   35.12    3.38
  -3   6  -3   33.96    3.36
  -3   6  -3   35.27    3.12
  -3   6  -3   30.35    2.95
  -3   6  -3   32.60    2.95
  -3  -6  -3   38.11    6.42
  -3  -6  -3   36.95    2.87
  -3  -6  -2  288.13   17.22
  -3   6  -2  295.22    9.23
  -3   6  -2  292.19    9.39
  -3   6  -2  287.61    8.65
  -3   6  -2  303.44    9.30
  -3  -6  -2  300.49   17.39
  -3   6  -2  306.68   19.26
  -3  -6  -2  291.75   17.14
  -3   6  -1 1055.95   17.15
  -3  -6  -1 1011.47   31.63
  -3  -6  -1  965.97   29.96
  -3  -6  -1  985.45   30.53
  -3   6  -1 1042.33   15.90
  -3   6  -1 1089.14   17.72
  -3   6  -1 1027.01   15.25
  -3   6  -1 1048.80   16.64
  -3   6  -1 1112.37   35.97
  -3   6   0  291.25    8.39
  -3   6   0  296.23    9.38
  -3   6   0  297.11    8.25
  -3   6   0  290.87    8.71
  -3   6   0  310.85    9.53
  -3  -6   0  294.89   16.71
  -3   6   0  284.61    8.46
  -3  -6   0  303.66   16.64
  -3   6   0  315.80   18.97
  -3  -6   0  291.64   15.67
  -3  -6   1  687.47   25.21
  -3  -6   1  699.58   22.92
  -3  -6   1  694.67   26.50
  -3   6   1  674.44   14.14
  -3   6   1  652.80   12.42
  -3   6   1  644.37   13.46
  -3  -6   1  734.34   25.47
  -3   6   1  626.33   12.02
  -3   6   1  707.27   28.31
  -3   6   1  664.33   12.88
  -3  -6   2  241.03   14.45
  -3   6   2  235.01    8.32
  -3   6   2  235.48    7.72
  -3   6   2  231.99    7.24
  -3  -6   2  240.72   15.98
  -3   6   2  232.11    7.91
  -3   6   2  242.89    7.98
  -3   6   3  280.54    8.71
  -3  -6   3  281.84   15.19
  -3   6   3  295.10    8.87
  -3  -6   3  257.62   16.95
  -3   6   3  277.71    8.24
  -3   6   3  285.39    8.56
  -3   6   3  295.64    9.31
  -3  -6   3  262.23   16.26
  -3   6   3  309.15   16.91
  -3  -6   4  224.64   15.25
  -3   6   4  237.46    8.18
  -3   6   4  244.56    8.45
  -3   6   4  236.13    8.16
  -3   6   4  237.20    7.86
  -3   6   4  252.91   16.19
  -3  -6   4  226.58   16.29
  -3   6   5  194.73    7.41
  -3  -6   5  207.11   15.95
  -3   6   5  193.70    7.39
  -3  -6   5  198.16   14.32
  -3   6   5  196.38   14.98
  -3   6   5  195.29    7.58
  -3   6   5  197.91    7.40
  -3  -6   6   80.53    9.02
  -3  -6   6   75.39    9.47
  -3  -6   6   77.68    9.89
  -3   6   6   97.55    5.20
  -3   6   6   97.34    4.87
  -3   6   6   96.46    5.39
  -3   6   6   95.31    5.26
  -3  -6   7  768.81   29.30
  -3   6   7  789.03   14.09
  -3   6   7  763.94   13.49
  -3   6   7  763.67   14.93
  -3   6   8   22.85    2.60
  -3   6   8   25.00    2.41
  -3   6   9  191.92    6.11
  -3   6   9  195.94    6.82
  -3  -6   9  197.67   13.08
  -3   6  10   96.91    3.81
  -3   6  10   98.61    4.16
  -3  -6  11  150.57    3.54
  -3  -6  11  162.29    3.95
  -3   6  11  187.44    4.31
  -3   6  11  181.67    4.14
  -3  -7  -8  352.05    5.78
  -3   7  -8  326.05    5.26
  -3   7  -7  320.38    5.81
  -3  -7  -7  335.73    6.25
  -3   7  -7  347.75    7.23
  -3  -7  -7  344.04    7.14
  -3  -7  -7  362.25    7.54
  -3   7  -7  339.71    7.40
  -3  -7  -7  355.92    6.85
  -3  -7  -6  255.56    7.17
  -3   7  -6  257.55    7.18
  -3  -7  -6  263.26    6.62
  -3  -7  -5  126.53    4.87
  -3   7  -5  113.59    5.19
  -3  -7  -5  128.36    5.41
  -3   7  -4  763.99   13.97
  -3   7  -4  744.76   12.67
  -3  -7  -4  726.46   11.87
  -3   7  -3   59.07    4.24
  -3   7  -3   60.53    4.01
  -3  -7  -3   74.19    9.02
  -3   7  -3   60.23    3.92
  -3   7  -3   60.09    4.43
  -3  -7  -2  389.27   20.74
  -3   7  -2  372.35   10.46
  -3   7  -2  386.19   10.34
  -3   7  -2  389.03   11.18
  -3   7  -2  376.70   10.48
  -3   7  -2  377.15    9.87
  -3   7  -1  543.19   12.42
  -3  -7  -1  547.15   24.28
  -3   7  -1  555.44   12.78
  -3   7  -1  544.91   11.59
  -3   7  -1  555.75   13.33
  -3   7  -1  547.31   11.36
  -3   7  -1  556.63   12.39
  -3   7   0  539.22   11.74
  -3  -7   0  552.09   24.02
  -3   7   0  543.90   12.14
  -3   7   0  531.43   11.16
  -3   7   0  549.62   12.99
  -3   7   0  548.62   13.02
  -3   7   0  533.79   11.84
  -3   7   1  154.40    6.52
  -3   7   1  145.18    6.18
  -3   7   1  156.93    7.07
  -3   7   1  144.08    6.53
  -3  -7   1  155.76   12.59
  -3   7   1  147.10    6.00
  -3  -7   2  131.95   12.05
  -3  -7   2  126.40   10.98
  -3   7   2  161.87    6.78
  -3   7   2  171.80    7.33
  -3   7   2  169.91    6.91
  -3  -7   3   75.01    9.08
  -3   7   3   72.43    4.59
  -3   7   3   77.71    4.92
  -3   7   3   74.56    4.39
  -3   7   3   70.87    4.23
  -3   7   4  130.14    6.08
  -3   7   4  142.31    6.48
  -3   7   4  127.80    5.82
  -3   7   5  300.56    9.07
  -3  -7   5  286.42   17.15
  -3   7   5  293.55    8.93
  -3   7   6  752.60   12.20
  -3   7   6  775.76   14.05
  -3   7   6  772.35   14.41
  -3  -7   6  789.35   28.76
  -3   7   7   64.81    3.76
  -3   7   7   58.84    3.30
  -3   7   7   63.89    4.04
  -3   7   8   16.19    1.62
  -3   7   8   18.25    2.07
  -3   7   9   48.11    2.41
  -3   7   9   50.74    2.91
  -3   7  10  117.52    2.85
  -3  -8  -6  139.50    4.01
  -3  -8  -6  134.74    3.89
  -3   8  -5  190.17    5.85
  -3   8  -5  181.39    5.42
  -3   8  -4  156.19    4.69
  -3   8  -4  168.10    5.66
  -3   8  -4  157.43    5.87
  -3  -8  -4  174.04    5.43
  -3   8  -3    7.06    1.21
  -3   8  -3    8.90    1.44
  -3   8  -3    9.42    1.63
  -3   8  -2 1254.37   16.23
  -3   8  -2 1270.38   17.70
  -3   8  -2 1208.69   17.00
  -3   8  -2 1250.13   16.71
  -3   8  -2 1267.41   18.29
  -3   8  -1  183.66    6.11
  -3   8  -1  191.21    6.78
  -3   8  -1  192.14    6.29
  -3   8  -1  193.89    7.04
  -3   8  -1  196.11    7.28
  -3   8  -1  193.42    6.88
  -3   8   0  629.75   12.19
  -3   8   0  656.09   13.35
  -3   8   0  630.04   12.95
  -3   8   0  641.29   12.19
  -3   8   0  646.75   12.18
  -3   8   1  202.75    7.11
  -3  -8   1  212.47   15.03
  -3   8   1  205.92    7.67
  -3   8   1  184.38    6.44
  -3   8   1  196.87    7.20
  -3   8   1  197.16    6.49
  -3   8   2   23.02    2.65
  -3   8   2   19.56    2.06
  -3   8   2   21.77    2.42
  -3   8   3  217.83    7.49
  -3   8   3  201.17    6.46
  -3   8   3  217.86    7.70
  -3   8   4  447.49   10.48
  -3   8   4  416.22    9.20
  -3  -8   5  248.13   15.12
  -3   8   5  270.84    7.83
  -3   8   5  250.75    6.92
  -3   8   6  354.73    7.78
  -3   8   6  376.83    8.51
  -3   8   7   67.38    3.03
  -3   8   7   66.88    3.09
  -3   8   8  198.43    4.57
  -3  -9  -4   70.69    2.35
  -3   9  -4   76.30    2.93
  -3  -9  -3   38.41    1.92
  -3   9  -3   50.73    2.73
  -3   9  -2   75.66    3.22
  -3   9  -2   64.65    3.31
  -3   9  -1   78.83    3.53
  -3   9  -1   78.08    3.16
  -3   9  -1   79.35    3.86
  -3   9  -1   81.21    3.69
  -3   9   0  411.71    8.09
  -3   9   0  424.70    8.84
  -3   9   1   64.50    3.41
  -3   9   1   65.16    3.09
  -3   9   2   85.73    3.35
  -3   9   2   87.08    4.04
  -3   9   3  521.57    9.76
  -3   9   4   40.92    2.67
  -3   9   5  609.18    9.31
  -3   9   5  549.17    7.11
  -3   9   6  266.12    5.06
  -3  10   2  222.55    4.24
  -2   0 -12  123.47    3.75
  -2   0 -12  122.45    3.64
  -2   0 -11    9.49    1.45
  -2   0 -11    9.06    1.50
  -2   0 -10   84.92    4.87
  -2   0 -10   87.70    4.72
  -2   0  -9    3.83    1.23
  -2   0  -9    5.64    1.36
  -2   0  -8  274.04    8.64
  -2   0  -8  297.28    8.40
  -2   0  -7    1.77    1.56
  -2   0  -7    5.95    1.26
  -2   0  -7    2.95    1.02
  -2   0  -7    3.58    1.07
  -2   0  -6 2859.95   44.14
  -2   0  -6 2825.16   46.97
  -2   0  -5    1.02    0.95
  -2   0  -5    7.85    2.33
  -2   0  -4 1059.41   22.45
  -2   0  -4 1046.80   21.36
  -2   0  -3    4.79    1.30
  -2   0  -3    7.53    1.78
  -2   0  -2 8967.24   49.84
  -2   0  -1    0.71    0.63
  -2   0   0 3427.07   24.62
  -2   0   1    0.46    0.74
  -2   0   2 4636.47   26.80
  -2   0   3    6.23    1.63
  -2   0   3    2.99    0.98
  -2   0   4 3762.14   40.69
  -2   0   4 3612.89   37.61
  -2   0   5   38.96    4.45
  -2   0   5   36.32    4.62
  -2   0   6 3477.14   41.15
  -2   0   6 3449.75   44.89
  -2   0   6 3381.03   48.48
  -2   0   6 3495.89   45.41
  -2   0   7   10.66    2.68
  -2   0   7    7.64    2.45
  -2   0   7    8.63    2.99
  -2   0   7    9.63    2.70
  -2   0   8 2287.64   45.16
  -2   0   8 2214.26   39.91
  -2   0   9    9.10    1.75
  -2   0   9    6.09    2.82
  -2   0  10  675.42   14.47
  -2   0  10  666.56   13.36
  -2   0  10  660.23   14.06
  -2   0  11   34.53    3.24
  -2   0  11   32.16    2.91
  -2   0  11   33.21    3.17
  -2   0  12 1028.11   15.36
  -2   0  12 1044.85   15.47
  -2   0  12 1011.94   14.14
  -2   0  13    2.17    0.60
  -2   0  13    2.22    0.66
  -2  -1 -12  177.53    4.59
  -2   1 -12  187.65    4.37
  -2   1 -12  190.81    4.74
  -2   1 -11  199.10    6.12
  -2  -1 -11  190.09    5.66
  -2   1 -11  197.34    6.29
  -2   1 -11  196.30    6.19
  -2  -1 -11  183.06    6.34
  -2  -1 -10  298.50    9.11
  -2   1 -10  280.30    7.95
  -2  -1 -10  290.02    8.15
  -2   1 -10  265.52    8.28
  -2   1 -10  261.46    8.35
  -2   1  -9  149.05    6.68
  -2  -1  -9  150.90    6.26
  -2   1  -9  160.44    6.45
  -2   1  -9  148.96    6.57
  -2  -1  -9  151.23    6.57
  -2  -1  -8  343.58   10.05
  -2  -1  -8  352.18   17.29
  -2   1  -8  373.33   10.38
  -2   1  -8  374.86    9.87
  -2  -1  -8  334.55    9.83
  -2   1  -8  357.25   10.04
  -2  -1  -8  354.29    9.53
  -2  -1  -7  455.35   18.57
  -2  -1  -7  465.14   21.67
  -2   1  -7  449.07   10.67
  -2  -1  -7  460.24   11.40
  -2  -1  -7  441.63   10.70
  -2   1  -7  440.60   10.32
  -2   1  -7  455.57   10.90
  -2  -1  -7  444.20   11.03
  -2  -1  -7  442.49   10.18
  -2  -1  -7  452.95   10.89
  -2   1  -6 2671.29   41.18
  -2   1  -6 2757.25   45.75
  -2  -1  -6 2744.82   41.63
  -2  -1  -6 2662.91   46.87
  -2   1  -5 4001.32   49.65
  -2  -1  -5 3953.40   51.50
  -2  -1  -5 4106.55   45.35
  -2   1  -4  588.79   17.11
  -2  -1  -4  614.77   15.50
  -2   1  -4  586.65   16.63
  -2  -1  -4  606.36   14.73
  -2  -1  -4  607.31   18.00
  -2   1  -4  589.16   16.25
  -2  -1  -3  947.66   17.30
  -2   1  -3  985.53   20.31
  -2   1  -3  956.98   17.61
  -2  -1  -3  916.63   19.79
  -2   1  -3  964.64   19.63
  -2  -1  -2  368.77   11.19
  -2  -1  -2  376.96   10.32
  -2   1  -2  378.69    9.21
  -2   1  -2  387.99   11.77
  -2   1  -1 3867.76   23.58
  -2  -1  -1 3902.78   31.69
  -2   1  -1 3936.42   34.89
  -2  -1   0 7509.41   43.87
  -2  -1   0 7368.29   41.09
  -2  -1   1  640.59   11.33
  -2  -1   1  665.06   13.56
  -2   1   1  649.90   11.62
  -2  -1   2 1075.05   17.05
  -2  -1   2 1109.07   19.19
  -2  -1   3 1609.81   23.77
  -2  -1   3 1598.50   24.41
  -2   1   3 1552.32   22.56
  -2   1   3 1541.16   13.56
  -2  -1   4 3843.70   42.75
  -2  -1   4 3855.18   40.09
  -2  -1   4 3831.97   40.47
  -2   1   4 4053.75   39.46
  -2   1   4 4088.67   41.76
  -2   1   4 3884.66   42.40
  -2  -1   5 1265.26   27.24
  -2   1   5 1354.08   20.01
  -2  -1   5 1331.28   26.00
  -2   1   5 1336.86   24.74
  -2   1   5 1343.77   26.80
  -2  -1   6 4063.14   50.44
  -2  -1   6 3969.59   52.85
  -2   1   6 4098.84   48.17
  -2   1   6 4035.10   50.85
  -2  -1   7  119.94   10.12
  -2  -1   7  127.38    9.66
  -2  -1   7  124.20    9.82
  -2   1   7  128.41    9.54
  -2   1   7  121.09    9.51
  -2  -1   7  117.06    8.72
  -2  -1   8  375.83   17.79
  -2  -1   8  400.56   19.48
  -2  -1   8  375.56   19.37
  -2   1   8  390.90   18.50
  -2   1   8  387.86   18.54
  -2  -1   9  355.78   18.25
  -2   1   9  341.21   18.93
  -2   1   9  345.08    9.30
  -2   1   9  346.86   10.13
  -2  -1   9  390.32   21.01
  -2  -1   9  372.21   10.58
  -2   1   9  340.47    9.19
  -2   1   9  352.32    9.84
  -2   1  10  378.24   10.72
  -2   1  10  379.54    9.81
  -2   1  10  389.65   10.54
  -2   1  11  106.76    5.48
  -2  -1  11  106.76    5.52
  -2   1  11  109.07    5.06
  -2  -1  11   98.20    5.11
  -2   1  11  107.49    5.39
  -2  -1  11  103.71    5.53
  -2   1  12  507.64   10.74
  -2   1  12  491.71    9.43
  -2  -1  12  512.12   10.31
  -2  -1  12  524.67   10.77
  -2  -1  12  528.63   11.04
  -2   1  13   14.95    1.54
  -2  -1  13   12.45    1.37
  -2  -1  13   13.89    1.39
  -2  -1  13   13.10    1.47
  -2  -1  13   11.78    1.18
  -2  -2 -12   98.75    3.20
  -2   2 -12   99.38    3.09
  -2   2 -11  204.51    6.27
  -2   2 -11  198.89    5.53
  -2  -2 -11  193.64    6.27
  -2   2 -11  199.70    6.08
  -2   2 -10  191.66    6.75
  -2   2 -10  180.03    6.62
  -2  -2 -10  178.61    5.86
  -2   2 -10  177.79    6.73
  -2  -2 -10  177.98    6.90
  -2   2  -9  590.31   13.10
  -2   2  -9  616.57   13.17
  -2   2  -9  609.88   13.00
  -2  -2  -9  571.21   11.51
  -2  -2  -9  528.60   11.64
  -2  -2  -9  540.43   12.60
  -2  -2  -8   73.22    4.66
  -2  -2  -8   78.92    4.38
  -2   2  -8  101.38    5.44
  -2   2  -8  100.31    5.44
  -2   2  -8   96.12    5.23
  -2  -2  -8   63.78    4.49
  -2  -2  -8   76.71    5.04
  -2  -2  -8   72.99    4.69
  -2   2  -7 1126.80   17.37
  -2  -2  -7 1200.28   18.66
  -2  -2  -7 1237.00   16.64
  -2  -2  -7 1213.66   18.32
  -2   2  -7 1106.23   16.96
  -2  -2  -7 1220.60   18.84
  -2   2  -7 1151.39   17.55
  -2  -2  -7 1188.33   17.87
  -2  -2  -7 1224.76   36.22
  -2   2  -6  874.99   24.61
  -2  -2  -6  834.82   27.40
  -2  -2  -5 1279.17   30.99
  -2   2  -5 1319.86   28.89
  -2   2  -4  768.30   20.89
  -2  -2  -4  802.03   22.14
  -2   2  -4  760.15   17.83
  -2  -2  -4  814.18   19.31
  -2   2  -3  609.04   17.43
  -2  -2  -3  679.52   18.46
  -2   2  -3  604.47   15.47
  -2  -2  -3  655.49   18.21
  -2  -2  -3  677.79   16.68
  -2   2  -2  744.80   18.04
  -2  -2  -2  698.58   17.19
  -2  -2  -2  700.93   16.08
  -2   2  -2  740.59   16.55
  -2  -2  -2  710.62   17.24
  -2   2  -1  768.48   17.18
  -2  -2  -1  732.69   16.30
  -2  -2  -1  773.75   16.33
  -2  -2  -1  736.89   15.58
  -2   2  -1  736.48    8.64
  -2   2   0 2819.71   30.88
  -2  -2   0 2732.38   28.18
  -2  -2   0 2662.52   24.64
  -2  -2   0 2661.14   28.58
  -2  -2   0 2649.85   29.86
  -2   2   0 2875.71   23.41
  -2   2   1 2807.91   28.99
  -2  -2   1 2793.80   28.07
  -2  -2   1 2744.88   25.48
  -2   2   1 2785.54   27.24
  -2  -2   1 2738.60   28.32
  -2  -2   2 6470.66   41.97
  -2   2   2 6256.86   46.24
  -2   2   2 6152.50   35.29
  -2  -2   2 6300.21   46.38
  -2   2   2 6043.35   41.21
  -2  -2   3 2064.26   28.38
  -2   2   3 2051.27   29.76
  -2  -2   3 2049.80   29.34
  -2   2   3 2118.59   24.28
  -2  -2   4 1180.34   23.64
  -2  -2   4 1129.29   23.01
  -2   2   4 1139.40   20.38
  -2   2   4 1171.89   24.36
  -2  -2   5  279.85   13.62
  -2  -2   5  271.80   13.38
  -2  -2   5  291.54   12.91
  -2   2   5  290.98   11.71
  -2   2   5  290.35   13.30
  -2  -2   6  125.18    9.30
  -2  -2   6  130.36   10.04
  -2  -2   6  136.12   10.26
  -2   2   6  102.92    8.60
  -2   2   6  111.95    8.07
  -2  -2   7  869.43   27.92
  -2   2   7  838.13   24.40
  -2   2   7  816.47   26.32
  -2  -2   7  871.36   27.03
  -2  -2   8   17.73    4.53
  -2   2   8    9.86    1.63
  -2   2   8   12.79    1.95
  -2   2   8   15.79    1.99
  -2  -2   8   13.53    3.76
  -2  -2   8   20.45    4.71
  -2   2   8   11.93    3.48
  -2  -2   9  266.94   17.42
  -2  -2   9  270.32   16.55
  -2   2   9  252.88    7.72
  -2   2   9  252.24    8.15
  -2   2   9  254.42    8.72
  -2  -2   9  282.03   18.33
  -2   2   9  254.13    8.19
  -2  -2   9  276.02   17.06
  -2   2   9  254.76   16.71
  -2  -2  10 1002.10   32.43
  -2   2  10  990.86   15.29
  -2   2  10  993.85   17.25
  -2  -2  10 1001.41   17.44
  -2   2  10 1012.58   16.48
  -2   2  11  589.53   12.59
  -2  -2  11  607.17   12.84
  -2  -2  11  573.26   12.79
  -2   2  11  581.65   11.00
  -2  -2  12   58.37    3.46
  -2  -2  12   56.66    3.40
  -2  -2  12   59.97    3.66
  -2   2  13    5.07    0.87
  -2  -2  13    3.70    0.73
  -2  -2  13    4.78    0.78
  -2  -2  13    4.45    0.84
  -2  -3 -11   76.97    3.61
  -2   3 -11   65.70    3.31
  -2   3 -10  148.63    5.87
  -2  -3 -10  156.95    6.08
  -2   3 -10  144.98    5.87
  -2  -3 -10  155.10    6.03
  -2   3 -10  142.67    5.83
  -2   3  -9  236.08    7.80
  -2   3  -9  231.14    8.08
  -2   3  -9  237.39    8.16
  -2  -3  -9  217.89    8.00
  -2  -3  -8 1223.27   18.65
  -2   3  -8 1187.98   18.66
  -2   3  -8 1179.67   18.63
  -2   3  -8 1215.74   18.29
  -2  -3  -8 1190.51   19.62
  -2  -3  -8 1197.50   19.42
  -2  -3  -8 1188.63   19.09
  -2   3  -7 1794.43   22.53
  -2  -3  -7 1776.53   44.84
  -2   3  -7 1841.73   20.69
  -2   3  -7 1814.24   22.72
  -2   3  -7 1845.09   22.41
  -2  -3  -7 1825.79   23.65
  -2  -3  -7 1827.11   23.42
  -2  -3  -7 1825.27   22.27
  -2  -3  -7 1816.07   23.01
  -2   3  -6  919.23   15.33
  -2  -3  -6  927.69   14.79
  -2   3  -6  919.09   15.14
  -2  -3  -6  933.60   30.35
  -2   3  -6  894.72   15.01
  -2  -3  -6  942.53   15.78
  -2  -3  -6  936.30   15.49
  -2   3  -6  946.66   27.37
  -2   3  -5  162.71   10.92
  -2  -3  -5  189.01   11.13
  -2  -3  -5  187.60   12.63
  -2   3  -4  771.80   22.76
  -2  -3  -4  759.86   23.23
  -2  -3  -4  732.00   23.04
  -2  -3  -4  754.05   21.13
  -2   3  -3  257.08   12.43
  -2  -3  -3  264.27   12.59
  -2  -3  -3  264.84   11.82
  -2  -3  -3  272.39   12.94
  -2  -3  -2 1507.72   27.88
  -2  -3  -2 1516.74   28.17
  -2  -3  -1 3160.28   37.32
  -2   3  -1 3172.55   22.71
  -2  -3   0 3129.61   36.35
  -2  -3   0 3126.62   34.43
  -2   3   0 3037.91   28.22
  -2   3   0 3111.30   37.78
  -2  -3   1  999.15   17.00
  -2  -3   1 1022.25   19.67
  -2  -3   1 1033.53   18.24
  -2  -3   1 1045.42   21.19
  -2   3   1  933.12   17.93
  -2   3   1  935.08   20.22
  -2  -3   2  132.59    5.95
  -2  -3   2  125.89    7.63
  -2  -3   2  126.59    6.80
  -2   3   2  148.92    7.98
  -2  -3   3 1829.98   29.71
  -2  -3   3 1726.37   28.71
  -2   3   3 1773.84   17.22
  -2  -3   3 1803.28   24.93
  -2  -3   3 1705.69   30.43
  -2   3   3 1768.76   29.93
  -2  -3   4  353.85   14.08
  -2  -3   4  338.57   13.53
  -2  -3   4  339.07   14.63
  -2   3   4  335.65   14.29
  -2  -3   5 1831.46   34.55
  -2  -3   5 1696.45   36.52
  -2  -3   5 1768.94   33.22
  -2   3   5 1793.54   35.81
  -2  -3   6 1036.39   30.63
  -2  -3   6 1050.61   29.97
  -2  -3   6 1068.25   28.86
  -2  -3   7  268.40   16.27
  -2  -3   7  270.36   16.76
  -2  -3   7  277.24   16.08
  -2  -3   8 2770.51   56.67
  -2  -3   8 2787.76   55.35
  -2   3   8 2862.83   27.34
  -2  -3   8 2857.91   56.30
  -2   3   8 2956.07   28.75
  -2   3   8 2912.44   56.70
  -2  -3   9  266.64   17.55
  -2   3   9  230.92    7.95
  -2   3   9  228.46    8.24
  -2  -3   9  265.43   17.64
  -2   3   9  219.90   16.28
  -2   3  10  637.90   13.66
  -2  -3  10  598.36   13.26
  -2   3  10  641.38   12.88
  -2  -3  11  576.22   11.91
  -2   3  11  598.18   12.22
  -2  -3  12  115.71    4.41
  -2  -3  12  113.90    4.58
  -2  -3  12  115.83    4.72
  -2   3  12  111.83    4.56
  -2  -3  13   49.42    2.30
  -2  -3  13   51.12    2.34
  -2   3  13   50.67    1.92
  -2  -4 -11  457.30    7.09
  -2   4 -11  471.31    7.53
  -2   4 -10    9.03    1.43
  -2  -4 -10   13.37    1.63
  -2  -4 -10   12.23    1.41
  -2   4 -10    7.32    1.30
  -2  -4 -10   13.42    1.74
  -2   4  -9  226.07    7.68
  -2   4  -9  226.09    7.60
  -2  -4  -9  189.77    6.93
  -2   4  -9  210.18    7.30
  -2  -4  -9  205.00    7.47
  -2   4  -8   18.45    2.35
  -2   4  -8   15.91    1.99
  -2  -4  -8   13.78    2.19
  -2  -4  -8   15.36    2.27
  -2  -4  -8   13.84    1.97
  -2   4  -8   12.77    2.05
  -2  -4  -8   19.67    2.54
  -2  -4  -7  485.15   11.25
  -2   4  -7  497.41   12.10
  -2   4  -7  503.71   12.05
  -2   4  -7  486.24   11.24
  -2  -4  -7  466.96   11.85
  -2  -4  -7  470.72   11.99
  -2  -4  -6  124.79    5.53
  -2   4  -6  121.04    5.72
  -2  -4  -6  118.31    5.75
  -2  -4  -6  120.29   11.40
  -2   4  -6  127.21    5.97
  -2   4  -6  125.04   10.68
  -2  -4  -5   86.87    9.38
  -2   4  -5   80.66    4.92
  -2   4  -5   84.88    4.68
  -2  -4  -5   85.60    8.46
  -2   4  -5   81.07    4.44
  -2  -4  -5   91.31    4.78
  -2  -4  -5   86.07    4.29
  -2   4  -5   84.76    8.62
  -2  -4  -5   88.11    9.17
  -2  -4  -4  497.01   19.33
  -2  -4  -4  475.13   20.40
  -2  -4  -4  498.36   20.20
  -2   4  -4  528.52   20.80
  -2  -4  -3  526.17   20.15
  -2  -4  -3  539.33   19.34
  -2  -4  -3  552.92   19.73
  -2   4  -3  565.24   20.65
  -2  -4  -2  286.15   13.70
  -2  -4  -2  278.35   13.16
  -2   4  -2  318.15   14.90
  -2  -4  -1 2718.89   38.76
  -2  -4  -1 2699.31   39.31
  -2   4  -1 2726.27   42.34
  -2  -4   0 4105.92   46.16
  -2   4   0 4054.66   38.02
  -2  -4   0 4231.54   45.91
  -2   4   0 4137.69   50.92
  -2  -4   1 2436.14   34.99
  -2  -4   1 2478.49   32.91
  -2  -4   1 2518.77   36.16
  -2   4   1 2480.83   33.20
  -2   4   1 2574.85   39.51
  -2  -4   2 1853.54   29.90
  -2   4   2 1827.98   33.51
  -2   4   2 1788.11   30.90
  -2  -4   2 1920.32   32.36
  -2  -4   2 1859.02   33.68
  -2  -4   3  634.05   20.61
  -2   4   3  627.76   19.89
  -2  -4   3  657.14   17.28
  -2  -4   4  351.61   15.28
  -2  -4   4  379.10   12.83
  -2  -4   4  343.58   16.27
  -2  -4   4  400.73   15.91
  -2   4   4  408.10   17.38
  -2  -4   5  330.37   17.80
  -2  -4   5  346.41   15.82
  -2  -4   5  347.89   16.52
  -2   4   5  328.72   16.81
  -2  -4   6  171.53   13.02
  -2  -4   6  167.91   13.40
  -2   4   6  219.20   14.76
  -2  -4   6  195.60   13.34
  -2  -4   6  181.25   11.87
  -2  -4   7  376.08   20.14
  -2   4   7  344.52    9.57
  -2  -4   7  379.00   19.98
  -2   4   7  345.15    9.18
  -2  -4   7  377.88   21.09
  -2   4   7  351.57   19.78
  -2  -4   8  307.27   18.60
  -2  -4   8  299.99   19.69
  -2   4   8  301.17    9.33
  -2   4   8  289.21    9.06
  -2   4   8  293.45   18.89
  -2  -4   9   22.29    5.11
  -2  -4   9   23.96    5.69
  -2   4   9   41.83    3.56
  -2   4   9   37.14    3.27
  -2  -4  10   43.48    7.04
  -2   4  10   70.08    4.35
  -2  -4  10   49.67    3.67
  -2   4  10   66.01    4.08
  -2   4  11  294.22    8.00
  -2   4  11  293.94    7.24
  -2   4  11  270.46    6.54
  -2   4  12   93.46    3.73
  -2  -4  12   77.03    2.94
  -2  -4  12   81.70    3.51
  -2  -4  12   85.68    3.51
  -2   4  12   87.38    2.87
  -2  -5 -10  103.82    3.30
  -2   5 -10  105.47    3.79
  -2  -5 -10  107.22    3.46
  -2  -5 -10  113.70    4.13
  -2   5  -9  472.37    9.98
  -2   5  -9  462.55    9.01
  -2  -5  -9  453.53    9.05
  -2  -5  -9  460.70    9.90
  -2   5  -9  441.59    9.37
  -2  -5  -9  476.92   10.32
  -2  -5  -8  269.47    7.52
  -2   5  -8  213.81    7.37
  -2   5  -8  210.92    7.03
  -2  -5  -8  264.52    8.27
  -2  -5  -8  249.43    8.56
  -2   5  -8  208.83    7.19
  -2  -5  -8  265.74    8.51
  -2   5  -7  158.37    6.55
  -2   5  -7  157.08    6.45
  -2  -5  -7  132.63    6.06
  -2   5  -7  159.29    6.53
  -2  -5  -7  139.46    5.64
  -2  -5  -7  131.45    6.21
  -2   5  -6   73.65    4.49
  -2   5  -6   77.83    4.60
  -2  -5  -6   57.71    4.01
  -2   5  -6   80.13    4.69
  -2  -5  -6   60.15    3.71
  -2  -5  -5 1194.97   36.95
  -2  -5  -5 1181.58   33.90
  -2   5  -5 1230.86   17.54
  -2   5  -5 1244.16   21.52
  -2  -5  -5 1224.24   17.90
  -2   5  -5 1195.19   17.55
  -2   5  -5 1198.33   19.99
  -2   5  -5 1221.52   35.08
  -2  -5  -5 1199.91   35.03
  -2   5  -4  271.30    9.68
  -2   5  -4  252.62    7.54
  -2   5  -4  250.19    7.70
  -2  -5  -4  211.56   13.90
  -2  -5  -4  221.33   14.38
  -2   5  -4  260.67    7.88
  -2   5  -4  254.21    8.06
  -2  -5  -4  226.84   15.33
  -2   5  -4  255.40    8.76
  -2   5  -4  272.53   16.36
  -2   5  -3  144.51    5.76
  -2  -5  -3  113.72    9.67
  -2  -5  -3  117.07    9.99
  -2  -5  -3  118.06   10.40
  -2   5  -3  153.89    6.89
  -2   5  -3  148.35    6.31
  -2   5  -3  153.50   11.98
  -2  -5  -2  571.60   21.62
  -2  -5  -2  559.74   21.08
  -2  -5  -2  587.92   20.70
  -2  -5  -1 1366.38   31.28
  -2   5  -1 1407.19   34.76
  -2  -5  -1 1371.48   30.28
  -2  -5   0 1040.85   25.80
  -2  -5   0 1028.19   26.76
  -2   5   0 1071.49   29.77
  -2  -5   0 1030.69   25.36
  -2  -5   1 2074.38   35.64
  -2  -5   1 2086.50   34.46
  -2  -5   1 2074.40   36.86
  -2   5   1 1992.22   33.49
  -2   5   1 2052.87   40.90
  -2  -5   2   81.98    8.12
  -2  -5   2   81.29    7.13
  -2  -5   2   84.51    6.47
  -2  -5   2   89.59    7.58
  -2   5   2   77.43    7.22
  -2  -5   3    8.65    2.51
  -2  -5   3    6.36    2.40
  -2  -5   3    7.52    2.19
  -2   5   3   11.27    3.04
  -2  -5   4  442.88   20.56
  -2  -5   4  428.58   18.69
  -2   5   4  391.85   18.52
  -2   5   5  547.48   12.21
  -2  -5   5  559.71   25.26
  -2   5   5  564.77   11.53
  -2  -5   5  548.72   21.69
  -2   5   5  571.31   11.91
  -2   5   5  579.50   11.99
  -2   5   5  550.28   11.28
  -2   5   5  583.38   24.09
  -2   5   6  127.19    5.73
  -2   5   6  121.50    5.67
  -2  -5   6   99.02    9.38
  -2   5   6  125.64   11.89
  -2  -5   6   97.22   10.37
  -2  -5   6   94.60   10.84
  -2   5   6  119.47    5.71
  -2   5   6  126.02    5.47
  -2   5   7  244.54    8.22
  -2  -5   7  229.95   16.28
  -2   5   7  237.49   17.04
  -2  -5   7  225.85   17.13
  -2   5   7  235.01    8.18
  -2  -5   8  113.68   11.32
  -2  -5   8  135.49   13.49
  -2   5   8  126.86    6.03
  -2   5   8  119.82    5.89
  -2  -5   9  185.31   14.99
  -2   5   9  188.80    7.09
  -2   5   9  185.27    7.08
  -2  -5   9  177.85   13.49
  -2   5  10 1062.11   15.45
  -2   5  10 1045.23   15.13
  -2   5  11  334.48    7.45
  -2  -5  11  331.26    6.70
  -2  -5  11  348.18    7.42
  -2   5  11  319.17    6.59
  -2   5  12  394.46    6.15
  -2  -5  12  379.75    6.13
  -2   6  -9  414.92    7.78
  -2   6  -9  400.30    7.16
  -2  -6  -9  341.89    6.45
  -2  -6  -9  366.19    7.32
  -2   6  -9  377.97    6.82
  -2  -6  -9  388.33    7.85
  -2   6  -8  190.74    6.16
  -2   6  -8  190.72    6.09
  -2  -6  -8  173.43    6.32
  -2  -6  -8  180.22    5.80
  -2   6  -8  194.68    5.88
  -2  -6  -8  189.87    6.38
  -2   6  -7  243.35    7.46
  -2   6  -7  239.81    7.70
  -2  -6  -7  250.06    7.44
  -2   6  -7  246.29    7.30
  -2  -6  -7  243.66    7.77
  -2  -6  -6   37.98    3.20
  -2  -6  -6   41.99    3.19
  -2   6  -6   34.22    2.92
  -2   6  -6   33.39    3.06
  -2   6  -6   38.01    3.04
  -2   6  -5  356.83   11.74
  -2  -6  -5  304.38   18.98
  -2  -6  -5  326.31    8.81
  -2   6  -5  327.84    8.87
  -2   6  -5  320.67    9.43
  -2  -6  -5  292.92   17.67
  -2   6  -5  333.03    9.06
  -2   6  -5  322.39   10.47
  -2  -6  -4  482.68   23.43
  -2   6  -4  470.70   10.26
  -2  -6  -4  485.12   22.70
  -2   6  -4  467.26   13.03
  -2   6  -4  448.40   10.34
  -2   6  -4  452.23   10.98
  -2   6  -4  466.24   10.62
  -2   6  -4  466.67   12.30
  -2   6  -4  479.04   23.30
  -2   6  -3  315.52   10.36
  -2  -6  -3  362.58   19.22
  -2   6  -3  317.95    8.96
  -2   6  -3  322.17    9.09
  -2   6  -3  314.66    9.05
  -2   6  -3  312.18    9.72
  -2  -6  -3  371.21   19.74
  -2   6  -3  338.74   19.48
  -2  -6  -2 1249.14   34.66
  -2   6  -2 1231.59   19.68
  -2  -6  -2 1192.77   34.02
  -2   6  -2 1227.61   17.80
  -2   6  -2 1197.36   16.86
  -2   6  -2 1180.94   16.59
  -2   6  -2 1195.16   18.29
  -2   6  -2 1251.99   36.88
  -2   6  -1  275.68    7.81
  -2  -6  -1  259.62   15.49
  -2   6  -1  305.48    8.96
  -2   6  -1  285.00    7.93
  -2  -6  -1  254.03   14.90
  -2   6  -1  304.73   18.03
  -2   6  -1  290.52    8.69
  -2   6  -1  276.18    7.66
  -2   6   0 1149.95   16.13
  -2  -6   0 1228.87   31.12
  -2   6   0 1159.97   17.63
  -2   6   0 1123.25   15.15
  -2  -6   0 1231.75   32.68
  -2   6   0 1148.39   18.45
  -2   6   0 1100.47   16.32
  -2   6   1   70.30    4.11
  -2  -6   1   64.22    6.73
  -2  -6   1   58.54    7.02
  -2   6   1   68.52    4.03
  -2   6   1   72.46    4.49
  -2   6   1   80.89    4.16
  -2   6   1   67.32    4.17
  -2   6   1   76.48    4.69
  -2   6   1   68.63    3.93
  -2   6   2  455.26   10.66
  -2   6   2  497.11   12.04
  -2  -6   2  551.96   20.68
  -2  -6   2  548.83   23.52
  -2   6   2  483.24   10.49
  -2   6   2  465.78   11.40
  -2   6   2  521.55   20.48
  -2   6   2  486.66   10.93
  -2   6   3  235.90    7.77
  -2  -6   3  254.03   13.58
  -2   6   3  238.92    7.62
  -2  -6   3  253.94   15.37
  -2   6   3  252.05    8.71
  -2  -6   3  250.58   16.43
  -2   6   3  240.10    7.64
  -2   6   3  238.51    8.09
  -2   6   3  246.69   15.05
  -2   6   4  215.57    7.24
  -2  -6   4  249.36   16.91
  -2   6   4  240.95    7.92
  -2   6   4  225.16    7.40
  -2  -6   4  248.72   15.36
  -2   6   4  213.59    8.05
  -2   6   4  226.47    7.69
  -2   6   4  239.09   15.68
  -2  -6   5  264.55   18.36
  -2  -6   5  253.25   15.53
  -2   6   5  247.38    8.04
  -2   6   5  246.79    7.96
  -2   6   5  259.71    8.43
  -2   6   5  274.05   17.59
  -2   6   6  122.76    5.61
  -2  -6   6  115.93   11.49
  -2  -6   6  117.84   12.42
  -2   6   6  120.80    5.86
  -2   6   6  123.43    5.75
  -2   6   7  372.76   10.23
  -2   6   7  371.00    9.97
  -2   6   8  208.42    7.22
  -2  -6   8  174.41   13.22
  -2   6   8  210.48    7.48
  -2  -6   8  189.17   15.30
  -2   6   9  609.61   11.46
  -2   6   9  617.71   11.92
  -2   6  10  630.01   10.17
  -2   6  10  625.18   10.14
  -2   6  11   43.31    2.14
  -2   7  -8  180.14    4.98
  -2  -7  -8  174.17    5.13
  -2   7  -8  163.56    4.54
  -2  -7  -8  177.16    4.89
  -2  -7  -7  279.18    6.20
  -2   7  -7  247.26    6.95
  -2   7  -7  251.73    6.14
  -2  -7  -7  278.26    7.56
  -2   7  -7  241.51    6.88
  -2  -7  -7  283.41    7.10
  -2   7  -6  135.61    4.86
  -2   7  -6  141.70    5.78
  -2  -7  -6  140.00    4.85
  -2  -7  -6  141.16    5.41
  -2   7  -5   37.90    3.18
  -2   7  -5   44.74    3.81
  -2  -7  -4   67.75    8.62
  -2   7  -4   56.09    4.55
  -2   7  -4   58.15    3.55
  -2   7  -4   56.57    3.89
  -2   7  -4   54.98    4.18
  -2  -7  -3 1076.78   34.42
  -2  -7  -3 1088.73   34.58
  -2   7  -3 1157.68   16.81
  -2   7  -3 1158.98   17.41
  -2   7  -3 1230.69   20.48
  -2   7  -3 1172.67   19.81
  -2   7  -3 1175.43   18.97
  -2   7  -2  163.77    6.58
  -2  -7  -2  134.79   12.17
  -2   7  -2  157.95    6.30
  -2   7  -2  167.04    7.36
  -2  -7  -2  140.14   12.10
  -2   7  -2  155.08    5.89
  -2   7  -2  157.99    6.91
  -2   7  -2  172.27    7.68
  -2  -7  -1  350.33   18.48
  -2  -7  -1  351.31   19.25
  -2   7  -1  314.60    9.42
  -2   7  -1  301.99    9.75
  -2   7  -1  315.83    8.64
  -2   7  -1  309.75   10.14
  -2   7  -1  307.14    9.35
  -2   7  -1  318.79    8.80
  -2  -7   0 1632.23   40.59
  -2   7   0 1599.94   20.22
  -2   7   0 1558.98   20.25
  -2   7   0 1640.01   21.91
  -2  -7   0 1607.86   37.66
  -2   7   0 1616.32   22.80
  -2   7   0 1618.82   20.68
  -2  -7   1 1357.28   36.04
  -2   7   1 1414.33   19.40
  -2  -7   1 1375.30   39.92
  -2   7   1 1444.96   21.02
  -2   7   1 1429.37   21.13
  -2   7   1 1400.33   19.32
  -2   7   1 1362.40   18.27
  -2  -7   2   26.92    4.99
  -2   7   2   31.12    2.97
  -2   7   2   35.80    3.41
  -2   7   2   35.22    3.12
  -2   7   2   31.55    2.84
  -2   7   2   36.71    3.39
  -2   7   2   34.25    3.06
  -2   7   2   33.28    2.79
  -2   7   3  300.39    9.21
  -2   7   3  280.79    8.50
  -2   7   3  311.87    9.05
  -2   7   3  286.20    9.57
  -2   7   4  145.19    5.96
  -2  -7   4  139.88   13.58
  -2   7   4  143.91    6.35
  -2   7   4  169.28    7.43
  -2   7   4  146.64    6.33
  -2   7   4  135.96    5.75
  -2  -7   4  144.16   12.11
  -2   7   5   27.21    2.74
  -2   7   5   25.28    2.40
  -2   7   5   25.73    2.71
  -2   7   5   25.51    2.54
  -2  -7   6   42.79    6.91
  -2   7   6   54.41    3.65
  -2   7   6   49.72    3.69
  -2   7   6   50.52    3.51
  -2   7   7  707.05   11.92
  -2   7   7  687.51   12.30
  -2   7   7  701.17   13.27
  -2   7   8  151.97    5.34
  -2   7   8  162.72    5.92
  -2   7   9  133.72    4.36
  -2   7   9  138.46    4.77
  -2   7  10  281.03    4.99
  -2   8  -7   23.61    1.54
  -2  -8  -7   24.25    1.70
  -2   8  -7   27.79    1.81
  -2  -8  -7   24.02    1.41
  -2   8  -6   23.55    1.98
  -2   8  -6   22.78    1.95
  -2  -8  -6   26.66    2.08
  -2  -8  -6   24.48    1.73
  -2   8  -5   55.79    3.32
  -2   8  -5   55.34    3.44
  -2   8  -4   42.36    3.04
  -2   8  -4   43.80    3.39
  -2   8  -4   42.25    3.30
  -2   8  -3  632.90   11.19
  -2   8  -3  655.11   12.06
  -2   8  -3  666.92   13.57
  -2   8  -3  660.45   13.27
  -2   8  -2   52.84    3.26
  -2   8  -2   53.20    3.93
  -2   8  -2   51.51    3.47
  -2   8  -2   57.99    3.58
  -2   8  -2   55.70    4.08
  -2   8  -2   51.64    3.80
  -2   8  -1  590.88   11.61
  -2   8  -1  606.40   12.46
  -2   8  -1  618.10   11.26
  -2   8  -1  635.83   13.76
  -2   8  -1  609.86   12.68
  -2   8  -1  614.97   13.12
  -2   8   0  444.67   11.07
  -2   8   0  446.14   11.05
  -2   8   0  444.75   11.42
  -2   8   0  447.84   10.59
  -2  -8   0  423.93   20.67
  -2   8   0  452.47   10.55
  -2   8   1  262.12    8.10
  -2   8   1  270.13    8.77
  -2   8   1  269.03    8.82
  -2   8   1  279.78    8.53
  -2   8   1  274.38    8.00
  -2   8   2  792.32   14.43
  -2   8   2  809.69   14.31
  -2   8   2  795.36   15.21
  -2   8   2  775.59   12.65
  -2   8   3    5.93    1.34
  -2   8   3    5.08    1.22
  -2   8   4  222.23    6.72
  -2   8   4  232.57    7.57
  -2   8   4  236.62    7.66
  -2   8   5  513.39    9.33
  -2   8   5  550.72   11.14
  -2   8   5  540.89   11.15
  -2   8   6   69.89    3.40
  -2   8   6   68.88    3.78
  -2   8   6   67.43    3.57
  -2   8   7    5.54    1.03
  -2   8   7    4.66    0.79
  -2   8   7    6.56    0.99
  -2   8   8  377.01    6.88
  -2   8   9  207.89    3.92
  -2   9  -5  184.21    4.39
  -2  -9  -5  173.08    3.89
  -2   9  -4   98.23    3.83
  -2  -9  -4   83.99    3.07
  -2   9  -3  113.59    4.55
  -2   9  -2  500.32    9.85
  -2   9  -2  508.71   10.09
  -2   9  -2  503.33    9.88
  -2   9  -1    7.18    1.24
  -2   9  -1    5.20    1.09
  -2   9  -1    4.41    1.05
  -2   9  -1   29.00    2.60
  -2   9  -1   21.52    2.60
  -2   9   0  881.08   12.88
  -2   9   0  865.66   13.12
  -2   9   0  863.19   12.62
  -2   9   1  249.24    6.90
  -2   9   1  249.94    7.08
  -2   9   1  253.50    6.49
  -2   9   2  225.50    6.76
  -2   9   2  207.75    6.06
  -2   9   3   79.74    3.50
  -2   9   3   85.71    3.83
  -2   9   3   85.12    4.10
  -2   9   4  403.15    7.02
  -2   9   4  421.92    8.09
  -2   9   4  428.20    8.66
  -2   9   5  249.26    6.05
  -2   9   5  248.26    5.77
  -2   9   6  165.26    4.19
  -2   9   6  159.13    3.85
  -2  10   0   71.65    2.53
  -2  10   0   57.71    2.27
  -2  10   1   16.48    1.16
  -2  10   1   27.78    1.83
  -2  10   2  541.09    7.54
  -2  10   3   20.10    1.47
  -1   0 -12    2.95    0.84
  -1   0 -12    3.01    0.76
  -1   0 -11  569.20   11.86
  -1   0 -11  582.71   12.15
  -1   0 -10    3.13    1.23
  -1   0 -10    2.85    1.17
  -1   0  -9  442.31   21.64
  -1   0  -9  434.24   11.38
  -1   0  -8    1.48    1.53
  -1   0  -8    1.20    0.80
  -1   0  -8    1.29    0.76
  -1   0  -7 1216.98   31.42
  -1   0  -6   16.56    3.42
  -1   0  -5  242.74   11.37
  -1   0  -5  244.29   11.20
  -1   0  -4   26.78    3.30
  -1   0  -4   27.65    3.40
  -1   0  -3  432.28   11.23
  -1   0  -2    5.67    1.17
  -1   0  -1 5062.16   25.25
  -1   0   0   14.13    1.26
  -1   0   0    1.88    0.48
  -1   0   1 1020.86   12.77
  -1   0   2    5.19    1.00
  -1   0   2   11.26    1.49
  -1   0   3 7925.54   43.71
  -1   0   4    3.18    1.43
  -1   0   4    3.34    1.13
  -1   0   4    5.53    1.42
  -1   0   4    4.23    1.33
  -1   0   5 8692.46   67.46
  -1   0   5 8706.99   61.15
  -1   0   5 8526.34   57.08
  -1   0   6    7.60    2.52
  -1   0   6    6.44    2.08
  -1   0   6    4.94    1.57
  -1   0   6    6.42    1.78
  -1   0   6    6.31    1.99
  -1   0   7  934.37   22.81
  -1   0   7  951.17   26.05
  -1   0   7  949.57   25.87
  -1   0   7  952.62   22.74
  -1   0   8   21.47    4.46
  -1   0   9 2475.53   27.37
  -1   0   9 2491.19   27.40
  -1   0   9 2552.27   51.80
  -1   0  10    8.34    1.66
  -1   0  10   10.04    1.87
  -1   0  10    7.45    1.60
  -1   0  11  337.42    9.61
  -1   0  11  333.76    9.48
  -1   0  11  331.32    9.79
  -1   0  12    3.79    0.99
  -1   0  12    3.14    0.96
  -1   0  12    3.51    0.96
  -1   0  12    4.70    0.99
  -1   0  13   71.76    2.85
  -1   0  13   67.88    2.45
  -1  -1 -12  732.68   10.80
  -1   1 -12  694.79    9.31
  -1  -1 -12  715.87   10.77
  -1   1 -12  754.93   11.53
  -1   1 -11  356.21    8.80
  -1  -1 -11  347.68    9.04
  -1   1 -11  362.61    9.60
  -1  -1 -11  343.27    9.48
  -1  -1 -10  228.29    8.04
  -1   1 -10  240.27    7.76
  -1  -1 -10  230.98   14.93
  -1   1 -10  223.60    8.03
  -1   1 -10  219.37    8.16
  -1   1  -9   14.58    2.17
  -1  -1  -9    7.48    2.85
  -1  -1  -9    7.26    1.56
  -1   1  -9   14.48    1.98
  -1   1  -9   14.48    2.20
  -1   1  -9   13.02    4.06
  -1  -1  -9    8.99    1.78
  -1  -1  -9    9.58    1.70
  -1   1  -8  366.16   10.16
  -1   1  -8  368.47   19.38
  -1  -1  -8  382.69   10.91
  -1  -1  -8  375.08   10.10
  -1   1  -8  365.61    9.54
  -1   1  -8  368.13    9.67
  -1  -1  -8  369.04   18.28
  -1  -1  -8  367.37    9.99
  -1  -1  -8  383.18   10.49
  -1   1  -7  478.07   20.42
  -1  -1  -7  439.50   18.41
  -1  -1  -6  622.57   21.23
  -1   1  -6  641.56   17.09
  -1  -1  -6  600.17   19.31
  -1   1  -6  638.74   21.30
  -1   1  -5 1067.83   20.92
  -1   1  -5 1068.20   24.43
  -1  -1  -5 1158.49   23.92
  -1  -1  -5 1142.36   25.51
  -1   1  -4 2281.18   31.76
  -1   1  -4 2261.21   25.80
  -1  -1  -4 2307.36   30.28
  -1  -1  -4 2259.68   31.38
  -1  -1  -4 2221.94   23.82
  -1  -1  -4 2186.27   28.54
  -1  -1  -3 3633.17   34.00
  -1   1  -3 3658.79   34.89
  -1   1  -3 3529.04   31.42
  -1   1  -3 3593.51   30.39
  -1  -1  -2  344.97    9.31
  -1   1  -2  360.91    8.06
  -1  -1  -2  360.02    9.49
  -1  -1  -1 1416.48   16.18
  -1   1  -1 1502.33   11.65
  -1  -1   0  773.31   10.92
  -1  -1   0  741.96    9.00
  -1   1   0  769.85    8.54
  -1   1   1 5438.65   25.84
  -1  -1   1 5623.13   33.03
  -1  -1   2  104.84    4.65
  -1   1   2   99.55    4.08
  -1   1   2   99.92    3.40
  -1   1   3 2221.62   22.20
  -1  -1   3 2273.25   25.57
  -1  -1   3 2297.45   28.15
  -1   1   3 2251.23   25.64
  -1   1   4   62.18    3.13
  -1  -1   4   66.71    5.54
  -1  -1   4   69.19    5.72
  -1   1   4   66.23    4.95
  -1  -1   4   67.02    4.97
  -1   1   4   67.38    4.54
  -1  -1   5 2598.94   38.49
  -1   1   5 2422.68   23.91
  -1   1   5 2414.21   33.05
  -1  -1   5 2508.54   34.37
  -1  -1   5 2576.78   29.61
  -1   1   5 2449.41   31.47
  -1   1   6  205.95   10.39
  -1  -1   6  188.04   11.21
  -1   1   6  210.72   10.73
  -1  -1   6  211.71    9.07
  -1  -1   6  191.12   11.75
  -1  -1   6  201.72   10.97
  -1  -1   7 1030.88   27.68
  -1  -1   7 1007.13   29.31
  -1  -1   7 1009.08   28.92
  -1   1   7 1084.20   26.94
  -1   1   7 1042.04   26.10
  -1  -1   8   94.20    8.90
  -1   1   8  117.94   10.01
  -1  -1   8  101.25    9.69
  -1  -1   8   92.57    9.50
  -1   1   8  126.95    5.82
  -1   1   8  129.75    5.72
  -1   1   8  136.01    5.88
  -1  -1   9  356.27   19.86
  -1   1   9  356.05   18.95
  -1   1   9  374.38   10.56
  -1  -1   9  355.56   10.41
  -1   1   9  358.06    9.97
  -1   1   9  375.88   10.44
  -1   1  10  184.37    7.50
  -1  -1  10  218.52    8.11
  -1   1  10  180.07    7.09
  -1   1  10  183.67    7.50
  -1  -1  10  211.78    8.26
  -1   1  11   82.82    4.78
  -1  -1  11   59.89    4.02
  -1  -1  11   57.69    4.05
  -1   1  11   84.17    4.84
  -1  -1  11   55.53    4.11
  -1   1  11   80.72    4.14
  -1   1  11   80.02    4.49
  -1   1  12  117.41    4.94
  -1  -1  12   99.06    4.39
  -1  -1  12   97.02    4.53
  -1  -1  12  107.73    4.94
  -1   1  12  117.37    4.73
  -1  -1  13  144.53    3.67
  -1   1  13  144.23    4.10
  -1  -1  13  154.28    4.41
  -1  -1  13  146.66    3.94
  -1   2 -12  626.11    9.91
  -1  -2 -12  602.95    8.33
  -1  -2 -12  640.73    9.98
  -1   2 -12  626.51   10.13
  -1   2 -11  315.84    8.74
  -1  -2 -11  338.48    9.28
  -1   2 -11  330.40    8.42
  -1  -2 -11  336.82    8.27
  -1  -2 -10  327.14    9.18
  -1   2 -10  320.32    8.85
  -1   2 -10  312.82    9.55
  -1   2 -10  340.92    9.63
  -1  -2 -10  343.27   10.28
  -1  -2 -10  328.04    9.09
  -1   2  -9  411.59   10.69
  -1  -2  -9  378.66   11.41
  -1  -2  -9  381.20   10.25
  -1   2  -9  421.20   11.08
  -1   2  -9  420.45   11.33
  -1  -2  -9  375.27   10.91
  -1  -2  -9  368.75   10.57
  -1  -2  -8  708.68   13.23
  -1   2  -8  733.66   14.09
  -1  -2  -8  714.29   14.51
  -1   2  -8  738.61   14.00
  -1  -2  -8  703.27   15.10
  -1  -2  -8  694.38   24.24
  -1   2  -8  717.65   14.18
  -1  -2  -8  682.14   13.87
  -1   2  -8  758.84   14.77
  -1  -2  -8  686.79   14.13
  -1   2  -7 1732.21   40.58
  -1  -2  -7 1690.36   35.24
  -1   2  -7 1753.94   21.10
  -1   2  -7 1714.05   20.14
  -1   2  -7 1745.47   20.37
  -1   2  -7 1684.43   20.46
  -1  -2  -7 1683.84   21.74
  -1  -2  -7 1634.44   20.40
  -1  -2  -7 1635.98   20.42
  -1  -2  -7 1602.90   39.13
  -1   2  -6 1164.11   24.74
  -1   2  -6 1177.01   30.42
  -1  -2  -6 1154.28   29.94
  -1  -2  -6 1223.45   27.22
  -1   2  -5  330.53   12.50
  -1   2  -5  351.53   14.95
  -1  -2  -5  313.88   12.35
  -1  -2  -5  314.66   13.73
  -1  -2  -5  318.53   14.08
  -1  -2  -5  305.98   11.46
  -1   2  -4 1364.06   23.91
  -1   2  -4 1383.69   26.56
  -1  -2  -4 1342.32   26.03
  -1  -2  -4 1407.91   26.40
  -1  -2  -4 1402.06   22.77
  -1   2  -3   66.42    5.01
  -1  -2  -3   55.34    4.77
  -1  -2  -3   51.72    4.59
  -1   2  -3   68.17    5.30
  -1   2  -2  681.79   14.79
  -1  -2  -2  742.47   15.66
  -1  -2  -2  728.44   15.38
  -1  -2  -2  690.88   14.76
  -1   2  -1 2780.64   27.52
  -1   2  -1 2858.13   16.96
  -1  -2  -1 2797.25   26.70
  -1  -2   0 2494.94   23.77
  -1  -2   0 2408.60   16.61
  -1   2   0 2364.77   22.51
  -1   2   0 2470.22   20.18
  -1  -2   0 2488.93   23.68
  -1  -2   1  379.60    9.30
  -1   2   1  378.17    7.77
  -1   2   1  378.83    9.29
  -1  -2   1  355.39    8.18
  -1   2   1  369.66    9.60
  -1  -2   2  474.35   10.89
  -1   2   2  462.61   11.61
  -1   2   2  453.09   10.76
  -1  -2   2  464.83    8.49
  -1  -2   2  465.56    9.33
  -1  -2   2  444.10   11.59
  -1  -2   3  298.24    9.77
  -1  -2   3  282.45    9.56
  -1  -2   3  289.70    7.12
  -1   2   3  281.43    7.81
  -1  -2   3  276.05   10.33
  -1   2   3  276.24   10.02
  -1  -2   3  303.09    5.99
  -1  -2   4 1240.74   26.35
  -1  -2   4 1262.03   22.51
  -1   2   4 1242.34   18.68
  -1   2   4 1303.06   19.39
  -1   2   4 1304.94   24.10
  -1  -2   4 1261.85   22.72
  -1  -2   5  768.32   22.13
  -1  -2   5  765.51   22.87
  -1   2   5  763.14   17.18
  -1   2   5  783.48   20.61
  -1  -2   5  801.21   20.44
  -1  -2   6  356.95   15.21
  -1  -2   6  346.05   16.20
  -1   2   6  356.31   13.45
  -1   2   6  339.83   14.89
  -1  -2   7  624.66   24.65
  -1  -2   7  620.59   22.56
  -1  -2   7  591.60   23.05
  -1   2   7  635.71   20.30
  -1   2   7  623.83   21.96
  -1  -2   8   83.21    9.36
  -1  -2   8   83.69    9.25
  -1  -2   8   81.81    9.49
  -1   2   8   95.06    5.07
  -1   2   8  101.34    5.08
  -1   2   8   92.34    9.09
  -1  -2   8   77.19    8.85
  -1   2   8   97.21    4.92
  -1  -2   9  119.51   11.48
  -1   2   9  165.92    6.89
  -1   2   9  157.54    6.84
  -1  -2   9  126.32    6.23
  -1   2   9  160.46    6.51
  -1  -2   9  123.93   12.02
  -1   2  10  461.77   11.76
  -1  -2  10  454.43   11.69
  -1   2  10  459.90   10.93
  -1  -2  10  438.75   11.90
  -1   2  11  568.30   12.27
  -1  -2  11  571.57   12.00
  -1  -2  11  571.82   12.73
  -1  -2  12  389.20    8.09
  -1  -2  12  386.97    8.84
  -1  -2  12  411.09    9.21
  -1   2  13  268.36    5.27
  -1  -2  13  308.30    5.95
  -1   2  13  267.72    5.45
  -1  -2  13  300.60    5.61
  -1  -3 -12  522.49    8.04
  -1   3 -12  543.50    8.26
  -1  -3 -11  187.86    6.57
  -1   3 -11  197.30    6.51
  -1   3 -11  207.56    6.59
  -1   3 -10   81.07    4.72
  -1  -3 -10  101.01    4.62
  -1  -3 -10  100.57    5.43
  -1  -3 -10   97.36    5.04
  -1   3 -10   74.52    4.54
  -1  -3  -9  941.16   17.04
  -1   3  -9  914.79   16.54
  -1   3  -9  907.79   16.53
  -1  -3  -9  910.04   15.66
  -1  -3  -9  936.03   17.89
  -1  -3  -9  937.44   17.07
  -1   3  -8   12.43    1.87
  -1   3  -8   18.00    2.40
  -1  -3  -8   28.99    3.06
  -1  -3  -8   24.38    2.95
  -1  -3  -8   23.04    2.71
  -1  -3  -8   21.67    2.64
  -1   3  -8   14.38    2.16
  -1  -3  -7  234.63   15.53
  -1   3  -7  267.04    8.29
  -1   3  -7  263.75    8.50
  -1   3  -7  273.99    8.61
  -1  -3  -7  235.52    8.46
  -1  -3  -7  237.58    8.00
  -1  -3  -6 1317.07   33.70
  -1  -3  -6 1370.73   34.31
  -1   3  -6 1380.60   29.60
  -1  -3  -5 1070.39   28.13
  -1  -3  -5 1038.97   27.25
  -1   3  -5 1023.65   24.53
  -1  -3  -4   57.45    6.01
  -1  -3  -4   55.49    5.76
  -1   3  -4   54.12    5.42
  -1  -3  -3  629.40   18.27
  -1  -3  -3  628.59   18.24
  -1  -3  -3  612.65   17.15
  -1   3  -3  625.79   17.40
  -1  -3  -2 1459.85   24.88
  -1  -3  -2 1461.10   23.95
  -1  -3  -2 1448.85   25.47
  -1  -3  -2 1478.60   26.22
  -1   3  -2 1540.87   26.69
  -1   3  -2 1579.14   26.44
  -1  -3  -1 3950.66   36.25
  -1  -3  -1 4003.23   36.42
  -1   3  -1 4022.41   39.45
  -1  -3  -1 4046.85   39.89
  -1   3  -1 4076.47   28.31
  -1   3  -1 4092.16   41.11
  -1  -3   0 1446.75   18.08
  -1  -3   0 1374.00   21.75
  -1  -3   0 1375.45   20.46
  -1   3   0 1481.39   21.73
  -1   3   0 1482.82   19.49
  -1   3   0 1520.66   24.39
  -1   3   1 4754.64   35.22
  -1   3   1 4839.34   39.58
  -1   3   1 4821.81   43.31
  -1  -3   2  412.99   11.50
  -1   3   2  355.26    8.42
  -1   3   2  367.34   12.08
  -1  -3   2  399.18   10.27
  -1  -3   3  547.03   16.32
  -1  -3   3  547.58   14.41
  -1  -3   3  578.37   12.36
  -1   3   3  551.15   16.20
  -1  -3   3  572.80   11.50
  -1  -3   4   92.41    7.35
  -1  -3   4   97.76    6.78
  -1  -3   4   91.21    8.07
  -1  -3   4   90.40    6.51
  -1   3   4   89.36    7.11
  -1  -3   5  738.81   20.81
  -1  -3   5  713.34   22.97
  -1  -3   5  710.03   24.31
  -1  -3   5  739.19   20.12
  -1   3   5  733.60   22.15
  -1  -3   6 1579.27   36.67
  -1  -3   6 1605.29   34.35
  -1  -3   6 1590.87   39.11
  -1   3   6 1574.31   35.25
  -1  -3   7 1433.97   35.73
  -1  -3   7 1396.75   40.11
  -1   3   7 1403.45   18.43
  -1  -3   7 1390.57   36.81
  -1   3   7 1364.20   35.14
  -1  -3   8   78.92    9.33
  -1  -3   8   85.65   10.39
  -1  -3   8   86.81    9.66
  -1   3   8   83.14    4.84
  -1   3   8   81.36    4.50
  -1   3   8   81.70    9.20
  -1  -3   9   67.46    9.31
  -1  -3   9   58.40    8.10
  -1  -3   9   67.29    9.31
  -1   3   9   69.88    4.60
  -1   3   9   74.51    4.27
  -1  -3  10  273.72   18.21
  -1  -3  10  296.28    9.11
  -1  -3  11  601.57   11.35
  -1  -3  11  613.52   12.53
  -1   3  11  587.00   12.00
  -1   3  12  371.44    7.90
  -1  -3  12  324.29    7.57
  -1  -3  12  329.90    7.53
  -1   3  12  356.35    7.41
  -1  -3  13  247.38    4.69
  -1   3  13  241.04    4.31
  -1  -4 -11  310.07    7.32
  -1   4 -11  313.37    7.42
  -1   4 -11  296.90    7.05
  -1  -4 -11  293.74    6.37
  -1   4 -10   87.72    4.54
  -1  -4 -10   80.98    4.43
  -1   4 -10   96.86    4.88
  -1   4 -10   93.54    4.71
  -1  -4 -10   72.86    3.62
  -1  -4 -10   79.34    4.43
  -1  -4  -9  572.42   13.55
  -1   4  -9  535.66   12.41
  -1   4  -9  533.12   12.18
  -1   4  -9  535.80   11.13
  -1  -4  -9  542.55   12.08
  -1  -4  -9  565.31   12.59
  -1  -4  -9  560.92   13.13
  -1   4  -8  249.32    8.51
  -1   4  -8  246.33    8.65
  -1  -4  -8  229.90    8.77
  -1  -4  -8  232.01    8.20
  -1  -4  -8  228.99    8.58
  -1   4  -7  156.22    6.74
  -1   4  -7  161.75    6.75
  -1  -4  -7  149.15    6.94
  -1  -4  -7  147.47    6.39
  -1  -4  -6  583.32   24.56
  -1   4  -6  559.71   12.00
  -1   4  -6  532.42   11.90
  -1  -4  -6  581.41   21.76
  -1  -4  -6  603.16   23.79
  -1   4  -6  552.84   12.00
  -1   4  -6  559.85   13.24
  -1  -4  -6  584.93   11.97
  -1   4  -6  579.75   21.08
  -1  -4  -5  335.34   16.35
  -1  -4  -5  318.16   16.94
  -1   4  -5  284.47   14.46
  -1  -4  -4  212.32   11.98
  -1  -4  -4  202.01   12.60
  -1   4  -4  199.44   11.75
  -1  -4  -3  227.02   11.35
  -1  -4  -3  217.66   12.27
  -1  -4  -3  227.20   12.08
  -1   4  -3  218.58   11.89
  -1  -4  -2 1471.21   26.60
  -1  -4  -2 1522.32   28.48
  -1  -4  -2 1514.34   30.63
  -1   4  -2 1529.37   30.49
  -1  -4  -2 1501.42   29.79
  -1   4  -2 1553.55   30.58
  -1  -4  -1 2052.18   29.29
  -1  -4  -1 1986.92   32.88
  -1   4  -1 1784.80   30.67
  -1   4  -1 1833.79   23.70
  -1  -4  -1 2014.33   29.80
  -1   4  -1 1872.21   32.74
  -1  -4   0 1139.48   20.86
  -1  -4   0 1145.02   20.74
  -1   4   0 1025.10   21.40
  -1  -4   0 1115.05   23.18
  -1   4   0 1051.08   19.64
  -1   4   0 1063.61   24.40
  -1  -4   1  677.90   17.22
  -1   4   1  683.28   16.03
  -1   4   1  670.94   17.10
  -1   4   1  704.07   19.86
  -1  -4   1  702.09   16.38
  -1  -4   2  315.14   11.17
  -1   4   2  277.75   12.01
  -1   4   2  280.47    9.31
  -1  -4   2  325.66   10.83
  -1  -4   3  214.85   11.66
  -1  -4   3  265.14   11.20
  -1  -4   3  228.12    9.04
  -1  -4   3  241.51    9.60
  -1   4   3  246.00   12.20
  -1  -4   4   67.23    7.09
  -1  -4   4   74.84    6.64
  -1  -4   4   72.36    6.44
  -1   4   4   58.69    6.42
  -1  -4   5 1487.60   31.89
  -1  -4   5 1479.23   30.73
  -1   4   5 1549.90   35.46
  -1   4   6 1501.92   37.26
  -1  -4   6 1542.81   38.68
  -1  -4   6 1520.93   41.35
  -1  -4   6 1608.58   36.71
  -1  -4   7 1639.19   41.80
  -1  -4   7 1665.38   40.51
  -1   4   7 1726.53   21.26
  -1   4   7 1667.30   20.37
  -1   4   7 1681.93   42.01
  -1   4   8  263.49    8.68
  -1  -4   8  272.83   17.33
  -1  -4   8  279.44   19.62
  -1   4   8  261.27    8.23
  -1   4   8  259.25   17.19
  -1  -4   9   65.22    9.48
  -1  -4   9   68.22    9.65
  -1   4   9   75.31    4.74
  -1   4   9   74.40    4.31
  -1   4  10  566.60   12.37
  -1  -4  10  547.27   11.45
  -1   4  10  547.18   10.63
  -1   4  10  539.86   11.08
  -1   4  11   83.80    4.20
  -1  -4  11   93.27    4.35
  -1   4  11   80.33    3.74
  -1  -4  12  287.44    6.25
  -1  -4  12  272.71    5.52
  -1   4  12  284.68    5.36
  -1  -5 -11   17.51    1.31
  -1   5 -11   23.03    1.44
  -1   5 -10  433.14    9.18
  -1  -5 -10  400.95    7.60
  -1   5 -10  414.89    8.43
  -1  -5 -10  421.67    8.97
  -1   5  -9  449.07   10.64
  -1   5  -9  433.96    9.71
  -1  -5  -9  431.96   10.25
  -1  -5  -9  459.30   11.12
  -1   5  -9  423.95    9.84
  -1  -5  -9  456.67   10.10
  -1  -5  -9  464.51   11.13
  -1   5  -8   32.52    3.10
  -1   5  -8   28.76    2.79
  -1  -5  -8   32.11    3.19
  -1   5  -8   33.03    2.96
  -1  -5  -8   32.26    2.89
  -1  -5  -8   31.22    3.15
  -1   5  -7  128.08    6.03
  -1   5  -7  124.38    6.00
  -1  -5  -7  133.99    6.50
  -1   5  -7  122.77    5.73
  -1  -5  -7  139.94    6.00
  -1   5  -6  200.17    7.46
  -1  -5  -6  169.59   12.82
  -1   5  -6  194.66    7.58
  -1  -5  -6  181.68   14.62
  -1   5  -6  191.06    7.19
  -1   5  -6  202.75    8.43
  -1  -5  -6  172.95    6.54
  -1   5  -5 1406.91   21.79
  -1  -5  -5 1356.21   38.14
  -1   5  -5 1370.15   18.40
  -1   5  -5 1341.37   19.01
  -1  -5  -5 1343.46   34.55
  -1   5  -5 1364.59   17.90
  -1  -5  -5 1386.11   17.45
  -1   5  -5 1372.87   20.77
  -1   5  -5 1421.27   35.64
  -1  -5  -4  723.19   23.52
  -1   5  -4  702.55   15.05
  -1   5  -4  686.45   12.78
  -1  -5  -4  722.24   26.33
  -1   5  -4  682.77   13.87
  -1   5  -4  720.73   25.01
  -1  -5  -3  119.94    9.64
  -1  -5  -3  118.49   10.12
  -1  -5  -3  127.15    9.17
  -1   5  -3   98.55    9.04
  -1  -5  -2 1087.82   28.66
  -1  -5  -2 1126.20   30.31
  -1   5  -2 1002.76   27.88
  -1  -5  -2 1091.41   25.09
  -1  -5  -2 1083.05   26.51
  -1   5  -2 1024.85   28.57
  -1  -5  -1  695.01   18.88
  -1  -5  -1  679.51   19.58
  -1  -5  -1  677.64   22.12
  -1   5  -1  672.58   21.39
  -1   5  -1  675.20   22.72
  -1  -5   0 1265.99   24.42
  -1  -5   0 1203.04   28.15
  -1   5   0 1249.64   27.26
  -1  -5   0 1294.78   25.13
  -1   5   0 1263.41   25.22
  -1   5   0 1330.23   31.76
  -1   5   1  261.80   11.63
  -1  -5   1  251.84   10.69
  -1   5   1  265.39   12.46
  -1  -5   1  242.56   12.07
  -1   5   2  200.77   11.49
  -1  -5   2  228.88   11.24
  -1  -5   3 1856.01   39.19
  -1  -5   3 2001.24   32.31
  -1  -5   3 2006.99   32.12
  -1   5   3 1900.70   37.79
  -1  -5   4  131.94   11.04
  -1  -5   4  118.83    9.37
  -1   5   5  211.63    6.74
  -1  -5   5  220.95   16.18
  -1   5   5  210.28    7.23
  -1   5   5  217.75    7.23
  -1   5   5  211.63    7.17
  -1   5   5  220.61   14.68
  -1  -5   6   37.36    6.41
  -1  -5   6   43.12    7.45
  -1   5   6   35.81    3.11
  -1   5   6   32.82    2.94
  -1   5   6   35.05    3.07
  -1   5   6   35.62    6.26
  -1  -5   7  391.69   20.75
  -1  -5   7  372.46   22.58
  -1   5   7  378.50   10.24
  -1   5   7  369.48    9.64
  -1   5   7  373.35   10.05
  -1   5   7  364.98    9.42
  -1   5   7  383.47   21.23
  -1   5   8  488.21   11.85
  -1   5   8  489.57   11.36
  -1   5   8  475.90   10.63
  -1  -5   8  536.92   27.15
  -1  -5   8  535.58   27.33
  -1  -5   9   69.28    9.41
  -1   5   9   70.32    4.40
  -1   5   9   69.99    4.09
  -1   5   9   69.93    3.87
  -1   5  10   46.74    3.30
  -1   5  10   46.48    2.94
  -1   5  10   43.34    2.72
  -1  -5  11  489.34    7.77
  -1   5  11  494.96    7.19
  -1   5  12  132.32    3.24
  -1  -5  12  114.23    2.98
  -1   6 -10   10.35    1.17
  -1  -6 -10    8.01    1.05
  -1   6  -9  168.29    5.61
  -1   6  -9  169.24    5.48
  -1  -6  -9  164.66    5.51
  -1  -6  -9  165.53    5.68
  -1   6  -9  162.40    4.87
  -1  -6  -9  169.16    5.88
  -1   6  -8  362.00    9.14
  -1   6  -8  356.58    9.18
  -1  -6  -8  362.10    9.38
  -1   6  -8  353.58    8.25
  -1  -6  -8  370.10    8.29
  -1  -6  -8  368.19    9.68
  -1   6  -7  394.18    9.95
  -1   6  -7  375.08   10.03
  -1  -6  -7  379.72   10.15
  -1   6  -7  394.92    9.32
  -1  -6  -7  384.69    8.97
  -1   6  -6   55.12    4.13
  -1  -6  -6   52.68    7.67
  -1  -6  -6   59.43    8.61
  -1   6  -6   52.95    3.70
  -1  -6  -6   61.12    4.17
  -1   6  -6   56.41    3.66
  -1   6  -6   58.00    4.55
  -1   6  -5 1462.07   22.83
  -1   6  -5 1505.78   19.08
  -1  -6  -5 1599.95   43.33
  -1  -6  -5 1587.19   41.26
  -1   6  -5 1459.84   20.64
  -1   6  -5 1479.18   22.33
  -1   6  -4  182.93    7.03
  -1   6  -4  189.36    8.19
  -1   6  -4  191.68    7.79
  -1   6  -4  175.74   13.59
  -1   6  -3  882.08   17.30
  -1   6  -3  816.10   14.47
  -1   6  -3  836.16   13.78
  -1  -6  -3  869.79   29.63
  -1   6  -3  881.11   30.10
  -1   6  -3  860.52   15.88
  -1   6  -2 1144.54   15.45
  -1   6  -2 1120.00   15.85
  -1   6  -2 1140.61   16.27
  -1  -6  -2 1166.51   32.76
  -1   6  -2 1161.08   17.68
  -1   6  -1 1004.48   15.81
  -1  -6  -1  951.98   28.33
  -1   6  -1  992.71   14.54
  -1   6  -1 1045.48   17.64
  -1   6  -1 1004.34   15.57
  -1   6  -1 1023.16   15.58
  -1   6  -1 1089.51   18.44
  -1  -6  -1 1006.45   30.86
  -1   6   0  812.59   13.75
  -1   6   0  819.91   13.44
  -1  -6   0  843.17   25.28
  -1   6   0  845.84   14.53
  -1   6   0  867.11   16.14
  -1   6   0  870.02   15.67
  -1  -6   0  861.71   27.32
  -1  -6   1  170.47   10.78
  -1   6   1  183.98    6.47
  -1   6   1  190.02    7.24
  -1   6   1  189.33    7.00
  -1   6   1  200.85    7.66
  -1   6   1  192.06   11.87
  -1  -6   1  180.09   12.00
  -1   6   2  279.01    8.05
  -1   6   2  267.80    8.53
  -1  -6   2  268.74   13.83
  -1  -6   2  262.98   16.04
  -1   6   2  276.39    7.92
  -1   6   2  268.76    8.61
  -1  -6   2  277.14   14.33
  -1   6   2  270.60    7.85
  -1   6   2  272.97    8.91
  -1   6   2  278.88   15.20
  -1  -6   3 1017.50   32.36
  -1   6   3 1006.90   15.44
  -1   6   3 1012.74   15.60
  -1   6   3 1007.99   16.37
  -1   6   3 1022.70   17.13
  -1   6   3 1017.53   15.64
  -1   6   3 1027.82   30.69
  -1   6   4  257.44    7.99
  -1  -6   4  283.87   18.84
  -1   6   4  260.67    8.07
  -1   6   4  256.10    8.27
  -1  -6   4  268.59   17.33
  -1   6   4  260.30    8.19
  -1   6   4  268.46   16.55
  -1  -6   4  278.12   15.53
  -1   6   5  307.11    8.69
  -1  -6   5  312.27   20.35
  -1   6   5  297.58    8.85
  -1   6   5  310.50    9.17
  -1   6   5  314.67    9.13
  -1   6   5  319.52   18.88
  -1   6   6   48.16    3.67
  -1   6   6   49.01    3.42
  -1  -6   6   55.50    7.84
  -1  -6   6   52.95    8.55
  -1   6   6   43.68    3.35
  -1   6   6   49.35    3.75
  -1  -6   7  645.53   29.83
  -1   6   7  611.52   11.91
  -1   6   7  609.14   12.93
  -1   6   7  634.18   13.19
  -1   6   8   37.85    3.19
  -1   6   8   37.92    3.13
  -1   6   9 1127.05   15.82
  -1   6   9 1117.90   14.97
  -1   6  10  280.11    6.74
  -1   6  11  208.68    4.47
  -1  -6  11  183.73    4.02
  -1  -7  -9   10.49    1.02
  -1  -7  -9   11.50    1.14
  -1  -7  -9   12.21    1.27
  -1   7  -8  311.24    6.67
  -1   7  -8  319.26    7.55
  -1  -7  -8  277.89    7.25
  -1   7  -8  303.88    6.62
  -1  -7  -8  279.17    6.55
  -1  -7  -8  289.13    7.13
  -1   7  -7  197.28    5.94
  -1   7  -7  204.35    6.80
  -1  -7  -7  194.96    6.15
  -1   7  -7  200.77    6.51
  -1  -7  -7  193.24    6.45
  -1   7  -6  413.41    9.03
  -1   7  -6  421.14   10.40
  -1   7  -6  414.71   10.46
  -1   7  -6  441.40   11.44
  -1   7  -5  377.12   11.11
  -1   7  -5  391.02   10.41
  -1  -7  -5  417.32   21.27
  -1  -7  -5  431.22   22.38
  -1   7  -5  371.11    9.98
  -1  -7  -5  436.06   10.05
  -1   7  -5  387.15   10.75
  -1   7  -5  392.91   11.18
  -1  -7  -4  114.29   11.32
  -1  -7  -4  114.07   11.47
  -1   7  -4  100.96    5.96
  -1   7  -4  105.03    5.36
  -1   7  -4  100.39    5.71
  -1   7  -4   99.29    5.14
  -1   7  -4  103.02    5.76
  -1   7  -3  735.06   13.80
  -1  -7  -3  706.50   27.86
  -1   7  -3  741.06   16.28
  -1   7  -3  739.49   13.07
  -1   7  -3  731.09   13.66
  -1  -7  -3  731.56   28.35
  -1   7  -3  751.56   15.87
  -1   7  -3  738.88   15.23
  -1   7  -2  838.47   13.93
  -1  -7  -2  771.45   28.24
  -1   7  -2  898.62   17.74
  -1   7  -2  832.17   14.11
  -1   7  -2  850.01   14.60
  -1   7  -2  906.84   17.54
  -1   7  -2  822.03   14.11
  -1   7  -2  856.39   16.12
  -1   7  -1  469.16   10.71
  -1  -7  -1  476.34   21.39
  -1   7  -1  461.95   11.27
  -1   7  -1  461.69   11.07
  -1   7  -1  433.36    9.79
  -1   7  -1  445.74    9.93
  -1   7  -1  475.29   12.65
  -1   7  -1  458.63   11.42
  -1   7   0  169.17    6.61
  -1   7   0  139.67    6.63
  -1  -7   0  237.94   14.47
  -1  -7   0  254.88   15.67
  -1   7   0  141.37    6.27
  -1   7   0  165.53    6.78
  -1   7   0  135.89    6.71
  -1   7   0  162.85    6.60
  -1   7   1  594.76   12.23
  -1  -7   1  597.99   23.24
  -1   7   1  618.12   13.67
  -1   7   1  618.98   13.00
  -1   7   1  604.54   13.23
  -1   7   1  599.47   12.52
  -1  -7   1  593.33   21.60
  -1   7   1  624.97   14.17
  -1  -7   1  590.24   26.10
  -1   7   2 1151.97   16.47
  -1  -7   2 1161.84   36.91
  -1   7   2 1208.73   18.26
  -1   7   2 1213.91   18.03
  -1   7   2 1198.25   17.51
  -1   7   2 1195.66   18.99
  -1   7   2 1238.77   19.80
  -1   7   2 1261.93   34.95
  -1   7   2 1233.01   19.00
  -1  -7   2 1205.93   31.73
  -1   7   3  178.64    7.18
  -1   7   3  174.54    6.75
  -1  -7   3  177.40   13.13
  -1   7   3  192.69    7.93
  -1   7   3  172.65    6.78
  -1   7   3  170.12    6.78
  -1   7   4  408.11   10.42
  -1  -7   4  388.14   22.58
  -1   7   4  414.43   10.39
  -1   7   4  410.42   10.63
  -1   7   4  406.45   10.53
  -1  -7   5   97.16   10.24
  -1   7   5   94.32    4.91
  -1   7   5  102.57    5.20
  -1   7   5   93.92    5.09
  -1   7   5   97.85    4.99
  -1   7   6  157.72    5.96
  -1   7   6  158.57    6.36
  -1   7   6  149.01    5.83
  -1   7   6  154.85    6.41
  -1   7   7   91.72    4.69
  -1   7   7   97.67    4.82
  -1   7   8  328.17    8.11
  -1   7   9  492.20    8.54
  -1   7  10  117.99    3.24
  -1   8  -8  261.33    4.98
  -1  -8  -8  253.74    4.79
  -1   8  -7   90.10    3.68
  -1   8  -7   79.27    3.07
  -1  -8  -7   83.21    3.63
  -1  -8  -7   82.60    3.23
  -1   8  -6  491.23    9.60
  -1   8  -6  485.87    9.27
  -1  -8  -6  474.66    8.61
  -1   8  -5   63.59    3.70
  -1   8  -5   60.81    3.70
  -1   8  -5   58.61    3.88
  -1  -8  -5   67.85    3.44
  -1   8  -4  236.87    8.22
  -1   8  -4  234.53    7.30
  -1   8  -4  237.62    7.89
  -1   8  -4  234.90    8.04
  -1   8  -3  225.35    8.35
  -1   8  -3  220.07    6.52
  -1   8  -3  229.92    7.19
  -1   8  -3  228.28    8.09
  -1  -8  -3  227.06   15.28
  -1   8  -3  224.28    8.03
  -1   8  -2  356.67    8.85
  -1  -8  -2  358.70   19.57
  -1  -8  -2  339.71   18.50
  -1   8  -2  361.16   10.70
  -1   8  -2  350.88    8.88
  -1   8  -2  359.56    8.79
  -1   8  -2  372.68   10.70
  -1   8  -2  356.78   10.14
  -1   8  -1  245.77    7.69
  -1  -8  -1  203.54   14.58
  -1  -8  -1  204.98   14.07
  -1   8  -1  266.18    9.20
  -1   8  -1  251.49    7.89
  -1   8  -1  270.76    9.23
  -1   8  -1  264.07    8.60
  -1   8   0  788.16   14.56
  -1   8   0  760.98   14.22
  -1   8   0  784.50   15.62
  -1   8   0  772.37   14.07
  -1   8   0  787.35   14.44
  -1  -8   1  780.75   26.93
  -1   8   1  755.32   14.27
  -1   8   1  741.13   13.95
  -1   8   1  746.21   14.42
  -1   8   1  734.93   13.46
  -1   8   2   95.28    5.02
  -1   8   2   85.43    4.84
  -1   8   2   80.21    4.74
  -1   8   2   86.82    4.40
  -1   8   3  147.43    6.16
  -1   8   3  148.40    6.21
  -1   8   3  151.37    6.37
  -1   8   4  113.72    5.43
  -1   8   4  102.71    4.93
  -1   8   4  115.17    5.32
  -1   8   5  726.35   12.49
  -1   8   5  686.08   11.79
  -1   8   5  722.11   12.50
  -1   8   5  736.52   13.28
  -1   8   6   92.82    4.48
  -1   8   6   91.31    3.98
  -1   8   6   93.55    3.89
  -1   8   6   96.12    4.33
  -1   8   7  189.91    5.47
  -1   8   7  189.68    5.85
  -1   8   8  124.99    4.01
  -1   9  -6   44.37    1.98
  -1  -9  -6   46.06    2.06
  -1   9  -5   41.81    2.23
  -1   9  -5   45.67    2.40
  -1   9  -4   52.72    2.70
  -1   9  -4   55.51    3.04
  -1   9  -4   56.61    3.29
  -1   9  -3  172.98    4.92
  -1   9  -3  163.32    5.67
  -1   9  -3  159.34    5.83
  -1   9  -3  162.69    5.80
  -1   9  -2   12.74    1.81
  -1   9  -2   26.30    2.72
  -1   9  -2   26.68    2.26
  -1   9  -2   12.04    1.65
  -1   9  -1  477.22    9.47
  -1   9  -1  483.74   10.68
  -1   9  -1  473.82   10.10
  -1   9   0  457.82    9.69
  -1   9   0  447.60    9.58
  -1   9   0  435.55   10.10
  -1   9   1 1199.38   15.89
  -1   9   1 1193.63   16.30
  -1   9   1 1164.24   14.74
  -1   9   2  112.93    4.88
  -1   9   2  114.11    4.87
  -1   9   2  112.79    4.20
  -1   9   3  356.76    8.37
  -1   9   3  339.83    8.18
  -1   9   4  281.62    6.99
  -1   9   4  290.21    7.24
  -1   9   5  600.30    9.05
  -1   9   5  608.08    9.73
  -1   9   6  158.53    4.38
  -1   9   7  262.91    4.50
  -1  10  -2   84.37    3.15
  -1  10  -1  229.15    5.01
  -1  10  -1  230.74    5.25
  -1  10   0  197.69    4.90
  -1  10   0  185.92    4.30
  -1  10   1  157.25    4.37
  -1  10   1  134.06    3.90
  -1  10   2  361.31    5.88
  -1  10   2  394.86    6.72
  -1  10   3  262.80    5.15
   0   0 -13    7.74    1.02
   0   0 -12 1072.96   15.48
   0   0 -12 1025.64   13.37
   0   0 -11    5.93    1.40
   0   0 -11    9.20    3.46
   0   0 -11    8.39    1.76
   0   0 -10  584.59   26.23
   0   0 -10  608.57   12.59
   0   0 -10  581.98   13.83
   0   0  -9   11.46    2.04
   0   0  -9   12.60    1.90
   0   0  -9   10.08    1.81
   0   0  -9    9.98    3.62
   0   0  -8  432.17   20.60
   0   0  -8  419.78   10.55
   0   0  -8  426.89    9.93
   0   0  -8  427.54   10.95
   0   0  -8  422.20   10.47
   0   0  -7   21.79    4.41
   0   0  -6  786.79   22.53
   0   0  -5    6.93    2.00
   0   0  -4  766.55   17.04
   0   0  -4  759.70   16.60
   0   0  -3    6.16    1.37
   0   0  -2 2860.69   21.61
   0   0  -1    2.50    0.48
   0   0   1    0.95    0.28
   0   0   2 2432.29   16.56
   0   0   3    6.14    1.32
   0   0   3    6.22    1.10
   0   0   4  676.05   15.71
   0   0   4  660.63   15.55
   0   0   4  654.10   12.29
   0   0   4  670.06   13.98
   0   0   5    3.26    1.24
   0   0   5    1.89    1.15
   0   0   5    4.76    1.28
   0   0   6  591.81   17.31
   0   0   6  600.97   19.60
   0   0   6  585.70   18.35
   0   0   6  610.66   14.94
   0   0   7   18.12    3.46
   0   0   7   25.15    4.39
   0   0   7   24.92    4.07
   0   0   8  515.60   11.33
   0   0   8  533.83   11.68
   0   0   8  523.66   21.88
   0   0   9   10.96    3.67
   0   0   9   12.21    2.04
   0   0   9   11.39    1.84
   0   0   9   10.56    1.85
   0   0  10  517.17   11.79
   0   0  10  515.33   12.59
   0   0  10  511.66   12.47
   0   0  11    6.60    1.38
   0   0  11    6.48    1.34
   0   0  11    6.36    1.48
   0   0  11    7.24    1.60
   0   0  12 1134.68   13.43
   0   0  12 1131.22   14.83
   0   0  12 1116.02   13.70
   0   1 -13  239.72    5.24
   0  -1 -13  248.91    5.18
   0   1 -12  680.27    9.75
   0  -1 -12  689.12   12.13
   0   1 -11  261.79    7.63
   0  -1 -11  258.18   16.37
   0   1 -11  276.66    9.05
   0  -1 -11  269.82    8.89
   0   1 -11  278.46    7.84
   0   1 -10 1155.74   37.27
   0  -1 -10 1123.13   35.39
   0   1 -10 1160.26   17.80
   0  -1 -10 1144.61   19.17
   0   1 -10 1174.96   18.18
   0   1 -10 1224.08   18.05
   0   1 -10 1150.47   19.25
   0  -1 -10 1163.22   19.45
   0   1  -9  437.81   22.50
   0  -1  -9  443.58   21.96
   0   1  -9  432.40   11.01
   0   1  -9  448.38   11.08
   0  -1  -9  462.09   12.09
   0  -1  -9  438.82   11.37
   0  -1  -9  455.45   11.92
   0   1  -9  429.91   11.64
   0   1  -8 2101.39   46.23
   0  -1  -8 2286.47   46.76
   0   1  -8 2152.62   23.13
   0   1  -8 2151.24   24.46
   0   1  -8 2143.10   23.17
   0  -1  -8 2417.81   26.56
   0  -1  -8 2253.85   24.03
   0   1  -8 2180.42   23.52
   0  -1  -8 2356.49   25.41
   0   1  -7  298.17   15.96
   0  -1  -7  262.11   14.49
   0   1  -6  215.31   12.02
   0  -1  -6  220.67   11.88
   0   1  -5 1440.78   19.73
   0  -1  -5 1428.19   23.46
   0  -1  -5 1405.23   26.67
   0  -1  -5 1485.24   27.17
   0   1  -4  480.91   10.55
   0  -1  -4  448.10   12.99
   0  -1  -4  440.39   13.09
   0  -1  -4  432.70   11.63
   0   1  -4  494.82   14.16
   0   1  -3  221.64    6.54
   0   1  -3  217.33    7.49
   0  -1  -3  240.54    8.82
   0  -1  -3  237.10    7.58
   0  -1  -3  225.28    7.88
   0   1  -2 5701.71   29.33
   0  -1  -2 5783.59   30.92
   0  -1  -2 5813.40   32.97
   0   1  -1 1822.61   14.94
   0  -1  -1 1915.24   14.53
   0  -1   0  489.30    5.68
   0  -1   1 1680.90   10.47
   0   1   1 1672.20   11.01
   0  -1   2 6194.44   35.06
   0  -1   2 6114.60   17.56
   0   1   2 6131.70   34.27
   0  -1   3  212.60    8.53
   0   1   3  216.38    7.43
   0  -1   3  219.17    5.10
   0  -1   4  406.21   12.89
   0  -1   4  402.54    7.91
   0  -1   5 1567.59   29.38
   0  -1   5 1554.12   28.20
   0   1   5 1500.50   21.96
   0   1   5 1521.15   24.68
   0  -1   6  167.12   10.10
   0  -1   6  170.38   11.04
   0  -1   6  161.74   10.07
   0  -1   6  166.99   10.24
   0   1   6  189.02   10.13
   0   1   6  189.61    9.63
   0  -1   7  272.21   14.31
   0  -1   7  283.74   15.81
   0  -1   7  281.72   14.90
   0   1   7  267.17   13.67
   0   1   8 2238.22   44.03
   0  -1   8 2077.65   43.29
   0   1   8 2146.81   23.06
   0  -1   8 2033.42   22.85
   0   1   8 2241.55   24.56
   0   1   8 2267.27   24.03
   0  -1   8 2051.24   44.51
   0   1   9  433.78   21.10
   0   1   9  406.02   10.49
   0  -1   9  408.58   10.63
   0   1   9  426.59   11.29
   0   1   9  416.01   10.99
   0  -1   9  404.78   10.92
   0   1  10 1130.87   17.48
   0  -1  10 1185.42   17.67
   0   1  10 1135.42   18.28
   0  -1  10 1152.92   19.05
   0   1  10 1157.45   18.63
   0  -1  10 1172.70   18.91
   0   1  10 1101.41   16.93
   0   1  11  305.36    8.46
   0  -1  11  312.83    8.24
   0   1  11  296.90    8.63
   0  -1  11  297.51    8.99
   0  -1  11  311.56    9.33
   0   1  11  283.66    7.86
   0  -1  12  694.25    9.42
   0  -1  12  699.87   11.70
   0  -1  12  676.97   11.13
   0   1  13  235.69    5.08
   0  -1  13  205.71    4.25
   0  -2 -13  381.04    5.62
   0   2 -13  381.71    5.95
   0   2 -13  384.17    6.13
   0  -2 -12  377.44    8.40
   0  -2 -12  403.89    8.60
   0   2 -12  464.42    9.33
   0   2 -12  442.87    7.86
   0  -2 -11  783.93   14.55
   0   2 -11  728.26   14.10
   0  -2 -11  773.35   14.75
   0   2 -11  763.69   13.84
   0  -2 -10  237.92   15.58
   0   2 -10  265.83    7.86
   0   2 -10  271.69    8.91
   0   2 -10  281.90    9.11
   0  -2 -10  234.30    8.54
   0  -2 -10  242.77    8.79
   0  -2 -10  246.52    9.05
   0  -2 -10  240.15    7.75
   0   2 -10  285.00    9.49
   0   2  -9  614.96   13.81
   0   2  -9  643.78   27.66
   0  -2  -9  524.19   23.25
   0   2  -9  600.79   13.19
   0   2  -9  610.66   12.61
   0   2  -9  608.99   13.61
   0  -2  -9  531.56   13.47
   0  -2  -9  530.21   12.25
   0  -2  -9  514.66   13.00
   0  -2  -9  506.94   12.14
   0   2  -8  174.16   13.62
   0  -2  -8  144.57   11.68
   0   2  -8  171.12    6.74
   0   2  -8  180.04    7.10
   0   2  -8  161.95    6.72
   0  -2  -8  147.22    6.92
   0  -2  -8  146.62    6.16
   0  -2  -8  144.43    6.56
   0   2  -7  489.15   21.20
   0  -2  -7  472.83   19.53
   0  -2  -6  230.31   12.32
   0   2  -6  208.06   12.44
   0  -2  -6  231.10   12.65
   0  -2  -6  218.40   11.70
   0   2  -5   58.71    5.85
   0  -2  -5   48.26    5.13
   0  -2  -5   45.80    4.92
   0  -2  -5   47.69    5.11
   0   2  -5   53.05    4.36
   0  -2  -4 1668.37   26.72
   0  -2  -4 1754.75   27.51
   0   2  -4 1705.17   27.90
   0  -2  -4 1736.35   27.00
   0  -2  -4 1725.82   30.12
   0  -2  -4 1796.89   27.34
   0   2  -4 1759.43   23.67
   0   2  -4 1770.14   28.18
   0   2  -3 1581.70   23.44
   0  -2  -3 1654.15   26.22
   0  -2  -3 1637.43   23.35
   0   2  -3 1525.73   23.66
   0  -2  -3 1599.25   22.50
   0   2  -3 1545.83   20.84
   0  -2  -2 1299.28   18.90
   0  -2  -2 1334.29   17.62
   0  -2  -2 1360.07   21.04
   0   2  -2 1262.81   19.27
   0   2  -2 1289.81   18.15
   0  -2  -1  472.17    8.82
   0  -2  -1  459.70    7.65
   0  -2  -1  463.28   10.56
   0   2  -1  456.72    8.21
   0   2   0 2716.70   22.83
   0   2   0 2786.57   22.35
   0   2   1  500.05    8.87
   0  -2   1  500.46    8.15
   0   2   2 1304.39   13.12
   0  -2   2 1250.91   11.11
   0   2   2 1338.68   18.56
   0   2   2 1294.38   11.19
   0   2   2 1281.94   19.09
   0  -2   2 1267.71   18.55
   0  -2   3 1683.90   28.11
   0  -2   3 1615.31   20.43
   0   2   3 1628.31   13.47
   0   2   3 1716.14   22.88
   0   2   3 1661.02   17.50
   0  -2   3 1623.58   24.00
   0   2   3 1742.94   24.64
   0  -2   4 1892.30   31.07
   0  -2   4 1880.32   32.80
   0   2   4 1816.24   22.51
   0   2   4 1889.51   28.27
   0  -2   5   78.35    7.02
   0  -2   5   78.41    7.55
   0  -2   5   75.60    6.30
   0   2   5   65.72    5.08
   0   2   5   65.52    5.84
   0  -2   6  222.46   12.58
   0  -2   6  214.22   13.22
   0  -2   6  221.65   12.18
   0   2   6  246.74   12.28
   0   2   6  254.05   11.48
   0   2   7  503.54   18.34
   0  -2   7  504.46   20.34
   0  -2   7  502.43   21.02
   0  -2   7  508.09   22.52
   0   2   7  503.07   18.99
   0  -2   7  510.95   20.72
   0  -2   8  132.43   11.75
   0  -2   8  143.09   12.29
   0  -2   8  146.48   13.14
   0   2   8  115.15    5.45
   0  -2   8  144.75    6.24
   0   2   8  125.94    5.75
   0   2   8  123.28    5.79
   0   2   8  110.61    9.65
   0   2   8  115.06    5.23
   0   2   9  485.70   11.87
   0   2   9  466.59   11.36
   0  -2   9  598.14   12.85
   0  -2   9  545.47   24.50
   0  -2   9  538.06   12.69
   0  -2   9  575.21   26.03
   0   2   9  463.84   10.77
   0   2  10  216.69    7.77
   0   2  10  213.50    7.60
   0  -2  10  265.82    8.22
   0  -2  10  260.38    8.78
   0   2  10  208.30    6.92
   0  -2  11  722.76   13.80
   0  -2  11  725.19   13.69
   0   2  11  742.58   11.41
   0  -2  12  422.58    7.56
   0  -2  12  448.56    9.04
   0  -2  12  437.70    8.80
   0   2  13  376.88    5.76
   0  -2  13  346.43    5.35
   0  -3 -12   17.38    1.74
   0   3 -12   19.64    1.75
   0   3 -12   20.81    1.74
   0  -3 -12   15.18    1.41
   0  -3 -11  306.69    8.18
   0   3 -11  314.19    8.86
   0  -3 -11  320.34    9.14
   0  -3 -11  294.08    7.27
   0   3 -11  303.70    8.38
   0   3 -10  718.23   14.71
   0   3 -10  723.48   14.44
   0  -3 -10  686.73   14.67
   0  -3 -10  720.45   15.29
   0  -3 -10  686.98   13.51
   0   3  -9  112.41    5.80
   0   3  -9  112.49    6.05
   0   3  -9  110.66    5.79
   0  -3  -9  131.13    6.81
   0  -3  -9  142.61    6.07
   0  -3  -9  128.61    6.59
   0  -3  -9  134.88    6.58
   0   3  -8  727.93   14.27
   0   3  -8  724.74   14.79
   0  -3  -8  770.98   16.32
   0  -3  -8  784.19   13.88
   0   3  -8  748.77   14.60
   0  -3  -8  756.58   15.37
   0  -3  -8  767.42   26.24
   0   3  -7 1515.43   19.41
   0  -3  -7 1415.73   35.80
   0   3  -7 1522.79   38.59
   0   3  -7 1504.65   19.58
   0  -3  -7 1451.47   19.13
   0   3  -7 1443.49   18.74
   0   3  -7 1459.68   18.24
   0  -3  -7 1490.50   34.60
   0   3  -7 1467.73   19.17
   0  -3  -7 1491.24   20.13
   0  -3  -6  295.27   15.01
   0   3  -6  288.36   15.44
   0  -3  -6  292.06   15.14
   0  -3  -6  298.75   14.34
   0   3  -5 1307.36   29.38
   0  -3  -5 1370.44   28.81
   0  -3  -5 1368.35   28.10
   0  -3  -5 1320.83   29.90
   0   3  -5 1254.62   24.68
   0  -3  -4 1659.17   30.70
   0  -3  -4 1706.58   28.71
   0   3  -4 1684.42   29.99
   0  -3  -4 1679.13   28.59
   0  -3  -4 1650.58   32.90
   0   3  -4 1675.34   31.92
   0   3  -4 1665.81   27.19
   0  -3  -3  118.39    6.73
   0  -3  -3  115.46    7.41
   0  -3  -3  123.34    8.13
   0   3  -3  139.92    8.46
   0   3  -3  142.67    7.66
   0  -3  -2 3109.70   30.38
   0  -3  -2 3064.68   37.30
   0  -3  -2 3054.56   35.41
   0   3  -2 2998.90   35.62
   0   3  -2 3071.97   34.30
   0  -3  -1 2968.45   26.26
   0  -3  -1 2917.13   24.90
   0  -3  -1 2919.51   32.03
   0   3  -1 2872.55   26.72
   0   3  -1 2868.35   32.47
   0  -3   0  565.20   10.48
   0   3   0  548.27   12.90
   0   3   0  562.88   12.61
   0   3   0  559.22   14.38
   0  -3   1 3049.90   22.90
   0   3   1 3040.72   28.07
   0   3   1 2972.46   31.55
   0   3   2 3096.38   26.01
   0  -3   2 3196.88   26.13
   0   3   2 3202.09   35.40
   0   3   2 3194.21   35.52
   0  -3   2 3151.67   28.78
   0  -3   3  132.54    7.87
   0   3   3  102.16    4.24
   0   3   3  115.54    7.12
   0  -3   3  128.24    6.80
   0   3   3  111.30    7.21
   0  -3   4 1634.44   34.77
   0  -3   4 1652.97   25.73
   0   3   4 1612.75   28.09
   0  -3   4 1562.16   27.00
   0   3   4 1546.76   29.25
   0  -3   5 1345.49   34.30
   0  -3   5 1374.18   31.34
   0   3   5 1422.12   28.27
   0   3   5 1393.26   29.93
   0  -3   5 1329.12   28.16
   0  -3   6  339.41   16.87
   0  -3   6  340.55   18.07
   0   3   6  345.82   14.97
   0   3   6  342.09   15.97
   0  -3   6  361.50   16.46
   0  -3   7 1454.12   36.52
   0  -3   7 1438.05   38.67
   0  -3   7 1419.42   40.16
   0   3   7 1464.11   18.98
   0   3   7 1422.81   18.53
   0  -3   7 1505.77   36.97
   0   3   7 1429.94   35.14
   0  -3   8  677.81   27.07
   0  -3   8  686.33   28.54
   0  -3   8  707.17   30.29
   0   3   8  720.49   14.00
   0   3   8  720.66   26.29
   0  -3   9  117.13   12.36
   0  -3   9  115.55   12.66
   0   3   9  140.12    6.25
   0  -3  10  631.82   26.92
   0   3  10  653.92   13.12
   0  -3  10  677.31   13.57
   0  -3  11  302.23    8.51
   0  -3  11  311.06    8.28
   0   3  11  310.23    8.16
   0   3  12   15.68    1.48
   0  -3  12   19.92    1.78
   0   3  12   15.31    1.53
   0  -4 -12   24.74    1.72
   0   4 -12   26.41    1.72
   0   4 -12   22.98    1.58
   0   4 -11  114.79    4.53
   0  -4 -11  110.82    4.02
   0  -4 -11  120.92    5.11
   0  -4 -11  116.26    4.38
   0  -4 -10  437.67    9.72
   0   4 -10  426.43   10.24
   0  -4 -10  426.38   11.10
   0   4 -10  431.35   10.97
   0  -4 -10  457.33   11.50
   0  -4 -10  417.58   10.41
   0   4  -9  974.09   17.53
   0   4  -9 1004.91   16.76
   0  -4  -9  909.47   17.82
   0  -4  -9  912.77   16.94
   0  -4  -9  893.93   17.17
   0   4  -8   12.66    2.01
   0   4  -8   10.49    1.93
   0  -4  -8   13.80    2.37
   0  -4  -8   13.80    2.18
   0   4  -7 1757.06   21.59
   0   4  -7 1764.55   21.61
   0  -4  -7 1784.40   21.39
   0  -4  -7 1678.17   42.71
   0   4  -7 1706.57   21.20
   0   4  -7 1728.08   22.27
   0  -4  -7 1722.04   22.24
   0  -4  -6  301.97   15.83
   0   4  -6  256.28    7.76
   0   4  -6  247.20    7.92
   0   4  -6  241.80    8.21
   0   4  -6  259.64    7.93
   0   4  -6  248.99    7.70
   0   4  -6  250.45    7.71
   0  -4  -6  293.12    8.58
   0  -4  -6  279.24   16.54
   0  -4  -5 1303.04   29.91
   0  -4  -5 1290.46   33.22
   0   4  -5 1276.97   28.58
   0  -4  -4  809.02   21.22
   0  -4  -4  816.77   25.73
   0   4  -4  774.20   24.58
   0   4  -4  789.51   21.76
   0  -4  -4  808.54   24.63
   0  -4  -3  572.32   19.01
   0  -4  -3  572.50   16.04
   0  -4  -3  597.05   20.01
   0   4  -3  559.23   19.32
   0   4  -3  543.98   17.54
   0  -4  -2 2231.41   28.50
   0  -4  -2 2160.41   34.95
   0  -4  -2 2268.54   36.05
   0   4  -2 2210.11   35.66
   0   4  -2 2240.59   34.98
   0  -4  -1 1863.39   23.63
   0  -4  -1 1902.05   24.48
   0  -4  -1 1989.83   31.02
   0  -4  -1 1844.06   30.61
   0   4  -1 1934.30   26.48
   0   4  -1 1927.64   32.04
   0   4  -1 1860.67   30.28
   0   4   0   39.82    4.21
   0  -4   0   37.38    3.11
   0   4   0   41.41    4.12
   0   4   1 1822.52   26.37
   0   4   1 1816.17   28.83
   0   4   2 2124.02   26.47
   0  -4   2 2309.92   25.73
   0  -4   2 2263.91   26.57
   0  -4   2 2246.71   27.39
   0   4   2 2088.23   33.17
   0  -4   3  557.38   18.55
   0   4   3  606.62   18.18
   0  -4   3  595.80   15.89
   0   4   3  584.61   18.76
   0  -4   4  809.09   23.91
   0  -4   4  858.67   28.11
   0   4   4  856.60   22.28
   0   4   4  863.24   24.49
   0  -4   4  866.60   21.60
   0  -4   5 1230.42   29.02
   0  -4   5 1253.92   32.55
   0  -4   5 1242.11   36.06
   0   4   5 1213.27   30.95
   0  -4   6  288.54   15.56
   0  -4   6  292.74   18.76
   0  -4   6  296.86   18.24
   0   4   6  323.86    8.79
   0   4   6  298.26    8.05
   0  -4   6  291.68   16.50
   0   4   6  329.38   17.40
   0  -4   7 1549.40   42.68
   0  -4   7 1538.65   44.35
   0   4   7 1520.99   20.12
   0  -4   7 1549.01   39.23
   0   4   7 1529.05   18.78
   0   4   7 1556.63   39.74
   0  -4   8    1.86    1.91
   0  -4   8    5.65    3.06
   0   4   8    4.50    1.19
   0   4   8    5.48    1.20
   0   4   9  897.79   15.69
   0   4   9  865.78   15.28
   0   4  10  480.61   10.85
   0  -4  10  465.72   10.14
   0   4  10  475.35   10.64
   0   4  11  110.65    4.50
   0  -4  11  103.25    4.51
   0  -4  11  102.92    3.99
   0   4  11  106.79    4.29
   0   4  12   21.20    1.42
   0  -4  12   21.80    1.52
   0   4  12   19.64    1.35
   0  -4  12   22.29    1.62
   0   5 -11    6.56    0.90
   0  -5 -11    5.13    0.84
   0   5 -10   94.05    4.67
   0   5 -10   88.15    4.10
   0  -5 -10   66.51    3.33
   0  -5 -10   74.29    4.20
   0   5 -10   88.04    4.13
   0  -5 -10   76.51    4.16
   0  -5 -10   71.02    3.96
   0   5  -9  360.45    9.24
   0   5  -9  366.27   10.16
   0  -5  -9  351.10   10.40
   0  -5  -9  350.47    9.69
   0  -5  -9  346.70   10.23
   0   5  -8  401.23   11.00
   0   5  -8  409.70   10.43
   0  -5  -8  447.93   12.58
   0  -5  -8  456.41   11.46
   0   5  -7  503.14   11.61
   0   5  -7  494.52   12.37
   0  -5  -7  503.71   24.82
   0   5  -7  501.08   12.19
   0   5  -7  510.16   12.25
   0  -5  -7  510.26   12.01
   0  -5  -6 1266.01   33.83
   0   5  -6 1217.61   17.56
   0   5  -6 1176.96   18.50
   0  -5  -6 1223.91   37.21
   0   5  -6 1174.31   19.11
   0   5  -6 1211.51   18.20
   0   5  -6 1183.48   18.16
   0  -5  -6 1270.96   18.33
   0   5  -6 1221.69   19.62
   0  -5  -5  445.84   18.37
   0   5  -5  422.52   10.47
   0  -5  -5  409.84   20.59
   0   5  -5  414.43   11.26
   0   5  -5  428.47   10.31
   0   5  -5  442.01   11.63
   0   5  -5  446.25   18.97
   0  -5  -4  648.01   20.23
   0  -5  -4  666.91   25.40
   0  -5  -4  619.14   23.93
   0  -5  -4  637.76   24.40
   0   5  -4  673.08   25.62
   0   5  -4  654.86   22.66
   0  -5  -3  283.28   12.23
   0  -5  -3  268.25   15.01
   0  -5  -3  258.92   14.56
   0   5  -3  303.41   16.15
   0   5  -3  301.25   15.12
   0  -5  -2   32.31    4.95
   0   5  -2   39.42    5.48
   0  -5  -2   35.14    5.05
   0  -5  -1  531.07   19.02
   0   5  -1  569.27   16.88
   0   5  -1  555.17   19.25
   0  -5   0   37.17    4.75
   0  -5   0   30.85    4.43
   0   5   0   33.14    4.32
   0   5   0   32.74    4.42
   0  -5   1  561.87   18.22
   0   5   1  548.37   18.29
   0   5   1  542.83   16.70
   0  -5   2   39.53    4.71
   0   5   2   42.02    5.35
   0   5   3  233.40   13.42
   0  -5   3  270.35   11.86
   0  -5   3  247.71   14.17
   0  -5   4  637.82   26.67
   0  -5   4  598.11   23.19
   0   5   4  599.37   22.83
   0  -5   5  477.90   21.66
   0  -5   5  491.33   24.57
   0   5   5  464.29   10.65
   0   5   5  460.18   10.36
   0   5   5  461.37   10.35
   0   5   5  467.77   21.33
   0  -5   6 1196.22   38.52
   0  -5   6 1230.89   40.47
   0   5   6 1230.90   18.10
   0   5   6 1189.14   17.15
   0   5   6 1238.29   17.57
   0   5   6 1272.27   36.73
   0  -5   7  495.88   25.05
   0   5   7  527.04   12.07
   0  -5   7  531.58   26.69
   0   5   7  509.75   11.38
   0   5   7  518.57   11.70
   0  -5   8  381.09   22.41
   0  -5   8  371.08   22.68
   0   5   8  417.11   10.74
   0   5   8  413.67    9.89
   0   5   8  420.81   10.45
   0  -5   9  331.70    8.22
   0   5   9  300.25    7.96
   0   5   9  317.06    8.92
   0   5   9  310.53    7.78
   0   5   9  314.69    8.54
   0   5  10   67.31    3.74
   0   5  10   67.35    3.46
   0   5  11    9.25    1.14
   0  -5  11    9.38    1.15
   0   5  11    8.87    0.99
   0   6 -10  172.70    5.31
   0   6 -10  161.69    4.65
   0  -6 -10  164.83    4.30
   0  -6 -10  186.36    5.45
   0  -6 -10  191.91    5.11
   0  -6 -10  187.83    5.39
   0   6  -9  276.87    7.79
   0   6  -9  290.03    7.82
   0  -6  -9  232.73    6.87
   0  -6  -9  253.23    7.73
   0   6  -9  269.64    6.32
   0   6  -9  264.26    6.32
   0  -6  -9  253.17    6.99
   0  -6  -9  263.02    7.89
   0   6  -8  263.96    8.18
   0  -6  -8  253.69    8.60
   0  -6  -8  259.55    7.68
   0   6  -7  587.05   13.32
   0  -6  -7  564.66   26.34
   0   6  -7  589.54   12.56
   0   6  -7  584.42   12.81
   0  -6  -7  556.82   11.73
   0   6  -6 1950.66   24.26
   0   6  -6 1932.49   24.93
   0  -6  -6 1950.02   49.09
   0   6  -6 1930.65   22.71
   0  -6  -6 1984.17   22.14
   0   6  -6 2001.13   25.40
   0   6  -5  487.15   11.88
   0   6  -5  474.77   12.57
   0   6  -5  488.08   10.99
   0  -6  -5  536.96   11.19
   0   6  -5  506.58   13.05
   0  -6  -5  480.11   23.74
   0  -6  -4  325.72   18.39
   0   6  -4  284.40    8.77
   0   6  -4  288.63    9.65
   0  -6  -4  309.61   18.44
   0   6  -4  293.47    9.56
   0  -6  -3   84.69    9.56
   0   6  -3   59.49    3.89
   0  -6  -3   97.61    9.96
   0  -6  -3   75.98    8.47
   0   6  -3   56.31    3.44
   0   6  -3   63.60    8.25
   0   6  -3   58.28    4.14
   0   6  -2  623.37   12.77
   0  -6  -2  630.78   24.80
   0   6  -2  619.56   13.67
   0   6  -2  605.93   11.32
   0   6  -2  628.40   12.48
   0   6  -2  593.10   11.50
   0   6  -2  627.73   11.57
   0   6  -2  659.25   13.85
   0  -6  -2  631.28   23.15
   0   6  -2  632.39   24.67
   0   6  -1  873.55   13.63
   0   6  -1  877.74   14.74
   0   6  -1  901.91   16.54
   0   6  -1  891.15   14.59
   0  -6  -1  878.19   25.85
   0   6  -1  933.61   16.56
   0   6  -1  925.44   28.15
   0  -6  -1  869.21   27.96
   0   6   0  762.87   15.17
   0   6   0  759.42   15.09
   0   6   0  786.01   23.73
   0   6   0  758.86   24.18
   0  -6   0  752.19   25.00
   0   6   1  938.10   14.42
   0  -6   1  947.20   26.07
   0   6   1  917.31   16.35
   0   6   1  881.33   14.74
   0   6   1  934.40   16.80
   0   6   1  948.15   27.21
   0  -6   1  908.69   26.59
   0  -6   2  567.97   20.39
   0   6   2  527.00   10.65
   0  -6   2  548.75   22.97
   0   6   2  529.67   11.01
   0   6   2  542.14   12.54
   0   6   2  538.69   11.81
   0   6   2  536.27   11.15
   0   6   2  535.15   11.05
   0   6   2  561.43   13.09
   0   6   2  564.16   21.96
   0  -6   3   73.64    8.70
   0   6   3   93.98    4.69
   0  -6   3   84.43   10.09
   0   6   3  112.08    5.79
   0   6   3  101.71    4.99
   0   6   3   95.22    4.79
   0   6   3   96.65    9.62
   0   6   4  376.19    9.82
   0   6   4  363.92    9.28
   0  -6   4  340.80   20.75
   0   6   4  374.92   10.55
   0  -6   4  346.61   19.35
   0   6   4  353.70    9.52
   0   6   4  369.87   19.65
   0  -6   5  479.12   25.28
   0   6   5  467.28   11.74
   0   6   5  492.97   10.71
   0   6   5  476.60   11.32
   0   6   5  473.01   11.19
   0   6   5  488.03   23.40
   0  -6   6 1988.81   51.95
   0   6   6 1883.59   23.24
   0   6   6 1923.63   23.09
   0   6   6 1899.61   22.46
   0   6   6 1933.34   21.84
   0  -6   6 1972.33   48.67
   0  -6   6 1999.99   49.98
   0  -6   7  550.11   26.42
   0   6   7  520.65   11.66
   0   6   7  541.71   12.17
   0   6   7  554.23   11.82
   0   6   7  548.26   11.47
   0   6   8  246.90    7.28
   0   6   8  264.72    8.07
   0   6   8  268.51    7.62
   0   6   8  263.37    7.36
   0   6   9  235.09    6.96
   0   6   9  215.46    5.69
   0   6   9  221.87    5.93
   0   6  10  227.52    5.79
   0   7  -9  237.82    5.46
   0   7  -9  255.99    6.20
   0  -7  -9  228.24    5.48
   0  -7  -9  230.59    5.71
   0  -7  -9  253.51    6.17
   0   7  -8  194.60    5.77
   0   7  -8  200.37    6.47
   0   7  -8  181.81    5.13
   0  -7  -8  226.90    6.82
   0  -7  -8  221.55    5.54
   0  -7  -8  238.59    7.08
   0   7  -7  462.05    9.61
   0   7  -7  457.26    9.68
   0  -7  -6 1110.64   36.03
   0   7  -6 1137.86   17.90
   0   7  -6 1128.90   17.98
   0   7  -6 1123.21   15.36
   0   7  -6 1124.19   16.75
   0   7  -6 1162.25   18.26
   0   7  -5   73.99    4.63
   0   7  -5   63.65    4.53
   0   7  -5   63.54    4.29
   0   7  -5   67.65    4.76
   0   7  -4  180.79    7.13
   0   7  -4  179.13    7.78
   0  -7  -4  209.71   15.66
   0   7  -4  187.26    7.53
   0   7  -4  184.76    7.81
   0   7  -3  259.93    7.70
   0  -7  -3  272.74   17.44
   0   7  -3  261.92    8.30
   0  -7  -3  275.45   16.34
   0   7  -3  264.56    9.52
   0   7  -3  277.61    9.29
   0   7  -3  270.36    9.23
   0  -7  -2  150.73   11.59
   0   7  -2  140.33    5.81
   0   7  -2  128.49    5.64
   0  -7  -2  156.35   12.84
   0   7  -2  133.92    5.60
   0   7  -2  130.95    6.44
   0  -7  -2  162.70   13.93
   0   7  -2  133.65    6.37
   0   7  -1  554.10   12.57
   0   7  -1  569.91   13.76
   0   7  -1  528.40   11.43
   0   7  -1  514.68   10.71
   0  -7  -1  439.32   20.72
   0   7  -1  556.25   12.42
   0   7  -1  535.83   11.55
   0  -7  -1  440.66   22.14
   0   7  -1  585.70   13.73
   0   7  -1  562.69   23.87
   0   7   0  343.06    9.59
   0  -7   0  351.96   17.77
   0   7   0  338.12   10.67
   0   7   0  341.24    9.70
   0   7   0  332.95    9.34
   0   7   0  345.83   10.64
   0   7   0  336.98    9.25
   0  -7   0  346.94   18.91
   0   7   1  368.50    9.78
   0  -7   1  477.43   23.36
   0   7   1  361.43    9.99
   0   7   1  369.19   10.13
   0   7   1  340.75   10.49
   0   7   1  352.74   10.93
   0   7   1  383.74    9.98
   0   7   1  405.40   19.59
   0  -7   1  486.52   19.78
   0  -7   1  476.62   21.52
   0   7   2  175.58    6.49
   0   7   2  174.55    6.80
   0   7   2  188.92    7.08
   0   7   2  177.50    7.00
   0   7   2  190.44    7.80
   0   7   2  184.23   13.68
   0  -7   2  158.30   13.57
   0   7   3  281.97    7.88
   0  -7   3  294.23   19.34
   0   7   3  299.13    9.61
   0   7   3  296.19    8.81
   0   7   3  300.90    8.95
   0  -7   4  225.59   17.04
   0   7   4  249.81    8.24
   0   7   4  246.58    8.59
   0   7   4  237.86    7.80
   0   7   5  144.92    6.24
   0   7   5  148.74    5.92
   0   7   5  147.86    6.43
   0   7   5  139.27    6.10
   0  -7   6 1058.52   34.32
   0   7   6 1090.84   16.41
   0   7   6 1100.40   16.76
   0   7   7  325.16    8.15
   0   7   7  340.76    8.88
   0   7   8  265.73    6.21
   0   7   8  269.91    7.18
   0   7   9  241.50    5.79
   0   8  -8   94.25    3.44
   0  -8  -8   83.24    3.14
   0  -8  -8   86.07    3.14
   0  -8  -7  417.80    7.59
   0  -8  -7  433.62    8.20
   0   8  -6  308.47    7.94
   0   8  -6  301.46    7.28
   0   8  -6  312.88    8.13
   0   8  -5  248.26    7.69
   0   8  -5  249.06    7.46
   0   8  -5  239.61    7.28
   0   8  -5  250.04    8.00
   0   8  -5  261.35    8.36
   0   8  -4  525.61   12.21
   0   8  -4  509.21   10.76
   0   8  -4  515.80   11.18
   0   8  -4  511.52   11.42
   0   8  -4  533.43   12.37
   0   8  -3    9.34    1.54
   0  -8  -3    7.97    3.06
   0   8  -3    8.37    1.72
   0   8  -3   10.69    1.57
   0   8  -3    9.22    1.67
   0   8  -3   16.78    2.12
   0   8  -3    9.62    1.79
   0   8  -2   76.64    4.12
   0   8  -2   73.05    4.15
   0  -8  -2   76.75    9.07
   0  -8  -2   68.05    8.46
   0   8  -2   70.71    4.80
   0   8  -2   87.42    4.42
   0   8  -2   74.72    3.95
   0   8  -2   72.75    4.65
   0   8  -2   73.58    4.70
   0   8  -1   22.05    2.38
   0  -8  -1   16.62    4.20
   0   8  -1   27.99    3.05
   0  -8  -1   16.15    4.06
   0   8  -1   23.88    2.66
   0   8   0  647.06   12.90
   0  -8   0  630.02   23.71
   0  -8   0  624.61   24.61
   0   8   0  654.70   14.54
   0   8   0  666.06   13.65
   0   8   0  692.00   14.77
   0   8   0  646.11   13.25
   0   8   1   21.59    2.39
   0   8   1   20.48    2.35
   0   8   1   22.13    2.53
   0   8   1   21.70    2.67
   0   8   2   81.09    4.32
   0   8   2   85.90    5.08
   0   8   2   81.24    4.75
   0   8   2   81.19    4.60
   0   8   3    9.99    1.62
   0   8   3    8.75    1.68
   0   8   3   11.26    1.55
   0   8   4  579.22   11.55
   0   8   4  579.73   12.13
   0   8   4  575.93   12.07
   0   8   5  330.17    8.04
   0   8   5  338.07    8.66
   0   8   5  333.46    8.84
   0   8   5  330.71    8.52
   0   8   6  245.11    6.92
   0   8   6  245.18    7.05
   0   8   6  231.49    6.39
   0   8   7  501.88    7.80
   0   8   7  533.96    9.28
   0   8   7  524.95    9.09
   0   8   8   98.77    3.34
   0   9  -6   58.95    2.49
   0   9  -5   27.58    1.92
   0   9  -5   29.36    2.22
   0   9  -4  838.92   10.85
   0   9  -4  863.53   11.87
   0   9  -4  911.52   13.47
   0   9  -4  890.26   13.08
   0   9  -3  122.09    5.20
   0   9  -3  125.31    5.27
   0   9  -2 1078.59   13.78
   0   9  -2 1116.84   16.40
   0   9  -2 1089.01   15.82
   0   9  -1  504.27   11.26
   0   9  -1  482.55   10.47
   0   9  -1  491.89    9.93
   0   9   0   18.34    2.19
   0   9   0   11.80    1.67
   0   9   1  374.66    8.97
   0   9   1  361.33    8.97
   0   9   1  364.26    8.45
   0   9   2 1215.12   15.75
   0   9   2 1192.53   16.00
   0   9   3  148.37    5.40
   0   9   3  153.15    5.52
   0   9   3  162.70    5.54
   0   9   4  643.16   10.76
   0   9   4  641.78   10.09
   0   9   5   52.37    2.57
   0   9   5   53.96    2.88
   0   9   6   70.24    2.84
   0  10  -3   21.93    1.67
   0  10  -3   11.51    1.18
   0  10  -2   47.18    2.44
   0  10  -2   44.78    2.35
   0  10  -1   62.38    2.96
   0  10  -1   63.61    2.79
   0  10   0   63.45    2.96
   0  10   0   65.30    2.71
   0  10   1   82.36    3.25
   0  10   1   75.07    2.58
   0  10   2   10.46    1.11
   0  10   3   16.94    1.21
   1   0 -13   68.80    3.25
   1   0 -12    3.96    1.12
   1   0 -12    1.92    1.72
   1   0 -12    4.55    0.99
   1   0 -11  335.86   20.52
   1   0 -11  349.43    9.70
   1   0 -11  324.39   10.17
   1   0 -10    5.42    2.94
   1   0 -10    4.72    1.47
   1   0 -10    5.70    1.39
   1   0 -10    4.01    1.35
   1   0 -10    5.95    1.38
   1   0  -9 2678.52   56.35
   1   0  -9 2737.54   27.27
   1   0  -9 2741.45   26.74
   1   0  -9 2738.14   28.68
   1   0  -9 2773.39   28.32
   1   0  -8   22.89    5.19
   1   0  -8   20.64    2.39
   1   0  -7  837.22   26.35
   1   0  -6    8.72    2.63
   1   0  -5 8461.23   66.17
   1   0  -4    4.04    1.38
   1   0  -4    2.35    0.72
   1   0  -4    2.86    0.37
   1   0  -3 6467.81   19.61
   1   0  -3 7739.77   30.86
   1   0  -2    5.77    0.77
   1   0  -1 1218.01   11.56
   1   0   1 4531.51   19.10
   1   0   1 4553.63   25.01
   1   0   2    3.65    0.94
   1   0   2    2.69    0.82
   1   0   2    3.01    0.64
   1   0   3  427.87   11.11
   1   0   3  418.00   11.73
   1   0   3  407.01    7.89
   1   0   4   28.13    3.37
   1   0   4   27.73    3.63
   1   0   4   31.21    2.52
   1   0   5  281.87   11.82
   1   0   5  281.68   11.42
   1   0   5  285.25    8.41
   1   0   6   15.76    3.17
   1   0   7 1215.59   31.34
   1   0   7 1236.86   29.71
   1   0   8    2.83    0.91
   1   0   8    1.05    0.76
   1   0   8    0.76    0.59
   1   0   8    0.71    1.21
   1   0   9  482.81   10.62
   1   0   9  445.97   11.67
   1   0   9  450.02   11.22
   1   0  10    3.35    1.01
   1   0  10    2.91    1.08
   1   0  10    2.40    0.96
   1   0  10    3.67    1.18
   1   0  11  623.77   10.85
   1   0  11  634.73   12.61
   1   0  11  618.29   12.07
   1   0  12    3.42    0.81
   1   1 -13  172.51    4.96
   1  -1 -13  162.08    4.88
   1  -1 -12  116.45    5.35
   1   1 -12   99.99    4.86
   1   1 -11   49.11    3.26
   1   1 -11   45.44    7.59
   1  -1 -11   61.98    8.83
   1   1 -11   54.65    4.02
   1   1 -11   56.04    3.70
   1   1 -11   50.68    4.02
   1  -1 -11   72.62    4.48
   1  -1 -11   74.88    4.97
   1   1 -10  201.89   16.16
   1  -1 -10  168.62   14.67
   1   1 -10  198.72    7.80
   1  -1 -10  197.16    7.09
   1   1 -10  207.17    8.39
   1   1 -10  210.36    7.74
   1  -1 -10  167.73    6.92
   1  -1 -10  169.83    7.43
   1  -1 -10  172.87    7.37
   1   1  -9  275.55   18.20
   1  -1  -9  286.45   18.39
   1   1  -9  277.48    8.95
   1  -1  -9  307.06    8.80
   1   1  -9  287.97    9.54
   1   1  -9  289.00    9.07
   1  -1  -9  284.27    9.07
   1   1  -9  288.01    9.31
   1  -1  -9  289.71    9.42
   1   1  -9  296.73    8.77
   1  -1  -9  290.27    9.58
   1   1  -8   94.19    9.90
   1   1  -8  107.44    5.23
   1  -1  -8  129.88   11.65
   1  -1  -8  139.41    6.34
   1   1  -8  103.71    5.18
   1  -1  -8  139.31    6.14
   1  -1  -8  144.28    6.30
   1   1  -7  984.99   28.54
   1  -1  -7  994.75   29.15
   1  -1  -6  221.20   12.45
   1   1  -6  207.80   11.70
   1  -1  -5 2544.21   37.66
   1   1  -5 2563.36   30.92
   1  -1  -5 2476.86   28.80
   1   1  -5 2530.58   19.69
   1  -1  -4   66.35    3.85
   1  -1  -4   67.12    5.34
   1   1  -4   73.03    5.38
   1   1  -4   67.71    4.51
   1   1  -4   66.03    3.04
   1  -1  -3 2316.24   24.15
   1   1  -3 2310.20   16.88
   1  -1  -2  119.04    4.36
   1   1  -2  113.10    4.77
   1   1  -2  112.78    3.68
   1  -1  -1 6257.59   30.36
   1  -1  -1 6252.53   27.96
   1   1  -1 6322.36   22.05
   1  -1   0  729.60   11.46
   1   1   0  727.14    9.54
   1  -1   1 1440.47   14.76
   1   1   1 1343.15   14.94
   1  -1   2  331.93    8.93
   1  -1   2  331.58    9.21
   1  -1   2  337.21    7.44
   1   1   2  312.16    8.02
   1   1   2  337.44    5.67
   1  -1   3 3680.57   34.75
   1  -1   3 3666.80   36.14
   1  -1   3 3775.84   27.04
   1   1   3 3791.84   31.15
   1   1   3 3710.11   21.96
   1   1   3 3848.04   31.73
   1   1   4 2056.27   19.36
   1   1   4 2100.41   26.81
   1  -1   4 2119.19   30.33
   1  -1   4 2116.67   31.59
   1   1   4 2151.22   26.17
   1   1   5 1220.26   22.91
   1  -1   5 1125.81   26.42
   1   1   5 1267.23   22.06
   1  -1   5 1134.47   25.04
   1  -1   6  694.98   23.21
   1   1   6  647.96   18.49
   1  -1   6  680.10   21.74
   1   1   6  660.50   17.35
   1  -1   7  429.34   19.09
   1  -1   7  419.63   18.43
   1  -1   7  455.00   19.64
   1   1   7  406.17   17.63
   1   1   8  393.66    9.54
   1   1   8  395.17   10.53
   1   1   8  390.65   10.11
   1  -1   8  378.20    9.79
   1  -1   8  366.53   18.52
   1  -1   8  373.08   19.54
   1   1   8  395.01   19.22
   1   1   9   10.22    1.73
   1   1   9    9.17    1.58
   1   1   9   10.41    1.90
   1  -1   9   15.21    2.24
   1   1   9   10.13    1.81
   1  -1   9   15.15    2.11
   1   1   9    8.91    1.68
   1   1  10  251.09    7.50
   1   1  10  259.85    8.74
   1  -1  10  229.27    8.34
   1  -1  10  237.07    7.98
   1   1  10  245.41   15.85
   1   1  10  251.02    8.27
   1   1  10  244.09    7.46
   1  -1  11  316.92    8.09
   1  -1  11  330.22    9.06
   1   1  11  315.36    7.36
   1   1  11  300.05    7.92
   1  -1  11  325.52    8.94
   1  -1  12  684.03    8.73
   1  -1  12  719.85   10.79
   1   1  12  682.45    9.18
   1  -1  12  722.20   10.65
   1  -2 -13  293.27    5.58
   1  -2 -13  294.74    5.97
   1   2 -12  365.95    8.61
   1   2 -12  379.96    8.08
   1  -2 -11  601.40   25.90
   1  -2 -11  603.69   13.54
   1   2 -11  612.30   13.26
   1   2 -11  630.99   13.14
   1   2 -11  623.73   13.10
   1  -2 -11  586.73   12.84
   1   2 -10  480.53   24.58
   1  -2 -10  464.87   23.67
   1   2 -10  484.38   12.27
   1   2 -10  470.45   12.10
   1   2 -10  473.97   12.30
   1  -2 -10  479.81   11.91
   1  -2 -10  480.94   12.28
   1  -2 -10  486.04   12.62
   1   2  -9  134.77   12.77
   1  -2  -9  170.90   14.15
   1   2  -9  134.41    6.34
   1   2  -9  133.10    6.03
   1   2  -9  135.29    6.44
   1  -2  -9  167.65    7.24
   1  -2  -9  161.22    7.07
   1  -2  -9  168.57    7.54
   1   2  -8   58.91    8.01
   1  -2  -8   71.40    8.73
   1   2  -8   62.72    4.13
   1   2  -8   59.94    4.10
   1  -2  -8   69.39    4.60
   1  -2  -8   72.86    4.67
   1   2  -8   57.51    3.80
   1  -2  -8   68.41    4.41
   1  -2  -8   70.48    4.61
   1   2  -7  529.27   21.51
   1  -2  -7  567.00   22.49
   1   2  -6  409.78   16.92
   1  -2  -6  395.30   17.20
   1  -2  -6  389.49   14.89
   1   2  -5  825.66   21.31
   1  -2  -5  782.91   19.80
   1  -2  -5  767.16   22.04
   1  -2  -5  805.79   18.69
   1   2  -5  827.43   20.95
   1  -2  -5  785.92   23.11
   1   2  -5  802.84   14.82
   1  -2  -4 1238.21   21.13
   1   2  -4 1223.26   22.67
   1  -2  -4 1283.21   25.81
   1  -2  -4 1274.01   26.33
   1   2  -4 1231.97   23.26
   1   2  -4 1205.76   17.56
   1  -2  -4 1253.12   21.65
   1  -2  -3  285.96    8.74
   1   2  -3  298.76   10.47
   1   2  -3  306.43    8.64
   1  -2  -2  455.09    8.91
   1   2  -2  429.41   11.58
   1  -2  -2  431.93   10.80
   1   2  -2  452.61   10.41
   1  -2  -2  455.17   13.10
   1  -2  -1  413.62    9.32
   1   2  -1  393.38    9.25
   1  -2  -1  419.66    8.35
   1  -2  -1  412.24    6.14
   1   2   0 2335.08   27.99
   1   2   0 2363.73   24.60
   1   2   1 2914.41   30.22
   1  -2   1 2928.95   27.60
   1  -2   2  653.84   12.71
   1  -2   2  676.99   15.00
   1   2   2  699.39   15.40
   1   2   2  661.49   14.19
   1  -2   3   46.00    2.91
   1  -2   3   48.83    4.59
   1   2   3   32.52    3.66
   1   2   3   35.29    3.61
   1  -2   4 1546.03   24.95
   1  -2   4 1487.55   28.41
   1   2   4 1500.94   25.33
   1  -2   5  329.91   12.69
   1  -2   5  316.43   14.33
   1  -2   5  315.89   14.74
   1   2   5  293.66   12.25
   1  -2   6 1026.37   28.58
   1  -2   6 1069.27   30.40
   1   2   6 1016.94   24.24
   1   2   6 1064.78   25.45
   1  -2   7 1564.28   38.66
   1  -2   7 1536.92   40.19
   1   2   7 1443.35   17.87
   1   2   7 1508.21   19.27
   1   2   7 1474.72   36.37
   1  -2   7 1567.53   37.66
   1   2   7 1441.97   18.10
   1   2   7 1489.14   32.87
   1  -2   8  695.04   27.78
   1   2   8  667.43   12.76
   1   2   8  660.81   13.77
   1  -2   8  687.06   13.23
   1   2   8  693.47   26.32
   1   2   8  658.43   13.02
   1  -2   8  712.64   27.76
   1  -2   8  698.87   27.12
   1  -2   9  366.10   20.22
   1   2   9  348.56    9.28
   1   2   9  354.57   10.24
   1  -2   9  381.67   10.05
   1   2   9  373.13   19.48
   1   2   9  346.24    9.57
   1   2  10  290.96    8.15
   1  -2  10  274.13    9.01
   1  -2  10  276.32    8.29
   1   2  10  289.96    8.31
   1   2  11  327.73    7.47
   1  -2  11  302.41    8.40
   1   2  11  311.75    7.29
   1  -2  12  611.95    9.35
   1   2  12  630.40    9.63
   1  -2  12  611.54    9.59
   1  -3 -13  264.86    4.79
   1   3 -13  235.08    4.65
   1   3 -12  327.47    7.46
   1   3 -12  310.84    7.05
   1   3 -11  682.59   13.73
   1   3 -11  641.41   12.25
   1  -3 -11  583.06   11.91
   1  -3 -11  622.98   13.02
   1  -3 -11  580.18   10.34
   1  -3 -10  260.81   16.80
   1   3 -10  222.76    8.24
   1   3 -10  221.88    7.95
   1   3 -10  227.00    8.75
   1  -3 -10  265.73    9.01
   1  -3 -10  273.02    8.77
   1  -3 -10  278.37    9.60
   1  -3 -10  262.71    8.26
   1   3  -9   90.22   10.47
   1  -3  -9   86.62    9.94
   1   3  -9   92.19    5.24
   1   3  -9   86.27    5.14
   1   3  -9   85.59    5.02
   1   3  -9   97.80    5.11
   1  -3  -9   86.11    5.41
   1  -3  -9   94.69    5.29
   1  -3  -9   85.62    5.55
   1   3  -8  107.30   10.90
   1   3  -8  107.35    5.43
   1   3  -8  106.16    5.48
   1   3  -8  110.65    5.54
   1  -3  -8   98.21    5.63
   1   3  -8  104.66    5.20
   1  -3  -8   96.14   10.15
   1   3  -8  107.29    5.48
   1  -3  -8  104.63    5.44
   1  -3  -8  100.17    5.78
   1   3  -7 1372.48   35.74
   1  -3  -7 1366.55   35.83
   1  -3  -7 1332.67   33.91
   1   3  -7 1356.74   18.17
   1   3  -6 1572.23   34.52
   1  -3  -6 1593.56   36.26
   1  -3  -6 1516.89   33.89
   1   3  -6 1636.14   36.86
   1   3  -5  781.39   21.67
   1  -3  -5  797.13   20.74
   1  -3  -5  751.63   21.57
   1  -3  -5  793.23   25.71
   1   3  -5  793.11   23.65
   1   3  -5  753.77   17.59
   1   3  -4  140.24    8.27
   1  -3  -4  141.43    7.67
   1  -3  -4  147.48    9.67
   1  -3  -4  142.62   10.05
   1  -3  -4  133.86    8.37
   1   3  -4  147.19    9.32
   1   3  -4  136.59    7.37
   1   3  -3  555.17   16.77
   1   3  -3  577.91   14.70
   1  -3  -3  567.73   13.16
   1  -3  -3  584.16   14.68
   1  -3  -3  573.04   17.62
   1   3  -3  540.49   14.26
   1  -3  -2  386.38    9.10
   1  -3  -2  405.13   14.13
   1  -3  -2  388.67   11.23
   1  -3  -1 4959.25   25.35
   1  -3  -1 4913.25   34.28
   1   3  -1 4862.17   43.75
   1   3  -1 5041.95   39.90
   1  -3  -1 4823.18   38.01
   1  -3   0 1175.09    8.83
   1   3   0 1199.94   20.14
   1   3   1 3752.68   35.29
   1   3   1 3826.92   42.88
   1   3   1 3804.02   37.62
   1   3   2 1325.93   20.42
   1   3   2 1363.71   25.88
   1   3   2 1358.09   23.99
   1  -3   3  619.06   11.22
   1  -3   3  590.56   16.26
   1  -3   3  630.29   18.59
   1   3   3  590.83   13.36
   1   3   3  644.77   18.53
   1   3   3  608.59   17.24
   1  -3   4   61.01    6.40
   1   3   4   75.84    6.81
   1   3   4   66.04    6.14
   1  -3   5 1118.50   29.95
   1   3   5 1154.51   28.66
   1   3   5 1139.97   27.28
   1  -3   6 1402.11   36.02
   1   3   6 1502.12   35.28
   1  -3   6 1371.27   36.62
   1  -3   6 1379.70   33.24
   1   3   6 1432.43   32.81
   1  -3   7  200.83   14.77
   1  -3   7  207.93   15.57
   1   3   7  184.59    6.66
   1   3   7  198.72   13.59
   1   3   7  192.08    6.72
   1   3   7  188.80   12.72
   1  -3   7  211.65   14.41
   1  -3   8    8.26    3.35
   1  -3   8    7.18    3.43
   1  -3   8    9.50    3.51
   1  -3   8   10.60    1.69
   1   3   8   14.84    1.98
   1   3   8   15.87    2.07
   1  -3   9 1003.17   35.69
   1   3   9  978.08   15.72
   1  -3   9 1007.03   15.68
   1  -3   9  945.04   33.66
   1   3   9  995.63   15.32
   1   3  10  115.35    5.03
   1  -3  10   88.16    4.93
   1  -3  10   93.40    4.47
   1   3  10  111.62    4.60
   1  -3  11  186.54    6.14
   1   3  11  171.83    5.18
   1   3  11  174.69    5.94
   1  -3  12  504.66    7.05
   1  -3  12  509.57    7.31
   1   3  12  511.56    7.64
   1  -3  12  521.17    7.89
   1  -4 -12  282.94    5.45
   1   4 -12  270.46    5.82
   1  -4 -11   70.69    3.95
   1  -4 -11   69.09    3.76
   1  -4 -11   69.05    4.04
   1  -4 -11   68.79    3.51
   1   4 -10  473.90   10.54
   1   4 -10  483.90   12.33
   1  -4 -10  489.12   11.92
   1  -4 -10  508.15   10.69
   1  -4 -10  509.10   12.52
   1  -4 -10  474.05   11.15
   1   4  -9   98.24    5.38
   1   4  -9   92.65    4.99
   1   4  -9   92.66    5.61
   1  -4  -9  100.17    5.86
   1  -4  -9  107.00    5.21
   1  -4  -9  104.33    6.05
   1   4  -8  310.49    9.85
   1  -4  -8  292.90   17.13
   1   4  -8  308.58    9.37
   1   4  -8  294.24    9.33
   1  -4  -8  301.32    9.87
   1   4  -8  297.03    9.19
   1  -4  -8  322.61    9.16
   1   4  -8  307.05    9.08
   1  -4  -8  292.39   10.01
   1   4  -7 1765.63   21.55
   1   4  -7 1693.71   21.97
   1  -4  -7 1760.12   43.63
   1   4  -7 1724.05   21.78
   1  -4  -7 1791.25   23.22
   1   4  -7 1710.84   21.29
   1   4  -7 1758.80   20.65
   1  -4  -7 1830.94   41.84
   1  -4  -6 1512.37   36.62
   1  -4  -6 1414.87   37.02
   1  -4  -6 1442.43   41.48
   1   4  -6 1526.60   39.97
   1  -4  -5 1536.41   35.43
   1  -4  -5 1566.50   30.65
   1  -4  -5 1538.64   39.78
   1  -4  -4   75.68    5.95
   1  -4  -4   78.54    7.66
   1  -4  -4   72.26    7.99
   1  -4  -4   62.38    6.64
   1   4  -4   69.96    7.39
   1   4  -3  232.86   12.51
   1  -4  -3  257.37    9.57
   1  -4  -3  266.10   13.21
   1   4  -2  419.88   15.82
   1  -4  -2  398.34   10.10
   1  -4  -2  406.21   15.85
   1  -4  -2  430.35   13.10
   1   4  -1  571.90   17.48
   1  -4  -1  599.79   17.95
   1  -4  -1  594.44   13.82
   1  -4  -1  573.26   15.28
   1   4  -1  599.58   16.12
   1   4   0 1074.65   22.66
   1   4   0 1065.66   22.19
   1  -4   1 2187.91   33.98
   1   4   1 2107.25   32.68
   1   4   1 2131.24   30.73
   1   4   2 1290.50   22.94
   1   4   2 1375.52   30.53
   1  -4   2 1442.44   24.05
   1  -4   2 1400.15   21.59
   1   4   2 1301.05   27.10
   1  -4   3  220.87   11.63
   1  -4   3  216.03   12.54
   1   4   3  230.92   12.80
   1  -4   3  230.88   10.18
   1   4   3  200.21   11.27
   1  -4   4  267.70   14.78
   1   4   4  270.69   14.41
   1  -4   4  270.16   12.52
   1   4   4  265.70   13.80
   1  -4   5  335.72   17.67
   1   4   5  374.96   17.49
   1  -4   5  345.11   15.77
   1  -4   6  550.93   24.15
   1  -4   6  548.24   24.51
   1   4   6  579.62   11.80
   1   4   6  620.42   23.37
   1   4   6  575.15   10.92
   1   4   6  585.95   23.24
   1  -4   6  547.06   22.02
   1  -4   7  148.97   12.55
   1  -4   7  148.80   13.41
   1  -4   7  154.04   13.83
   1   4   7  154.88    6.36
   1   4   7  152.94    6.46
   1   4   7  155.71   12.55
   1  -4   8  272.09   18.79
   1  -4   8  272.28   19.09
   1   4   8  259.51    8.26
   1   4   8  247.57    8.35
   1   4   9  479.12   10.82
   1   4   9  492.09   11.46
   1   4  10   42.54    3.14
   1   4  10   42.27    2.93
   1   4  11  250.20    5.04
   1   4  11  264.62    5.82
   1  -4  11  264.16    6.21
   1   4  11  271.72    6.44
   1   5 -12  131.82    3.43
   1   5 -11  532.44    9.85
   1  -5 -11  515.99    9.31
   1  -5 -11  534.56    9.55
   1  -5 -10   61.92    3.24
   1  -5 -10   65.52    4.08
   1  -5 -10   72.78    4.31
   1  -5 -10   65.93    3.93
   1   5  -9   94.11    4.52
   1   5  -9  102.67    5.67
   1  -5  -9   93.19    5.45
   1  -5  -9   90.60    5.32
   1   5  -8  606.54   12.03
   1   5  -8  601.59   13.85
   1  -5  -8  532.95   24.44
   1  -5  -8  563.17   12.59
   1   5  -8  593.36   13.25
   1   5  -8  582.47   13.53
   1  -5  -8  556.30   13.33
   1   5  -7  415.69   11.36
   1  -5  -7  424.39   22.81
   1   5  -7  425.58   11.13
   1  -5  -7  434.63   11.21
   1   5  -7  419.58   11.07
   1   5  -6   70.12    4.08
   1   5  -6   63.69    4.31
   1  -5  -6   64.18    8.56
   1  -5  -6   72.60    4.55
   1   5  -6   72.39    4.52
   1   5  -6   73.98    4.49
   1   5  -6   68.32    4.34
   1   5  -6   72.42    9.61
   1  -5  -6   68.00    9.56
   1   5  -6   69.70    4.50
   1  -5  -5  198.55   15.27
   1   5  -5  192.23    7.09
   1   5  -5  186.99    7.13
   1   5  -5  195.53    6.86
   1   5  -5  195.68    6.96
   1   5  -5  204.39   15.02
   1  -5  -5  219.90   15.18
   1   5  -5  194.96    7.50
   1  -5  -4  145.49   12.24
   1  -5  -4  148.20   11.61
   1   5  -4  118.63   10.78
   1  -5  -3 1820.06   40.81
   1   5  -3 1834.71   39.77
   1  -5  -3 1751.76   38.15
   1  -5  -2  253.59   13.84
   1  -5  -2  277.51   14.38
   1   5  -2  264.85   14.34
   1   5  -1  191.44   11.58
   1  -5  -1  217.26   12.42
   1  -5  -1  213.04   10.67
   1   5   0 1177.97   27.39
   1   5   0 1207.57   27.21
   1   5   1  600.15   18.58
   1   5   1  604.25   20.01
   1   5   2 1033.14   23.19
   1  -5   2  985.83   26.87
   1   5   2 1062.40   27.81
   1  -5   3  103.89    9.60
   1  -5   3  101.03    9.01
   1   5   3  119.08    9.88
   1  -5   4  651.75   25.16
   1   5   4  643.72   12.11
   1   5   4  674.68   23.81
   1   5   4  613.43   11.52
   1   5   4  646.56   12.23
   1   5   4  644.03   24.09
   1  -5   5 1332.00   38.08
   1  -5   5 1383.60   38.06
   1   5   5 1321.48   18.12
   1   5   5 1295.54   17.21
   1   5   5 1345.43   18.34
   1  -5   5 1386.43   37.62
   1   5   5 1360.99   36.78
   1  -5   6  178.84   14.48
   1  -5   6  177.84   14.45
   1   5   6  153.67    6.42
   1   5   6  161.51    6.18
   1   5   6  161.17    6.60
   1   5   6  161.04   13.22
   1  -5   7  125.63   12.57
   1  -5   7  123.93   12.46
   1   5   7  133.91    6.01
   1   5   7  133.49    5.51
   1   5   7  136.25    6.15
   1  -5   8   45.37    7.61
   1   5   8   48.40    3.56
   1   5   8   50.71    3.70
   1  -5   8   48.47    7.71
   1   5   9  434.38    9.74
   1   5   9  430.54    9.95
   1   5  10  426.16    7.68
   1   5  10  436.27    8.34
   1  -5  10  419.98    8.13
   1   5  10  438.23    8.54
   1   5  11   10.48    0.95
   1   5  11   10.78    0.99
   1   6 -11  240.30    5.06
   1  -6 -11  219.54    4.33
   1   6 -10  304.70    7.59
   1   6 -10  297.90    7.03
   1  -6 -10  292.72    7.26
   1  -6 -10  284.65    6.94
   1  -6 -10  292.02    7.04
   1  -6  -9 1077.83   16.41
   1  -6  -9 1095.10   15.99
   1   6  -8   24.62    2.80
   1   6  -8   23.45    2.60
   1  -6  -8   27.07    2.76
   1   6  -7  583.53   13.47
   1  -6  -7  585.65   27.14
   1   6  -7  588.79   12.82
   1   6  -7  593.21   12.43
   1  -6  -7  600.73   12.97
   1  -6  -6   33.13    6.54
   1   6  -6   44.87    3.75
   1   6  -6   45.06    3.68
   1   6  -6   47.05    3.74
   1   6  -6   48.42    3.84
   1   6  -5  297.33    9.41
   1   6  -5  298.91    9.38
   1  -6  -5  301.69   19.54
   1  -6  -5  309.90   19.68
   1   6  -5  300.40    9.10
   1  -6  -5  279.51   18.21
   1   6  -5  322.60   20.33
   1   6  -5  304.27    9.01
   1   6  -5  301.06    9.80
   1   6  -4  306.98    9.78
   1   6  -4  303.06    9.03
   1   6  -4  314.47    9.68
   1  -6  -4  301.75   18.66
   1   6  -4  303.35    8.88
   1   6  -4  307.20    9.12
   1  -6  -4  296.56   18.45
   1   6  -4  323.80   19.59
   1   6  -3  941.88   16.32
   1   6  -3  889.30   13.87
   1   6  -3  880.58   14.94
   1  -6  -3  981.96   31.95
   1  -6  -3  982.99   31.97
   1   6  -3  922.30   14.64
   1   6  -3  915.12   15.71
   1   6  -3  966.99   32.29
   1  -6  -2  290.28   16.70
   1   6  -2  302.51    9.02
   1   6  -2  301.59    8.13
   1   6  -2  305.31    9.37
   1  -6  -2  291.10   16.68
   1   6  -2  286.73    8.07
   1   6  -2  300.01    8.62
   1   6  -2  305.37    9.10
   1   6  -2  330.53   17.95
   1   6  -1  212.63    7.36
   1   6  -1  213.52    6.83
   1   6  -1  213.03    7.85
   1   6  -1  213.03    7.09
   1  -6  -1  231.06   14.52
   1   6  -1  207.19    7.55
   1   6  -1  217.72   13.88
   1  -6   0  858.82   25.12
   1  -6   0  868.34   27.38
   1   6   0  812.18   13.41
   1  -6   0  930.43   28.15
   1   6   0  843.32   15.67
   1   6   0  840.65   13.91
   1   6   0  835.10   15.35
   1   6   0  882.17   26.45
   1   6   0  821.21   14.18
   1   6   0  875.08   26.33
   1   6   1  862.46   14.39
   1   6   1  863.10   16.13
   1   6   1  867.23   14.20
   1   6   1  848.20   15.78
   1   6   1  876.53   27.20
   1   6   1  912.42   25.61
   1   6   1  858.58   13.87
   1   6   2 1158.81   16.49
   1  -6   2 1212.85   33.94
   1   6   2 1155.52   16.26
   1  -6   2 1199.16   32.63
   1   6   2 1207.94   19.52
   1   6   2 1158.69   16.64
   1   6   2 1184.66   33.02
   1  -6   2 1177.85   33.36
   1   6   3  780.32   13.33
   1  -6   3  838.47   29.07
   1   6   3  869.94   16.65
   1   6   3  812.38   14.24
   1   6   3  801.70   13.99
   1  -6   3  780.01   27.95
   1   6   3  799.58   13.61
   1   6   3  825.51   28.73
   1   6   4   99.94    4.83
   1  -6   4  132.68   11.96
   1  -6   4  136.96   11.73
   1  -6   4  131.91   11.49
   1   6   4   89.76    5.43
   1   6   4  100.43    5.17
   1   6   4  105.95    5.20
   1   6   4   94.15    4.97
   1   6   4   98.03   10.28
   1  -6   5 1638.76   42.25
   1  -6   5 1602.49   41.81
   1   6   5 1729.05   23.69
   1   6   5 1702.13   21.33
   1   6   5 1678.41   20.62
   1   6   5 1709.20   21.30
   1  -6   6   46.77    7.45
   1   6   6   53.50    4.13
   1   6   6   53.83    3.85
   1   6   6   51.50    3.60
   1   6   6   57.92    3.93
   1  -6   6   46.62    7.34
   1  -6   7  328.12   19.30
   1   6   7  334.94    9.59
   1   6   7  344.50    9.35
   1   6   7  333.47    9.07
   1   6   8  373.74    9.08
   1   6   8  380.71    9.04
   1   6   8  378.42    9.16
   1   6   9  168.61    5.04
   1   6   9  176.24    5.50
   1   6   9  171.75    5.19
   1   6  10    6.47    0.88
   1   7 -10  112.75    3.20
   1  -7 -10  114.63    3.32
   1  -7 -10  114.17    3.29
   1   7  -9  370.31    7.40
   1   7  -9  398.54    8.33
   1  -7  -9  391.47    8.04
   1  -7  -9  376.34    7.02
   1  -7  -9  404.74    8.27
   1   7  -8  342.03    8.05
   1  -7  -8  349.66    8.92
   1  -7  -8  332.42    7.70
   1   7  -7  105.79    5.41
   1   7  -7   96.04    4.53
   1   7  -7  104.32    4.38
   1   7  -7  108.34    4.92
   1  -7  -7   90.46    4.35
   1  -7  -6  159.20   13.93
   1   7  -6  182.59    7.28
   1   7  -6  185.12    7.06
   1   7  -6  173.07    6.17
   1   7  -6  183.68    6.44
   1  -7  -6  174.60    6.25
   1   7  -6  184.05    7.12
   1   7  -5   77.96    4.82
   1   7  -5   79.23    4.85
   1  -7  -5   73.41    9.55
   1   7  -5   78.87    4.50
   1   7  -5   82.15    5.08
   1   7  -4  357.15    8.81
   1   7  -4  358.59   10.57
   1   7  -4  357.28   10.04
   1  -7  -4  407.96   21.60
   1   7  -4  362.37    9.97
   1  -7  -4  415.48   22.36
   1   7  -4  369.83   11.04
   1   7  -3  249.51    8.90
   1   7  -3  250.12    7.66
   1   7  -3  246.74    8.18
   1  -7  -3  219.33   15.40
   1   7  -3  251.32    8.48
   1   7  -2 1255.91   19.53
   1   7  -2 1276.68   17.76
   1   7  -2 1243.83   19.77
   1   7  -2 1241.48   17.58
   1  -7  -2 1312.49   36.59
   1   7  -2 1282.94   19.36
   1  -7  -2 1295.46   38.84
   1   7  -2 1319.60   38.78
   1   7  -1  529.36   12.37
   1   7  -1  529.77   11.58
   1   7  -1  522.37   12.94
   1  -7  -1  560.53   23.27
   1   7  -1  519.80   10.91
   1   7  -1  538.02   12.17
   1   7  -1  524.87   11.07
   1   7  -1  532.70   12.60
   1   7  -1  548.09   24.08
   1  -7  -1  570.00   25.05
   1   7   0  391.62   11.29
   1   7   0  368.21   10.13
   1   7   0  341.08    9.38
   1   7   0  351.17    9.85
   1   7   0  391.94   11.02
   1   7   1  491.99   11.46
   1   7   1  485.44   11.26
   1  -7   1  506.39   23.88
   1   7   1  503.43   12.92
   1   7   1  497.86   11.64
   1  -7   1  475.77   21.56
   1   7   2  720.78   13.53
   1   7   2  719.47   13.66
   1  -7   2  802.18   28.58
   1   7   2  732.88   15.69
   1   7   2  751.79   14.27
   1   7   2  727.45   14.05
   1   7   2  778.34   28.86
   1   7   3  726.99   13.59
   1   7   3  721.53   12.97
   1   7   3  728.55   14.12
   1   7   3  747.16   15.65
   1  -7   3  762.66   27.63
   1  -7   4  117.10   10.86
   1   7   4  129.62    5.61
   1   7   4  130.73    6.42
   1   7   4  125.47    5.85
   1   7   5  502.62   10.34
   1   7   5  495.25   11.39
   1   7   5  502.55   12.06
   1   7   6  510.71   11.42
   1   7   6  519.74   11.21
   1   7   7  190.17    6.27
   1   7   7  205.79    6.56
   1   7   8  258.93    6.10
   1   7   8  270.36    6.67
   1   7   9    9.59    1.05
   1   7   9    9.45    0.93
   1   8  -8  150.95    4.65
   1  -8  -8  137.77    4.28
   1   8  -7  191.69    5.91
   1  -8  -7  196.37    5.86
   1   8  -6   44.96    2.69
   1   8  -6   46.95    3.15
   1   8  -6   51.16    3.48
   1   8  -5  894.69   14.81
   1   8  -5  930.16   14.94
   1   8  -5  869.21   13.16
   1   8  -5  954.04   15.64
   1   8  -4  186.71    6.84
   1   8  -4  190.82    7.21
   1   8  -4  188.54    6.62
   1   8  -4  193.89    7.55
   1   8  -3  143.23    5.74
   1   8  -3  128.24    5.58
   1  -8  -3  124.22   11.71
   1   8  -3  129.50    6.21
   1   8  -3  127.35    5.73
   1   8  -3  134.83    6.39
   1   8  -2  133.91    5.74
   1   8  -2  121.68    5.25
   1   8  -2  144.63    6.38
   1   8  -2  129.87    6.26
   1   8  -1  805.48   15.25
   1   8  -1  787.13   14.12
   1   8  -1  815.22   15.81
   1   8   0  703.70   13.89
   1   8   0  700.66   13.38
   1   8   0  702.35   14.85
   1   8   0  723.82   14.17
   1  -8   0  747.38   26.25
   1   8   1  120.45    5.59
   1   8   1  122.82    5.63
   1   8   1  113.20    6.00
   1   8   1  116.20    5.63
   1   8   2  376.35    9.39
   1   8   2  382.20    9.79
   1   8   2  390.09   10.92
   1   8   2  383.71   10.13
   1   8   3  276.26    7.47
   1   8   3  298.40    8.42
   1   8   3  306.57    9.38
   1   8   3  292.49    8.66
   1   8   4  286.10    7.74
   1   8   4  285.44    8.23
   1   8   4  289.12    8.63
   1   8   5   99.99    4.13
   1   8   5   93.20    4.57
   1   8   5   87.81    4.32
   1   8   6  484.77    9.16
   1   8   6  471.83    9.07
   1   8   7   81.07    3.10
   1   8   7   85.46    3.34
   1   9  -6  172.10    4.35
   1  -9  -6  150.30    3.74
   1   9  -5  588.50    9.43
   1   9  -5  529.72    8.22
   1  -9  -5  532.63    7.71
   1   9  -5  571.45    9.59
   1   9  -4  168.04    5.23
   1   9  -4  172.11    5.69
   1   9  -4  169.65    4.71
   1   9  -4  174.21    5.93
   1   9  -3  489.94   10.21
   1   9  -3  485.01   10.49
   1   9  -2   88.60    4.58
   1   9  -2   90.55    4.62
   1   9  -1 1005.17   14.20
   1   9  -1 1000.25   15.19
   1   9   0  560.52   10.86
   1   9   0  545.20   10.92
   1   9   1  373.07    8.80
   1   9   1  337.67    8.16
   1   9   2    5.17    0.98
   1   9   2    4.73    1.16
   1   9   2    5.04    1.12
   1   9   3  268.61    6.82
   1   9   3  247.18    6.82
   1   9   3  255.56    7.06
   1   9   4   56.69    3.05
   1   9   4   53.86    2.98
   1   9   5   16.53    1.45
   1   9   5   19.32    1.60
   1   9   6   42.02    1.93
   1  10  -4   79.22    2.59
   1  10  -3  184.99    4.36
   1  10  -3  187.98    4.64
   1  10  -2  399.65    6.97
   1  10  -2  395.66    7.00
   1  10  -1  236.59    5.58
   1  10  -1  234.14    5.39
   1  10   0  161.98    4.66
   1  10   0  160.56    4.26
   1  10   1  182.16    4.82
   1  10   1  167.09    3.87
   1  10   2   64.18    2.66
   1  10   3  109.74    3.01
   2   0 -13    1.77    0.71
   2   0 -12 1064.07   33.28
   2   0 -12 1041.67   13.29
   2   0 -12 1094.95   16.52
   2   0 -11   28.07    6.17
   2   0 -11   29.01    3.13
   2   0 -11   35.02    3.38
   2   0 -11   30.25    3.19
   2   0 -11   27.99    2.61
   2   0 -10  660.41   29.48
   2   0 -10  683.28   14.65
   2   0 -10  692.43   15.05
   2   0 -10  668.37   13.23
   2   0  -9    8.31    3.63
   2   0  -9    7.81    1.66
   2   0  -9    7.29    1.65
   2   0  -9    8.70    1.58
   2   0  -8 2350.05   50.32
   2   0  -7    9.10    2.87
   2   0  -6 3507.64   50.35
   2   0  -5   40.02    4.87
   2   0  -5   41.36    3.02
   2   0  -4 3827.83   27.33
   2   0  -4 3864.79   34.65
   2   0  -3    2.51    0.82
   2   0  -3    4.65    1.13
   2   0  -2 4707.26   31.66
   2   0  -1    0.80    0.58
   2   0   0 3637.82   28.85
   2   0   1    3.21    1.07
   2   0   1    1.98    0.78
   2   0   1    0.92    0.57
   2   0   2 9999.00   49.50
   2   0   2 9974.98   54.08
   2   0   3    5.75    1.50
   2   0   3    7.29    1.55
   2   0   3    3.60    1.35
   2   0   4 1078.42   19.73
   2   0   4 1089.22   22.94
   2   0   5    1.48    0.99
   2   0   5    1.28    1.18
   2   0   6 2530.11   42.54
   2   0   7    1.92    1.56
   2   0   7    1.37    0.74
   2   0   7    2.71    0.85
   2   0   8  260.37    8.48
   2   0   8  260.64    8.10
   2   0   9    4.66    1.28
   2   0   9    4.46    1.24
   2   0   9    4.34    1.21
   2   0  10   92.01    4.88
   2   0  10   92.94    4.93
   2   0  10   95.08    5.02
   2   0  11   11.82    1.47
   2   0  11   11.73    1.61
   2   0  12  131.60    3.67
   2   0  12  135.23    3.84
   2  -1 -13   11.84    1.18
   2   1 -13   10.94    1.36
   2  -1 -13   14.32    1.61
   2   1 -12  603.48   24.74
   2   1 -12  606.85   11.89
   2  -1 -12  595.87   10.59
   2   1 -12  629.48   12.46
   2  -1 -12  607.71   12.35
   2   1 -11   85.75   10.28
   2  -1 -11   85.15   10.27
   2   1 -11   81.97    4.94
   2   1 -11   88.00    5.34
   2  -1 -11   93.75    5.05
   2   1 -11   86.99    4.66
   2  -1 -11   87.17    5.25
   2  -1 -11   85.42    4.74
   2   1 -10  341.00   21.07
   2  -1 -10  429.49   23.78
   2   1 -10  352.86   10.75
   2  -1 -10  411.43   10.94
   2  -1 -10  390.56    9.94
   2   1 -10  350.40   10.51
   2   1 -10  355.29   10.69
   2  -1 -10  421.03   11.91
   2  -1 -10  409.25   10.84
   2   1  -9  366.78   21.22
   2   1  -9  372.42   10.63
   2  -1  -9  358.47    9.97
   2   1  -9  372.15    9.85
   2  -1  -9  346.05   20.92
   2  -1  -9  346.28   10.54
   2  -1  -9  344.82    9.33
   2   1  -9  378.53   10.65
   2  -1  -9  360.69   10.94
   2  -1  -9  347.05   10.03
   2   1  -8  375.25   19.72
   2  -1  -8  378.48   20.61
   2   1  -7  149.09   11.43
   2  -1  -7  144.04   11.70
   2   1  -6 4423.96   54.47
   2  -1  -6 4490.38   58.97
   2   1  -6 4522.27   45.33
   2   1  -5 1313.03   26.29
   2  -1  -5 1300.36   18.09
   2   1  -5 1257.54   21.97
   2   1  -4 3846.92   39.74
   2   1  -4 3757.61   35.72
   2  -1  -4 4058.91   41.65
   2  -1  -4 4072.65   44.75
   2  -1  -3 1526.58   23.83
   2   1  -3 1527.06   21.92
   2   1  -2 1066.93   12.84
   2  -1  -2 1056.94   18.24
   2   1  -1  618.24   10.80
   2  -1  -1  612.83   13.06
   2  -1   0 7846.42   48.51
   2   1   0 7920.67   42.47
   2   1   1 3766.48   32.41
   2  -1   1 3754.65   31.71
   2  -1   1 3859.66   32.10
   2  -1   1 3911.61   29.99
   2  -1   1 3966.53   32.05
   2   1   1 3820.69   30.09
   2  -1   2  313.51   10.35
   2  -1   2  318.08   10.11
   2   1   2  318.50   10.24
   2   1   2  308.52    8.97
   2  -1   2  324.42    9.69
   2  -1   3 1107.46   21.92
   2   1   3 1110.60   20.91
   2  -1   3 1118.78   22.01
   2   1   3 1116.11   18.34
   2   1   3 1041.92   10.92
   2  -1   3 1100.72   18.81
   2  -1   4  608.15   18.19
   2  -1   4  598.88   18.32
   2  -1   4  608.39   17.81
   2   1   4  662.57   17.53
   2   1   4  663.47   15.22
   2  -1   5 3946.89   51.62
   2   1   5 4063.37   47.78
   2  -1   5 3825.38   49.76
   2   1   5 4141.12   40.85
   2  -1   6 2740.90   46.38
   2   1   6 2777.88   43.26
   2  -1   7  475.18   20.95
   2   1   7  455.97   10.82
   2   1   7  448.09   10.63
   2   1   7  464.86   10.47
   2  -1   7  454.40    9.97
   2   1   7  456.20   10.47
   2  -1   8  320.41   18.00
   2   1   8  298.09    9.23
   2   1   8  291.16    9.02
   2  -1   8  319.98    9.38
   2  -1   8  322.39    8.86
   2   1   8  290.33    8.85
   2   1   9  121.84    5.90
   2   1   9  125.13    6.00
   2  -1   9  130.43    6.07
   2  -1   9  120.79    5.48
   2   1   9  125.28   12.19
   2   1   9  124.45    5.87
   2   1  10  289.84    8.14
   2  -1  10  269.08    8.52
   2  -1  10  275.27    8.38
   2   1  10  303.81    8.75
   2  -1  10  278.80    8.54
   2   1  11  179.60    5.04
   2  -1  11  185.55    5.82
   2  -1  11  193.44    6.16
   2   1  11  179.83    5.81
   2   1  11  177.28    5.72
   2  -1  11  193.79    6.31
   2   1  12  180.00    4.42
   2   1  12  167.09    3.83
   2  -2 -13    6.51    0.90
   2   2 -13    5.71    0.89
   2  -2 -13    7.96    1.13
   2  -2 -12   45.58    3.37
   2   2 -12   70.53    4.13
   2   2 -12   70.95    3.81
   2   2 -12   70.81    3.67
   2  -2 -12   45.00    3.06
   2   2 -11  585.87   26.04
   2  -2 -11  595.78   26.37
   2   2 -11  583.90   12.31
   2   2 -11  608.56   13.82
   2   2 -11  611.00   13.17
   2  -2 -11  579.49   11.59
   2  -2 -11  613.63   13.54
   2  -2 -11  604.94   12.78
   2   2 -10  875.50   33.20
   2  -2 -10  853.02   33.20
   2   2 -10  900.23   16.20
   2   2 -10  887.31   17.01
   2   2 -10  881.46   16.12
   2  -2 -10  862.05   15.35
   2  -2 -10  895.04   17.35
   2  -2 -10  872.86   16.40
   2   2  -9  271.29   18.07
   2  -2  -9  237.82   17.48
   2   2  -9  262.10    9.03
   2   2  -9  251.34    8.49
   2  -2  -9  226.92    8.61
   2  -2  -9  226.42    8.08
   2   2  -9  273.97    8.92
   2  -2  -9  233.60    8.93
   2  -2  -9  232.56    8.56
   2   2  -9  274.13    8.92
   2   2  -8   28.24    5.50
   2  -2  -8   14.22    4.31
   2   2  -8   28.09    2.78
   2   2  -8   27.35    2.82
   2   2  -8   23.29    2.48
   2  -2  -8   20.19    2.55
   2   2  -8   29.05    2.72
   2  -2  -8   17.83    2.40
   2  -2  -8   18.52    2.40
   2   2  -7  977.80   28.74
   2   2  -7  976.15   27.00
   2   2  -6  122.10    9.12
   2  -2  -6   85.69    8.52
   2  -2  -6   82.98    8.10
   2   2  -6  113.07    8.58
   2   2  -5  296.17   12.89
   2   2  -5  295.47   12.46
   2  -2  -5  300.15   14.00
   2  -2  -5  284.61   14.00
   2  -2  -5  292.01   11.18
   2  -2  -4 1082.55   24.52
   2   2  -4 1031.17   20.42
   2  -2  -4 1021.89   24.13
   2   2  -4 1058.05   22.51
   2  -2  -3 1966.61   28.86
   2   2  -3 1965.46   28.98
   2  -2  -2 6320.96   50.76
   2  -2  -2 6233.97   45.77
   2   2  -2 6303.42   49.74
   2  -2  -1 2706.41   28.30
   2  -2  -1 2692.64   20.80
   2   2  -1 2648.16   33.42
   2   2  -1 2669.20   32.27
   2  -2  -1 2609.24   26.49
   2  -2   0 2468.15   18.60
   2  -2   0 2448.30   27.49
   2  -2   0 2454.62   26.70
   2  -2   0 2480.18   23.70
   2   2   0 2403.46   30.52
   2  -2   0 2425.15   30.29
   2  -2   1  717.61   12.32
   2  -2   1  726.62   14.79
   2  -2   1  707.24   13.72
   2  -2   1  712.34   16.30
   2   2   1  720.47   16.93
   2   2   1  683.36   14.92
   2  -2   2  708.38   16.52
   2  -2   2  706.76   16.02
   2  -2   2  757.52   12.55
   2  -2   2  691.33   15.10
   2   2   2  690.26   17.55
   2   2   2  690.57   15.84
   2  -2   3  587.14   17.00
   2  -2   3  575.75   16.50
   2   2   3  652.35   18.32
   2   2   3  673.50   16.72
   2  -2   3  570.60   13.56
   2  -2   4  931.32   17.64
   2  -2   4  899.69   23.35
   2  -2   4  879.06   23.18
   2   2   4  954.61   24.25
   2   2   4  979.27   21.61
   2  -2   5 1480.84   33.35
   2  -2   5 1507.83   33.84
   2   2   5 1468.55   32.86
   2   2   5 1514.07   28.90
   2  -2   6  948.35   29.23
   2  -2   6  951.79   29.95
   2  -2   6  923.96   28.25
   2   2   6  914.50   28.58
   2   2   7 1317.05   16.69
   2  -2   7 1264.33   36.39
   2  -2   7 1212.74   35.07
   2   2   7 1354.44   18.97
   2   2   7 1360.06   18.89
   2  -2   7 1280.15   16.54
   2   2   7 1361.22   37.46
   2  -2   7 1232.99   35.23
   2   2   7 1343.30   18.35
   2  -2   8   97.59   10.38
   2   2   8   64.12    4.34
   2   2   8   67.13    3.92
   2   2   8   66.32    4.40
   2  -2   8   98.26    4.78
   2   2   8   66.56    8.75
   2   2   8   67.27    4.29
   2  -2   9  557.89   24.71
   2   2   9  512.59   10.31
   2   2   9  503.81   11.31
   2  -2   9  535.19   12.03
   2  -2   9  557.15   11.18
   2   2   9  507.46   23.81
   2   2   9  502.32   11.60
   2  -2  10  197.74    6.86
   2   2  10  204.50    6.85
   2  -2  10  198.65    7.01
   2  -2  11  191.33    5.89
   2  -2  11  203.98    5.93
   2   2  11  189.76    5.86
   2   2  11  183.11    5.18
   2  -2  11  199.48    6.22
   2   2  12  108.39    3.18
   2  -2  12  111.15    3.32
   2   3 -13   47.33    1.89
   2  -3 -13   63.81    2.63
   2   3 -12  105.03    4.04
   2  -3 -12   97.72    4.48
   2   3 -12  112.93    4.62
   2  -3 -12   97.56    4.32
   2  -3 -11  545.46   23.63
   2   3 -11  560.00   11.08
   2   3 -11  585.04   12.93
   2   3 -11  595.60   13.03
   2  -3 -11  568.73   11.51
   2  -3 -11  602.10   12.56
   2  -3 -11  576.06   12.44
   2   3 -10  661.22   13.04
   2   3 -10  666.61   28.05
   2  -3 -10  700.04   29.08
   2   3 -10  673.57   14.61
   2   3 -10  649.70   14.12
   2   3 -10  719.06   13.84
   2  -3 -10  679.26   13.93
   2  -3 -10  710.58   14.95
   2  -3 -10  685.15   14.73
   2   3  -9  320.12   19.34
   2  -3  -9  286.46   19.03
   2   3  -9  321.71    9.36
   2   3  -9  330.22   10.12
   2   3  -9  311.14    9.81
   2  -3  -9  281.08    9.68
   2   3  -9  321.50    9.51
   2  -3  -9  300.88    9.62
   2  -3  -9  303.05   10.13
   2  -3  -9  294.00    9.90
   2   3  -8 2776.11   53.71
   2  -3  -8 2927.87   59.02
   2   3  -8 2865.82   27.28
   2   3  -8 2845.65   28.34
   2   3  -8 2773.46   28.06
   2  -3  -8 2845.12   29.91
   2   3  -8 2717.44   27.03
   2  -3  -8 2872.80   30.07
   2   3  -7  338.92   17.27
   2  -3  -7  244.96   16.29
   2  -3  -7  228.23   13.80
   2   3  -7  338.05   18.26
   2   3  -6 1131.10   28.41
   2  -3  -6 1140.05   32.72
   2  -3  -6 1165.08   28.20
   2   3  -6 1169.03   31.61
   2  -3  -5 1731.76   32.67
   2   3  -5 1778.41   31.65
   2  -3  -5 1793.02   36.86
   2  -3  -5 1777.93   38.13
   2   3  -5 1812.81   36.33
   2   3  -4  333.28   12.12
   2   3  -4  334.86   14.57
   2  -3  -4  324.81   14.82
   2  -3  -3 1852.91   29.96
   2  -3  -3 1839.49   33.44
   2  -3  -3 1859.25   33.63
   2   3  -3 1884.09   32.70
   2  -3  -2  172.98    9.55
   2  -3  -2  161.20    8.17
   2   3  -2  149.71    8.78
   2  -3  -1 1024.64   18.64
   2  -3  -1 1073.41   14.84
   2  -3  -1 1059.38   20.22
   2  -3   0 3412.28   36.92
   2  -3   0 3364.70   35.47
   2  -3   0 3313.06   30.93
   2  -3   0 3305.24   40.15
   2   3   0 3402.57   43.57
   2   3   0 3416.38   39.85
   2   3   0 3446.84   37.92
   2  -3   1 3172.47   31.65
   2  -3   1 3167.00   34.12
   2   3   1 3078.79   41.57
   2  -3   1 3157.30   39.33
   2   3   1 3121.58   37.23
   2  -3   2 1564.67   23.44
   2  -3   2 1521.57   24.42
   2  -3   2 1492.39   26.41
   2  -3   2 1501.07   25.60
   2   3   2 1475.91   29.57
   2   3   2 1415.64   26.27
   2  -3   3  287.62   12.87
   2  -3   3  277.89   12.38
   2  -3   3  281.48    9.95
   2   3   3  315.19   14.31
   2   3   3  310.67   13.00
   2  -3   4  720.78   22.46
   2  -3   4  707.55   21.96
   2   3   4  735.45   23.41
   2   3   4  723.02   21.07
   2  -3   5  180.22   12.42
   2  -3   5  192.64   12.83
   2   3   5  230.26   14.07
   2   3   5  226.35   12.67
   2  -3   6  823.17   28.83
   2  -3   6  847.38   29.36
   2   3   6  872.80   15.01
   2   3   6  811.16   13.21
   2   3   6  848.13   28.72
   2   3   6  854.30   14.17
   2   3   6  861.08   26.16
   2  -3   7 1702.46   44.30
   2  -3   7 1634.66   42.48
   2   3   7 1771.68   22.13
   2   3   7 1688.92   19.78
   2   3   7 1757.70   43.86
   2   3   7 1725.85   21.08
   2  -3   7 1650.83   41.77
   2  -3   8 1015.88   33.26
   2  -3   8 1014.57   34.46
   2   3   8 1062.62   16.66
   2   3   8 1071.27   15.76
   2  -3   9  228.23   16.06
   2  -3   9  241.14    7.76
   2   3   9  215.02    6.73
   2   3   9  211.19    7.50
   2   3   9  221.20    7.34
   2   3  10  153.47    4.91
   2  -3  10  141.90    5.37
   2   3  10  154.53    5.87
   2   3  10  154.27    5.27
   2  -3  11   73.82    3.10
   2  -3  11   71.12    3.43
   2  -3  11   75.24    3.47
   2  -4 -12   71.08    3.20
   2   4 -12   68.82    3.30
   2  -4 -12   76.36    3.47
   2  -4 -11  305.61    8.07
   2  -4 -11  309.28    7.89
   2  -4 -11  314.96    8.69
   2  -4 -11  298.26    7.22
   2  -4 -10   48.45    7.14
   2   4 -10   33.96    2.72
   2   4 -10   38.19    3.38
   2   4 -10   34.87    3.57
   2  -4 -10   50.23    3.81
   2  -4 -10   51.66    3.73
   2  -4 -10   54.17    4.11
   2   4  -9   24.93    2.48
   2   4  -9   25.76    2.85
   2   4  -9   24.55    2.87
   2  -4  -9   41.18    3.68
   2  -4  -9   44.97    7.22
   2   4  -9   26.81    2.90
   2  -4  -9   44.92    3.74
   2   4  -9   28.47    2.83
   2  -4  -9   39.30    3.75
   2  -4  -8  298.40   18.83
   2   4  -8  308.85    9.38
   2   4  -8  305.85    9.57
   2   4  -8  295.63    9.49
   2  -4  -8  291.45    9.78
   2   4  -8  289.86    9.32
   2  -4  -8  300.07    9.54
   2  -4  -7  505.93   23.79
   2   4  -7  545.45   11.76
   2   4  -7  510.15   12.18
   2  -4  -7  461.31   21.87
   2  -4  -7  496.19   24.74
   2   4  -7  520.58   12.05
   2  -4  -7  470.97   12.12
   2   4  -7  503.29   11.88
   2   4  -7  551.51   25.72
   2  -4  -7  493.61   11.80
   2  -4  -6  157.74   13.47
   2   4  -6  120.26   11.37
   2  -4  -6  157.90   12.02
   2  -4  -5  342.24   16.69
   2  -4  -5  349.64   18.77
   2  -4  -5  341.54   17.19
   2   4  -5  367.15   18.40
   2   4  -4  325.84   16.32
   2  -4  -4  353.66   16.64
   2   4  -3  692.80   22.48
   2  -4  -3  701.73   22.72
   2  -4  -3  730.55   20.23
   2  -4  -3  665.03   21.99
   2  -4  -2 1869.46   35.28
   2   4  -2 1892.20   35.28
   2  -4  -2 1873.02   30.63
   2  -4  -1 2520.30   32.85
   2  -4  -1 2579.78   35.84
   2  -4   0 4121.11   46.55
   2  -4   0 4052.49   44.37
   2  -4   0 4149.73   38.81
   2   4   0 4003.01   48.21
   2  -4   0 4102.63   50.43
   2   4   0 4035.62   47.09
   2  -4   1 2804.20   35.57
   2  -4   1 2658.65   35.09
   2  -4   1 2824.30   42.38
   2   4   1 2655.95   38.50
   2   4   1 2781.93   45.98
   2   4   1 2667.67   39.44
   2  -4   2  294.45   12.58
   2  -4   2  290.92   12.31
   2  -4   2  291.40   12.83
   2   4   2  276.87   12.18
   2   4   2  273.43   14.63
   2   4   2  274.02   13.21
   2  -4   3  553.61   18.46
   2  -4   3  545.39   19.35
   2  -4   3  557.37   19.08
   2   4   3  562.57   16.94
   2   4   3  600.14   22.26
   2   4   3  564.55   19.88
   2  -4   4  568.32   21.64
   2  -4   4  523.66   20.46
   2   4   4  537.24   22.14
   2   4   4  553.31   20.81
   2  -4   5   83.29    9.05
   2  -4   5   79.37    8.69
   2   4   5   92.18    4.55
   2   4   5  102.62   10.13
   2   4   5   96.01    4.82
   2  -4   5   90.04    8.59
   2   4   5   99.23    4.86
   2   4   5   91.77    8.98
   2  -4   6  118.22   11.51
   2  -4   6  124.01   11.70
   2   4   6  112.56    5.21
   2   4   6  124.26   11.61
   2   4   6  114.76    5.52
   2   4   6  113.48    5.34
   2   4   6  112.39   10.37
   2  -4   6  112.58   10.47
   2  -4   7  479.97   23.35
   2  -4   7  475.46   24.15
   2  -4   7  478.87   24.02
   2  -4   7  474.61   23.63
   2   4   7  459.85   10.59
   2   4   7  532.83   24.04
   2   4   7  456.66   11.30
   2   4   7  463.28   10.90
   2  -4   8   22.93    5.36
   2   4   8   28.99    2.63
   2   4   8   28.24    2.85
   2   4   8   28.99    2.69
   2   4   9  153.59    5.49
   2  -4   9  172.69    6.03
   2   4   9  157.11    6.22
   2   4  10   19.93    1.68
   2  -4  10   13.28    1.45
   2   4  10   21.27    2.05
   2  -4  10   13.30    1.57
   2  -4  11  466.85    7.45
   2   4  11  481.12    7.37
   2  -4  11  471.84    6.99
   2   5 -12  418.86    6.71
   2  -5 -12  402.83    6.46
   2  -5 -11  370.67    7.96
   2  -5 -11  374.41    8.30
   2  -5 -11  358.09    7.22
   2   5 -10  942.18   16.42
   2  -5 -10  947.18   15.24
   2  -5 -10  972.40   15.73
   2   5  -9  191.85    7.10
   2  -5  -9  185.73    7.16
   2   5  -9  196.53    7.59
   2  -5  -9  196.71    6.80
   2  -5  -9  195.42    7.78
   2   5  -8   97.90    5.08
   2   5  -8   94.24    5.42
   2  -5  -8   87.10    9.74
   2   5  -8   99.83    5.58
   2  -5  -8   88.84    5.20
   2   5  -8   93.50    5.38
   2  -5  -8   99.18    5.11
   2  -5  -7  245.76   16.36
   2   5  -7  248.69    7.88
   2   5  -7  249.86    8.91
   2  -5  -7  239.02   16.85
   2   5  -7  253.59    8.66
   2  -5  -7  258.91    9.00
   2   5  -7  270.60    8.15
   2   5  -7  244.75    8.58
   2   5  -7  258.17   18.82
   2   5  -6  107.22    5.18
   2   5  -6  109.66    5.71
   2   5  -6  116.73    5.70
   2  -5  -6  151.20   13.87
   2   5  -6  117.51    5.79
   2   5  -6  117.08   12.27
   2  -5  -6  164.43   13.61
   2   5  -6  120.20    5.62
   2   5  -5  524.18   11.72
   2  -5  -5  574.35   24.30
   2  -5  -5  566.53   25.84
   2  -5  -5  566.57   23.05
   2   5  -5  527.39   11.35
   2   5  -5  525.73   11.86
   2   5  -5  543.09   11.44
   2   5  -5  533.92   11.78
   2   5  -5  570.85   25.37
   2  -5  -4  441.58   20.30
   2  -5  -4  457.81   22.23
   2  -5  -4  452.92   20.03
   2   5  -4  518.51   22.95
   2  -5  -3   12.54    3.41
   2   5  -3   13.97    3.70
   2  -5  -2   93.64    8.91
   2  -5  -2  101.48    7.89
   2   5  -2  107.54    9.53
   2  -5  -1 2003.64   34.64
   2   5  -1 2029.47   39.60
   2  -5  -1 2054.81   40.55
   2  -5  -1 2078.23   32.93
   2  -5  -1 2036.44   36.11
   2  -5   0 1084.96   25.34
   2  -5   0 1089.86   27.08
   2   5   0 1108.73   28.42
   2  -5   0 1156.75   29.81
   2   5   0 1124.49   28.21
   2  -5   1 1473.62   32.83
   2  -5   1 1471.35   31.50
   2  -5   1 1486.57   28.70
   2  -5   1 1548.31   34.08
   2   5   1 1471.52   33.17
   2   5   1 1434.78   31.17
   2  -5   2  553.11   19.23
   2   5   2  525.62   18.27
   2   5   2  519.26   20.61
   2  -5   3   97.82    8.89
   2  -5   3   98.95    8.67
   2   5   3   76.78    8.87
   2   5   3   79.56    4.34
   2   5   3   81.08    4.23
   2   5   3   86.68    8.76
   2  -5   4  181.53   12.97
   2  -5   4  178.96   12.56
   2   5   4  151.62    5.91
   2   5   4  150.23    5.94
   2   5   4  158.91   13.02
   2   5   4  153.06    5.78
   2   5   4  160.74    6.36
   2   5   4  165.83   12.67
   2  -5   5 1266.07   36.64
   2  -5   5 1190.23   34.73
   2   5   5 1213.08   17.38
   2   5   5 1229.66   18.21
   2   5   5 1230.45   35.63
   2  -5   6   76.63    9.59
   2  -5   6   72.74    9.01
   2  -5   6   76.54    9.27
   2   5   6   59.31    3.91
   2   5   6   57.94    4.05
   2   5   7   93.58    4.83
   2   5   7   93.11    5.09
   2   5   8  320.17    8.33
   2   5   8  317.26    8.92
   2   5   9  469.26    8.88
   2  -5   9  456.52    8.08
   2   5   9  485.02    9.95
   2   5  10  140.73    4.03
   2   5  10  135.19    3.67
   2   5  10  144.95    4.47
   2   6 -11   52.06    2.17
   2  -6 -11   46.18    2.32
   2  -6 -11   47.40    2.32
   2  -6 -11   44.18    2.06
   2   6 -10  606.93   10.97
   2  -6 -10  611.31   10.59
   2  -6 -10  625.27   10.65
   2   6  -9  761.73   13.09
   2  -6  -9  640.44   11.25
   2   6  -9  743.05   13.87
   2  -6  -9  681.01   13.11
   2  -6  -9  709.58   13.18
   2   6  -8  165.18    6.90
   2  -6  -8  191.51    6.85
   2   6  -8  171.67    7.12
   2   6  -8  155.13    6.63
   2  -6  -8  201.14    7.57
   2   6  -7  347.95   10.54
   2  -6  -7  339.96   20.31
   2   6  -7  353.70    9.23
   2   6  -7  358.61   10.14
   2  -6  -7  365.19    9.96
   2   6  -7  343.58   10.19
   2   6  -7  355.64    9.24
   2  -6  -6  114.11   12.10
   2  -6  -6  111.50   12.21
   2   6  -6  110.64    5.97
   2   6  -6  114.49    5.49
   2   6  -6  111.68    5.62
   2   6  -6  112.18    5.76
   2   6  -6  112.27    5.59
   2   6  -5  284.53    9.15
   2   6  -5  283.32    9.26
   2  -6  -5  286.09   19.03
   2   6  -5  293.71    8.93
   2   6  -5  294.76    8.68
   2  -6  -5  284.95   18.86
   2   6  -5  298.36    9.12
   2   6  -5  312.59   20.29
   2   6  -4  275.62    9.05
   2   6  -4  271.82    7.85
   2  -6  -4  255.14   17.64
   2  -6  -4  255.59   15.40
   2   6  -4  258.20    8.54
   2   6  -4  264.32    7.81
   2   6  -4  263.42    8.25
   2   6  -4  265.94    7.98
   2  -6  -4  248.67   16.86
   2   6  -4  272.57   18.25
   2   6  -3  219.01    7.06
   2   6  -3  220.34    8.09
   2   6  -3  213.83    7.59
   2  -6  -3  215.27   15.81
   2  -6  -3  226.99   14.52
   2   6  -3  211.44    7.39
   2   6  -3  219.58    7.32
   2   6  -3  220.01    7.20
   2  -6  -3  220.76   15.44
   2   6  -3  237.92   16.30
   2   6  -2  640.22   25.66
   2   6  -2  604.33   11.74
   2   6  -2  645.91   13.42
   2  -6  -2  601.10   24.39
   2   6  -2  645.18   13.27
   2  -6  -2  599.51   23.86
   2   6  -2  632.57   12.51
   2   6  -2  578.83   11.84
   2   6  -2  622.70   12.39
   2   6  -1   71.31    8.28
   2   6  -1   50.13    3.40
   2   6  -1   48.34    3.64
   2  -6  -1   60.93    7.03
   2   6  -1   49.56    3.73
   2  -6  -1   63.00    7.86
   2   6  -1   46.40    3.34
   2   6  -1   47.74    3.54
   2  -6  -1   56.68    7.49
   2  -6   0 1265.06   29.94
   2   6   0 1346.14   34.53
   2   6   0 1263.36   17.04
   2   6   0 1286.65   18.47
   2  -6   0 1311.49   35.78
   2   6   0 1287.55   19.28
   2   6   0 1269.76   17.26
   2  -6   0 1259.40   32.63
   2   6   1  267.42   14.76
   2   6   1  250.69    7.66
   2   6   1  244.64    8.06
   2  -6   1  287.05   16.12
   2  -6   1  280.52   14.99
   2   6   1  254.01    8.75
   2   6   1  253.29    7.85
   2   6   1  244.96    7.56
   2   6   2 1197.60   16.76
   2   6   2 1238.95   17.81
   2  -6   2 1306.36   34.30
   2  -6   2 1340.50   31.89
   2   6   2 1267.45   19.95
   2   6   2 1232.41   17.47
   2  -6   2 1319.01   35.92
   2   6   2 1298.94   36.03
   2   6   3  434.71   10.14
   2  -6   3  391.79   20.44
   2  -6   3  399.38   20.15
   2  -6   3  395.02   18.81
   2   6   3  423.98   10.43
   2   6   3  460.19   12.41
   2   6   3  431.24   10.36
   2   6   3  460.98   22.08
   2   6   4  496.76   10.58
   2   6   4  467.99   10.42
   2  -6   4  462.48   22.57
   2  -6   4  461.74   21.57
   2  -6   4  447.94   20.35
   2   6   4  507.60   13.28
   2   6   4  465.80   11.04
   2   6   4  491.14   11.61
   2   6   4  483.44   23.24
   2  -6   5  331.01   19.58
   2  -6   5  323.54   18.82
   2  -6   5  338.58   18.42
   2  -6   5  319.04   18.10
   2   6   5  316.27   10.36
   2   6   5  307.03    8.94
   2   6   5  315.42    9.31
   2  -6   6   36.43    6.21
   2  -6   6   35.34    6.30
   2   6   6   43.86    3.76
   2   6   6   42.55    3.29
   2   6   6   53.21    3.76
   2   6   7  213.79    7.61
   2   6   7  214.11    6.96
   2   6   7  219.19    7.25
   2   6   8  156.12    5.68
   2   6   8  159.32    5.37
   2   6   8  157.31    5.58
   2   6   9  298.43    6.23
   2   6   9  314.34    6.21
   2   7 -10  248.22    4.87
   2   7 -10  288.21    5.54
   2  -7 -10  298.92    5.68
   2  -7 -10  262.48    4.84
   2  -7 -10  293.37    5.55
   2  -7  -9   80.27    3.76
   2  -7  -9   75.37    3.42
   2   7  -8  136.07    5.22
   2   7  -8  151.02    5.85
   2  -7  -8  149.06    5.51
   2   7  -7  714.83   14.14
   2  -7  -7  719.42   13.04
   2   7  -7  676.38   11.82
   2   7  -6   44.67    3.67
   2  -7  -6   50.34    8.02
   2   7  -6   47.19    3.70
   2   7  -6   40.93    3.06
   2   7  -6   40.20    3.16
   2   7  -6   43.31    3.37
   2   7  -5   10.42    1.83
   2  -7  -5   15.13    4.52
   2  -7  -5   13.48    4.27
   2   7  -5   10.35    1.76
   2   7  -5   10.09    1.78
   2   7  -5    8.77    1.44
   2   7  -5   11.90    1.94
   2   7  -4  160.44    7.09
   2  -7  -4  159.39   14.06
   2   7  -4  162.41    6.80
   2   7  -4  157.04    6.75
   2   7  -4  151.02    6.03
   2   7  -4  153.40    6.36
   2   7  -3  438.74   11.85
   2   7  -3  424.16   10.28
   2   7  -3  413.94   10.63
   2   7  -3  414.98   10.28
   2   7  -3  399.77    9.87
   2   7  -2   28.07    3.02
   2   7  -2   35.20    3.16
   2  -7  -2   29.84    5.98
   2   7  -2   28.00    2.95
   2   7  -2   29.32    2.77
   2   7  -2   32.01    3.02
   2   7  -2   35.46    6.63
   2  -7  -1 1210.23   37.10
   2   7  -1 1176.85   17.48
   2   7  -1 1176.33   18.91
   2   7  -1 1159.99   19.00
   2   7  -1 1117.18   16.33
   2   7  -1 1188.65   18.05
   2   7  -1 1224.37   36.68
   2  -7   0 1647.32   42.20
   2   7   0 1631.23   20.66
   2   7   0 1693.62   22.28
   2   7   0 1702.10   23.10
   2   7   0 1689.10   21.31
   2   7   1  394.84   10.15
   2   7   1  416.69   10.82
   2   7   1  428.18   11.78
   2   7   1  397.57   10.30
   2  -7   1  404.94   21.23
   2   7   2  138.05    5.99
   2  -7   2  158.40   13.49
   2   7   2  137.09    6.01
   2   7   2  139.85    6.81
   2   7   2  132.66    5.98
   2   7   3 1085.61   16.26
   2   7   3 1095.81   18.89
   2   7   3 1077.48   17.08
   2   7   3 1073.55   16.58
   2   7   3 1053.75   16.03
   2   7   4  125.38    5.34
   2   7   4  124.15    6.32
   2   7   4  119.47    5.57
   2   7   4  113.72    4.93
   2   7   4  117.56    5.40
   2   7   5   13.74    2.09
   2   7   5   18.92    2.23
   2   7   6  137.42    5.85
   2   7   6  142.14    5.56
   2   7   7  303.57    7.59
   2   7   7  303.95    7.30
   2   7   7  304.13    6.78
   2   7   8  140.32    4.15
   2   7   8  139.26    3.58
   2   8  -9  252.68    4.65
   2  -8  -9  229.00    4.31
   2   8  -8  407.11    7.67
   2  -8  -8  385.93    7.17
   2   8  -7   10.32    1.49
   2   8  -7   10.99    1.25
   2  -8  -7    7.15    1.02
   2   8  -6  101.45    4.88
   2   8  -6  104.10    4.40
   2   8  -6   98.04    4.38
   2   8  -5  447.23   10.52
   2   8  -5  445.15    9.86
   2   8  -5  447.58   10.43
   2   8  -4  274.92    8.29
   2  -8  -4  257.01   16.54
   2   8  -4  279.43    8.31
   2   8  -4  290.38    8.98
   2  -8  -3    6.16    2.53
   2  -8  -3    2.73    1.93
   2   8  -3    3.52    1.11
   2   8  -3    2.98    0.97
   2   8  -2  712.88   14.51
   2   8  -2  712.37   13.20
   2   8  -2  692.51   12.51
   2  -8  -2  714.08   26.99
   2   8  -1  459.44   11.51
   2   8  -1  456.55   10.79
   2   8  -1  466.53   11.63
   2   8   0  434.39   10.91
   2   8   0  425.04   10.35
   2   8   0  435.80   10.74
   2   8   0  434.69   11.38
   2   8   1  538.12   11.52
   2   8   1  519.31   11.60
   2   8   1  520.79   11.61
   2   8   1  533.00   12.59
   2   8   2   84.16    4.65
   2   8   2   61.32    3.81
   2   8   2   70.73    4.57
   2   8   2   75.51    4.36
   2   8   3  447.78    9.79
   2   8   3  425.76   10.81
   2   8   3  437.77   10.07
   2   8   4   55.37    3.74
   2   8   4   52.27    3.31
   2   8   5   64.67    3.67
   2   8   5   63.80    3.36
   2   8   6   34.73    2.16
   2   8   6   34.52    2.35
   2   8   7   18.05    1.34
   2   9  -6  215.62    4.67
   2   9  -6  224.97    4.84
   2   9  -5  178.30    5.22
   2   9  -5  188.02    5.06
   2   9  -5  187.08    5.30
   2   9  -4  372.49    7.71
   2   9  -4  383.43    7.98
   2   9  -4  384.32    8.50
   2   9  -3   79.91    3.57
   2   9  -3   92.02    4.23
   2   9  -3   88.06    4.38
   2   9  -2  393.05    9.11
   2   9  -2  400.70    9.48
   2   9  -1  226.85    7.10
   2   9   0  757.12   12.58
   2   9   1   15.58    1.75
   2   9   1   17.02    1.96
   2   9   2  486.93    8.75
   2   9   2  496.14    9.52
   2   9   2  489.69    9.88
   2   9   3   88.38    3.98
   2   9   3   93.22    3.85
   2   9   3   86.98    3.19
   2   9   4   83.02    3.28
   2   9   4   78.62    3.41
   2   9   5  203.61    4.56
   2  10  -3   16.11    1.19
   2  10  -3   16.88    1.35
   2  10  -2  460.84    6.85
   2  10  -2  470.37    7.33
   2  10  -1    6.90    0.93
   2  10  -1    8.52    1.06
   2  10   0   61.31    2.64
   2  10   0   55.29    2.39
   2  10   1  171.24    4.25
   2  10   2   26.46    1.54
   3   0 -14   14.57    1.10
   3   0 -13  344.95    7.52
   3   0 -13  338.14    7.17
   3   0 -12    2.39    1.96
   3   0 -12    0.91    0.75
   3   0 -12    2.08    0.89
   3   0 -11  672.32   28.50
   3   0 -11  714.19   14.82
   3   0 -11  704.05   14.40
   3   0 -10   12.11    4.12
   3   0 -10   13.64    2.28
   3   0 -10   13.21    2.18
   3   0  -9 1061.38   18.44
   3   0  -9 1093.78   18.22
   3   0  -8   10.71    3.48
   3   0  -7 4215.67   60.81
   3   0  -6    8.14    2.51
   3   0  -6   12.22    2.13
   3   0  -5 8050.69   53.82
   3   0  -5 8028.79   51.31
   3   0  -4    3.98    1.13
   3   0  -4    6.16    1.79
   3   0  -4    5.80    1.42
   3   0  -4    5.69    1.47
   3   0  -3 4203.11   36.51
   3   0  -2    2.04    0.98
   3   0  -2    3.05    1.25
   3   0  -1 1824.05   21.47
   3   0  -1 1820.62   23.69
   3   0   0    0.88    0.78
   3   0   0    3.14    1.04
   3   0   0    1.55    1.03
   3   0   1  655.25   15.65
   3   0   1  641.70   15.91
   3   0   2    3.70    1.09
   3   0   2    2.83    1.33
   3   0   2    4.01    1.30
   3   0   2    2.53    1.18
   3   0   3  495.74   15.59
   3   0   3  518.18   12.66
   3   0   3  505.43   14.50
   3   0   3  525.67   16.53
   3   0   4    2.39    1.23
   3   0   4    2.59    1.54
   3   0   5  526.09   19.83
   3   0   6    1.31    1.17
   3   0   6    3.52    0.94
   3   0   7  173.97   12.93
   3   0   7  153.84    6.19
   3   0   7  156.32    6.34
   3   0   8    3.86    1.16
   3   0   8    3.53    1.03
   3   0   8    3.52    1.08
   3   0   9 1008.01   16.83
   3   0   9 1008.21   15.85
   3   0   9 1000.04   33.88
   3   0   9 1007.39   16.28
   3   0  10    2.03    0.85
   3   0  10    1.39    0.77
   3   0  11   22.50    1.74
   3   0  11   22.96    1.60
   3   0  11   24.36    1.99
   3  -1 -14   25.27    1.42
   3   1 -13  201.90    5.43
   3   1 -13  207.93    5.84
   3   1 -12  208.26   14.42
   3  -1 -12  216.75   14.84
   3  -1 -12  226.21    7.47
   3   1 -12  230.38    7.64
   3  -1 -12  225.08    6.87
   3   1 -12  218.04    6.91
   3  -1 -12  231.79    7.64
   3  -1 -12  219.83    6.24
   3   1 -11  438.73   22.64
   3  -1 -11  371.63   21.12
   3   1 -11  444.87   11.81
   3  -1 -11  400.93   10.58
   3   1 -11  443.49   10.52
   3   1 -11  445.30   11.14
   3  -1 -11  392.72   10.86
   3   1 -11  449.25   11.03
   3  -1 -11  378.24    9.45
   3   1 -10  280.62   18.57
   3   1 -10  296.16    9.93
   3  -1 -10  318.95    9.98
   3   1 -10  304.88    9.28
   3  -1 -10  316.22   20.00
   3   1 -10  289.92    9.28
   3  -1 -10  307.51   10.04
   3  -1 -10  304.03    8.98
   3  -1  -9  679.56   28.79
   3   1  -9  673.54   14.81
   3  -1  -9  710.49   14.86
   3   1  -9  671.32   13.91
   3  -1  -9  701.89   14.36
   3   1  -9  670.88   13.84
   3  -1  -9  705.81   14.92
   3  -1  -9  677.54   13.38
   3  -1  -8  328.64   18.86
   3   1  -8  353.68   10.15
   3   1  -8  356.70   19.02
   3  -1  -8  331.55    9.43
   3  -1  -8  333.70    9.69
   3  -1  -7  560.00   22.93
   3   1  -7  476.43   20.29
   3   1  -6  402.54   14.07
   3  -1  -6  444.00   18.63
   3  -1  -6  421.89   15.78
   3   1  -6  382.04   16.45
   3   1  -5 3420.81   44.26
   3   1  -5 3389.82   39.91
   3  -1  -5 3291.78   45.02
   3   1  -4 1100.03   22.36
   3  -1  -4 1067.04   20.84
   3  -1  -4 1039.13   23.56
   3   1  -4 1095.60   21.77
   3  -1  -4 1126.13   14.44
   3  -1  -3   46.08    4.64
   3  -1  -3   43.40    4.58
   3  -1  -3   47.07    4.32
   3   1  -3   43.29    3.42
   3   1  -3   44.73    4.41
   3  -1  -2 2061.52   28.39
   3  -1  -2 2084.86   28.49
   3   1  -2 1983.52   23.88
   3  -1  -2 1982.53   27.76
   3   1  -1 1879.63   24.33
   3   1  -1 1901.83   23.83
   3  -1  -1 1982.03   23.70
   3  -1  -1 1958.51   28.31
   3   1  -1 1858.82   25.06
   3  -1  -1 1961.31   25.67
   3  -1   0 6483.19   47.94
   3   1   0 6380.48   47.84
   3   1   0 6467.18   40.80
   3   1   0 6267.27   29.15
   3  -1   0 6321.19   45.30
   3   1   0 6386.80   47.22
   3   1   1 3870.55   39.83
   3  -1   1 3811.38   35.96
   3  -1   1 3916.91   38.13
   3  -1   1 3836.50   40.40
   3   1   1 3830.15   29.44
   3   1   1 3771.53   38.42
   3  -1   1 3901.41   38.42
   3  -1   2  367.15   12.73
   3  -1   2  373.62   12.44
   3  -1   2  378.24   11.77
   3  -1   2  366.72   12.89
   3   1   2  382.29   13.48
   3   1   2  374.18   13.19
   3  -1   3 2334.48   31.16
   3  -1   3 2332.89   33.32
   3   1   3 2392.45   35.79
   3  -1   3 2285.03   35.33
   3  -1   3 2280.21   32.91
   3  -1   4  115.27    7.77
   3  -1   4  111.72    7.86
   3   1   4  105.83    8.27
   3  -1   4  117.63    7.57
   3  -1   4  111.43    8.56
   3  -1   5 2191.32   34.80
   3  -1   5 2186.91   37.55
   3   1   5 2226.94   40.62
   3  -1   5 2229.81   41.90
   3  -1   6  766.48   23.63
   3  -1   6  740.41   26.07
   3   1   6  777.64   13.99
   3   1   6  742.78   13.05
   3  -1   6  746.37   12.65
   3   1   6  777.26   13.50
   3   1   6  772.44   25.56
   3  -1   7  178.70   13.48
   3   1   7  164.92    6.84
   3   1   7  162.34    6.46
   3  -1   7  175.15    6.52
   3  -1   7  186.43    6.33
   3   1   7  166.96   13.58
   3   1   7  162.02    6.53
   3  -1   8  896.75   30.82
   3   1   8  837.54   15.69
   3   1   8  807.64   14.76
   3  -1   8  881.77   14.92
   3   1   8  816.01   31.04
   3   1   8  809.37   14.92
   3  -1   8  877.45   15.33
   3   1   9  257.34    8.42
   3  -1   9  245.72    8.35
   3  -1   9  246.32    7.64
   3   1   9  262.04    8.28
   3  -1   9  249.68    8.02
   3   1  10  149.02    5.53
   3  -1  10  145.77    5.84
   3   1  10  151.66    5.35
   3   1  10  148.84    5.63
   3  -1  10  151.64    5.73
   3  -1  11   65.19    2.66
   3  -1  11   64.99    3.01
   3   1  11   76.32    3.05
   3   1  11   81.70    3.39
   3  -1  11   66.99    3.19
   3   2 -13    6.53    0.89
   3  -2 -13    5.47    1.01
   3   2 -12  781.00   26.49
   3  -2 -12  698.92   25.61
   3   2 -12  795.85   13.84
   3   2 -12  751.58   11.77
   3   2 -12  761.44   12.18
   3  -2 -12  758.26   13.26
   3  -2 -12  731.88   11.76
   3   2 -11  248.89   16.53
   3  -2 -11  211.24   15.65
   3   2 -11  247.87    7.68
   3   2 -11  244.59    8.62
   3   2 -11  230.32    7.68
   3  -2 -11  204.90    6.50
   3  -2 -11  206.34    7.83
   3  -2 -11  210.23    7.26
   3   2 -10  683.39   28.27
   3   2 -10  699.10   13.71
   3   2 -10  704.88   15.31
   3  -2 -10  791.78   14.68
   3   2 -10  698.56   14.56
   3  -2 -10  737.98   30.56
   3  -2 -10  711.70   14.97
   3  -2 -10  727.69   13.27
   3  -2 -10  771.58   15.92
   3  -2 -10  732.01   14.46
   3   2  -9  638.86   26.86
   3   2  -9  626.69   12.88
   3   2  -9  652.95   14.43
   3  -2  -9  663.36   13.86
   3  -2  -9  629.41   27.92
   3   2  -9  626.52   13.91
   3  -2  -9  609.99   13.72
   3   2  -9  667.26   13.75
   3  -2  -9  610.70   12.52
   3   2  -9  640.36   13.09
   3  -2  -9  617.15   14.17
   3  -2  -9  613.91   13.35
   3   2  -8  130.97   11.63
   3  -2  -8  150.72   13.10
   3   2  -8  127.36    6.10
   3   2  -8  120.84    5.86
   3  -2  -8  143.55    6.36
   3   2  -8  121.27    5.48
   3  -2  -8  150.04    6.68
   3   2  -7  758.19   25.34
   3  -2  -7  809.73   28.34
   3  -2  -7  816.57   25.98
   3   2  -7  785.94   23.89
   3   2  -6  615.29   20.69
   3   2  -6  598.61   20.14
   3  -2  -6  552.73   20.11
   3   2  -5  857.68   23.34
   3  -2  -5  848.80   23.03
   3  -2  -5  839.70   24.40
   3   2  -5  853.77   21.30
   3  -2  -4   50.73    5.33
   3   2  -4   56.25    5.78
   3  -2  -4   56.82    5.98
   3   2  -4   56.87    4.85
   3  -2  -3  400.37   13.94
   3  -2  -3  399.97   15.04
   3  -2  -3  412.46   14.58
   3  -2  -3  423.69   15.42
   3   2  -3  421.38    9.56
   3   2  -3  410.33   14.81
   3   2  -2 2023.04   23.71
   3  -2  -2 2149.45   32.11
   3  -2  -2 2131.13   30.46
   3  -2  -2 2092.79   31.42
   3   2  -2 2038.53   32.77
   3  -2  -1  732.50   18.78
   3  -2  -1  766.78   17.59
   3  -2  -1  719.14   16.71
   3   2  -1  742.06   18.83
   3  -2  -1  727.48   14.31
   3   2   0 6196.80   49.14
   3  -2   0 6337.27   50.47
   3  -2   0 6367.15   50.54
   3  -2   0 6346.14   46.28
   3   2   0 6068.10   53.94
   3  -2   0 6123.98   57.08
   3  -2   1 2178.84   30.43
   3  -2   1 2165.44   30.81
   3  -2   1 2163.60   29.63
   3  -2   1 2111.52   26.60
   3  -2   1 2153.41   29.72
   3   2   1 2149.01   33.12
   3  -2   2  709.73   18.47
   3  -2   2  718.51   18.36
   3  -2   2  699.66   18.83
   3  -2   2  710.78   17.56
   3  -2   2  715.07   18.75
   3  -2   2  710.89   18.85
   3   2   2  723.47   20.17
   3   2   2  764.72   18.66
   3  -2   3   73.53    6.49
   3  -2   3   69.38    6.59
   3  -2   3   68.58    6.40
   3  -2   3   73.17    6.02
   3   2   3   55.27    6.06
   3   2   3   58.26    5.40
   3  -2   4  609.99   20.04
   3  -2   4  602.43   21.08
   3  -2   4  597.12   20.65
   3   2   4  679.64   22.81
   3   2   4  676.94   19.52
   3  -2   4  618.12   17.78
   3  -2   5  369.91   16.89
   3  -2   5  364.01   17.66
   3   2   5  331.78   17.30
   3  -2   6 1806.94   39.70
   3  -2   6 1726.99   41.23
   3   2   6 1760.35   21.74
   3   2   6 1722.06   42.34
   3   2   6 1742.42   20.74
   3  -2   7 1144.53   35.15
   3   2   7 1178.86   18.54
   3  -2   7 1170.86   16.63
   3   2   7 1177.02   36.65
   3   2   7 1162.60   17.72
   3  -2   8 1041.85   33.97
   3   2   8 1043.20   17.43
   3  -2   8 1037.52   15.76
   3   2   8 1074.38   35.71
   3   2   8 1033.36   16.75
   3   2   9  106.88    5.21
   3  -2   9  110.00    4.89
   3   2   9  107.99    5.07
   3   2   9  109.68    5.23
   3  -2   9  108.69    5.16
   3  -2  10  192.70    6.55
   3  -2  10  196.51    5.69
   3   2  10  179.52    5.79
   3   2  10  179.14    5.89
   3  -2  10  194.17    6.24
   3  -2  11  126.42    4.07
   3   2  11  125.40    3.80
   3   2  11  123.98    3.61
   3  -2  11  135.44    4.20
   3   3 -13  230.34    4.53
   3  -3 -13  259.12    5.65
   3   3 -12  251.26    7.25
   3   3 -12  224.43    5.53
   3   3 -12  240.11    6.80
   3  -3 -12  214.05    6.45
   3  -3 -12  217.51    6.29
   3  -3 -11  517.52   23.30
   3   3 -11  539.02   12.24
   3   3 -11  514.33   11.41
   3  -3 -11  542.09   10.68
   3  -3 -11  571.36   12.30
   3  -3 -11  548.38   11.70
   3   3 -10  652.55   26.48
   3  -3 -10  665.26   28.39
   3   3 -10  667.04   12.32
   3   3 -10  689.54   14.71
   3   3 -10  646.78   14.21
   3  -3 -10  646.14   14.08
   3   3 -10  673.62   13.54
   3  -3 -10  657.14   13.08
   3  -3 -10  676.42   14.56
   3  -3 -10  643.80   13.79
   3  -3  -9  304.59   19.46
   3   3  -9  323.38   18.67
   3   3  -9  334.08   10.38
   3   3  -9  319.84   10.19
   3  -3  -9  306.43    9.92
   3   3  -9  324.15   10.02
   3  -3  -9  318.12   10.16
   3   3  -8  412.29   20.12
   3  -3  -8  447.96   22.98
   3   3  -8  451.14   11.39
   3   3  -8  421.30   11.27
   3  -3  -8  460.93   11.81
   3  -3  -8  457.91   11.99
   3   3  -7   47.28    6.39
   3  -3  -7   47.56    7.31
   3  -3  -7   37.00    6.21
   3   3  -7   63.04    4.14
   3  -3  -7   36.31    3.25
   3   3  -7   46.92    6.68
   3   3  -6  411.40   19.04
   3  -3  -6  409.60   16.57
   3   3  -6  398.80   16.49
   3  -3  -6  394.93   18.85
   3  -3  -6  415.79   19.37
   3   3  -5 1129.40   24.51
   3   3  -5 1127.99   30.30
   3  -3  -5 1128.87   30.15
   3  -3  -5 1172.74   30.43
   3  -3  -4  691.49   22.20
   3  -3  -4  693.60   20.71
   3  -3  -3 1675.98   33.95
   3  -3  -3 1703.67   31.20
   3   3  -3 1760.44   34.60
   3  -3  -2  259.23   12.61
   3  -3  -2  246.68   11.33
   3   3  -2  263.75   13.28
   3  -3  -2  259.29   12.45
   3  -3  -1 1480.90   21.33
   3   3  -1 1463.11   30.34
   3  -3  -1 1445.22   29.07
   3  -3  -1 1453.94   27.18
   3  -3  -1 1460.21   25.74
   3  -3   0  309.29   12.52
   3  -3   0  300.33   12.20
   3  -3   0  317.19   10.91
   3  -3   0  305.74   10.83
   3   3   0  322.30   14.41
   3  -3   0  313.07   13.94
   3   3   0  343.44   14.70
   3  -3   1 1612.93   29.67
   3  -3   1 1655.11   29.69
   3  -3   1 1609.19   27.21
   3  -3   1 1644.68   24.68
   3  -3   1 1583.10   27.22
   3   3   1 1565.01   32.39
   3  -3   2 1602.66   31.30
   3  -3   2 1596.75   30.93
   3  -3   2 1615.97   30.25
   3  -3   2 1612.81   27.80
   3  -3   2 1564.15   29.52
   3  -3   2 1581.97   29.73
   3   3   2 1588.79   33.69
   3   3   2 1572.84   30.32
   3  -3   3  707.32   22.24
   3  -3   3  708.07   22.04
   3  -3   3  707.92   20.70
   3  -3   3  709.04   21.83
   3  -3   3  723.76   19.44
   3   3   3  706.82   23.66
   3   3   3  723.74   21.51
   3  -3   4  444.69   18.76
   3  -3   4  461.07   19.44
   3  -3   4  451.82   18.47
   3  -3   4  449.52   18.98
   3   3   4  440.44   19.93
   3   3   4  463.15   18.17
   3  -3   5  435.49   19.37
   3  -3   5  432.94   19.71
   3  -3   5  421.75   20.16
   3   3   5  429.91    9.16
   3   3   5  445.18   10.89
   3  -3   5  409.79   19.59
   3   3   5  440.17   21.11
   3   3   5  430.01    9.98
   3   3   5  437.54   10.32
   3   3   5  455.00   18.92
   3  -3   6  263.20   15.89
   3  -3   6  281.10   16.83
   3  -3   6  262.08   16.71
   3   3   6  329.39    8.27
   3   3   6  322.35    9.67
   3   3   6  316.32   18.88
   3   3   6  301.05    8.82
   3   3   6  317.52    9.11
   3  -3   7  144.23   12.43
   3  -3   7  133.31   12.41
   3   3   7  150.27    5.61
   3   3   7  153.31    6.78
   3  -3   7  140.74    5.62
   3   3   7  146.95   13.23
   3   3   7  142.97    6.23
   3   3   7  151.18    6.42
   3  -3   8  257.23   17.12
   3  -3   8  263.66    7.57
   3   3   8  257.63   17.46
   3   3   8  240.18    7.92
   3   3   8  247.56    8.04
   3  -3   9  154.56    5.32
   3   3   9  158.27    5.99
   3   3   9  158.87    5.95
   3  -3   9  151.96    5.74
   3  -3  10  144.96    5.34
   3  -3  10  151.84    4.30
   3   3  10  141.49    4.94
   3   3  10  141.91    4.59
   3  -3  11   38.80    2.04
   3   3  11   35.80    1.84
   3  -3  11   39.88    1.89
   3  -4 -12  313.96    6.56
   3  -4 -12  323.90    7.04
   3   4 -11  507.78   10.77
   3   4 -11  504.48   11.29
   3  -4 -11  512.82   10.09
   3  -4 -11  523.56   10.49
   3  -4 -11  510.37   10.80
   3  -4 -11  501.39    9.06
   3   4 -10   61.20    4.17
   3  -4 -10   49.56    7.37
   3   4 -10   62.44    4.32
   3  -4 -10   50.28    3.81
   3   4 -10   59.09    4.00
   3  -4 -10   50.40    3.65
   3  -4 -10   56.23    3.96
   3  -4 -10   50.18    3.85
   3  -4  -9  462.93   23.33
   3   4  -9  431.85   11.26
   3   4  -9  444.55   10.55
   3   4  -9  425.64   11.78
   3  -4  -9  458.08   11.94
   3   4  -9  416.14   11.47
   3  -4  -9  487.72   12.13
   3  -4  -8   53.45    8.02
   3   4  -8   79.42    4.76
   3   4  -8   74.14    4.61
   3   4  -8   75.75    4.90
   3  -4  -8   55.25    4.28
   3   4  -8   75.56    4.89
   3  -4  -8   54.17    4.13
   3  -4  -7  102.46   10.87
   3   4  -7  122.68    5.57
   3  -4  -7  106.65   11.14
   3   4  -7  116.90    5.78
   3   4  -7  118.98    5.94
   3  -4  -7  112.92    5.76
   3   4  -7  106.61   11.06
   3   4  -7  121.03   10.10
   3  -4  -6 1984.54   45.60
   3  -4  -6 1980.92   44.37
   3   4  -6 1926.57   22.72
   3   4  -6 2003.84   22.75
   3  -4  -6 2099.15   42.63
   3   4  -6 2090.78   47.50
   3   4  -5 1055.23   32.85
   3  -4  -5  972.84   30.58
   3  -4  -5 1002.68   30.03
   3   4  -4  923.88   28.94
   3  -4  -4  940.55   25.36
   3  -4  -4  954.47   28.14
   3  -4  -3  348.57   15.30
   3  -4  -3  353.27   17.22
   3  -4  -2 2269.87   41.05
   3  -4  -2 2230.67   41.34
   3   4  -2 2311.64   42.69
   3  -4  -2 2220.15   37.24
   3  -4  -1  849.32   22.86
   3  -4  -1  820.66   21.27
   3   4  -1  811.60   24.78
   3  -4  -1  841.84   24.74
   3  -4   0  570.02   19.00
   3  -4   0  553.35   18.26
   3  -4   0  575.94   15.78
   3  -4   0  571.32   16.08
   3  -4   0  534.10   20.15
   3   4   0  507.61   19.35
   3  -4   1  361.82   15.83
   3  -4   1  364.24   15.40
   3  -4   1  358.28   13.91
   3  -4   1  357.31   13.90
   3   4   1  391.07   16.75
   3   4   1  385.54   18.37
   3  -4   2 1103.77   28.71
   3  -4   2 1122.63   28.51
   3  -4   2 1072.40   26.56
   3  -4   2 1100.24   24.63
   3  -4   2 1097.76   26.57
   3   4   2 1075.26   31.12
   3   4   2 1085.05   27.62
   3   4   2 1089.06   28.32
   3  -4   3  146.31   10.99
   3  -4   3  143.56   10.91
   3  -4   3  143.36   10.64
   3  -4   3  134.78    9.68
   3  -4   3  145.27   10.55
   3   4   3  175.23   11.05
   3   4   3  172.34   13.01
   3   4   3  175.34   11.85
   3  -4   4 1640.45   39.02
   3  -4   4 1578.77   38.11
   3  -4   4 1570.07   37.98
   3  -4   4 1569.06   35.85
   3  -4   4 1582.01   37.66
   3   4   4 1423.65   17.18
   3   4   4 1536.50   40.17
   3   4   4 1510.07   18.99
   3   4   4 1484.39   19.13
   3   4   4 1524.40   36.50
   3  -4   5  266.34   16.50
   3  -4   5  288.38   17.22
   3  -4   5  282.78   17.26
   3  -4   5  275.35   16.32
   3  -4   5  273.52   16.80
   3   4   5  291.00    8.02
   3   4   5  302.63   18.56
   3   4   5  309.27    8.96
   3   4   5  295.94    8.84
   3   4   5  293.00   16.68
   3  -4   6   37.93    6.58
   3  -4   6   36.99    6.65
   3  -4   6   35.17    6.28
   3   4   6   39.46    3.03
   3   4   6   39.49    6.94
   3   4   6   40.54    3.40
   3   4   6   39.53    3.30
   3  -4   7  644.29   27.20
   3   4   7  646.54   11.77
   3   4   7  660.42   13.42
   3   4   7  672.47   13.21
   3   4   8   36.45    2.61
   3   4   8   39.65    3.19
   3   4   8   38.62    2.99
   3   4   9   27.37    2.42
   3   4   9   27.22    2.16
   3  -4   9   22.81    1.97
   3  -4  10  197.05    5.43
   3   4  10  202.55    5.28
   3  -4  10  197.13    4.67
   3  -5 -12   45.33    2.04
   3  -5 -12   56.74    2.49
   3   5 -11   82.53    4.06
   3  -5 -11   86.87    3.78
   3  -5 -11   77.54    3.23
   3  -5 -11   85.60    3.95
   3  -5 -11   82.46    3.40
   3   5 -10  137.09    4.97
   3  -5 -10  125.93    5.40
   3   5 -10  147.01    5.93
   3  -5 -10  128.03    5.43
   3  -5 -10  127.41    5.12
   3  -5 -10  134.96    5.81
   3   5  -9  312.08    8.79
   3   5  -9  337.04    9.14
   3   5  -9  331.61   10.12
   3  -5  -9  286.28    8.91
   3   5  -9  342.25   10.09
   3  -5  -9  300.50    8.72
   3  -5  -9  292.41    9.29
   3  -5  -9  290.86   17.18
   3  -5  -8  215.66   15.37
   3   5  -8  252.72    8.01
   3   5  -8  242.20    8.41
   3   5  -8  242.33    8.77
   3  -5  -8  219.94    8.14
   3   5  -8  251.36    8.95
   3  -5  -8  224.34    7.83
   3  -5  -7  184.84   14.41
   3  -5  -7  178.18   14.83
   3   5  -7  187.67    7.61
   3   5  -7  187.86    7.56
   3   5  -7  189.37    7.74
   3   5  -7  194.19   15.97
   3  -5  -7  200.94    7.52
   3  -5  -6  475.78   22.37
   3  -5  -6  461.00   23.54
   3  -5  -6  461.22   21.97
   3   5  -6  450.00   11.75
   3   5  -6  464.81   11.36
   3   5  -6  449.18   11.48
   3   5  -6  468.35   24.46
   3   5  -5  320.58    8.91
   3  -5  -5  341.44   19.01
   3  -5  -5  342.57   19.75
   3  -5  -5  348.75   18.66
   3   5  -5  332.59    9.66
   3   5  -5  328.52    9.01
   3   5  -5  327.84    9.48
   3   5  -5  318.31    9.34
   3   5  -5  353.86   20.70
   3  -5  -4 1921.19   42.77
   3   5  -4 1863.89   21.50
   3  -5  -3  392.41   19.34
   3   5  -3  379.45   19.70
   3  -5  -3  421.53   20.30
   3  -5  -3  405.15   17.57
   3  -5  -3  389.35   19.13
   3  -5  -2 1012.65   30.79
   3   5  -2 1022.37   31.08
   3  -5  -2  978.92   26.94
   3  -5  -2  960.53   29.33
   3  -5  -1 2071.57   40.27
   3  -5  -1 2059.23   43.38
   3  -5  -1 2051.67   36.91
   3  -5  -1 2032.86   38.58
   3   5  -1 2053.97   43.04
   3  -5  -1 2103.52   43.13
   3  -5   0 1753.06   37.21
   3  -5   0 1718.95   34.95
   3   5   0 1714.73   38.45
   3  -5   0 1819.29   40.16
   3  -5   1  372.17   17.99
   3  -5   1  360.62   16.88
   3  -5   1  387.67   15.49
   3  -5   1  378.49   15.37
   3   5   1  339.93   16.73
   3   5   2  493.55   10.21
   3  -5   2  510.08   21.61
   3  -5   2  513.92   21.09
   3  -5   2  516.51   19.54
   3  -5   2  490.79   18.93
   3   5   2  561.77   20.97
   3   5   2  483.88   10.29
   3   5   2  530.65   24.03
   3   5   2  512.73   11.16
   3   5   2  527.27   11.66
   3  -5   3  647.68   25.34
   3  -5   3  646.75   25.09
   3  -5   3  638.45   23.71
   3  -5   3  665.90   22.17
   3  -5   3  661.56   23.64
   3   5   3  681.53   12.44
   3   5   3  741.44   29.12
   3   5   3  726.23   13.63
   3   5   3  710.12   13.72
   3   5   3  738.76   26.83
   3  -5   4  166.64   13.41
   3  -5   4  157.77   12.95
   3  -5   4  164.65   12.77
   3  -5   4  173.34   12.22
   3  -5   4  157.92   12.35
   3   5   4  171.09    6.38
   3   5   4  185.52   14.83
   3   5   4  169.71    6.82
   3   5   4  171.33    6.85
   3  -5   5   12.15    3.82
   3  -5   5    9.04    3.46
   3  -5   5   10.77    3.52
   3   5   5   11.77    1.78
   3   5   5   10.35    3.71
   3   5   5   13.05    1.96
   3   5   5   13.12    1.93
   3  -5   6  316.77   18.72
   3   5   6  305.74    8.42
   3   5   6  347.61   20.24
   3   5   6  320.37    9.39
   3   5   6  324.01    9.13
   3   5   7  504.22   10.17
   3   5   7  518.04   11.53
   3   5   7  516.85   10.80
   3   5   8  196.78    5.65
   3   5   8  205.15    6.66
   3  -5   8  197.03    5.37
   3   5   9  203.24    5.78
   3   5   9  194.10    4.37
   3   5   9  200.71    5.65
   3  -6 -11  200.84    4.68
   3  -6 -11  194.72    4.77
   3  -6 -11  190.03    4.18
   3  -6 -10  100.57    4.24
   3  -6 -10   93.96    4.17
   3   6  -9  249.47    7.31
   3  -6  -9  207.40    6.65
   3   6  -9  251.80    8.04
   3  -6  -9  216.78    7.21
   3   6  -8   17.25    2.28
   3   6  -8   13.54    2.09
   3  -6  -8   14.57    2.02
   3   6  -8   13.85    2.13
   3  -6  -7  738.87   29.07
   3  -6  -7  751.57   30.37
   3   6  -7  757.01   15.26
   3   6  -7  772.09   14.87
   3   6  -7  756.17   15.17
   3  -6  -6   88.64   10.57
   3   6  -6   82.92    4.36
   3   6  -6   82.02    5.24
   3   6  -6   76.78    4.65
   3   6  -6   81.26    5.00
   3   6  -6   83.25    4.60
   3   6  -5  225.22    7.85
   3  -6  -5  202.57   15.82
   3  -6  -5  222.49   16.55
   3  -6  -5  219.66   14.90
   3   6  -5  235.56    7.56
   3   6  -5  219.93    8.31
   3   6  -5  216.78    7.44
   3   6  -5  220.56    7.92
   3   6  -5  242.00   18.16
   3  -6  -4  254.83   17.51
   3   6  -4  236.96    8.17
   3  -6  -4  254.47   17.37
   3  -6  -4  230.31   16.61
   3  -6  -4  250.61   15.95
   3   6  -4  236.58    8.39
   3   6  -4  238.84    7.95
   3   6  -4  248.25   17.94
   3   6  -3  278.83   18.43
   3   6  -3  275.53    8.16
   3   6  -3  260.65    8.74
   3   6  -3  260.37    8.11
   3  -6  -3  285.28   17.90
   3  -6  -3  293.37   17.36
   3   6  -3  261.40    7.87
   3   6  -3  259.24    8.00
   3   6  -2  323.71    8.85
   3   6  -2  349.97   19.84
   3   6  -2  335.30   10.02
   3  -6  -2  327.95   18.97
   3   6  -2  333.18    9.07
   3  -6  -2  338.37   19.07
   3   6  -2  314.86    8.47
   3   6  -2  323.02    9.19
   3  -6  -1  804.38   28.85
   3   6  -1  804.37   29.03
   3   6  -1  801.50   15.31
   3  -6  -1  764.13   28.73
   3   6  -1  774.04   14.50
   3   6  -1  772.23   13.62
   3   6  -1  780.34   13.62
   3  -6  -1  782.70   25.75
   3   6   0  294.00    8.50
   3   6   0  307.04   17.47
   3  -6   0  286.38   16.72
   3   6   0  304.46    9.43
   3  -6   0  328.73   19.04
   3  -6   0  318.70   16.33
   3  -6   0  308.97   16.56
   3   6   0  301.36    9.30
   3   6   0  302.30    8.45
   3   6   0  291.54    8.58
   3   6   1  897.46   14.75
   3   6   1  974.07   30.00
   3  -6   1 1006.74   32.26
   3   6   1  925.05   16.28
   3  -6   1 1040.40   30.88
   3   6   1  949.30   16.82
   3   6   1  892.22   14.48
   3   6   1  916.87   15.37
   3   6   2  293.63    8.41
   3  -6   2  296.31   17.92
   3   6   2  301.26    9.11
   3  -6   2  308.43   17.55
   3  -6   2  309.26   15.55
   3   6   2  304.65    9.82
   3   6   2  289.76    8.60
   3   6   2  292.39    8.23
   3   6   2  317.55    9.12
   3   6   3   50.39    3.47
   3   6   3   50.23    3.72
   3  -6   3   42.32    6.82
   3  -6   3   47.90    6.71
   3  -6   3   43.98    6.28
   3   6   3   50.37    4.10
   3   6   3   52.43    3.67
   3   6   3   51.81    3.76
   3  -6   4  231.33   16.18
   3  -6   4  209.14   14.54
   3  -6   4  220.44   14.65
   3   6   4  271.46    9.56
   3   6   4  255.20    8.02
   3   6   4  267.01    8.11
   3   6   5   96.09    4.51
   3  -6   5   83.31    9.19
   3   6   5   97.15    5.66
   3   6   5   96.94    4.85
   3   6   6  153.46    6.80
   3   6   6  149.11    5.72
   3   6   7  749.38   13.37
   3   6   7  727.28   11.31
   3   6   8  181.60    5.54
   3   6   8  185.04    4.76
   3   6   9   99.03    2.95
   3   7 -10  169.40    4.03
   3  -7 -10  164.15    4.19
   3  -7 -10  156.57    3.92
   3  -7 -10  169.28    4.16
   3   7  -9   59.05    3.02
   3   7  -9   52.74    2.87
   3  -7  -9   54.24    3.05
   3  -7  -9   52.37    2.88
   3   7  -8   11.12    1.60
   3  -7  -8   10.69    1.44
   3   7  -8    8.58    1.37
   3  -7  -8   10.91    1.58
   3   7  -7   18.11    2.31
   3   7  -7   21.24    2.45
   3   7  -7   18.12    1.86
   3  -7  -6  741.71   29.46
   3   7  -6  815.87   15.60
   3  -7  -6  771.80   29.75
   3   7  -6  849.44   13.21
   3   7  -6  829.92   14.95
   3   7  -6  816.96   13.79
   3  -7  -5  261.47   17.73
   3   7  -5  268.49    8.98
   3   7  -5  277.44    8.05
   3   7  -5  273.94    8.52
   3   7  -5  282.93    8.67
   3   7  -4   49.61    3.82
   3   7  -4   55.13    4.06
   3   7  -4   57.24    3.83
   3   7  -3   69.58    4.61
   3  -7  -3   61.75    8.64
   3  -7  -3   63.04    7.96
   3   7  -3   67.12    4.38
   3   7  -3   65.35    3.90
   3   7  -2  140.44    6.27
   3   7  -2  127.19    6.33
   3   7  -2  119.97    5.77
   3  -7  -2  148.33   12.38
   3   7  -2  120.28    5.68
   3   7  -1  218.89    7.70
   3  -7  -1  194.35   15.27
   3   7  -1  215.21    7.90
   3   7  -1  215.13    7.55
   3   7  -1  203.14    7.05
   3   7  -1  206.89    8.04
   3   7   0  595.04   12.51
   3   7   0  615.75   13.63
   3  -7   0  595.57   26.47
   3   7   0  616.98   13.58
   3   7   0  625.17   12.71
   3   7   1  554.42   11.97
   3   7   1  565.16   12.83
   3  -7   1  560.63   25.86
   3  -7   1  588.44   23.84
   3   7   1  554.42   13.01
   3   7   1  556.73   11.86
   3   7   2  465.41   10.73
   3   7   2  455.57   11.16
   3  -7   2  414.42   20.32
   3   7   2  470.44   12.04
   3   7   2  452.77   10.51
   3  -7   2  415.52   22.30
   3   7   3   97.78    4.93
   3   7   3   99.05    5.54
   3   7   3   95.35    4.70
   3   7   4  655.84   11.70
   3   7   4  687.09   14.16
   3   7   4  696.18   12.91
   3   7   4  693.81   12.11
   3   7   5  145.82    6.20
   3   7   5  143.66    5.53
   3   7   5  147.32    5.17
   3   7   6  284.72    7.82
   3   7   6  273.60    6.15
   3   7   7  369.94    7.54
   3   7   8  334.48    5.27
   3   8  -9  142.48    3.42
   3  -8  -9  134.96    3.27
   3   8  -8  201.03    5.21
   3  -8  -8  195.10    5.11
   3   8  -7   68.22    3.53
   3   8  -7   61.64    2.69
   3  -8  -7   58.24    2.85
   3   8  -6  434.36    9.76
   3   8  -6  422.01    7.88
   3   8  -6  412.76    8.44
   3   8  -5  223.24    7.36
   3   8  -5  224.48    6.45
   3   8  -5  231.04    7.10
   3   8  -4  341.41    9.19
   3   8  -4  357.76    8.75
   3   8  -4  353.48    9.37
   3   8  -3  256.64    8.28
   3   8  -3  236.20    7.49
   3   8  -2    8.51    1.68
   3  -8  -2   13.29    3.80
   3   8  -2    9.22    1.51
   3   8  -1  264.33    8.61
   3   8  -1  261.82    8.24
   3  -8  -1  241.60   15.91
   3   8  -1  235.14    6.82
   3   8   0  725.42   13.98
   3   8   0  742.16   14.02
   3   8   0  722.19   13.23
   3   8   1  194.67    7.01
   3   8   1  194.80    7.21
   3   8   1  194.37    6.69
   3   8   2 1193.08   16.27
   3   8   2 1243.94   17.74
   3   8   2 1240.85   16.28
   3   8   3   12.22    1.54
   3   8   3   12.76    1.82
   3   8   3   12.09    1.56
   3   8   4  190.52    5.11
   3   8   4  193.44    6.38
   3   8   4  193.58    5.56
   3   8   5  144.94    4.98
   3   8   5  143.46    4.15
   3   8   6  117.69    3.78
   3   9  -6  250.69    5.40
   3   9  -6  216.82    4.24
   3   9  -5  571.16    8.94
   3   9  -5  548.24    7.40
   3   9  -5  554.03    8.49
   3   9  -4   36.31    2.37
   3   9  -4   40.02    2.33
   3   9  -4   41.59    2.64
   3   9  -3  496.53    8.85
   3   9  -3  502.16    9.68
   3   9  -2   37.35    2.60
   3   9  -2   38.70    2.85
   3   9  -1   19.79    2.08
   3   9   0  395.42    8.68
   3   9   1  142.55    4.88
   3   9   1  147.90    5.09
   3   9   2  130.50    4.21
   3   9   2  139.19    4.76
   3   9   3   27.44    1.98
   3   9   3   23.56    1.48
   3   9   4   91.21    3.15
   3  10  -3   68.37    2.30
   3  10  -2  290.40    5.10
   3  10  -1   45.82    2.04
   4   0 -14  131.10    3.01
   4   0 -13    9.06    1.27
   4   0 -13   10.15    1.35
   4   0 -12  907.66   29.64
   4   0 -12  909.18   14.12
   4   0 -12  925.03   14.89
   4   0 -12  917.74   14.40
   4   0 -11    5.13    2.76
   4   0 -11    7.47    1.70
   4   0 -11    6.76    1.53
   4   0 -10 1093.63   35.97
   4   0 -10 1093.30   18.70
   4   0 -10 1137.42   18.26
   4   0  -9   21.94    2.81
   4   0  -9   21.62    2.44
   4   0  -9   23.22    2.67
   4   0  -9   24.53    5.54
   4   0  -8    8.50    1.56
   4   0  -8    7.84    1.51
   4   0  -7   11.25    3.32
   4   0  -6 1105.45   28.39
   4   0  -6  982.62   20.51
   4   0  -5    3.40    1.35
   4   0  -5    2.72    1.27
   4   0  -4 1973.95   31.11
   4   0  -3   10.02    2.42
   4   0  -3    2.04    1.14
   4   0  -2  822.14   17.55
   4   0  -2  837.53   19.66
   4   0  -2  784.36   15.81
   4   0  -1    0.53    0.61
   4   0  -1    1.16    0.74
   4   0  -1    0.95    1.03
   4   0   0 5459.54   53.53
   4   0   0 5421.43   45.96
   4   0   1    1.17    1.05
   4   0   1    2.23    1.13
   4   0   1    1.41    1.28
   4   0   2 3414.49   45.92
   4   0   2 3434.45   45.44
   4   0   3    1.05    1.27
   4   0   3    1.04    0.99
   4   0   4 1090.82   29.64
   4   0   5    0.73    1.30
   4   0   5    2.93    0.91
   4   0   5    2.62    0.85
   4   0   5    2.40    0.81
   4   0   6  103.31   10.21
   4   0   6  104.22    5.33
   4   0   6  104.70    4.84
   4   0   6  105.42    5.14
   4   0   7    3.68    2.29
   4   0   7    4.59    1.28
   4   0   7    2.92    0.93
   4   0   7    0.97    1.08
   4   0   7    2.08    0.91
   4   0   8    1.56    0.82
   4   0   8    0.99    1.47
   4   0   8    1.61    0.70
   4   0   8    2.34    0.96
   4   0   9    3.17    1.03
   4   0   9    3.73    0.83
   4   0   9    4.99    1.12
   4   0  10  259.40    5.86
   4   0  10  258.52    6.74
   4   0  10  268.84    6.69
   4  -1 -14   49.21    1.93
   4   1 -13   37.24    2.20
   4  -1 -13   32.43    2.05
   4  -1 -13   33.56    2.33
   4   1 -12  334.37   17.60
   4  -1 -12  333.34   17.98
   4   1 -12  325.59    7.93
   4   1 -12  341.57    9.14
   4  -1 -12  332.91    8.45
   4  -1 -12  336.26    8.82
   4   1 -11  262.17   16.93
   4  -1 -11  225.70   16.15
   4   1 -11  259.80    8.83
   4  -1 -11  231.47    8.02
   4   1 -11  250.80    7.72
   4   1 -11  251.02    7.82
   4   1 -11  264.67    8.21
   4  -1 -11  235.02    8.22
   4  -1 -11  222.56    6.77
   4  -1 -10 1941.88   48.27
   4   1 -10 1991.57   47.38
   4   1 -10 2033.50   25.43
   4  -1 -10 1950.42   24.44
   4   1 -10 2026.02   23.60
   4  -1 -10 1955.60   23.69
   4   1 -10 2052.74   23.49
   4  -1 -10 1928.89   24.38
   4  -1 -10 1883.13   21.16
   4   1  -9 1018.24   33.11
   4   1  -9 1064.59   18.28
   4  -1  -9 1024.51   34.45
   4   1  -9 1040.33   17.27
   4  -1  -9 1067.39   17.20
   4   1  -9 1051.29   16.82
   4  -1  -9 1046.64   17.60
   4  -1  -9 1008.25   15.58
   4  -1  -8  790.04   28.99
   4   1  -8  719.30   26.43
   4   1  -8  688.24   13.61
   4  -1  -8  808.44   14.24
   4   1  -8  724.45   13.32
   4  -1  -8  805.73   14.69
   4  -1  -7  748.35   26.23
   4   1  -7  781.76   25.53
   4  -1  -7  703.64   20.21
   4   1  -6 2043.47   37.62
   4   1  -6 2005.12   32.87
   4  -1  -6 1994.03   33.06
   4  -1  -6 2003.13   33.21
   4  -1  -5   10.22    2.48
   4   1  -5   17.11    2.39
   4   1  -5   20.97    3.56
   4  -1  -5   12.34    2.57
   4  -1  -5   12.62    3.03
   4   1  -5   18.39    3.14
   4   1  -4  209.82    8.65
   4   1  -4  186.98    9.38
   4  -1  -4  210.61   10.31
   4  -1  -4  191.57   10.83
   4  -1  -4  198.35   10.74
   4   1  -4  205.58   10.26
   4   1  -3  705.30   16.67
   4  -1  -3  653.57   18.52
   4  -1  -3  672.56   19.34
   4  -1  -3  663.12   18.50
   4  -1  -3  636.48   18.00
   4   1  -2  130.54    7.61
   4  -1  -2  146.95    8.22
   4  -1  -2  145.20    8.61
   4   1  -2  138.28    7.75
   4  -1  -2  141.34    8.68
   4   1  -1 1349.45   25.23
   4   1  -1 1341.16   23.05
   4  -1  -1 1353.02   25.03
   4   1  -1 1405.81   24.76
   4  -1  -1 1328.40   18.51
   4  -1   0 1375.52   25.04
   4   1   0 1364.48   22.53
   4   1   0 1331.66   24.98
   4   1   0 1400.66   26.92
   4  -1   0 1354.44   28.04
   4   1   1 1656.75   30.85
   4  -1   1 1747.11   28.30
   4  -1   1 1738.57   30.04
   4  -1   1 1691.49   29.59
   4   1   1 1635.34   23.75
   4  -1   1 1715.22   32.07
   4   1   1 1689.49   29.54
   4  -1   2  462.10   17.06
   4   1   2  430.45   16.61
   4  -1   2  475.39   15.21
   4  -1   2  489.33   16.68
   4  -1   2  468.26   16.84
   4   1   2  440.80   16.31
   4  -1   3 1078.55   23.89
   4  -1   3 1050.59   25.74
   4  -1   3 1066.95   27.48
   4   1   3 1060.23   27.34
   4  -1   3 1083.35   26.83
   4  -1   4   20.65    3.87
   4  -1   4   25.70    4.65
   4  -1   4   26.21    4.37
   4   1   4   31.53    5.22
   4  -1   5  213.62   12.97
   4   1   5  185.80    6.88
   4  -1   5  195.74   13.58
   4   1   5  174.43   13.04
   4   1   5  177.67    6.43
   4  -1   5  186.49    6.30
   4  -1   6  109.35   10.70
   4   1   6  119.27    5.83
   4  -1   6  116.60    4.96
   4   1   6  117.21   11.31
   4   1   6  114.05    5.45
   4  -1   6  115.18    5.26
   4  -1   7  449.35   22.13
   4   1   7  458.40   11.63
   4  -1   7  437.89   11.13
   4  -1   7  471.29   10.19
   4   1   7  461.67   23.32
   4   1   7  451.41   11.05
   4  -1   7  444.16   10.64
   4   1   8  151.95    5.89
   4   1   8  157.80    6.68
   4  -1   8  158.06    6.63
   4  -1   8  159.63    5.79
   4   1   8  154.66   13.32
   4   1   8  156.57    5.82
   4   1   8  158.16    6.45
   4  -1   8  154.86    6.19
   4  -1   8  155.88   12.84
   4   1   9   53.40    3.12
   4   1   9   54.26    3.63
   4  -1   9   49.92    3.51
   4   1   9   56.29    3.18
   4   1   9   57.01    3.58
   4  -1   9   51.29    3.34
   4  -1  10  110.97    3.98
   4  -1  10  111.32    4.41
   4   1  10  108.75    3.55
   4   1  10  114.77    4.29
   4  -1  10  113.17    4.24
   4   2 -13   35.74    1.80
   4  -2 -13   43.78    2.57
   4   2 -13   41.57    2.53
   4  -2 -12  401.60   19.11
   4   2 -12  417.74    8.08
   4   2 -12  458.82   10.33
   4  -2 -12  404.77    8.13
   4   2 -12  450.52    9.28
   4  -2 -12  427.08    9.72
   4  -2 -12  411.37    8.30
   4   2 -11 1079.99   32.78
   4  -2 -11 1160.08   35.83
   4   2 -11 1048.88   14.65
   4   2 -11 1131.00   18.08
   4  -2 -11 1149.37   16.31
   4   2 -11 1092.50   16.56
   4  -2 -11 1182.83   18.18
   4  -2 -11 1109.68   15.82
   4  -2 -10  568.13   26.17
   4   2 -10  435.38   21.62
   4   2 -10  413.82    9.75
   4   2 -10  451.98   11.93
   4  -2 -10  559.06   12.41
   4   2 -10  442.48   11.36
   4  -2 -10  552.81   12.74
   4   2 -10  467.22   11.08
   4   2 -10  430.12   10.24
   4  -2 -10  557.89   13.11
   4  -2 -10  556.54   11.98
   4   2  -9  101.41   10.34
   4  -2  -9   67.73    9.07
   4   2  -9   97.62    5.64
   4   2  -9   94.71    5.43
   4  -2  -9   77.62    4.79
   4   2  -9  103.61    5.04
   4  -2  -9   73.26    4.77
   4   2  -8  120.99   10.67
   4  -2  -8   96.60   10.44
   4   2  -8  129.50    6.19
   4   2  -8  119.51    5.95
   4  -2  -8  101.08    5.30
   4  -2  -8   98.23    5.32
   4   2  -7  593.35   21.87
   4  -2  -7  546.95   20.52
   4  -2  -7  554.29   20.14
   4   2  -6  200.56   11.62
   4   2  -6  217.33   12.40
   4  -2  -6  180.32   11.17
   4  -2  -6  179.90   12.24
   4  -2  -6  189.55   11.43
   4   2  -5  794.85   20.81
   4   2  -5  830.34   23.53
   4  -2  -5  775.29   24.00
   4  -2  -5  817.82   22.79
   4  -2  -4  204.84   11.59
   4  -2  -4  210.26   11.81
   4   2  -4  243.43   12.56
   4  -2  -4  203.41   11.12
   4   2  -3 1577.97   24.22
   4  -2  -3 1599.87   31.86
   4  -2  -3 1577.28   31.09
   4   2  -3 1589.31   31.30
   4  -2  -3 1567.16   30.40
   4   2  -2 1295.30   23.53
   4  -2  -2 1388.03   28.12
   4  -2  -2 1377.13   27.73
   4  -2  -2 1357.47   28.46
   4   2  -1  902.53   20.93
   4  -2  -1  864.55   18.96
   4  -2  -1  904.47   21.78
   4  -2  -1  841.20   22.89
   4   2  -1  868.03   22.23
   4   2   0 2405.19   36.12
   4  -2   0 2368.33   35.78
   4  -2   0 2375.57   33.28
   4   2   0 2375.40   37.53
   4  -2   1 3628.20   49.16
   4  -2   1 3585.39   44.46
   4  -2   1 3622.71   44.01
   4   2   1 3519.62   47.52
   4  -2   2 2918.21   44.25
   4  -2   2 2992.43   42.13
   4  -2   2 2999.96   44.09
   4  -2   2 2961.30   43.37
   4   2   2 2992.54   46.14
   4  -2   3  728.17   21.71
   4  -2   3  709.19   22.53
   4  -2   3  705.34   22.78
   4   2   3  685.43   23.56
   4  -2   3  734.23   22.35
   4  -2   4  947.46   25.85
   4  -2   4  943.97   26.01
   4  -2   4  946.15   27.57
   4  -2   4  915.37   28.29
   4   2   4  928.54   29.27
   4   2   5  668.23   12.38
   4  -2   5  656.19   24.52
   4  -2   5  653.54   25.39
   4   2   5  706.96   13.89
   4   2   5  683.05   26.71
   4   2   5  650.94   12.06
   4   2   5  691.16   13.11
   4   2   6  317.19    8.77
   4  -2   6  318.98   17.55
   4  -2   6  325.01   18.76
   4   2   6  329.83    9.90
   4   2   6  327.47   19.50
   4   2   6  321.07    8.79
   4   2   6  317.52    9.23
   4  -2   6  309.22    8.46
   4   2   7 1083.03   15.94
   4  -2   7 1089.90   35.03
   4   2   7 1118.50   18.29
   4   2   7 1127.26   36.62
   4   2   7 1082.48   16.21
   4   2   7 1099.47   17.32
   4  -2   7 1105.54   16.30
   4  -2   8   63.79    8.22
   4   2   8   48.71    3.69
   4  -2   8   59.87    4.02
   4  -2   8   73.10    3.67
   4   2   8   56.78    3.60
   4   2   8   50.94    3.65
   4  -2   8   65.12    3.89
   4  -2   9   59.12    3.69
   4   2   9   65.47    3.46
   4   2   9   61.08    3.58
   4  -2   9   58.28    3.39
   4  -2  10  142.50    4.73
   4   2  10  138.53    4.03
   4   2  10  142.00    4.46
   4  -2  10  146.99    4.44
   4  -3 -13   51.19    2.54
   4  -3 -13   49.58    2.09
   4   3 -12  343.63    8.22
   4   3 -12  355.24    8.12
   4  -3 -12  378.16    8.45
   4  -3 -12  376.53    7.82
   4  -3 -11   88.52    9.60
   4   3 -11  109.56    9.78
   4   3 -11  105.13    5.23
   4   3 -11  105.10    5.13
   4  -3 -11   96.38    4.99
   4   3 -11   98.94    4.51
   4  -3 -11   90.03    4.04
   4  -3 -11   96.15    5.04
   4  -3 -11  101.36    4.81
   4   3 -10  140.36   11.62
   4  -3 -10  149.72   13.24
   4   3 -10  143.75    6.50
   4   3 -10  131.53    6.27
   4  -3 -10  146.01    6.54
   4   3 -10  150.36    6.41
   4  -3 -10  148.89    5.85
   4  -3 -10  151.25    6.75
   4  -3 -10  150.40    6.39
   4   3  -9  132.11   11.27
   4  -3  -9  140.38   13.08
   4   3  -9  152.48    6.79
   4   3  -9  141.70    6.71
   4  -3  -9  143.98    6.61
   4  -3  -9  144.81    6.72
   4   3  -8  830.98   27.22
   4  -3  -8  941.93   33.17
   4   3  -8  896.57   16.14
   4  -3  -8  892.01   28.79
   4  -3  -8  909.26   30.01
   4   3  -8  884.78   16.69
   4  -3  -8  928.26   16.75
   4   3  -7  368.83   16.89
   4  -3  -7  370.18   18.21
   4   3  -7  396.57   10.20
   4  -3  -7  343.69   17.85
   4   3  -7  375.98    9.51
   4   3  -7  400.49   10.83
   4   3  -7  360.50    9.71
   4   3  -7  402.97   19.26
   4   3  -6  984.73   29.58
   4  -3  -6 1028.43   29.42
   4  -3  -6  972.88   28.82
   4  -3  -6  997.35   30.52
   4   3  -5  220.31   13.70
   4  -3  -5  231.15   13.44
   4  -3  -5  253.62   14.76
   4  -3  -4  496.77   19.01
   4   3  -4  492.27   19.84
   4  -3  -4  488.01   19.73
   4  -3  -4  487.53   18.91
   4  -3  -3 1120.72   29.69
   4  -3  -3 1117.66   27.90
   4   3  -3 1097.56   29.06
   4  -3  -3 1095.75   27.80
   4  -3  -2 1142.72   28.48
   4  -3  -2 1132.03   27.06
   4   3  -2 1079.65   28.70
   4  -3  -2 1103.52   27.91
   4  -3  -1  699.00   22.48
   4  -3  -1  742.04   17.85
   4  -3  -1  693.52   20.98
   4   3  -1  699.70   22.90
   4   3  -1  738.05   23.62
   4  -3   0  132.70    9.24
   4  -3   0  137.96    9.38
   4  -3   0  137.73    8.28
   4   3   0  141.40   10.38
   4  -3   1  239.70   12.66
   4  -3   1  242.73   12.78
   4  -3   1  235.00   11.74
   4   3   1  215.80   13.15
   4  -3   2  386.59   16.97
   4  -3   2  382.94   16.58
   4  -3   2  393.61   17.03
   4  -3   2  392.74   16.39
   4   3   2  382.03   18.14
   4  -3   3  836.04   24.53
   4  -3   3  807.29   25.36
   4  -3   3  811.91   25.88
   4  -3   3  801.14   25.42
   4   3   3  756.26   26.71
   4  -3   4 1527.93   36.76
   4  -3   4 1547.63   37.99
   4  -3   4 1591.27   38.48
   4   3   4 1622.90   41.29
   4   3   4 1586.68   19.02
   4   3   4 1615.28   20.07
   4  -3   5  726.18   26.20
   4  -3   5  713.03   26.93
   4  -3   5  737.32   27.61
   4   3   5  760.49   29.55
   4   3   5  732.61   13.48
   4   3   5  749.11   14.12
   4  -3   6  331.67   18.83
   4  -3   6  320.37   19.01
   4   3   6  340.95   20.34
   4   3   6  320.64    9.09
   4   3   6  335.12    9.68
   4  -3   7  140.20   12.55
   4   3   7  162.56   13.98
   4   3   7  144.52    6.06
   4   3   7  156.14    6.49
   4  -3   7  137.19    5.48
   4   3   8  199.67    6.69
   4   3   8  191.13    6.71
   4  -3   8  197.89    6.27
   4  -3   9   54.23    3.28
   4   3   9   64.60    3.33
   4   3   9   64.94    3.41
   4  -3   9   61.59    3.11
   4  -3  10  899.28   10.55
   4   3  10  895.05    9.45
   4   3  10  883.17    9.10
   4  -4 -13    5.47    0.69
   4  -4 -12  375.94    6.13
   4  -4 -12  380.17    7.27
   4  -4 -12  394.50    7.45
   4   4 -11  459.45    9.75
   4   4 -11  446.87    9.98
   4  -4 -11  413.66    9.51
   4   4 -11  458.29    9.31
   4  -4 -11  398.07    8.31
   4  -4 -11  412.17    9.29
   4  -4 -11  409.07    9.28
   4  -4 -10  360.14   19.47
   4   4 -10  370.87    9.69
   4   4 -10  379.64   10.37
   4  -4 -10  374.61   10.04
   4   4 -10  377.73    9.92
   4  -4 -10  364.39    9.18
   4  -4 -10  378.64    9.96
   4  -4 -10  372.47    9.90
   4  -4  -9   84.09    9.93
   4   4  -9   93.82    5.10
   4   4  -9   93.84    4.69
   4   4  -9   94.19    5.46
   4  -4  -9   97.61    5.45
   4   4  -9   91.73    5.35
   4  -4  -9   93.57    5.22
   4  -4  -8   87.59   10.24
   4   4  -8   91.08    5.02
   4  -4  -8   91.95   10.21
   4   4  -8   89.02    4.88
   4   4  -8   94.01    5.54
   4  -4  -8   86.17    5.09
   4  -4  -7  964.18   31.85
   4   4  -7 1024.75   16.06
   4  -4  -7  903.76   31.27
   4   4  -7  948.44   16.09
   4   4  -7 1019.53   17.77
   4   4  -7 1011.09   33.22
   4  -4  -6   18.86    4.51
   4  -4  -6   18.75    4.60
   4   4  -6    9.09    1.73
   4  -4  -6   17.00    4.18
   4   4  -6   15.59    4.40
   4   4  -6   10.86    1.84
   4  -4  -5 3965.95   61.28
   4  -4  -5 3824.11   60.83
   4  -4  -4  419.41   18.47
   4   4  -4  358.22   18.89
   4  -4  -4  391.18   19.10
   4  -4  -4  406.28   18.93
   4  -4  -3  671.90   24.98
   4  -4  -3  663.89   22.99
   4   4  -3  698.56   25.87
   4  -4  -3  669.46   24.01
   4  -4  -2   87.99    8.67
   4  -4  -2   75.57    8.20
   4  -4  -2   70.59    7.38
   4   4  -2   97.60    9.60
   4  -4  -1 1127.91   31.25
   4  -4  -1 1124.21   28.93
   4   4  -1 1128.44   32.13
   4  -4  -1 1162.73   31.52
   4  -4   0  692.02   23.41
   4  -4   0  708.81   22.89
   4  -4   0  713.02   19.81
   4   4   0  722.52   26.15
   4   4   0  726.13   25.79
   4  -4   1  164.47   11.61
   4  -4   1  169.65   11.58
   4  -4   1  169.29   10.53
   4   4   1  159.25   12.56
   4   4   1  171.92   12.48
   4  -4   2 1936.02   41.34
   4  -4   2 2008.99   41.87
   4  -4   2 1964.54   38.74
   4  -4   2 2128.95   42.09
   4   4   2 2097.78   46.83
   4   4   2 2257.48   44.84
   4   4   2 2069.71   21.68
   4   4   2 2098.12   22.84
   4  -4   3   82.47    8.89
   4  -4   3   72.41    8.42
   4  -4   3   85.21    8.70
   4   4   3   90.37    4.29
   4   4   3   99.36   10.56
   4   4   3   98.12    9.35
   4   4   3   94.70    4.83
   4   4   3   95.94    5.05
   4  -4   4  572.85   24.30
   4  -4   4  573.57   24.33
   4  -4   4  550.08   23.43
   4   4   4  558.45   10.77
   4   4   4  570.88   26.07
   4   4   4  544.17   11.94
   4   4   4  545.01   12.23
   4  -4   5  242.30   16.41
   4  -4   5  244.40   16.24
   4   4   5  236.60    7.01
   4   4   5  241.70   17.25
   4   4   5  225.72    7.85
   4   4   5  236.69    8.17
   4  -4   6  256.31   16.87
   4   4   6  296.53   19.07
   4   4   6  288.38    8.75
   4   4   6  295.52    8.97
   4  -4   7  756.42   28.40
   4   4   7  744.82   13.47
   4   4   7  755.32   13.62
   4  -4   7  765.85   11.74
   4   4   8   22.17    2.15
   4   4   8   24.62    2.24
   4  -4   8   21.89    1.82
   4  -4   9  288.28    6.55
   4   4   9  275.91    6.30
   4   4   9  280.90    5.96
   4  -4   9  283.68    5.25
   4   5 -12  128.83    3.76
   4  -5 -12  145.47    3.82
   4   5 -11   18.15    1.90
   4  -5 -11   17.01    1.59
   4  -5 -11   16.51    1.56
   4  -5 -11   19.95    1.87
   4   5 -10   77.57    3.58
   4   5 -10   72.58    3.68
   4   5 -10   85.13    4.58
   4  -5 -10   56.37    3.61
   4   5 -10   78.30    4.27
   4  -5 -10   63.69    3.68
   4  -5 -10   58.38    3.48
   4  -5 -10   61.02    3.79
   4  -5  -9  481.19   22.04
   4   5  -9  424.72    9.61
   4   5  -9  452.76   10.16
   4   5  -9  450.14   11.43
   4  -5  -9  490.29   11.41
   4   5  -9  451.43   11.32
   4  -5  -9  502.79   11.11
   4  -5  -8  519.05   23.92
   4  -5  -8  517.81   24.21
   4   5  -8  491.77   11.53
   4   5  -8  510.14   12.59
   4   5  -8  496.91   12.54
   4  -5  -8  512.75   11.77
   4   5  -7 1250.58   18.98
   4   5  -7 1301.77   19.92
   4   5  -7 1287.36   20.30
   4  -5  -7 1255.62   18.65
   4  -5  -6  521.34   23.13
   4  -5  -6  516.28   24.27
   4  -5  -6  504.63   23.90
   4  -5  -6  532.37   23.91
   4   5  -6  447.44   11.46
   4   5  -6  466.04   11.55
   4   5  -6  455.96   11.64
   4   5  -6  450.48   23.66
   4   5  -5  563.71   26.23
   4   5  -5  519.74   11.04
   4  -5  -5  503.59   23.61
   4  -5  -5  536.09   24.28
   4  -5  -5  526.94   23.68
   4   5  -5  534.45   11.81
   4   5  -5  529.86   12.31
   4   5  -4  741.76   13.53
   4   5  -4  802.32   30.76
   4  -5  -4  857.48   27.19
   4  -5  -4  868.71   30.00
   4   5  -4  769.21   13.36
   4  -5  -4  871.16   30.25
   4   5  -4  775.18   14.64
   4   5  -3 1552.17   19.87
   4  -5  -3 1614.23   41.69
   4   5  -3 1660.29   43.49
   4  -5  -3 1630.37   38.22
   4  -5  -3 1642.24   41.65
   4  -5  -3 1606.83   40.25
   4   5  -3 1636.67   20.60
   4  -5  -2  449.75   21.15
   4  -5  -2  436.71   21.37
   4   5  -2  495.15   11.29
   4  -5  -2  452.54   19.99
   4   5  -2  500.15   23.68
   4   5  -2  489.98   10.87
   4  -5  -1   44.74    6.93
   4   5  -1   51.37    3.74
   4  -5  -1   35.24    5.65
   4   5  -1   44.25    6.91
   4   5  -1   42.30    3.30
   4  -5  -1   37.76    6.14
   4  -5   0  364.11   18.59
   4  -5   0  350.46   17.43
   4  -5   0  348.17   17.65
   4   5   0  310.68    8.83
   4   5   0  322.96   18.17
   4   5   0  314.17    7.92
   4   5   0  324.27    9.25
   4  -5   1  626.30   24.78
   4  -5   1  601.70   23.76
   4  -5   1  618.57   20.84
   4   5   1  579.80   11.47
   4   5   1  594.26   12.76
   4   5   1  623.24   24.85
   4   5   1  601.85   10.90
   4   5   1  596.98   12.93
   4  -5   2  112.11   10.84
   4  -5   2  109.73   10.55
   4  -5   2  108.72    9.45
   4   5   2  102.17    4.82
   4   5   2  113.58   10.43
   4   5   2  109.84   11.48
   4   5   2  104.95    5.51
   4  -5   3  438.32   22.11
   4  -5   3  471.13   22.55
   4  -5   3  446.56   20.20
   4   5   3  440.73   10.08
   4   5   3  464.25   24.15
   4   5   3  436.88   10.96
   4   5   3  445.94   11.37
   4  -5   4   19.05    4.77
   4  -5   4   20.95    4.66
   4   5   4   21.44    2.23
   4   5   4   25.40    5.76
   4   5   4   23.60    2.61
   4   5   4   23.06    2.61
   4  -5   5   63.15    8.23
   4   5   5   66.54    3.79
   4   5   5   74.33    9.66
   4   5   5   72.25    4.46
   4   5   5   70.51    4.39
   4  -5   6 1181.63   34.73
   4   5   6 1173.78   14.83
   4   5   6 1163.80   17.20
   4   5   6 1189.79   16.99
   4   5   7  196.11    5.34
   4   5   7  202.95    6.64
   4   5   7  201.70    6.30
   4  -5   8  219.40    5.63
   4   5   8  241.94    5.57
   4   5   9   87.98    3.03
   4  -5   9   84.56    2.66
   4   6 -11   28.78    1.86
   4  -6 -11   29.34    1.67
   4  -6 -11   27.10    1.74
   4  -6 -11   26.74    1.46
   4   6 -10   14.22    1.37
   4  -6 -10    9.71    1.27
   4   6 -10   11.88    1.51
   4  -6 -10   11.05    1.39
   4  -6 -10    9.82    1.37
   4   6  -9  132.94    5.10
   4   6  -9  141.67    5.71
   4  -6  -9  137.34    5.36
   4   6  -9  142.89    5.83
   4  -6  -9  134.84    4.84
   4  -6  -9  138.24    5.56
   4  -6  -8  128.90   10.91
   4   6  -8  137.53    5.87
   4   6  -8  139.59    6.12
   4  -6  -8  143.08    5.99
   4   6  -8  143.57    6.41
   4  -6  -8  136.47    5.41
   4  -6  -7  605.83   24.84
   4  -6  -7  603.16   26.19
   4   6  -7  684.87   13.90
   4   6  -7  692.40   13.90
   4   6  -7  714.84   14.71
   4  -6  -7  654.56   12.48
   4   6  -6  786.51   13.30
   4  -6  -6  718.97   29.12
   4  -6  -6  704.13   27.01
   4   6  -6  745.89   14.96
   4   6  -6  723.08   14.01
   4   6  -6  751.56   15.01
   4   6  -5  484.44   11.05
   4  -6  -5  472.92   23.57
   4  -6  -5  465.09   22.26
   4   6  -5  469.92   12.03
   4   6  -5  468.26   10.82
   4   6  -5  473.60   11.65
   4   6  -4  672.73   30.01
   4   6  -4  654.26   13.27
   4   6  -4  632.97   12.97
   4   6  -4  661.65   13.67
   4   6  -3  727.40   30.84
   4   6  -3  697.19   14.11
   4   6  -3  726.12   13.03
   4  -6  -3  745.83   28.70
   4   6  -3  675.98   12.77
   4   6  -3  679.94   13.51
   4  -6  -3  735.76   29.23
   4   6  -2  635.90   28.04
   4   6  -2  634.70   13.60
   4  -6  -2  580.01   26.35
   4   6  -2  630.09   12.44
   4  -6  -2  557.62   23.28
   4  -6  -2  574.35   25.57
   4   6  -2  598.07   12.20
   4   6  -1  951.48   16.93
   4  -6  -1  961.91   33.73
   4   6  -1  979.65   33.81
   4  -6  -1  936.73   30.44
   4   6  -1  939.86   15.62
   4   6  -1  952.59   15.03
   4  -6  -1  973.92   33.04
   4   6   0   16.29    2.33
   4  -6   0   19.26    4.49
   4   6   0   18.80    2.34
   4   6   0   20.32    2.22
   4   6   0   17.97    2.27
   4   6   0   18.20    4.79
   4  -6   1   12.08    3.90
   4  -6   1   14.75    4.43
   4  -6   1   18.24    4.58
   4   6   1   12.31    2.04
   4  -6   1   16.16    4.23
   4   6   1   12.92    2.00
   4   6   1   14.78    1.85
   4   6   1   12.72    1.94
   4  -6   2   27.77    5.57
   4   6   2   25.47    2.82
   4   6   2   26.29    2.86
   4   6   2   23.18    2.28
   4   6   2   19.86    2.36
   4   6   3  336.27    9.66
   4  -6   3  332.93   17.20
   4   6   3  330.17   10.12
   4   6   3  337.18    9.03
   4   6   3  345.99    8.41
   4   6   3  338.04    9.56
   4   6   4   73.62    4.28
   4  -6   4   71.11    8.17
   4   6   4   73.33    4.75
   4   6   4   77.15    4.21
   4   6   4   73.53    4.32
   4   6   5   68.92    3.73
   4   6   5   71.82    4.52
   4   6   5   71.83    3.82
   4   6   5   74.87    4.07
   4   6   6 1284.83   17.64
   4   6   6 1342.88   15.09
   4   6   7  113.49    4.59
   4  -6   7  125.49    3.81
   4   6   8  640.40    8.49
   4  -7 -10   83.18    2.79
   4  -7 -10   81.43    2.77
   4   7  -9  117.63    4.04
   4   7  -9  108.49    3.88
   4  -7  -9  114.78    4.09
   4   7  -8   26.20    2.28
   4   7  -8   25.97    2.38
   4   7  -7   95.61    4.82
   4  -7  -7   98.01    4.59
   4   7  -7   97.45    4.93
   4   7  -6  151.15    6.46
   4   7  -6  137.80    5.42
   4   7  -6  145.49    6.11
   4   7  -6  152.71    5.58
   4   7  -5  993.76   15.35
   4  -7  -5  973.09   32.96
   4   7  -5  982.31   16.83
   4   7  -5  969.33   15.52
   4   7  -4  666.56   13.24
   4  -7  -4  660.54   27.57
   4  -7  -4  641.91   25.16
   4   7  -4  667.33   13.94
   4   7  -4  638.04   12.30
   4   7  -3  480.91   11.64
   4   7  -3  471.44   11.51
   4   7  -2  125.12    6.06
   4   7  -2  128.95    5.67
   4  -7  -2  132.17   12.04
   4   7  -2  125.09    5.75
   4   7  -1  922.95   16.67
   4  -7  -1  903.29   33.30
   4   7  -1  907.20   15.35
   4   7   0  242.96    8.59
   4  -7   0  239.84   17.17
   4  -7   0  229.23   15.31
   4   7   0  249.73    8.21
   4   7   0  246.25    7.61
   4   7   1  210.03    7.83
   4  -7   1  203.28   14.48
   4   7   1  207.39    7.54
   4   7   1  213.50    6.92
   4   7   2  117.73    5.61
   4  -7   2  113.58   10.82
   4   7   2  121.22    5.76
   4   7   2  119.84    5.00
   4   7   3  660.98   12.41
   4   7   3  680.06   13.37
   4   7   3  673.63   11.16
   4   7   4  187.98    5.99
   4   7   4  199.56    6.94
   4   7   4  202.86    5.59
   4   7   5  510.89    8.14
   4   7   5  514.07   10.27
   4   7   6  627.73    9.94
   4   7   7  147.16    3.81
   4   8  -8  118.67    3.75
   4  -8  -8  106.11    3.16
   4  -8  -7  528.83    7.67
   4  -8  -7  562.11    8.57
   4   8  -6  350.91    8.24
   4   8  -6  323.97    6.85
   4   8  -5  232.37    7.13
   4   8  -5  233.98    6.57
   4   8  -4  229.75    7.04
   4   8  -4  228.50    7.30
   4   8  -4  230.79    6.24
   4   8  -3  983.20   15.27
   4   8  -3  927.93   14.35
   4   8  -2  157.50    6.26
   4   8  -2  145.80    5.50
   4   8  -1   91.12    4.87
   4   8  -1   91.06    4.46
   4   8  -1   81.36    3.86
   4   8   0   43.16    3.33
   4   8   0   46.77    3.25
   4  -8   0   39.89    6.10
   4   8   1   89.81    4.53
   4   8   1   92.56    4.52
   4   8   2   92.47    4.29
   4   8   2   93.01    4.39
   4   8   3   35.83    2.40
   4   8   3   38.59    2.72
   4   8   4  145.40    3.91
   4   8   4  162.38    5.01
   4   8   5  559.70    8.06
   4   9  -6  143.14    3.66
   4   9  -5  123.63    3.79
   4   9  -5  129.89    3.62
   4   9  -4   62.47    2.81
   4   9  -4   68.03    3.01
   4   9  -3  105.40    3.58
   4   9  -3  110.59    3.49
   4   9  -2  224.37    6.09
   4   9  -2  212.86    5.20
   4   9  -1   75.56    3.52
   4   9   0   15.82    1.61
   4   9   1  343.75    6.83
   4   9   1  321.50    6.38
   4   9   2   99.49    3.22
   4   9   2   99.85    3.34
   4   9   3   78.66    2.62
   5   0 -13   68.07    2.91
   5   0 -13   73.47    3.33
   5   0 -12   19.50    4.22
   5   0 -12   20.06    2.02
   5   0 -12   22.31    2.36
   5   0 -12   22.22    2.18
   5   0 -11 1103.43   33.82
   5   0 -11 1112.94   17.47
   5   0 -11 1111.42   16.52
   5   0 -10    3.72    2.20
   5   0 -10    5.54    1.57
   5   0 -10    8.37    1.64
   5   0  -9  185.98    6.94
   5   0  -9  175.82    6.57
   5   0  -9  183.16    7.01
   5   0  -9  176.26   13.80
   5   0  -8    3.11    2.08
   5   0  -8    1.75    0.85
   5   0  -8    1.30    0.76
   5   0  -8    1.35    0.83
   5   0  -7  613.68   23.09
   5   0  -6    2.19    1.91
   5   0  -5  214.26   11.53
   5   0  -5  224.85   10.45
   5   0  -4   13.97    3.02
   5   0  -3 3385.73   45.71
   5   0  -3 3426.84   40.91
   5   0  -2    2.16    1.29
   5   0  -2    0.73    0.66
   5   0  -2    2.25    1.39
   5   0  -2    1.36    1.04
   5   0  -2    4.06    1.45
   5   0  -1  251.47   13.05
   5   0  -1  248.03   10.26
   5   0  -1  233.43   11.35
   5   0  -1  244.27   10.52
   5   0   0    2.44    1.16
   5   0   0    3.33    1.46
   5   0   0    3.67    1.96
   5   0   0    3.18    1.46
   5   0   1  283.05   14.80
   5   0   1  283.47   12.25
   5   0   1  287.20   12.89
   5   0   2    0.88    1.42
   5   0   2    0.27    0.58
   5   0   2    0.80    1.27
   5   0   3  524.88   21.88
   5   0   3  518.44   21.55
   5   0   3  536.35   20.53
   5   0   4    2.73    2.09
   5   0   4    2.82    0.92
   5   0   4    4.02    2.13
   5   0   4    2.55    0.88
   5   0   5 1170.80   17.81
   5   0   5 1205.72   34.97
   5   0   5 1194.21   17.02
   5   0   6    7.98    1.56
   5   0   6   10.14    1.67
   5   0   7  122.34    5.85
   5   0   7  117.50   11.40
   5   0   7  120.59    5.46
   5   0   8    7.66    1.35
   5   0   8    8.17    1.56
   5   0   8    9.79    1.52
   5   0   9  244.61    6.03
   5   0   9  246.83    6.73
   5   0   9  251.52    6.45
   5   0  10    2.05    0.49
   5  -1 -13  341.69    6.76
   5   1 -13  348.85    7.28
   5  -1 -13  330.85    6.45
   5  -1 -13  346.87    7.08
   5   1 -12  121.56   10.03
   5  -1 -12  122.47   10.43
   5   1 -12  105.10    4.09
   5   1 -12  113.97    5.11
   5  -1 -12  126.39    5.09
   5  -1 -12  127.83    5.17
   5   1 -11  500.70   22.11
   5  -1 -11  615.69   25.52
   5   1 -11  505.38   10.17
   5   1 -11  550.05   12.34
   5  -1 -11  614.63   12.71
   5   1 -11  527.74   11.00
   5   1 -11  529.54   10.82
   5  -1 -11  622.33   12.73
   5   1 -10  461.12   21.86
   5  -1 -10  441.50   22.20
   5   1 -10  483.13   12.10
   5  -1 -10  441.77   11.46
   5   1 -10  460.52   11.13
   5  -1 -10  444.17   10.72
   5   1 -10  482.06   10.89
   5  -1 -10  439.13   11.14
   5  -1  -9   28.30    5.68
   5   1  -9   19.77    4.71
   5   1  -9   22.17    2.72
   5   1  -9   22.53    2.60
   5  -1  -9   31.89    2.93
   5   1  -9   21.13    2.36
   5  -1  -9   28.44    2.90
   5  -1  -8  206.21   14.68
   5   1  -8  209.56   13.99
   5   1  -8  197.39    7.37
   5  -1  -8  208.08    7.10
   5  -1  -8  195.00    7.20
   5   1  -8  205.03    6.91
   5  -1  -8  213.16    7.50
   5   1  -7   70.81    7.66
   5  -1  -7   50.82    7.17
   5   1  -6 1515.39   32.45
   5  -1  -6 1488.54   31.11
   5   1  -6 1592.80   30.87
   5  -1  -6 1485.14   34.40
   5   1  -5 1828.49   28.57
   5   1  -5 1911.74   33.45
   5  -1  -5 1898.37   36.23
   5   1  -5 1922.15   33.86
   5  -1  -5 1833.21   34.17
   5  -1  -4  484.19   18.37
   5  -1  -4  513.10   18.07
   5  -1  -4  478.38   17.29
   5   1  -4  519.22   15.99
   5   1  -3  872.41   21.78
   5  -1  -3  862.25   24.01
   5  -1  -3  893.66   22.99
   5   1  -2 1341.31   28.34
   5  -1  -2 1321.40   27.24
   5  -1  -2 1281.06   28.71
   5   1  -2 1343.69   26.67
   5  -1  -1 1257.56   29.82
   5   1  -1 1356.02   29.86
   5  -1  -1 1329.90   26.75
   5   1  -1 1321.26   25.26
   5  -1  -1 1325.35   28.30
   5   1  -1 1346.20   27.52
   5  -1   0  524.26   20.25
   5   1   0  514.33   19.10
   5  -1   0  520.21   18.12
   5   1   0  516.41   15.57
   5  -1   0  519.86   17.49
   5   1   0  536.65   17.94
   5  -1   0  543.41   15.42
   5  -1   1 1055.03   29.19
   5   1   1 1100.00   29.24
   5  -1   1 1088.21   27.50
   5  -1   1 1072.78   25.36
   5   1   1 1066.90   26.65
   5  -1   1 1095.56   24.00
   5  -1   2 1242.92   32.46
   5   1   2 1237.77   32.41
   5  -1   2 1219.55   31.14
   5   1   2 1221.86   30.37
   5  -1   3  508.38   21.17
   5   1   3  546.17   21.77
   5  -1   3  471.94   20.52
   5  -1   4  429.86   20.64
   5   1   4  416.82   10.39
   5  -1   4  417.99    9.90
   5   1   4  422.86   20.42
   5   1   4  400.89    9.71
   5  -1   4  417.53    9.39
   5   1   5  152.51    6.14
   5  -1   5  148.16   12.62
   5   1   5  155.50    6.68
   5  -1   5  159.88    6.45
   5   1   5  157.77   13.12
   5   1   5  171.87    5.94
   5   1   5  154.05    6.29
   5  -1   5  154.95    5.98
   5   1   6   20.10    2.26
   5   1   6   18.87    2.27
   5  -1   6   20.96    5.01
   5   1   6   23.94    2.72
   5  -1   6   15.31    2.14
   5   1   6   18.52    4.78
   5  -1   6   13.57    4.00
   5   1   6   22.97    2.24
   5   1   6   19.29    2.35
   5  -1   6   14.67    1.92
   5   1   7  670.73   12.63
   5   1   7  661.01   13.70
   5  -1   7  675.94   13.42
   5   1   7  687.26   27.76
   5  -1   7  704.57   27.17
   5   1   7  689.90   11.54
   5   1   7  687.00   13.19
   5  -1   7  688.29   12.65
   5   1   8  185.87    6.02
   5   1   8  185.89    6.74
   5  -1   8  186.60    6.65
   5   1   8  191.05    5.47
   5   1   8  193.98    6.55
   5  -1   8  194.81    6.31
   5   1   9  140.50    4.15
   5  -1   9  138.24    4.61
   5  -1   9  138.45    4.97
   5   1   9  134.00    4.69
   5  -1   9  141.16    4.62
   5   1  10    7.50    0.84
   5  -2 -13   15.95    1.48
   5  -2 -13   15.08    1.50
   5   2 -12    2.84    0.94
   5  -2 -12    2.31    0.76
   5   2 -12    2.58    0.79
   5  -2 -12    3.02    0.98
   5  -2 -12    2.64    0.68
   5   2 -11  564.14   22.19
   5   2 -11  606.34   12.61
   5  -2 -11  613.42   11.78
   5   2 -11  588.61   11.77
   5  -2 -11  616.53   12.13
   5  -2 -11  607.87   25.07
   5  -2 -11  619.79   12.66
   5  -2 -11  597.78   10.76
   5   2 -10  491.87   21.67
   5   2 -10  521.57   12.30
   5  -2 -10  485.38   11.53
   5   2 -10  487.27   11.71
   5  -2 -10  488.97   11.48
   5  -2 -10  491.03   11.85
   5  -2 -10  462.59   10.33
   5  -2 -10  493.95   23.81
   5   2  -9  449.13   20.62
   5  -2  -9  480.46   23.55
   5   2  -9  480.65   12.07
   5   2  -9  469.17   11.77
   5  -2  -9  476.95   11.40
   5  -2  -9  474.84   11.77
   5   2  -8  992.84   29.27
   5  -2  -8 1007.20   33.47
   5   2  -8 1017.84   17.16
   5  -2  -8 1046.89   16.52
   5  -2  -8  981.44   15.98
   5  -2  -8 1030.56   16.96
   5   2  -8  977.75   15.16
   5   2  -7  532.22   20.01
   5  -2  -7  501.23   19.96
   5  -2  -7  458.95   18.38
   5   2  -7  551.26   12.25
   5  -2  -7  461.51   10.61
   5   2  -7  515.96   10.86
   5   2  -6  359.26   16.39
   5  -2  -6  401.35   17.52
   5  -2  -6  371.39   15.97
   5  -2  -6  362.97   18.14
   5  -2  -5 2285.67   42.79
   5   2  -5 2215.76   40.33
   5  -2  -5 2264.06   40.83
   5  -2  -4 1577.11   34.96
   5  -2  -4 1613.17   34.53
   5   2  -4 1576.07   33.77
   5  -2  -4 1539.84   33.28
   5   2  -3  592.83   17.81
   5  -2  -3  611.98   21.47
   5  -2  -3  633.33   21.83
   5  -2  -3  606.13   21.04
   5   2  -2  106.57    8.03
   5  -2  -2  101.43    8.34
   5  -2  -2  104.11    8.67
   5   2  -1   83.69    7.47
   5  -2  -1   85.67    7.66
   5  -2  -1   87.46    7.77
   5   2  -1   85.00    7.70
   5  -2   0 5057.51   65.42
   5   2   0 5104.16   61.04
   5  -2   0 5024.96   56.38
   5  -2   0 4919.62   58.03
   5   2   0 4935.12   60.16
   5  -2   1 2362.82   45.57
   5  -2   1 2329.17   40.53
   5   2   1 2428.33   43.51
   5  -2   2 2008.68   42.39
   5  -2   2 2074.61   40.99
   5   2   2 2030.04   42.28
   5   2   3  345.20    9.06
   5   2   3  349.52    9.08
   5  -2   3  344.68   17.79
   5  -2   3  361.28   16.99
   5  -2   3  355.17   17.98
   5   2   3  363.74    9.66
   5   2   3  387.04   19.53
   5   2   3  341.71    8.33
   5   2   3  343.01    8.95
   5   2   4  172.53    6.53
   5   2   4  180.11    6.71
   5  -2   4  192.41   14.01
   5   2   4  174.52    7.05
   5   2   4  171.35   13.64
   5   2   4  170.25    6.11
   5   2   4  176.47    6.72
   5  -2   4  201.06    6.36
   5   2   5   92.35    4.90
   5  -2   5   94.87   10.21
   5   2   5   93.05    5.30
   5   2   5   92.64   10.38
   5   2   5   91.75    4.60
   5   2   5   96.55    5.12
   5  -2   5  107.32    4.83
   5   2   6  325.52    9.04
   5  -2   6  343.48   19.60
   5   2   6  336.97   10.07
   5  -2   6  342.77    9.43
   5   2   6  325.11   19.66
   5   2   6  329.13    8.62
   5   2   6  324.66    9.42
   5  -2   6  351.72    8.84
   5   2   7  397.31    9.38
   5  -2   7  406.47   20.80
   5  -2   7  391.43    9.89
   5   2   7  398.34    9.04
   5   2   7  391.86    9.95
   5  -2   7  396.60    9.13
   5  -2   8  166.09    5.98
   5   2   8  176.23    5.37
   5   2   8  175.46    6.09
   5  -2   8  174.58    5.55
   5  -2   9  238.12    5.26
   5  -2   9  240.08    5.92
   5  -2   9  245.70    6.22
   5   2   9  236.81    4.92
   5   2   9  253.58    6.12
   5  -2   9  245.02    5.51
   5  -3 -13  197.84    4.65
   5  -3 -13  192.72    4.57
   5   3 -12  327.92    7.55
   5   3 -12  327.21    7.25
   5  -3 -12  325.80    7.55
   5  -3 -12  309.06    6.50
   5  -3 -11  139.77   11.65
   5   3 -11  151.32    5.94
   5   3 -11  150.56    5.91
   5  -3 -11  149.51    5.88
   5   3 -11  154.30    5.51
   5  -3 -11  154.22    6.10
   5  -3 -11  145.92    5.40
   5  -3 -10  296.72   18.19
   5   3 -10  310.49    9.15
   5  -3 -10  315.73    8.44
   5   3 -10  308.50    9.24
   5  -3 -10  306.00    9.05
   5   3 -10  310.60    8.98
   5  -3 -10  309.82    9.26
   5  -3 -10  303.21    8.58
   5  -3  -9  100.86   10.82
   5   3  -9   76.95    4.68
   5   3  -9   80.60    5.02
   5  -3  -9  101.21    5.39
   5  -3  -9   98.10    5.39
   5  -3  -8  453.48   22.84
   5   3  -8  449.88   11.17
   5  -3  -8  442.54   20.15
   5   3  -8  455.50   11.70
   5  -3  -8  438.18   10.45
   5  -3  -8  435.36   11.36
   5   3  -7  488.97   21.33
   5   3  -7  492.54   11.33
   5  -3  -7  472.86   20.56
   5  -3  -7  482.67   22.51
   5   3  -7  505.23   12.15
   5  -3  -7  487.16   10.91
   5  -3  -7  482.62   21.30
   5   3  -7  471.40   11.05
   5   3  -6  921.88   29.01
   5  -3  -6  771.13   25.62
   5  -3  -6  831.35   28.44
   5   3  -6  945.91   15.96
   5  -3  -6  792.17   13.43
   5  -3  -6  856.17   27.79
   5   3  -6  908.11   14.98
   5  -3  -5  267.86   15.32
   5  -3  -5  229.67   14.22
   5   3  -5  265.82   15.49
   5  -3  -5  261.64   15.51
   5  -3  -4  280.70   15.61
   5  -3  -4  269.94   15.55
   5  -3  -4  275.75   15.36
   5   3  -4  244.88   14.72
   5  -3  -3  125.60   10.60
   5  -3  -3  140.41   10.97
   5   3  -3  121.48   10.40
   5  -3  -3  131.22   10.52
   5  -3  -2  222.12   13.71
   5  -3  -2  222.12   13.72
   5  -3  -2  225.80   13.57
   5   3  -2  227.16   14.22
   5  -3  -1  921.91   27.54
   5  -3  -1  949.36   23.44
   5  -3  -1  913.83   26.82
   5   3  -1  973.41   29.02
   5  -3   0  886.39   24.01
   5  -3   0  850.26   26.26
   5   3   0  924.98   28.81
   5  -3   1 1276.20   35.22
   5  -3   1 1274.22   30.71
   5   3   1 1331.56   35.39
   5   3   2  313.31    8.78
   5  -3   2  341.08   18.14
   5  -3   2  341.95   17.49
   5  -3   2  333.25   17.74
   5  -3   2  343.52   16.95
   5   3   2  299.63   17.65
   5   3   2  291.81    7.98
   5   3   2  310.96    8.72
   5   3   2  320.93    8.48
   5   3   3  997.24   15.92
   5  -3   3  987.50   30.65
   5  -3   3 1002.45   31.79
   5  -3   3 1014.34   31.06
   5   3   3 1049.98   33.97
   5   3   3  972.87   15.04
   5   3   3 1007.54   16.27
   5   3   4  349.73    9.53
   5  -3   4  371.50   19.12
   5  -3   4  369.72   19.81
   5  -3   4  366.36   19.48
   5   3   4  364.43   20.76
   5   3   4  341.84    9.13
   5   3   4  346.71    9.80
   5   3   5 1333.90   18.32
   5  -3   5 1319.62   38.02
   5   3   5 1363.65   40.79
   5   3   5 1284.31   17.81
   5   3   5 1318.72   19.26
   5  -3   6  790.04   29.49
   5  -3   6  801.56   13.86
   5   3   6  839.97   31.73
   5   3   6  819.52   13.90
   5   3   6  827.42   14.94
   5  -3   6  830.07   12.68
   5  -3   7 1151.33   15.96
   5   3   7 1159.46   15.43
   5   3   7 1163.25   16.60
   5  -3   7 1186.52   14.33
   5  -3   8   69.23    3.58
   5   3   8   63.52    3.16
   5   3   8   66.09    3.51
   5  -3   8   66.72    3.00
   5  -3   9  300.36    5.54
   5  -3   9  301.62    6.02
   5  -3   9  306.65    6.08
   5   3   9  305.28    5.93
   5   4 -12  122.56    3.88
   5  -4 -12  131.57    4.14
   5  -4 -12  132.47    3.95
   5   4 -11   27.42    2.29
   5   4 -11   29.21    2.54
   5  -4 -11   36.70    2.77
   5   4 -11   28.47    2.32
   5  -4 -11   36.32    2.26
   5  -4 -11   40.54    2.88
   5  -4 -11   37.78    2.67
   5  -4 -10 1403.82   37.35
   5   4 -10 1445.73   17.86
   5   4 -10 1503.98   19.72
   5  -4 -10 1477.43   19.08
   5   4 -10 1511.73   19.29
   5  -4 -10 1460.85   18.84
   5  -4  -9  386.42   20.70
   5   4  -9  377.20    9.60
   5   4  -9  381.35    8.99
   5   4  -9  378.52   10.61
   5  -4  -9  384.93   10.32
   5   4  -9  371.98   10.40
   5  -4  -9  375.67   10.11
   5  -4  -8  274.48   17.98
   5   4  -8  256.13    7.97
   5  -4  -8  271.87   16.71
   5   4  -8  263.77    8.03
   5   4  -8  262.21    9.00
   5  -4  -8  261.32    8.64
   5   4  -7  448.68   22.11
   5  -4  -7  490.09   22.39
   5  -4  -7  488.70   23.35
   5   4  -7  455.76   11.75
   5   4  -7  445.64   11.13
   5   4  -6  720.67   28.02
   5  -4  -6  635.03   25.11
   5  -4  -6  666.41   26.87
   5   4  -6  738.08   14.52
   5  -4  -6  674.01   12.29
   5  -4  -6  682.37   26.81
   5   4  -6  691.86   13.86
   5   4  -5 1572.51   40.81
   5  -4  -5 1529.51   37.77
   5  -4  -5 1562.78   40.57
   5   4  -5 1534.10   20.12
   5  -4  -5 1569.68   18.52
   5   4  -5 1508.14   19.90
   5  -4  -5 1631.20   40.78
   5  -4  -4 1097.86   32.82
   5  -4  -4 1068.80   31.77
   5   4  -4 1088.88   34.02
   5  -4  -4 1059.24   32.91
   5   4  -4 1065.34   16.19
   5   4  -4 1076.86   16.41
   5  -4  -3  400.51   20.40
   5  -4  -3  403.41   19.63
   5   4  -3  407.38   20.44
   5  -4  -3  406.24   19.96
   5   4  -3  399.74    9.79
   5  -4  -2  295.94   17.26
   5  -4  -2  292.64   16.49
   5   4  -2  333.96   18.48
   5  -4  -2  295.35   17.08
   5  -4  -1  421.88   20.49
   5  -4  -1  437.85   20.04
   5   4  -1  401.28   20.38
   5   4  -1  406.93   10.23
   5  -4   0  145.87   10.02
   5  -4   0  145.01   11.56
   5   4   0  138.38   12.14
   5   4   0  132.74   11.94
   5   4   0  140.03    6.13
   5   4   0  139.64    5.67
   5  -4   1  334.31   19.11
   5  -4   1  323.29   17.96
   5  -4   1  321.73   15.83
   5   4   1  312.79   18.81
   5   4   1  330.81   18.88
   5   4   1  323.14    9.38
   5   4   1  313.49    8.46
   5  -4   2   57.61    7.78
   5  -4   2   61.84    8.06
   5  -4   2   52.75    6.88
   5   4   2   61.14    8.51
   5   4   2   62.67    8.41
   5   4   2   63.67    4.27
   5  -4   3  458.78   22.31
   5  -4   3  467.68   22.74
   5  -4   3  464.09   21.31
   5   4   3  508.73   24.93
   5   4   3  507.36   11.44
   5   4   3  504.50   11.95
   5  -4   4  296.25   18.51
   5  -4   4  296.78   17.61
   5   4   4  291.89   19.19
   5   4   4  285.67    8.66
   5   4   4  285.92    9.09
   5  -4   5   16.28    4.27
   5   4   5   19.10    5.10
   5   4   5   20.52    2.33
   5   4   5   13.82    2.07
   5  -4   6  447.97   21.40
   5  -4   6  457.02    9.69
   5   4   6  432.98   10.01
   5   4   6  446.10   10.60
   5  -4   7  346.87    7.87
   5   4   7  356.83    8.25
   5   4   7  364.08    8.64
   5  -4   8  178.81    4.90
   5   4   8  190.98    5.20
   5   5 -12  326.74    5.57
   5  -5 -12  331.26    5.15
   5   5 -11   38.43    2.51
   5  -5 -11   46.13    2.66
   5   5 -11   37.14    2.35
   5  -5 -11   42.15    2.19
   5  -5 -11   43.56    2.46
   5  -5 -11   45.06    2.60
   5   5 -10  120.26    4.22
   5   5 -10  132.98    5.40
   5  -5 -10  106.61    4.68
   5   5 -10  134.09    5.31
   5  -5 -10  105.86    4.53
   5  -5 -10  106.33    4.68
   5  -5  -9  247.61   15.51
   5   5  -9  207.99    6.53
   5   5  -9  208.25    7.41
   5  -5  -9  260.66    8.04
   5   5  -9  217.55    7.58
   5  -5  -9  254.75    7.67
   5  -5  -8  749.28   28.38
   5  -5  -8  767.02   28.05
   5   5  -8  772.02   13.83
   5   5  -8  807.34   15.19
   5   5  -8  774.79   15.22
   5  -5  -8  779.63   14.11
   5   5  -7  377.36   10.09
   5   5  -7  373.01   10.47
   5  -5  -6 1315.02   38.08
   5   5  -6 1348.41   19.67
   5   5  -6 1339.39   19.63
   5   5  -5  433.87    9.87
   5   5  -5  403.92   22.25
   5  -5  -5  418.48   21.61
   5   5  -5  422.76   10.68
   5   5  -5  424.41   11.02
   5   5  -4   61.08    3.85
   5   5  -4   57.95    8.40
   5  -5  -4   56.18    7.49
   5  -5  -4   50.33    7.57
   5  -5  -4   59.70    8.31
   5   5  -4   60.63    4.14
   5  -5  -3   77.15    9.57
   5   5  -3   83.78    4.66
   5  -5  -3   72.94    8.74
   5   5  -3   98.35   10.89
   5  -5  -3   77.44    9.52
   5  -5  -3   82.78    9.58
   5   5  -3   85.91    4.82
   5  -5  -2  602.27   25.79
   5  -5  -2  591.27   26.23
   5   5  -2  597.81   12.68
   5  -5  -2  606.98   25.03
   5   5  -2  620.78   27.03
   5   5  -2  575.44   12.27
   5   5  -2  597.64   12.46
   5  -5  -1  933.56   32.77
   5  -5  -1  917.77   30.65
   5   5  -1  907.04   32.65
   5   5  -1  866.48   15.31
   5   5  -1  867.59   14.62
   5  -5   0   41.14    6.90
   5  -5   0   38.98    6.40
   5   5   0   45.22    3.36
   5   5   0   49.69    7.88
   5   5   0   41.24    3.47
   5   5   0   42.77    3.21
   5  -5   1  596.05   21.64
   5  -5   1  611.72   25.40
   5   5   1  592.46   12.58
   5   5   1  612.82   26.64
   5   5   1  596.33   13.24
   5  -5   2  153.11   13.27
   5  -5   2  152.58   11.58
   5   5   2  142.54    6.54
   5  -5   3  677.52   28.12
   5  -5   3  654.87   24.94
   5   5   3  707.39   29.98
   5   5   3  683.50   14.12
   5  -5   4   31.46    5.71
   5   5   4   28.63    6.09
   5   5   4   33.90    3.10
   5  -5   5  358.32   18.62
   5   5   5  420.31   10.23
   5   5   6  395.85    7.98
   5  -5   6  422.00    8.06
   5   5   6  419.49    9.28
   5   5   7  348.21    7.88
   5  -5   7  343.33    6.41
   5   5   7  352.45    7.21
   5  -5   8  148.13    3.41
   5   5   8  170.12    4.26
   5   6 -11   41.78    2.05
   5  -6 -11   45.79    2.07
   5   6 -10   17.59    1.38
   5  -6 -10   18.87    1.68
   5   6 -10   18.09    1.73
   5  -6 -10   19.48    1.62
   5  -6 -10   18.47    1.50
   5  -6 -10   20.81    1.80
   5   6  -9  220.44    6.12
   5   6  -9  221.50    6.65
   5  -6  -9  240.13    6.77
   5   6  -9  229.56    6.98
   5  -6  -9  226.18    6.11
   5  -6  -8   51.87    6.86
   5   6  -8   41.55    3.10
   5   6  -8   40.63    3.12
   5  -6  -8   62.95    3.96
   5   6  -8   42.77    3.33
   5  -6  -8   53.47    3.30
   5  -6  -7  217.32   15.00
   5   6  -7  197.63    7.12
   5   6  -7  205.42    7.17
   5   6  -7  204.53    7.57
   5  -6  -7  216.66    7.09
   5  -6  -6   87.50    9.79
   5  -6  -6   94.17    9.93
   5   6  -6   72.43    4.56
   5   6  -6   73.00    4.34
   5   6  -6   73.62    4.63
   5   6  -5  460.92   10.25
   5  -6  -5  455.29   22.68
   5  -6  -5  456.79   22.22
   5   6  -5  453.53   10.40
   5   6  -5  443.73   11.12
   5   6  -5  458.66   11.36
   5   6  -4   31.66    2.88
   5  -6  -4   36.94    6.54
   5   6  -4   30.78    2.89
   5   6  -4   33.85    3.14
   5   6  -3   48.83    3.66
   5  -6  -3   40.40    6.51
   5  -6  -3   43.90    7.20
   5   6  -3   51.27    3.79
   5   6  -2   12.13    1.98
   5  -6  -2   20.28    5.26
   5  -6  -2   20.71    4.90
   5   6  -2   15.25    2.16
   5  -6  -1  439.34   23.46
   5   6  -1  450.95   11.46
   5  -6  -1  439.12   21.88
   5   6  -1  466.76   10.54
   5   6  -1  431.43   10.22
   5  -6   0   29.65    6.35
   5   6   0   24.24    2.79
   5  -6   0   28.99    5.77
   5   6   0   22.99    2.44
   5   6   0   25.27    2.66
   5  -6   1  652.76   28.58
   5   6   1  664.78   14.12
   5  -6   1  642.68   26.61
   5   6   1  645.09   12.96
   5   6   1  643.85   13.18
   5   6   2  294.76    9.30
   5  -6   2  279.08   17.62
   5   6   2  286.49    8.76
   5   6   2  285.71    8.70
   5   6   3  633.66   12.98
   5  -6   3  651.20   26.35
   5   6   3  652.04   13.08
   5   6   3  639.33   12.64
   5   6   4  398.20    9.38
   5   6   4  409.07   10.02
   5   6   4  405.95    9.45
   5   6   5  958.89   14.19
   5   6   5  943.45   12.83
   5   6   6   39.31    2.57
   5   6   6   38.80    2.17
   5   6   7  389.64    6.40
   5  -7 -10  271.78    4.55
   5  -7  -9  101.24    3.44
   5   7  -9  110.31    3.53
   5  -7  -9  106.38    3.70
   5   7  -8   18.98    1.81
   5   7  -8   18.66    1.88
   5   7  -7  241.95    7.10
   5   7  -7  242.71    7.08
   5   7  -6  219.40    7.23
   5   7  -6  197.73    6.63
   5   7  -6  203.30    5.83
   5   7  -5  197.25    6.36
   5  -7  -5  215.58   14.83
   5  -7  -5  206.68   13.78
   5   7  -5  197.40    7.16
   5   7  -5  180.95    6.40
   5   7  -4 1399.15   17.97
   5  -7  -4 1277.69   37.00
   5  -7  -4 1283.29   35.26
   5   7  -4 1363.31   19.04
   5   7  -4 1330.97   16.58
   5   7  -3   17.00    2.13
   5  -7  -3   21.94    4.89
   5   7  -3   17.34    2.21
   5   7  -2  259.85    7.27
   5   7  -2  262.78    8.34
   5  -7  -2  284.06   17.46
   5   7  -2  256.16    7.37
   5   7  -1   21.11    2.45
   5   7  -1   19.97    2.13
   5  -7  -1   16.91    4.39
   5   7   0  200.69    7.41
   5   7   0  192.03    6.58
   5   7   1  447.98   10.84
   5   7   1  436.11    9.93
   5   7   2   10.91    1.69
   5   7   2   10.51    1.58
   5   7   3  639.76   11.33
   5   7   3  647.05   11.37
   5   7   4  293.53    6.68
   5   7   4  316.84    7.37
   5   7   5  259.81    5.91
   5   7   6   42.81    1.91
   5   8  -8   71.39    2.54
   5  -8  -8   64.40    2.23
   5   8  -7  181.28    4.87
   5  -8  -7  157.88    4.05
   5   8  -6  197.89    5.68
   5   8  -6  182.01    4.32
   5   8  -5  257.80    6.85
   5   8  -5  243.50    5.93
   5   8  -4  379.28    8.10
   5   8  -4  369.36    8.46
   5   8  -3   97.73    4.38
   5   8  -3   93.19    4.29
   5   8  -2  187.22    6.21
   5   8  -2  173.53    5.58
   5   8  -1   39.18    2.90
   5   8  -1   36.72    2.42
   5   8  -1   38.08    2.43
   5   8   0  183.80    6.09
   5   8   0  176.40    5.35
   5   8   1  100.46    4.35
   5   8   1  102.60    4.01
   5   8   2  151.13    4.89
   5   8   2  149.19    4.62
   5   8   3  125.50    3.78
   5   8   3  129.32    3.94
   5   8   4  155.96    3.68
   5   9  -5  149.05    3.43
   5   9  -4  265.98    4.79
   5   9  -4  273.15    4.98
   5   9  -3   16.03    1.16
   5   9  -3   20.62    1.54
   5   9  -2   44.37    2.32
   5   9  -1  245.21    5.42
   5   9   0  151.67    4.07
   5   9   1  262.12    4.79
   6   0 -13    1.31    0.54
   6   0 -12  468.65    8.20
   6   0 -12  490.62    9.01
   6   0 -11    8.43    3.10
   6   0 -11   11.82    1.95
   6   0 -11   10.68    1.64
   6   0 -10  252.85   15.85
   6   0 -10  271.90    8.87
   6   0 -10  259.26    7.80
   6   0 -10  259.58    7.93
   6   0  -9    0.45    1.42
   6   0  -9    3.06    1.00
   6   0  -9    0.94    0.69
   6   0  -8  282.73   16.45
   6   0  -8  279.71    8.49
   6   0  -8  286.19    8.70
   6   0  -8  287.10    8.27
   6   0  -7    4.99    2.34
   6   0  -7    4.08    1.18
   6   0  -7    6.84    1.41
   6   0  -6 1030.21   28.19
   6   0  -6 1087.83   15.77
   6   0  -5   10.64    2.67
   6   0  -5   12.45    2.91
   6   0  -4 3702.23   50.42
   6   0  -4 3565.17   45.90
   6   0  -3    5.18    2.07
   6   0  -3    3.58    1.88
   6   0  -2  936.30   27.03
   6   0  -2  919.70   25.32
   6   0  -1    2.54    1.62
   6   0  -1    3.28    1.85
   6   0  -1    3.44    1.60
   6   0   0  499.71   21.83
   6   0   0  536.85   19.08
   6   0   0  488.67   17.75
   6   0   1   -0.29    1.37
   6   0   1    1.53    1.32
   6   0   1    0.96    1.02
   6   0   2 1719.19   20.02
   6   0   2 1698.58   42.79
   6   0   2 1667.98   19.48
   6   0   2 1703.19   37.38
   6   0   2 1710.39   18.84
   6   0   3    4.89    1.24
   6   0   3    4.61    1.20
   6   0   3    6.47    2.70
   6   0   3    5.07    1.14
   6   0   4   43.15    3.36
   6   0   4   41.16    3.35
   6   0   4   44.42    6.75
   6   0   4   44.80    3.29
   6   0   5    1.93    0.85
   6   0   5    1.98    0.98
   6   0   5    3.40    2.08
   6   0   5    0.71    0.69
   6   0   6 1401.37   17.96
   6   0   6 1463.68   18.95
   6   0   6 1442.32   19.55
   6   0   6 1417.81   38.35
   6   0   6 1484.10   18.41
   6   0   7    4.31    0.96
   6   0   7    3.14    0.96
   6   0   7    2.80    1.01
   6   0   7    3.31    0.95
   6   0   8 1733.66   16.18
   6   0   8 1771.47   16.35
   6   0   9   11.79    1.00
   6  -1 -13  226.92    4.73
   6  -1 -13  228.16    5.08
   6   1 -12  175.41    5.92
   6  -1 -12  191.08    5.92
   6   1 -12  168.90    4.88
   6  -1 -12  189.43    5.81
   6   1 -11   70.71    7.77
   6  -1 -11   65.73    7.98
   6   1 -11   71.64    4.27
   6  -1 -11   69.20    4.12
   6   1 -11   64.42    3.70
   6   1 -11   62.88    3.43
   6  -1 -11   69.12    4.03
   6   1 -10  362.58   18.19
   6  -1 -10  399.61   20.39
   6   1 -10  433.65   11.06
   6   1 -10  414.13   10.30
   6  -1 -10  406.29    9.63
   6   1 -10  387.71    9.09
   6  -1 -10  413.82   10.30
   6   1  -9   96.74    9.48
   6  -1  -9   94.67   10.11
   6   1  -9  114.48    5.59
   6  -1  -9  101.89    4.90
   6  -1  -9   92.75    4.72
   6   1  -9  115.92    5.09
   6  -1  -9   97.16    5.09
   6   1  -8  707.31   24.91
   6  -1  -8  749.60   27.74
   6   1  -8  755.35   14.31
   6  -1  -8  770.87   13.52
   6  -1  -8  744.09   13.08
   6  -1  -8  753.74   14.15
   6  -1  -8  752.16   13.98
   6   1  -7  363.81   16.89
   6  -1  -7  336.43   17.97
   6   1  -7  359.42    9.72
   6  -1  -7  346.42    8.93
   6   1  -7  367.78    9.53
   6  -1  -7  348.12    9.38
   6   1  -6  912.44   14.86
   6   1  -6  903.63   14.40
   6  -1  -6  881.40   14.31
   6  -1  -5 1631.82   35.37
   6   1  -5 1632.96   34.02
   6  -1  -4 1914.58   40.19
   6  -1  -4 1947.31   37.45
   6   1  -4 2010.54   35.77
   6   1  -3   99.61    8.38
   6  -1  -3  112.15    9.53
   6  -1  -3  106.94    8.56
   6  -1  -2   34.59    5.38
   6   1  -2   37.34    5.41
   6  -1  -2   32.41    4.73
   6  -1  -2   36.40    5.45
   6   1  -2   35.86    4.91
   6  -1  -1  826.42   26.97
   6   1  -1  857.84   27.14
   6  -1  -1  797.96   22.91
   6  -1  -1  842.43   25.43
   6   1  -1  867.45   24.52
   6  -1   0  249.41   15.64
   6   1   0  244.57   15.20
   6  -1   0  287.73   13.76
   6  -1   0  240.57   13.55
   6   1   0  259.88   13.94
   6   1   1  140.33    5.79
   6   1   1  145.17    5.82
   6  -1   1  150.51   12.61
   6   1   1  134.81   11.65
   6  -1   1  137.60   10.26
   6   1   1  140.55   10.81
   6  -1   1  154.74   10.04
   6   1   2  245.37    7.80
   6   1   2  245.85    7.79
   6  -1   2  244.91   16.38
   6  -1   2  244.51   13.79
   6   1   2  248.06    7.85
   6  -1   2  236.89    7.12
   6   1   2  251.40   15.17
   6  -1   2  261.40   14.09
   6   1   2  243.99    7.46
   6   1   3  227.39    7.67
   6   1   3  233.37    7.78
   6  -1   3  238.12   16.42
   6   1   3  239.35    8.03
   6  -1   3  243.48    7.59
   6   1   3  224.71   15.01
   6  -1   3  241.17   14.43
   6   1   3  237.01    7.58
   6  -1   3  237.50    7.06
   6   1   4  772.54   14.25
   6   1   4  778.85   14.36
   6   1   4  778.23   14.93
   6  -1   4  753.16   13.83
   6   1   4  791.07   29.21
   6  -1   4  750.97   26.78
   6   1   4  786.84   14.19
   6  -1   4  775.82   13.06
   6   1   5   47.44    3.51
   6   1   5   49.21    3.64
   6   1   5   46.28    3.70
   6  -1   5   50.64    3.67
   6   1   5   49.26    7.43
   6  -1   5   50.89    7.19
   6   1   5   43.61    3.38
   6  -1   5   46.68    3.25
   6   1   6  532.77   10.70
   6   1   6  533.34   11.37
   6   1   6  536.30   12.11
   6  -1   6  535.26   11.57
   6   1   6  550.04   24.28
   6   1   6  538.65   11.39
   6  -1   6  547.41   10.75
   6  -1   7  205.15    6.25
   6   1   7  207.24    6.41
   6  -1   7  208.15    6.58
   6  -1   7  204.97    6.67
   6   1   7  216.63    6.68
   6  -1   7  210.98    6.17
   6  -1   8 1271.77   12.41
   6   1   8 1329.70   13.21
   6  -1   8 1298.60   14.15
   6  -1   8 1315.39   14.72
   6   1   8 1330.54   14.26
   6  -1   8 1316.20   13.29
   6   1   9   62.93    2.30
   6  -2 -13  169.59    4.06
   6   2 -13  174.65    4.47
   6  -2 -13  168.98    4.32
   6   2 -12  308.83    7.44
   6  -2 -12  313.62    6.81
   6   2 -12  302.72    6.76
   6  -2 -11  125.29   10.89
   6   2 -11  110.95    5.07
   6  -2 -11  121.25    5.07
   6   2 -11  112.00    4.92
   6  -2 -11  121.69    5.03
   6   2 -11  113.92    4.62
   6  -2 -11  130.15    5.45
   6  -2 -10   25.22    5.28
   6   2 -10   27.64    2.78
   6   2 -10   29.11    2.85
   6  -2 -10   25.82    2.53
   6  -2 -10   28.60    2.80
   6  -2 -10   26.62    2.31
   6  -2  -9   58.37    8.05
   6   2  -9   45.05    3.59
   6   2  -9   43.71    3.54
   6  -2  -9   57.41    3.82
   6  -2  -9   57.76    4.00
   6  -2  -8  789.72   29.31
   6   2  -8  722.52   14.41
   6  -2  -8  788.42   14.35
   6  -2  -8  802.12   14.67
   6   2  -8  728.34   12.84
   6   2  -7  461.34   11.30
   6  -2  -7  396.61    9.27
   6  -2  -7  397.84   18.70
   6  -2  -7  395.62   10.10
   6   2  -7  442.06   10.12
   6   2  -6  355.24   17.06
   6  -2  -6  306.28   16.77
   6   2  -6  360.30    9.66
   6  -2  -6  317.57    8.30
   6   2  -6  336.38    8.66
   6  -2  -6  314.66    8.70
   6  -2  -6  335.57   17.08
   6   2  -6  337.20    8.69
   6  -2  -5 2324.82   44.89
   6   2  -5 2244.26   43.24
   6   2  -5 2274.63   23.37
   6  -2  -4  212.01   13.83
   6  -2  -4  223.29   13.62
   6   2  -4  233.66   14.13
   6   2  -3  457.12   17.73
   6  -2  -3  457.19   19.51
   6  -2  -3  456.96   20.35
   6  -2  -3  466.00   19.66
   6   2  -2 1128.05   29.61
   6  -2  -2 1060.16   29.34
   6  -2  -2 1104.81   31.13
   6  -2  -1  100.42    9.78
   6   2  -1  103.35    9.52
   6  -2  -1  112.97    9.57
   6  -2  -1  107.25    9.72
   6   2  -1   99.63    9.19
   6  -2   0  537.45   23.57
   6  -2   0  600.74   22.05
   6  -2   0  559.75   21.77
   6   2   0  590.54   22.86
   6   2   1  665.50   12.61
   6   2   1  673.87   13.12
   6  -2   1  711.43   25.33
   6  -2   1  691.28   24.50
   6   2   1  661.09   24.95
   6   2   1  660.30   12.51
   6   2   2    1.87    0.88
   6   2   2    1.62    0.85
   6  -2   2    0.88    1.46
   6  -2   2    2.64    1.62
   6  -2   2    3.35    2.01
   6   2   2    4.51    2.32
   6   2   2    1.64    0.79
   6   2   3  145.75    6.11
   6   2   3  150.90    6.41
   6  -2   3  148.74   13.04
   6  -2   3  159.52   13.12
   6  -2   3  147.89   11.64
   6  -2   3  160.38    5.98
   6   2   3  151.63   12.92
   6  -2   3  158.52   11.32
   6   2   3  159.70    5.80
   6   2   3  142.88    6.16
   6   2   4 1053.61   16.16
   6   2   4 1093.99   17.17
   6  -2   4 1047.21   34.22
   6  -2   4 1119.21   31.72
   6  -2   4 1083.42   16.01
   6   2   4 1103.72   35.50
   6  -2   4 1065.51   30.75
   6   2   4 1119.71   15.38
   6   2   4 1054.96   16.92
   6   2   5   57.69    3.61
   6   2   5   58.50    3.91
   6  -2   5   55.69    3.69
   6   2   5   54.65    8.04
   6  -2   5   57.75    7.45
   6   2   5   59.42    3.49
   6   2   5   58.34    3.99
   6  -2   5   58.28    3.43
   6   2   6  382.25    9.26
   6  -2   6  400.66    9.53
   6   2   6  381.89    8.21
   6   2   6  382.03    9.65
   6  -2   6  402.01    8.60
   6   2   7  313.99    7.32
   6  -2   7  304.99    7.67
   6  -2   7  307.93    7.71
   6   2   7  307.25    7.85
   6  -2   7  306.75    6.77
   6  -2   8   12.48    1.26
   6  -2   8   13.01    1.41
   6  -2   8   11.39    1.30
   6   2   8   14.28    1.47
   6  -2   8   14.74    1.23
   6  -3 -13   30.76    1.61
   6   3 -13   30.03    1.57
   6  -3 -13   31.43    1.67
   6   3 -12   16.88    1.59
   6   3 -12   15.85    1.53
   6  -3 -12   13.68    1.52
   6  -3 -12   14.29    1.22
   6  -3 -11  424.83   19.20
   6   3 -11  471.99    9.64
   6  -3 -11  386.54    7.89
   6   3 -11  481.73    9.91
   6  -3 -11  428.93    9.22
   6   3 -11  479.30    9.32
   6  -3 -11  440.58    9.60
   6  -3 -11  415.91    8.18
   6  -3 -10   56.97    7.65
   6   3 -10   37.99    3.05
   6   3 -10   42.16    3.35
   6  -3 -10   52.08    3.54
   6  -3 -10   53.66    3.72
   6  -3  -9  214.46   15.46
   6   3  -9  214.69    7.35
   6   3  -9  220.21    7.90
   6  -3  -9  214.35    7.49
   6  -3  -9  216.90    7.68
   6  -3  -8  472.84   23.02
   6   3  -8  446.92   10.73
   6   3  -8  453.35   11.56
   6  -3  -8  444.09   10.48
   6  -3  -8  453.76   11.26
   6   3  -8  440.28   10.38
   6  -3  -7  188.57   13.87
   6   3  -7  177.80    6.70
   6  -3  -7  182.55   12.43
   6  -3  -7  185.41   14.16
   6   3  -7  186.33    7.40
   6  -3  -7  189.25    6.93
   6   3  -7  181.73    6.82
   6  -3  -6 1350.66   36.75
   6   3  -6 1344.22   35.99
   6  -3  -6 1314.06   33.35
   6  -3  -6 1340.15   37.09
   6   3  -6 1336.13   19.15
   6  -3  -6 1351.34   18.19
   6   3  -6 1306.01   18.14
   6  -3  -5 1477.09   38.07
   6   3  -5 1598.22   39.32
   6   3  -5 1607.17   20.30
   6  -3  -5 1495.37   17.80
   6  -3  -5 1529.39   38.76
   6   3  -5 1520.13   19.21
   6  -3  -4  848.39   28.65
   6  -3  -4  820.74   28.43
   6  -3  -4  804.03   28.05
   6   3  -4  864.81   29.16
   6   3  -4  852.11   14.24
   6   3  -4  858.14   14.20
   6  -3  -3   73.63    8.66
   6  -3  -3   89.28    9.56
   6  -3  -3   88.52    9.58
   6   3  -3   68.42    8.35
   6   3  -3   72.59    4.05
   6   3  -3   73.95    4.19
   6  -3  -2 1870.78   42.64
   6  -3  -2 1943.92   43.33
   6   3  -2 1891.22   44.01
   6   3  -2 1847.50   20.97
   6   3  -2 1893.34   21.03
   6  -3  -1  241.57   15.69
   6  -3  -1  241.25   15.23
   6  -3  -1  241.34   15.27
   6   3  -1  235.30   15.03
   6   3  -1  251.16    7.93
   6   3  -1  244.25    7.59
   6   3   0   27.00    2.64
   6  -3   0   28.86    5.70
   6  -3   0   25.41    5.05
   6  -3   0   27.50    5.25
   6   3   0   23.87    5.15
   6   3   0   25.55    2.61
   6   3   0   23.38    2.44
   6   3   1 1763.09   21.35
   6  -3   1 1652.69   44.42
   6  -3   1 1768.22   39.79
   6  -3   1 1725.07   41.10
   6   3   1 1803.66   44.12
   6   3   1 1707.21   21.32
   6   3   1 1718.80   20.43
   6   3   2 1406.04   19.53
   6  -3   2 1345.18   39.63
   6  -3   2 1364.38   36.77
   6  -3   2 1328.28   36.34
   6   3   2 1418.33   40.19
   6   3   2 1399.34   19.64
   6   3   2 1380.60   18.33
   6   3   3  373.60   10.11
   6  -3   3  393.42   20.33
   6  -3   3  389.23   19.78
   6   3   3  379.14   21.28
   6   3   3  363.25   10.10
   6   3   3  358.94    9.23
   6   3   4  516.11   11.65
   6  -3   4  531.40   24.02
   6  -3   4  529.84   22.92
   6  -3   4  549.13   10.90
   6   3   4  523.09   25.15
   6   3   4  519.93   10.92
   6   3   4  509.42   11.92
   6   3   5   68.23    4.00
   6  -3   5   71.07    8.81
   6  -3   5   80.98    4.17
   6   3   5   60.07    8.39
   6   3   5   70.24    3.88
   6   3   5   70.10    4.33
   6   3   6 1099.15   13.84
   6  -3   6 1095.93   14.51
   6   3   6 1092.91   15.91
   6  -3   7  213.46    5.94
   6  -3   7  212.07    5.77
   6   3   7  218.12    6.28
   6  -3   8   29.10    1.79
   6  -3   8   28.13    1.79
   6  -3   8   29.45    1.74
   6   3   8   27.43    1.80
   6   4 -12    9.25    0.97
   6   4 -12   10.25    1.14
   6   4 -12   10.86    0.99
   6  -4 -12   11.74    1.22
   6  -4 -12   10.13    0.96
   6   4 -11  275.92    6.23
   6   4 -11  304.23    7.33
   6  -4 -11  280.76    6.93
   6   4 -11  313.90    7.08
   6  -4 -11  288.64    7.05
   6  -4 -11  279.61    6.40
   6  -4 -10  369.94   18.37
   6   4 -10  307.15    8.43
   6  -4 -10  368.78    8.97
   6   4 -10  305.65    8.26
   6  -4 -10  379.83    9.13
   6  -4  -9 1348.16   37.32
   6   4  -9 1338.47   16.60
   6   4  -9 1407.68   16.19
   6   4  -9 1437.20   19.50
   6  -4  -9 1383.04   18.53
   6  -4  -9 1363.08   18.47
   6  -4  -8  120.67   11.68
   6  -4  -8  106.70    9.92
   6   4  -8  133.03    5.47
   6   4  -8  136.93    6.27
   6  -4  -8  112.42    4.97
   6  -4  -8  116.97    5.65
   6  -4  -7  217.29   14.38
   6  -4  -7  216.54   15.48
   6   4  -7  220.10    8.03
   6  -4  -7  219.80    7.20
   6   4  -7  213.50    7.56
   6   4  -6   55.83    7.87
   6  -4  -6   69.88    8.26
   6  -4  -6   77.76    9.37
   6   4  -6   59.35    4.14
   6  -4  -6   69.16    4.10
   6   4  -6   53.92    3.84
   6   4  -5   70.11    8.89
   6  -4  -5   54.67    7.87
   6  -4  -5   54.22    7.82
   6   4  -5   63.95    4.16
   6  -4  -5   57.36    3.73
   6   4  -5   61.43    4.04
   6  -4  -4  467.00   22.57
   6   4  -4  437.25    9.76
   6  -4  -4  439.86   21.57
   6   4  -4  453.57   22.57
   6  -4  -4  458.94   22.41
   6   4  -4  426.77   10.28
   6   4  -4  427.10   10.52
   6  -4  -3  507.81   24.07
   6  -4  -3  540.45   24.48
   6  -4  -3  511.34   23.94
   6   4  -3  525.31   24.25
   6   4  -3  514.30   11.50
   6  -4  -2  711.70   28.18
   6  -4  -2  726.38   28.00
   6   4  -2  672.30   27.66
   6   4  -2  687.24   13.31
   6   4  -2  672.19   12.98
   6  -4  -1  249.18   16.59
   6  -4  -1  248.61   16.33
   6   4  -1  238.41   16.56
   6   4  -1  237.97    8.08
   6   4  -1  231.03    7.59
   6  -4   0  303.19   18.89
   6  -4   0  316.05   18.77
   6  -4   0  318.86   18.35
   6   4   0  341.60   19.90
   6   4   0  326.68    9.69
   6   4   0  325.91    8.97
   6  -4   1  812.20   26.93
   6  -4   1  806.76   29.51
   6   4   1  784.42   30.97
   6   4   1  817.45   31.04
   6   4   1  773.50   14.99
   6   4   1  771.93   13.64
   6  -4   2  485.93   21.69
   6  -4   2  486.75   22.89
   6   4   2  482.15   24.48
   6   4   2  488.04   11.95
   6   4   2  481.95   10.51
   6  -4   3  260.64   16.31
   6  -4   3  277.00   17.16
   6   4   3  267.07   18.22
   6   4   3  268.79    8.84
   6  -4   4  880.99   30.13
   6  -4   4  887.55   29.89
   6   4   4  945.47   33.61
   6   4   4  937.15   15.96
   6  -4   5  100.41    4.14
   6   4   5  103.07    5.02
   6  -4   6  329.91    6.92
   6   4   6  334.21    8.13
   6  -4   7  142.25    4.18
   6  -4   7  129.15    3.64
   6   4   7  133.41    4.32
   6   5 -11  975.33   11.32
   6  -5 -11  990.09   11.20
   6   5 -11 1010.01   11.03
   6  -5 -11  980.11   10.55
   6   5 -10  427.85    8.88
   6  -5 -10  503.61    9.42
   6   5 -10  419.32    8.73
   6  -5 -10  492.92    7.95
   6  -5 -10  498.37    9.13
   6  -5 -10  504.45    9.18
   6  -5  -9  206.69   13.61
   6   5  -9  207.49    6.02
   6   5  -9  218.21    7.01
   6  -5  -9  232.15    7.14
   6   5  -9  219.49    7.20
   6  -5  -9  226.45    6.88
   6  -5  -8   71.58    8.62
   6  -5  -8   66.33    7.87
   6   5  -8   43.10    3.15
   6   5  -8   47.11    3.49
   6   5  -8   42.34    3.47
   6  -5  -8   67.75    4.07
   6  -5  -7  447.85   20.90
   6  -5  -7  433.42   21.25
   6   5  -7  437.12   10.40
   6   5  -7  429.78   10.64
   6   5  -7  426.27   10.55
   6  -5  -6 1136.14   33.99
   6  -5  -6 1149.07   35.42
   6   5  -6 1187.66   17.70
   6  -5  -6 1200.74   15.80
   6   5  -6 1180.05   17.89
   6  -5  -5  125.38   11.93
   6   5  -5  105.68    5.20
   6  -5  -5  126.08    5.28
   6   5  -5  115.50    5.67
   6   5  -4    7.64    1.55
   6   5  -4    6.21    1.26
   6  -5  -4    8.55    3.09
   6  -5  -4    4.38    2.43
   6  -5  -3  339.51   20.36
   6   5  -3  356.45    9.50
   6  -5  -3  362.54   20.24
   6  -5  -3  347.00   20.17
   6   5  -3  363.32    9.87
   6   5  -2   95.99    5.12
   6  -5  -2   78.62    9.51
   6   5  -2   94.57    5.07
   6   5  -2   89.74    4.86
   6  -5  -1  291.56   18.86
   6  -5  -1  278.82   17.84
   6   5  -1  263.26    8.52
   6   5  -1  260.88    8.12
   6  -5   0  240.29   17.10
   6  -5   0  242.88   16.57
   6   5   0  278.00    8.88
   6   5   0  276.56    8.17
   6  -5   1  436.65   23.00
   6  -5   1  438.01   22.24
   6   5   1  470.18   10.49
   6   5   1  443.91   11.31
   6  -5   2 1156.31   32.15
   6  -5   2 1177.43   35.94
   6   5   2 1110.01   16.43
   6   5   2 1114.38   18.00
   6  -5   3  187.05   13.05
   6  -5   3  201.27   14.58
   6   5   3  186.51    6.74
   6   5   3  193.75    7.23
   6  -5   4   33.28    2.31
   6   5   4   27.27    2.51
   6   5   4   26.49    2.57
   6  -5   5   42.72    2.44
   6   5   5   41.23    2.75
   6   5   5   45.04    2.95
   6   5   5   42.52    2.94
   6   5   6   30.28    1.78
   6   5   6   32.93    2.19
   6   5   6   33.39    2.19
   6  -5   7    6.16    0.77
   6   5   7    4.43    0.62
   6  -6 -10  255.32    5.53
   6   6 -10  255.71    5.68
   6  -6 -10  256.49    5.48
   6   6  -9  145.35    4.46
   6   6  -9  144.23    4.83
   6  -6  -9  142.24    4.86
   6   6  -9  143.75    5.04
   6  -6  -9  129.98    4.33
   6   6  -8  135.67    5.02
   6   6  -8  133.58    5.06
   6   6  -8  139.71    5.46
   6  -6  -8  131.00    4.88
   6   6  -7  123.65    5.22
   6   6  -7  111.23    4.84
   6   6  -7  119.54    5.40
   6  -6  -6  565.67   23.50
   6  -6  -6  594.16   24.11
   6   6  -6  652.79   12.73
   6   6  -6  599.14   11.34
   6   6  -6  622.28   12.41
   6   6  -5  106.52    4.60
   6  -6  -5   82.70    9.27
   6  -6  -5   85.51    9.40
   6   6  -5  100.66    5.02
   6   6  -5  102.71    5.14
   6   6  -4  194.73    6.64
   6  -6  -4  192.12   13.69
   6  -6  -4  222.00   15.60
   6   6  -4  185.72    6.66
   6   6  -4  196.13    7.12
   6   6  -3   45.49    3.39
   6  -6  -3   43.34    6.90
   6  -6  -3   50.02    7.51
   6   6  -3   46.13    3.46
   6   6  -2   26.23    2.70
   6  -6  -2   23.79    5.49
   6  -6  -2   23.34    5.33
   6  -6  -2   23.77    5.39
   6   6  -2   23.24    2.48
   6   6  -1  978.57   16.15
   6  -6  -1  916.04   32.05
   6   6  -1  935.39   14.62
   6   6   0 1437.45   19.80
   6   6   0 1460.78   17.20
   6   6   1  152.89    6.40
   6  -6   1  133.86   12.11
   6   6   1  147.73    5.55
   6   6   1  142.52    5.89
   6   6   2 1427.43   18.84
   6   6   2 1395.98   16.89
   6   6   2 1394.10   17.80
   6   6   3   76.64    4.11
   6   6   3   72.00    3.72
   6   6   3   74.14    3.88
   6   6   4  207.41    6.00
   6   6   4  208.52    5.85
   6   6   4  208.65    5.84
   6   6   5  100.64    3.31
   6   6   5  108.14    3.68
   6   6   5  103.03    3.47
   6   7  -9  322.41    5.11
   6  -7  -9  330.60    5.68
   6   7  -8   24.04    1.78
   6   7  -8   23.01    1.79
   6  -7  -8   25.35    1.58
   6   7  -7  195.43    5.73
   6   7  -7  183.41    5.40
   6  -7  -7  188.77    5.03
   6   7  -6   22.97    2.19
   6   7  -6   19.34    1.87
   6  -7  -6   23.54    1.96
   6   7  -5   35.90    2.43
   6   7  -5   38.36    2.91
   6   7  -5   33.86    2.45
   6   7  -4   82.03    3.96
   6  -7  -4   77.76    8.47
   6   7  -4   81.50    4.31
   6   7  -3  319.48    8.21
   6  -7  -3  319.21   17.30
   6   7  -3  304.83    7.78
   6   7  -2   54.09    3.50
   6  -7  -2   47.34    6.81
   6   7  -2   53.45    3.13
   6   7  -1  511.83   10.79
   6  -7  -1  475.10   21.66
   6   7   0  684.71   12.33
   6   7   0  648.46   10.11
   6  -7   0  677.79   25.78
   6   7   1  229.28    6.92
   6   7   1  230.45    6.00
   6   7   2 1028.69   13.71
   6   7   2 1009.29   12.04
   6   7   3  328.78    6.93
   6   7   3  326.23    6.32
   6   7   4   98.47    3.00
   6   7   4   97.89    2.96
   6   8  -7  347.47    5.64
   6  -8  -7  306.55    4.91
   6   8  -6   78.92    3.10
   6   8  -5  275.10    6.16
   6   8  -5  241.06    4.81
   6   8  -4   48.69    2.48
   6   8  -4   50.20    2.75
   6   8  -3   78.85    3.37
   6   8  -3   69.80    3.18
   6   8  -2  258.24    6.31
   6   8  -2  233.37    5.54
   6   8  -1   97.27    3.89
   6   8   0   84.33    3.52
   6   8   1  168.66    4.63
   6   8   2   93.53    3.02
   7   0 -13   26.02    1.67
   7   0 -12    2.24    0.76
   7   0 -12    1.48    0.54
   7   0 -11  454.47   18.49
   7   0 -11  460.11    8.79
   7   0 -11  433.64    8.60
   7   0 -10   12.19    3.38
   7   0 -10   13.09    1.81
   7   0 -10   11.57    1.61
   7   0  -9 1747.48   39.55
   7   0  -9 1827.27   21.14
   7   0  -9 1751.09   19.51
   7   0  -8    7.64    2.68
   7   0  -8   10.55    1.78
   7   0  -8   10.15    1.87
   7   0  -8   12.23    1.75
   7   0  -7 2194.61   23.76
   7   0  -7 2152.76   21.60
   7   0  -6    4.98    2.32
   7   0  -6    5.20    1.29
   7   0  -6    6.88    1.43
   7   0  -5 1634.70   19.94
   7   0  -5 1646.47   19.51
   7   0  -5 1678.19   18.07
   7   0  -4    1.25    0.71
   7   0  -4    1.34    1.05
   7   0  -4    1.89    0.93
   7   0  -4    0.69    0.66
   7   0  -3  213.12   13.79
   7   0  -3  217.65    7.20
   7   0  -3  223.09    6.86
   7   0  -2    3.46    1.03
   7   0  -2    3.74    1.04
   7   0  -2    4.03    2.18
   7   0  -2    3.33    1.86
   7   0  -2    7.10    1.41
   7   0  -1 2345.63   23.57
   7   0  -1 2351.37   23.97
   7   0  -1 2348.51   49.12
   7   0  -1 2298.72   42.37
   7   0   0    0.51    0.70
   7   0   0    0.75    0.66
   7   0   0    0.02    0.99
   7   0   0    0.69    0.84
   7   0   1  148.62    6.22
   7   0   1  148.45    6.29
   7   0   1  161.57   14.25
   7   0   1  146.40   11.26
   7   0   2    3.03    1.09
   7   0   2    2.18    0.95
   7   0   2    2.07    0.92
   7   0   2    1.85    1.50
   7   0   2    3.16    0.89
   7   0   3  174.70    6.84
   7   0   3  184.13    7.05
   7   0   3  176.83    6.81
   7   0   3  179.16   13.29
   7   0   3  184.85    6.51
   7   0   4    3.54    1.06
   7   0   4    2.66    0.98
   7   0   4    2.21    0.93
   7   0   4    4.08    2.42
   7   0   4    1.94    0.83
   7   0   5  270.40    7.83
   7   0   5  261.46    7.89
   7   0   5  277.29    8.16
   7   0   5  266.05    7.38
   7   0   6    2.63    0.79
   7   0   6    4.19    1.03
   7   0   6    5.57    1.07
   7   0   7 1510.41   14.65
   7   0   7 1492.16   13.58
   7  -1 -13  258.19    4.81
   7  -1 -13  251.70    4.47
   7   1 -12   56.85    3.06
   7  -1 -12   64.15    3.17
   7   1 -12   56.45    2.62
   7  -1 -12   63.57    2.97
   7  -1 -11   67.09    7.34
   7   1 -11   74.39    4.02
   7  -1 -11   75.14    4.06
   7   1 -11   73.45    3.69
   7  -1 -11   75.45    3.77
   7  -1 -10  397.13   19.03
   7   1 -10  372.96    9.70
   7   1 -10  362.34    9.16
   7  -1 -10  373.94    8.35
   7  -1 -10  389.03    9.24
   7  -1  -9  322.07   17.76
   7   1  -9  328.55    9.27
   7  -1  -9  349.50    8.88
   7  -1  -9  315.68    8.01
   7  -1  -9  341.37    9.00
   7  -1  -8  303.06   17.13
   7   1  -8  346.87    9.67
   7  -1  -8  316.89    8.68
   7  -1  -8  316.82    9.12
   7  -1  -8  325.26    8.89
   7  -1  -7  116.26   10.46
   7   1  -7  106.23    5.35
   7  -1  -7  114.24    5.29
   7   1  -7  100.44    5.06
   7  -1  -7  119.99    5.59
   7   1  -7  104.18    4.66
   7  -1  -6  319.64   16.35
   7   1  -6  319.19    9.07
   7  -1  -6  348.92    9.18
   7   1  -6  323.20    8.76
   7  -1  -6  356.55    9.41
   7   1  -6  325.33    8.28
   7  -1  -5  481.36   20.45
   7  -1  -5  488.84   19.76
   7   1  -5  524.26   11.43
   7  -1  -5  496.04   10.98
   7   1  -5  521.55   20.78
   7   1  -5  520.50   10.80
   7  -1  -5  489.26   10.84
   7   1  -5  516.62   10.48
   7  -1  -4  809.89   26.96
   7   1  -4  765.52   24.60
   7  -1  -4  819.58   24.99
   7   1  -4  800.10   13.87
   7  -1  -4  809.70   13.91
   7   1  -4  769.31   12.68
   7   1  -4  787.66   13.04
   7  -1  -3  211.92   14.09
   7   1  -3  212.57   13.56
   7  -1  -3  200.05   13.61
   7  -1  -3  215.30   12.66
   7   1  -3  218.28    7.13
   7  -1  -3  213.48    7.17
   7   1  -3  218.73    6.98
   7  -1  -3  214.26    6.60
   7  -1  -2   83.01    4.29
   7   1  -2   80.24    4.40
   7  -1  -2   83.96    4.32
   7  -1  -2   88.24    9.39
   7   1  -2   76.35    8.53
   7  -1  -2   84.81    8.84
   7  -1  -2   80.20    7.70
   7   1  -2   77.29    4.22
   7   1  -2   77.17    4.23
   7   1  -1  345.88    9.17
   7  -1  -1  353.83    9.06
   7   1  -1  355.81    9.52
   7  -1  -1  359.71    9.11
   7  -1  -1  361.76   19.57
   7   1  -1  364.58   19.37
   7  -1  -1  365.78   18.32
   7   1  -1  349.89    8.89
   7   1  -1  363.35   17.19
   7   1  -1  349.17    8.85
   7   1   0    6.32    1.43
   7   1   0    8.22    1.56
   7  -1   0    7.84    1.40
   7  -1   0    9.31    3.40
   7   1   0    4.40    2.36
   7  -1   0    8.76    3.01
   7   1   0    6.22    1.38
   7   1   0    6.21    2.60
   7   1   0    5.33    1.24
   7   1   1   34.09    3.03
   7  -1   1   43.42    3.34
   7   1   1   44.51    3.53
   7  -1   1   34.31    2.96
   7  -1   1   28.08    6.21
   7  -1   1   38.94    5.90
   7   1   1   40.70    6.29
   7   1   1   36.26    2.97
   7   1   2  229.74    7.87
   7   1   2  226.59    7.93
   7  -1   2  228.20    7.64
   7  -1   2  236.11    7.40
   7   1   2  224.01   15.10
   7   1   2  225.85    7.45
   7   1   3 1229.50   18.01
   7   1   3 1213.43   18.34
   7  -1   3 1208.89   17.65
   7  -1   3 1212.07   17.06
   7   1   3 1269.44   36.44
   7  -1   3 1242.73   33.39
   7   1   3 1240.71   17.47
   7   1   4   26.32    2.60
   7  -1   4   29.38    2.76
   7   1   4   28.61    2.82
   7  -1   4   27.43    2.68
   7  -1   4   28.40    2.62
   7   1   4   32.23    5.92
   7  -1   4   23.29    4.77
   7   1   4   28.38    2.68
   7  -1   4   29.19    2.46
   7   1   5  856.20   13.23
   7  -1   5  873.29   13.94
   7   1   5  890.97   14.45
   7  -1   5  862.43   14.12
   7  -1   5  886.28   13.97
   7   1   5  914.68   14.15
   7  -1   5  870.21   12.65
   7  -1   6  143.10    5.09
   7   1   6  143.20    5.25
   7  -1   6  141.68    5.29
   7  -1   6  146.47    5.26
   7   1   6  148.86    5.23
   7  -1   6  141.84    4.61
   7   1   6  146.04    4.58
   7  -1   7  599.94    8.28
   7   1   7  638.06    8.83
   7  -1   7  613.42    9.31
   7   1   7  642.56    9.19
   7  -1   7  580.06    7.61
   7   2 -13   54.37    2.12
   7  -2 -13   71.76    2.35
   7   2 -12  200.15    5.32
   7  -2 -12  189.11    4.86
   7   2 -12  196.29    4.96
   7  -2 -12  207.49    5.29
   7   2 -11   14.13    1.71
   7  -2 -11    9.58    1.42
   7   2 -11   10.63    1.47
   7   2 -11   13.23    1.49
   7  -2 -11   10.44    1.47
   7  -2 -10  149.96   11.85
   7   2 -10  161.90    6.08
   7   2 -10  172.38    6.34
   7  -2 -10  151.65    5.50
   7  -2 -10  156.64    5.91
   7  -2  -9  415.52   20.48
   7   2  -9  417.27   10.26
   7   2  -9  418.43   10.46
   7  -2  -9  410.01    9.49
   7  -2  -9  421.23   10.17
   7  -2  -9  435.17   10.35
   7  -2  -8   80.41    9.23
   7   2  -8   84.84    4.86
   7  -2  -8   79.79    4.17
   7  -2  -8   81.58    4.41
   7  -2  -8   76.53    4.46
   7  -2  -8   76.74    4.47
   7   2  -8   75.99    4.09
   7   2  -7  644.57   13.21
   7  -2  -7  657.87   12.26
   7  -2  -7  673.52   13.23
   7   2  -7  651.39   12.18
   7  -2  -6  260.20   15.88
   7   2  -6  256.00    8.26
   7  -2  -6  257.60    7.77
   7   2  -6  239.20    7.31
   7  -2  -6  254.90    8.07
   7   2  -6  254.21    7.67
   7  -2  -5 1769.51   40.14
   7   2  -5 1855.60   41.62
   7   2  -5 1844.00   21.75
   7  -2  -5 1751.98   20.44
   7   2  -5 1827.88   20.64
   7  -2  -4  757.41   27.80
   7  -2  -4  737.87   25.64
   7   2  -4  733.92   13.37
   7  -2  -4  760.21   13.58
   7   2  -4  729.11   26.66
   7   2  -4  723.10   12.99
   7  -2  -3  243.55   15.67
   7   2  -3  217.37   13.52
   7  -2  -3  236.04   15.53
   7  -2  -3  239.14   14.59
   7   2  -3  219.00    7.11
   7   2  -3  224.75    7.06
   7   2  -3  228.68    7.40
   7  -2  -2  381.79    9.09
   7  -2  -2  369.59   19.69
   7   2  -2  388.36   19.04
   7  -2  -2  378.61   18.68
   7  -2  -2  382.67   19.94
   7  -2  -2  384.38   18.79
   7   2  -2  375.37    9.16
   7   2  -2  386.52    9.54
   7   2  -2  391.72    9.70
   7  -2  -1   63.64    3.80
   7   2  -1   62.29    4.05
   7  -2  -1   64.53    3.77
   7  -2  -1   64.40    8.47
   7  -2  -1   69.23    7.92
   7  -2  -1   66.42    8.27
   7   2  -1   57.98    7.49
   7   2  -1   62.62    3.98
   7   2  -1   67.09    4.08
   7   2   0  471.82   11.35
   7  -2   0  463.73   10.28
   7  -2   0  434.32   22.62
   7  -2   0  499.89   21.25
   7  -2   0  464.73   21.59
   7   2   0  474.40   21.82
   7   2   0  458.59   10.86
   7   2   0  452.16   10.71
   7   2   1  760.23   14.63
   7  -2   1  767.67   13.47
   7  -2   1  744.21   27.11
   7   2   1  758.09   28.15
   7   2   1  747.74   13.97
   7   2   1  751.57   13.98
   7   2   2  385.70   10.48
   7  -2   2  397.25    9.85
   7  -2   2  406.55   19.84
   7   2   2  379.48   20.29
   7   2   2  380.03   10.01
   7   2   2  380.50    9.92
   7   2   3  440.26   11.04
   7  -2   3  442.90   10.45
   7  -2   3  474.85   10.07
   7   2   3  435.41   22.11
   7   2   3  428.50   10.58
   7   2   3  436.80   10.27
   7   2   4    5.67    1.33
   7  -2   4    6.93    1.39
   7  -2   4    5.92    1.22
   7   2   4    6.26    2.78
   7   2   4    6.73    1.40
   7   2   4   11.77    1.67
   7   2   5   27.00    2.47
   7  -2   5   32.79    2.70
   7  -2   5   27.84    2.34
   7   2   5   25.14    2.39
   7   2   5   26.76    2.16
   7  -2   6  107.74    4.30
   7   2   6  114.91    4.24
   7  -2   6  112.73    4.47
   7  -2   6  108.72    4.19
   7   2   6  120.06    4.66
   7  -2   7   39.10    2.12
   7  -2   7   39.18    2.22
   7   2   7   40.80    2.26
   7   3 -12   99.40    3.20
   7   3 -12   99.37    2.82
   7  -3 -12   89.84    3.27
   7   3 -11  253.83    6.24
   7  -3 -11  287.01    6.38
   7   3 -11  273.33    6.88
   7  -3 -11  303.14    6.82
   7   3 -11  278.17    6.55
   7  -3 -11  319.23    7.38
   7  -3 -11  294.64    5.76
   7  -3 -10  243.86   14.76
   7   3 -10  257.56    6.98
   7  -3 -10  238.45    6.80
   7  -3 -10  241.37    7.16
   7  -3  -9  138.42   11.80
   7   3  -9  127.15    5.24
   7   3  -9  138.58    6.00
   7  -3  -9  139.89    5.65
   7  -3  -9  142.80    5.92
   7  -3  -8   85.01    9.60
   7   3  -8   66.65    3.91
   7   3  -8   76.27    4.60
   7  -3  -8   80.80    4.44
   7  -3  -8   82.83    4.65
   7   3  -8   70.97    4.09
   7   3  -7  834.18   15.19
   7  -3  -7  855.01   14.65
   7   3  -7  813.00   14.13
   7   3  -6   93.97    9.81
   7  -3  -6  126.33   11.50
   7   3  -6   99.96    5.26
   7  -3  -6  136.46    5.50
   7  -3  -6  129.18    5.73
   7   3  -6  103.51    5.10
   7  -3  -5  621.65   25.30
   7   3  -5  595.30   24.83
   7   3  -5  621.44   12.77
   7  -3  -5  647.50   12.32
   7   3  -5  608.11   12.35
   7  -3  -4  658.71   26.63
   7  -3  -4  642.70   25.43
   7   3  -4  655.19   26.39
   7   3  -4  651.52   12.68
   7  -3  -4  648.72   12.53
   7   3  -4  656.31   12.76
   7  -3  -3  886.19   31.32
   7  -3  -3  857.93   29.60
   7   3  -3  860.44   14.13
   7   3  -3  870.18   30.89
   7   3  -3  834.29   14.10
   7   3  -3  894.58   14.92
   7  -3  -2  405.93   21.23
   7  -3  -2  415.38   21.15
   7  -3  -2  414.83   21.66
   7   3  -2  402.07   21.29
   7   3  -2  363.20    9.61
   7   3  -2  372.72    9.65
   7  -3  -1  340.82    8.56
   7  -3  -1  316.25   19.14
   7  -3  -1  329.46   18.69
   7  -3  -1  319.35   18.86
   7   3  -1  337.21   19.91
   7   3  -1  322.06    9.31
   7   3  -1  320.30    9.01
   7  -3   0  554.86   24.08
   7  -3   0  529.40   24.15
   7   3   0  548.32   24.60
   7   3   0  546.34   12.31
   7   3   0  526.07   11.58
   7   3   1 1566.39   20.51
   7  -3   1 1632.79   18.80
   7  -3   1 1619.13   41.11
   7  -3   1 1576.66   41.21
   7   3   1 1545.55   42.11
   7   3   1 1554.69   20.87
   7   3   1 1560.22   19.85
   7   3   2  194.38    7.19
   7  -3   2  198.87    6.67
   7  -3   2  201.97   14.45
   7  -3   2  210.68   14.86
   7   3   2  200.11   15.24
   7   3   2  195.35    7.38
   7   3   2  195.00    6.87
   7   3   3  880.65   14.71
   7  -3   3  881.64   13.95
   7  -3   3  910.28   29.92
   7   3   3  882.37   31.65
   7   3   3  895.12   15.39
   7   3   3  859.91   13.65
   7   3   4   36.24    2.83
   7  -3   4   42.97    3.03
   7   3   4   43.33    3.31
   7   3   4   35.02    2.51
   7  -3   5  238.25    6.60
   7  -3   5  234.99    5.97
   7   3   5  232.13    6.93
   7  -3   6  291.88    6.62
   7  -3   6  292.06    6.48
   7  -3   6  273.48    5.62
   7   3   6  288.18    6.81
   7  -3   7  272.12    4.97
   7  -3   7  269.36    4.94
   7   3   7  275.14    5.20
   7   4 -12  542.90    6.68
   7  -4 -12  464.13    6.21
   7   4 -11  375.97    7.30
   7  -4 -11  390.90    7.12
   7   4 -11  376.38    6.98
   7  -4 -11  401.08    7.44
   7  -4 -11  370.10    6.15
   7   4 -10  243.27    5.67
   7  -4 -10  224.93    5.52
   7   4 -10  285.41    7.35
   7  -4 -10  264.52    6.82
   7   4 -10  283.64    7.27
   7  -4 -10  272.00    7.07
   7  -4  -9   79.09    8.60
   7   4  -9   66.33    3.95
   7  -4  -9   88.81    4.39
   7  -4  -9   85.10    4.36
   7  -4  -8  335.29   18.51
   7   4  -8  337.44    8.14
   7   4  -8  348.49    9.35
   7  -4  -8  314.48    7.99
   7  -4  -8  329.99    8.99
   7   4  -8  338.91    8.74
   7  -4  -7   77.09    9.07
   7   4  -7   83.62    4.72
   7  -4  -7   68.08    3.98
   7   4  -7   78.19    4.44
   7  -4  -6  122.07   10.50
   7  -4  -6  124.49   11.65
   7   4  -6  127.99    5.86
   7  -4  -6  127.93    5.56
   7   4  -6  128.67    5.78
   7  -4  -5  396.34   20.69
   7   4  -5  412.73   10.25
   7  -4  -5  422.72    9.49
   7  -4  -5  391.86    9.78
   7   4  -5  415.00   10.37
   7   4  -4  209.97    6.67
   7  -4  -4  234.88   16.14
   7  -4  -4  207.37   15.08
   7   4  -4  173.89    6.49
   7  -4  -4  219.30    7.12
   7   4  -4  189.12    7.01
   7  -4  -3 1774.50   45.27
   7  -4  -3 1756.66   44.25
   7   4  -3 1749.71   21.26
   7  -4  -2  109.89   11.43
   7  -4  -2  103.00   11.04
   7   4  -2  102.37    5.23
   7   4  -2  104.39    5.17
   7  -4  -1  126.26   12.15
   7  -4  -1  131.96   12.43
   7   4  -1  147.61    6.38
   7   4  -1  140.46    5.98
   7  -4   0  125.35   11.99
   7  -4   0  119.16   11.81
   7   4   0  136.04    6.20
   7   4   0  124.22    5.55
   7  -4   1  435.54   22.14
   7  -4   1  442.15   22.21
   7   4   1  431.79   11.11
   7   4   1  413.00    9.75
   7  -4   2  201.57   14.65
   7   4   2  186.31    7.16
   7   4   2  183.49    6.16
   7  -4   3   47.35    2.94
   7   4   3   42.79    3.34
   7  -4   4  311.90    7.16
   7   4   4  316.37    8.36
   7  -4   5   38.25    2.29
   7   4   5   39.55    2.67
   7  -4   6   41.02    2.18
   7  -4   6   36.75    1.89
   7   4   6   40.81    1.90
   7   4   6   39.93    1.89
   7   4   6   44.19    2.32
   7   5 -11  199.20    4.39
   7  -5 -11  235.72    4.63
   7   5 -11  216.81    4.40
   7  -5 -11  227.13    4.51
   7  -5 -11  211.13    3.89
   7   5 -10  344.14    6.98
   7  -5 -10  343.47    6.87
   7   5 -10  333.60    6.95
   7  -5 -10  343.69    6.84
   7  -5 -10  338.37    6.49
   7   5  -9    4.39    0.83
   7   5  -9    4.37    1.04
   7  -5  -9    5.04    1.15
   7   5  -9    3.05    0.90
   7  -5  -9    3.42    0.95
   7  -5  -8   66.39    7.77
   7   5  -8   90.67    4.06
   7   5  -8   88.57    4.30
   7  -5  -8   71.26    3.92
   7   5  -7  217.34    6.98
   7   5  -7  229.10    7.27
   7  -5  -6  367.60   18.22
   7  -5  -6  372.90   19.49
   7   5  -6  342.66    8.82
   7  -5  -6  388.48    8.86
   7   5  -6  389.60    9.79
   7  -5  -5  309.58   18.15
   7   5  -5  279.93    7.88
   7  -5  -5  317.11    8.23
   7   5  -5  314.40    8.99
   7   5  -4   93.53    4.43
   7  -5  -4   80.72    9.37
   7  -5  -4   84.44    9.58
   7  -5  -4   93.71    4.31
   7   5  -4   88.53    4.80
   7   5  -3  167.87    6.24
   7  -5  -3  165.42   13.64
   7  -5  -3  181.57   14.27
   7   5  -3  169.67    6.59
   7  -5  -2   32.65    6.39
   7   5  -2   36.95    3.07
   7  -5  -2   32.02    6.23
   7  -5  -2   25.13    5.46
   7   5  -2   33.77    2.92
   7  -5  -1  171.34   14.22
   7   5  -1  162.74    6.50
   7   5  -1  168.36    6.33
   7  -5   0  335.91   19.52
   7   5   0  352.76    9.48
   7   5   0  330.62    8.52
   7  -5   1  877.45   30.80
   7   5   1  911.70   15.16
   7   5   1  872.47   12.94
   7   5   2   43.42    3.24
   7   5   3  200.83    5.55
   7   5   3  199.44    6.42
   7   5   4   57.68    3.11
   7   5   4   57.74    2.71
   7   5   4   59.53    3.18
   7   5   5  352.04    6.10
   7   5   5  345.04    5.41
   7  -6 -10   32.95    1.69
   7   6 -10   36.03    1.80
   7  -6 -10   30.87    1.56
   7   6  -9   41.48    2.02
   7   6  -9   39.14    2.13
   7  -6  -9   37.26    2.21
   7   6  -9   42.95    2.40
   7  -6  -9   38.85    2.13
   7   6  -8    2.39    0.66
   7   6  -8    1.61    0.57
   7   6  -8    1.75    0.70
   7  -6  -8    2.09    0.65
   7   6  -7  450.04    8.93
   7  -6  -7  436.40    8.81
   7  -6  -6  403.80   18.66
   7   6  -6  390.73    8.94
   7   6  -6  361.88    8.42
   7   6  -6  384.31    8.92
   7  -6  -5  147.91   11.75
   7   6  -5  159.14    5.60
   7   6  -5  171.23    6.12
   7   6  -4    4.16    1.13
   7   6  -4    5.53    1.10
   7  -6  -4    3.15    2.35
   7  -6  -4    3.22    0.85
   7   6  -3  719.81   12.21
   7   6  -3  683.47   12.23
   7   6  -2   60.66    3.70
   7  -6  -2   57.81    7.75
   7   6  -2   57.21    3.48
   7   6  -1  785.94   13.26
   7  -6  -1  807.60   28.63
   7   6   0  341.10    8.68
   7   6   1 1287.46   16.23
   7   6   1 1249.11   15.53
   7   6   2  341.34    7.89
   7   6   2  341.46    7.57
   7  -6   3  384.13    6.13
   7   6   3  379.92    7.47
   7   6   3  374.10    7.14
   7   6   4   46.69    2.16
   7   7  -8  620.50    7.33
   7  -7  -8  592.29    7.52
   7   7  -7    5.08    0.82
   7   7  -7    4.46    0.73
   7  -7  -7    2.48    0.58
   7   7  -6  123.67    3.68
   7  -7  -6  124.35    3.97
   7   7  -5   73.41    3.50
   7   7  -4   57.70    2.82
   7   7  -4   56.50    3.15
   7   7  -3  329.52    7.13
   7   7  -3  299.64    7.21
   7   7  -2   75.42    3.53
   7   7  -1  571.22    9.73
   7   7   0    3.02    0.79
   7   7   0    2.51    0.61
   7   7   1  478.22    8.20
   7   7   2   20.35    1.56
   7   8  -6   88.57    2.52
   7   8  -5  148.91    3.62
   7   8  -4  103.32    3.09
   7   8  -3   47.69    2.01
   7   8  -3   43.65    1.98
   7   8  -2   29.14    1.67
   7   8  -1   27.91    1.65
   7   8   0   68.18    2.37
   8   0 -13    3.00    0.49
   8   0 -12  183.00    4.80
   8   0 -11   12.09    1.62
   8   0 -11   11.52    1.36
   8   0 -10 2990.24   23.66
   8   0 -10 2829.14   20.67
   8   0  -9   19.13    2.20
   8   0  -8   47.30    3.46
   8   0  -8   50.79    3.56
   8   0  -7    0.84    0.84
   8   0  -7    2.14    1.02
   8   0  -6  291.57    8.68
   8   0  -6  293.35    8.53
   8   0  -5    1.92    0.81
   8   0  -5    2.24    1.06
   8   0  -5    1.78    0.84
   8   0  -4  121.58   10.92
   8   0  -4  131.24    5.82
   8   0  -4  136.41    5.69
   8   0  -4  133.04    5.41
   8   0  -3    3.39    1.02
   8   0  -3    8.44    1.44
   8   0  -2  940.19   15.17
   8   0  -2  928.54   15.34
   8   0  -2  939.27   15.01
   8   0  -1    2.75    1.02
   8   0  -1    5.19    1.34
   8   0  -1    5.19    1.31
   8   0   0  214.83    7.45
   8   0   0  219.08    7.74
   8   0   0  221.38    7.31
   8   0   1    1.92    1.01
   8   0   1    1.52    0.86
   8   0   1    2.34    0.88
   8   0   2 3768.93   30.88
   8   0   2 3780.65   31.79
   8   0   2 3697.93   27.12
   8   0   3    0.87    0.73
   8   0   3    1.62    0.86
   8   0   3    1.03    0.66
   8   0   4  890.80   13.17
   8   0   4  921.60   14.16
   8   0   4  897.44   12.22
   8   0   5    2.15    0.65
   8   0   5    2.73    0.81
   8   0   5    1.04    0.47
   8   0   6   11.50    1.19
   8   0   6    9.17    0.90
   8   1 -12  119.16    3.77
   8  -1 -12  121.97    3.79
   8   1 -12  104.06    3.00
   8  -1 -12  108.52    3.08
   8   1 -11  184.81    5.59
   8  -1 -11  188.26    5.73
   8   1 -11  178.27    5.18
   8  -1 -11  172.07    4.86
   8  -1 -10  508.19   19.30
   8   1 -10  560.71   10.77
   8   1 -10  567.29   10.61
   8  -1 -10  536.51    9.34
   8  -1 -10  523.05    9.49
   8  -1  -9  517.52   20.56
   8   1  -9  512.57   10.91
   8  -1  -9  560.85   10.67
   8  -1  -9  540.93   10.32
   8  -1  -8 1147.88   31.15
   8   1  -8 1195.25   17.33
   8  -1  -8 1148.21   16.19
   8  -1  -8 1202.85   17.15
   8  -1  -8 1116.78   15.47
   8  -1  -7   42.58    6.12
   8   1  -7   38.95    3.23
   8  -1  -7   39.29    3.13
   8   1  -7   37.58    3.02
   8  -1  -7   41.70    3.28
   8   1  -7   39.77    2.84
   8   1  -6 1171.52   17.47
   8  -1  -6 1118.91   16.70
   8   1  -6 1174.25   16.49
   8  -1  -6 1143.05   16.99
   8   1  -6 1182.60   15.84
   8   1  -5   58.82    3.95
   8  -1  -5   60.40    3.95
   8   1  -5   60.76    3.72
   8  -1  -5   58.57    3.87
   8   1  -5   60.65    3.70
   8   1  -4  213.10    7.35
   8  -1  -4  252.87    8.06
   8   1  -4  231.82   15.17
   8   1  -4  208.89    6.68
   8   1  -4  218.45    7.14
   8  -1  -4  244.12    7.03
   8   1  -3   19.56    2.29
   8  -1  -3   21.21    2.43
   8   1  -3   22.57    2.39
   8  -1  -3   22.57    2.26
   8  -1  -2  563.26   11.43
   8  -1  -2  577.41   11.56
   8  -1  -2  552.55   23.00
   8   1  -2  546.44   11.54
   8  -1  -2  561.09   12.10
   8   1  -2  550.02   11.63
   8  -1  -1   96.97    4.90
   8   1  -1   95.59    5.06
   8  -1  -1   98.75    4.98
   8  -1  -1   96.71    9.52
   8   1  -1   95.06    4.75
   8   1  -1   94.85    4.92
   8  -1   0  538.82   11.75
   8   1   0  551.95   12.25
   8  -1   0  540.69   11.79
   8   1   0  537.78   10.86
   8   1   0  553.93   11.96
   8  -1   1  295.86    8.82
   8   1   1  280.04    8.81
   8  -1   1  296.12    8.76
   8   1   1  297.51   16.86
   8   1   1  279.56    8.07
   8   1   1  281.99    8.48
   8  -1   2  550.67   11.79
   8   1   2  555.63   12.30
   8  -1   2  542.92   11.68
   8   1   2  526.47   22.51
   8   1   2  559.01   11.18
   8   1   2  542.27   11.51
   8  -1   3  789.60   13.63
   8   1   3  770.08   13.93
   8  -1   3  784.39   13.59
   8   1   3  771.83   12.68
   8   1   3  747.26   12.79
   8  -1   4   63.13    3.58
   8   1   4   65.67    3.75
   8  -1   4   69.02    3.79
   8   1   4   63.57    3.39
   8   1   4   65.35    3.44
   8  -1   5  110.10    4.09
   8   1   5  104.68    4.15
   8  -1   5  113.64    4.40
   8   1   5  109.60    3.99
   8   1   5  104.97    3.69
   8  -1   6  299.54    5.85
   8   1   6  295.88    5.22
   8  -1   6  294.20    5.21
   8   2 -12  144.16    3.76
   8  -2 -12  171.00    3.98
   8   2 -12  155.11    3.72
   8  -2 -12  183.00    4.05
   8   2 -11  444.71    7.91
   8  -2 -11  475.49    8.43
   8   2 -11  460.24    8.23
   8  -2 -11  469.21    8.08
   8   2 -10  398.90    8.48
   8   2 -10  402.96    8.89
   8  -2 -10  364.60    7.18
   8  -2 -10  372.62    8.12
   8  -2  -9  349.68   17.20
   8   2  -9  327.57    8.25
   8   2  -9  353.70    8.99
   8  -2  -9  354.20    7.73
   8  -2  -9  345.28    7.65
   8  -2  -9  359.47    8.82
   8  -2  -9  364.10    8.65
   8  -2  -8  141.13   11.40
   8   2  -8  151.43    6.20
   8  -2  -8  147.12    5.50
   8  -2  -8  141.18    5.16
   8  -2  -8  149.90    6.02
   8  -2  -8  149.62    5.85
   8   2  -8  139.39    5.25
   8  -2  -7   38.30    6.21
   8   2  -7   55.52    3.85
   8  -2  -7   39.09    3.01
   8  -2  -7   39.81    3.22
   8   2  -7   50.61    3.35
   8  -2  -6  223.36   14.28
   8   2  -6  250.12    8.11
   8  -2  -6  230.58    7.41
   8   2  -6  241.33    7.05
   8  -2  -6  241.87    7.86
   8   2  -6  243.35    7.42
   8  -2  -5  178.49   12.64
   8   2  -5  178.23    6.80
   8  -2  -5  193.64    6.93
   8  -2  -5  185.34    6.90
   8   2  -5  177.87    6.50
   8   2  -4  653.09   12.74
   8  -2  -4  626.20   12.65
   8   2  -4  654.17   12.58
   8  -2  -3  274.86   17.16
   8  -2  -3  276.14   15.45
   8   2  -3  272.49    8.13
   8  -2  -3  306.51    8.97
   8   2  -3  282.57    7.78
   8   2  -3  272.09    8.25
   8  -2  -2  275.25    7.80
   8  -2  -2  261.36   16.66
   8  -2  -2  267.06   15.04
   8   2  -2  257.58    7.70
   8   2  -2  269.83    7.85
   8   2  -2  269.08    8.21
   8  -2  -1  311.95    8.60
   8  -2  -1  313.47    8.39
   8  -2  -1  292.21   17.54
   8   2  -1  319.20    8.84
   8   2  -1  303.32    8.78
   8  -2   0  457.88   10.59
   8  -2   0  473.41   10.52
   8  -2   0  467.07   21.90
   8   2   0  433.81   20.80
   8   2   0  467.09   10.86
   8   2   0  457.82   10.73
   8  -2   1  517.70   11.27
   8   2   1  528.13   11.86
   8  -2   1  528.68   11.16
   8  -2   1  524.91   22.66
   8   2   1  509.77   22.94
   8   2   1  548.60   11.62
   8   2   1  529.84   11.31
   8  -2   2  506.49   10.96
   8   2   2  504.67   11.27
   8  -2   2  500.17   10.69
   8   2   2  499.98   22.46
   8   2   2  521.58   11.11
   8   2   2  494.18   10.52
   8  -2   3  366.90    8.98
   8   2   3  338.56    8.73
   8  -2   3  366.83    8.86
   8   2   3  347.54    8.70
   8   2   3  329.45    8.11
   8  -2   4  137.45    5.11
   8   2   4  134.80    5.01
   8  -2   4  140.67    5.12
   8   2   4  141.00    5.12
   8   2   4  135.44    4.54
   8  -2   5  163.27    4.84
   8  -2   5  164.83    4.91
   8   2   5  169.25    4.90
   8  -2   6  206.63    4.19
   8  -2   6  204.01    4.41
   8   2   6  207.54    4.26
   8   3 -12   48.60    1.92
   8  -3 -12   49.09    1.92
   8   3 -11  217.35    4.65
   8  -3 -11  207.43    4.74
   8   3 -11  253.53    5.75
   8   3 -11  247.55    5.42
   8  -3 -11  248.96    5.62
   8   3 -10  124.56    4.72
   8  -3 -10  124.74    4.19
   8  -3 -10  129.59    4.66
   8  -3  -9  204.32   13.02
   8   3  -9  201.50    5.73
   8  -3  -9  201.87    5.90
   8  -3  -9  215.51    6.59
   8  -3  -8  386.36   18.81
   8   3  -8  395.04    9.67
   8  -3  -8  388.22    8.76
   8  -3  -8  398.41    9.28
   8  -3  -8  394.97    9.40
   8   3  -8  381.92    8.64
   8   3  -7   50.72    3.62
   8  -3  -7   45.44    3.01
   8  -3  -7   50.73    3.52
   8   3  -7   49.40    3.34
   8  -3  -6  885.85   29.03
   8   3  -6  909.92   15.08
   8  -3  -6  896.61   13.96
   8  -3  -6  904.08   14.89
   8   3  -6  900.17   14.58
   8  -3  -5  810.23   27.99
   8   3  -5  779.86   13.86
   8  -3  -5  817.96   13.88
   8  -3  -5  828.77   14.43
   8   3  -5  782.54   13.73
   8  -3  -4  250.37   15.58
   8   3  -4  263.30    7.95
   8  -3  -4  269.50    8.16
   8   3  -4  267.20    8.13
   8  -3  -3  204.83   15.11
   8  -3  -3  209.15   14.20
   8   3  -3  191.83    6.55
   8  -3  -3  215.16    7.43
   8   3  -3  200.59    7.13
   8  -3  -2  693.21   27.81
   8  -3  -2  685.89   25.77
   8   3  -2  721.16   13.11
   8   3  -2  707.47   13.25
   8  -3  -1   54.48    3.46
   8  -3  -1   53.67    7.83
   8  -3  -1   56.24    7.39
   8   3  -1   50.18    3.56
   8   3  -1   50.18    3.54
   8  -3   0 1959.20   20.91
   8  -3   0 1943.45   46.08
   8   3   0 1903.48   22.02
   8   3   0 1874.15   21.24
   8  -3   1 1297.03   17.02
   8  -3   1 1323.26   16.18
   8  -3   1 1288.93   36.23
   8   3   1 1325.22   18.30
   8   3   1 1283.07   16.86
   8  -3   2  127.87    5.23
   8  -3   2  129.08    4.99
   8   3   2  130.61    5.57
   8   3   2  124.73    5.01
   8  -3   3  186.66    6.02
   8  -3   3  175.28    5.53
   8   3   3  183.58    6.22
   8   3   3  175.28    5.29
   8  -3   4   31.20    2.29
   8  -3   4   31.68    2.18
   8   3   4   30.26    2.32
   8  -3   5   10.70    1.16
   8  -3   5   11.11    1.12
   8  -3   5   10.47    0.95
   8   3   5    8.87    1.09
   8   4 -11  231.28    4.80
   8   4 -11  232.28    4.58
   8  -4 -10   14.53    1.27
   8   4 -10   18.74    1.70
   8  -4 -10   20.74    1.62
   8   4 -10   17.98    1.68
   8  -4 -10   20.38    1.72
   8  -4 -10   17.95    1.35
   8   4  -9   44.30    2.84
   8  -4  -9   51.17    2.88
   8  -4  -9   54.73    3.13
   8  -4  -8  503.91   20.77
   8   4  -8  452.30    8.41
   8   4  -8  486.01    9.97
   8  -4  -8  504.02    9.44
   8  -4  -8  539.08   10.47
   8   4  -8  481.29    9.42
   8   4  -7  290.64    7.96
   8  -4  -7  297.49    7.75
   8   4  -7  311.73    8.12
   8  -4  -6  202.90   13.98
   8   4  -6  173.60    6.25
   8  -4  -6  202.21    5.98
   8  -4  -6  202.26    6.62
   8   4  -6  187.85    6.56
   8  -4  -5  606.43   24.33
   8   4  -5  590.77   11.39
   8  -4  -5  618.56   11.22
   8  -4  -5  628.08   11.99
   8   4  -5  637.94   12.34
   8  -4  -4  163.07   12.82
   8   4  -4  143.48    5.51
   8  -4  -4  172.21    6.22
   8   4  -4  150.72    6.08
   8   4  -3  326.54    8.28
   8  -4  -3  317.78   18.86
   8  -4  -3  338.03   18.43
   8  -4  -3  336.73    8.90
   8   4  -3  320.86    8.84
   8  -4  -2   21.53    5.05
   8  -4  -2   17.05    4.18
   8   4  -2   23.03    2.41
   8  -4  -1  516.66   23.95
   8  -4  -1  560.73   23.56
   8   4  -1  550.13   11.45
   8   4  -1  537.00   11.05
   8  -4   0  472.36    9.40
   8   4   0  458.36   10.42
   8   4   0  448.11    9.80
   8  -4   1  352.35    8.06
   8   4   1  356.76    9.04
   8   4   1  331.08    7.96
   8  -4   2   43.11    2.76
   8   4   2   44.36    3.06
   8   4   2   40.64    2.51
   8  -4   3   45.64    2.66
   8   4   3   41.84    2.77
   8  -4   4   98.46    2.94
   8   4   4  101.23    3.72
   8  -4   5   31.44    1.59
   8   4   5   34.05    1.67
   8   5 -10  136.71    3.59
   8  -5 -10  142.24    3.53
   8   5 -10  146.06    3.81
   8  -5 -10  137.66    3.63
   8   5  -9  133.11    3.40
   8   5  -9  129.16    4.07
   8  -5  -9  151.88    4.38
   8   5  -9  133.21    4.33
   8  -5  -9  150.50    4.46
   8   5  -8  194.41    5.11
   8   5  -8  198.12    5.50
   8  -5  -8  215.15    5.84
   8   5  -8  198.66    5.80
   8  -5  -8  211.00    5.92
   8   5  -7  210.19    5.95
   8  -5  -7  192.31    5.36
   8   5  -7  206.32    6.18
   8  -5  -6   30.19    5.33
   8   5  -6   30.37    2.31
   8  -5  -6   27.88    2.26
   8   5  -6   32.58    2.68
   8  -5  -5  108.67    9.95
   8  -5  -5   97.43    4.31
   8   5  -5   98.35    4.65
   8   5  -4 1142.60   13.67
   8  -5  -4 1191.14   33.10
   8  -5  -4 1138.97   14.09
   8  -5  -4 1217.23   15.57
   8   5  -4 1143.10   15.78
   8   5  -3  150.12    5.27
   8  -5  -3  139.38   11.42
   8  -5  -3  136.48    5.11
   8   5  -3  149.88    5.69
   8   5  -2  123.19    4.98
   8  -5  -2  128.67   11.02
   8   5  -2  122.73    5.05
   8   5  -1   29.40    2.51
   8  -5  -1   20.24    4.44
   8   5  -1   24.35    2.22
   8   5   0   43.04    3.01
   8  -5   0   43.44    6.23
   8   5   0   43.50    2.98
   8   5   0   39.98    2.63
   8   5   1  211.43    6.33
   8   5   1  203.69    6.11
   8   5   1  190.87    5.07
   8  -5   2   33.89    2.03
   8   5   2   35.90    2.45
   8   5   2   36.17    2.44
   8  -5   3   77.93    2.74
   8   5   3   74.18    3.08
   8   5   3   71.85    2.99
   8   5   4  275.78    4.59
   8  -6  -9   46.39    1.92
   8  -6  -9   48.58    1.90
   8  -6  -9   45.12    1.78
   8   6  -8   15.76    1.25
   8   6  -8   12.17    0.98
   8  -6  -8   13.74    1.31
   8   6  -8   14.12    1.25
   8  -6  -8   13.17    1.22
   8   6  -7   53.18    2.57
   8  -6  -7   56.62    2.77
   8   6  -6  677.68   10.11
   8   6  -6  588.80    8.73
   8   6  -5  255.96    5.63
   8  -6  -5  255.81    5.60
   8   6  -4 1358.42   13.05
   8  -6  -4 1336.58   13.53
   8   6  -4 1385.25   15.31
   8  -6  -3  261.59    6.21
   8   6  -3  273.33    6.67
   8   6  -2  713.09   10.62
   8  -6  -2  718.33    9.92
   8   6  -1   36.58    2.45
   8   6  -1   31.80    2.08
   8   6   0    9.46    1.24
   8   6   1   27.95    1.96
   8   6   2  284.57    5.48
   8   7  -7   36.69    1.61
   8  -7  -7   39.67    1.72
   8   7  -6  196.76    4.31
   8  -7  -6  191.22    3.94
   8   7  -5   26.63    1.74
   8   7  -4  647.41    8.57
   8   7  -3   12.69    1.09
   8   7  -3   14.11    1.29
   8   7  -2  312.99    5.52
   8   7  -2  290.32    5.31
   8   7  -1  263.67    5.05
   8   7   0   79.75    2.62
   9   0 -12   11.24    1.01
   9   0 -11  581.01    8.57
   9   0 -11  546.68    7.21
   9   0 -10    3.79    0.97
   9   0 -10    5.12    0.98
   9   0  -9  270.93    7.08
   9   0  -8    7.89    1.48
   9   0  -8    7.83    1.43
   9   0  -7  704.50   12.79
   9   0  -7  693.70   12.20
   9   0  -6    6.09    1.44
   9   0  -6    7.35    1.41
   9   0  -5  891.27   14.69
   9   0  -5  888.72   14.00
   9   0  -5  911.94   13.29
   9   0  -4    2.22    0.85
   9   0  -4    2.07    0.90
   9   0  -4    1.06    0.73
   9   0  -3   57.97    3.81
   9   0  -3   58.40    3.50
   9   0  -3   59.30    3.67
   9   0  -2    2.47    0.86
   9   0  -2    1.16    0.76
   9   0  -2    0.84    0.58
   9   0  -1  871.14   13.96
   9   0  -1  911.45   14.49
   9   0   0    2.12    0.93
   9   0   0    1.29    0.78
   9   0   1  864.05   13.89
   9   0   1  881.26   13.71
   9   0   2    3.54    1.00
   9   0   2    2.37    0.85
   9   0   3  459.18    8.77
   9   0   3  462.88    8.46
   9   0   4    3.01    0.67
   9   0   4    2.69    0.68
   9   1 -12   27.62    1.38
   9  -1 -12   41.60    1.74
   9  -1 -11  412.23    7.10
   9   1 -11  399.44    6.51
   9   1 -10  119.03    4.29
   9   1 -10  116.94    4.26
   9  -1 -10  139.41    4.20
   9  -1 -10  139.82    3.96
   9   1  -9   74.65    3.82
   9  -1  -9   76.07    3.60
   9  -1  -9   74.22    3.23
   9   1  -8   35.85    2.88
   9  -1  -8   43.94    3.00
   9  -1  -8   41.13    3.01
   9  -1  -8   40.16    2.57
   9   1  -7  506.80   10.89
   9  -1  -7  528.30   10.75
   9   1  -7  480.03    9.69
   9  -1  -7  536.20   10.98
   9  -1  -7  504.41    9.40
   9   1  -7  510.59    9.35
   9   1  -6  319.53    8.73
   9  -1  -6  303.38    8.38
   9   1  -6  308.29    7.83
   9  -1  -6  297.81    8.27
   9   1  -6  310.29    7.81
   9   1  -5   88.76    4.67
   9  -1  -5   73.19    4.24
   9   1  -5   87.21    4.14
   9  -1  -5   76.62    4.28
   9   1  -5   87.61    4.34
   9   1  -4  499.09   10.89
   9  -1  -4  513.67   11.20
   9  -1  -4  508.34   10.81
   9   1  -4  503.83   10.57
   9  -1  -4  516.58    9.89
   9   1  -3   54.81    3.61
   9  -1  -3   53.08    3.67
   9   1  -3   56.51    3.65
   9  -1  -3   58.94    3.53
   9   1  -2   84.37    4.35
   9  -1  -2   90.71    4.71
   9   1  -2   84.01    4.42
   9  -1  -2   85.49    4.35
   9   1  -1  178.73    6.03
   9  -1  -1  186.14    6.60
   9   1  -1  191.26    6.63
   9  -1  -1  189.73    6.52
   9  -1   0  124.99    5.21
   9   1   0  112.53    4.48
   9  -1   0  128.21    5.26
   9   1   0  125.40    5.34
   9  -1   0  132.62    5.42
   9  -1   1 1201.96   15.83
   9  -1   1 1192.30   15.78
   9  -1   1 1153.16   14.71
   9   1   1 1175.43   14.04
   9   1   1 1212.56   15.87
   9  -1   2  324.79    7.81
   9   1   2  321.29    7.98
   9  -1   2  334.73    7.99
   9  -1   2  316.56    6.90
   9   1   2  315.23    6.89
   9   1   2  311.94    7.52
   9  -1   3  122.10    4.45
   9   1   3  122.85    3.86
   9   1   3  123.76    4.23
   9  -1   3  119.99    4.31
   9  -1   4  359.03    6.54
   9  -1   4  368.72    6.42
   9   2 -11  128.44    3.27
   9  -2 -11  120.35    3.53
   9   2 -11  153.67    3.94
   9   2 -11  145.74    3.58
   9  -2 -11  110.62    2.95
   9   2 -10  114.62    3.70
   9   2 -10  120.88    4.25
   9  -2 -10  106.91    3.58
   9   2  -9  303.17    6.70
   9  -2  -9  295.97    6.33
   9  -2  -9  299.19    6.68
   9   2  -8   42.13    2.68
   9   2  -8   48.93    3.26
   9  -2  -8   38.79    2.64
   9  -2  -8   41.84    2.95
   9  -2  -8   37.14    2.58
   9   2  -8   44.13    2.61
   9   2  -7  134.77    5.50
   9  -2  -7  122.30    4.95
   9  -2  -7  129.73    5.38
   9   2  -7  128.50    4.85
   9   2  -6   32.19    2.80
   9  -2  -6   34.78    2.79
   9  -2  -6   33.07    2.84
   9   2  -6   32.19    2.64
   9   2  -5  153.96    5.96
   9  -2  -5  177.68    6.43
   9  -2  -5  172.72    6.36
   9   2  -5  158.67    5.89
   9   2  -4  660.58   12.20
   9  -2  -4  710.39   13.01
   9  -2  -4  704.87   12.80
   9   2  -4  679.39   12.31
   9   2  -3 1091.12   15.19
   9  -2  -3 1104.57   16.32
   9   2  -3 1148.83   16.19
   9  -2  -3 1116.52   14.10
   9  -2  -2  523.02   11.16
   9   2  -2  491.19   10.56
   9  -2  -2  517.54   10.07
   9  -2  -1  271.29    7.94
   9   2  -1  265.83    7.11
   9   2  -1  271.26    7.87
   9  -2  -1  270.32    7.42
   9  -2   0  228.40    6.76
   9  -2   0  216.01    6.31
   9  -2   0  218.33    6.85
   9   2   0  216.83    6.40
   9   2   0  223.46    6.91
   9  -2   1   93.03    4.24
   9  -2   1   87.40    3.97
   9  -2   1   85.27    4.05
   9   2   1   85.68    3.92
   9   2   1   87.25    4.11
   9  -2   2  546.09    9.64
   9  -2   2  515.05    9.08
   9  -2   2  521.24    9.00
   9   2   2  527.61    9.13
   9   2   2  531.03    9.20
   9  -2   3   87.63    3.53
   9  -2   3   86.78    3.39
   9  -2   3   88.43    3.11
   9   2   3   78.35    3.13
   9   2   3   79.75    3.11
   9  -2   4  295.41    5.22
   9  -2   4  317.85    5.65
   9   3 -11  273.89    4.77
   9   3 -11  278.00    4.46
   9   3 -10  146.91    4.31
   9  -3 -10  165.80    4.30
   9   3  -9  780.56   11.13
   9  -3  -9  796.33   10.64
   9   3  -8  221.26    6.38
   9  -3  -8  206.06    5.99
   9  -3  -8  200.75    5.85
   9   3  -8  215.23    5.68
   9   3  -7  479.89    9.79
   9  -3  -7  461.62    8.69
   9  -3  -7  496.57    9.92
   9   3  -7  476.18    9.24
   9   3  -6   55.02    3.39
   9  -3  -6   63.50    3.48
   9  -3  -6   64.87    3.75
   9   3  -6   59.80    3.50
   9  -3  -5  304.17   15.48
   9   3  -5  313.00    8.00
   9  -3  -5  313.89    8.06
   9  -3  -5  331.15    8.59
   9   3  -5  324.09    8.28
   9  -3  -4  831.30   25.47
   9   3  -4  815.08   12.61
   9  -3  -4  889.13   14.00
   9  -3  -4  899.77   14.24
   9   3  -4  861.14   13.71
   9  -3  -3  352.68    8.94
   9   3  -3  344.51    8.73
   9  -3  -2  136.64    5.60
   9   3  -2  127.77    5.29
   9  -3  -1  194.75    6.55
   9   3  -1  193.35    6.04
   9   3  -1  194.09    6.37
   9  -3  -1  184.86    5.55
   9  -3   0    8.86    1.29
   9   3   0    7.74    1.25
   9   3   0    6.55    1.25
   9  -3   1   26.32    2.08
   9   3   1   25.72    2.12
   9   3   1   27.40    2.14
   9  -3   2  419.71    7.68
   9  -3   2  370.86    6.39
   9  -3   2  401.97    7.64
   9   3   2  388.72    7.45
   9   3   2  387.37    7.02
   9  -3   3  505.84    7.51
   9  -3   3  417.00    5.88
   9  -3   3  489.59    7.01
   9   3   3  500.69    7.34
   9   3   3  442.11    5.87
   9  -3   4    2.92    0.49
   9   4 -10   61.84    2.37
   9   4 -10   62.15    2.39
   9  -4 -10   60.15    2.28
   9   4  -9  304.49    6.08
   9  -4  -9  307.56    5.22
   9   4  -8  294.69    5.56
   9   4  -8  277.17    6.36
   9  -4  -8  311.56    6.04
   9  -4  -8  318.76    6.48
   9  -4  -8  339.17    7.08
   9   4  -7   37.90    2.51
   9   4  -7   44.87    2.72
   9   4  -6   19.66    1.84
   9  -4  -6   24.37    1.88
   9  -4  -6   25.82    2.19
   9   4  -6   25.81    2.22
   9  -4  -5  256.13   14.07
   9   4  -5  251.77    6.36
   9  -4  -5  272.80    6.74
   9  -4  -5  284.29    7.33
   9   4  -5  278.84    7.36
   9  -4  -4  200.43   12.51
   9  -4  -4  208.84    6.19
   9  -4  -4  208.11    6.42
   9   4  -4  206.11    6.41
   9   4  -3  408.84    7.87
   9  -4  -3  386.00   17.17
   9  -4  -3  414.44    8.90
   9   4  -3  409.60    8.90
   9   4  -2   60.24    3.18
   9  -4  -2   55.06    3.30
   9   4  -2   60.47    3.40
   9  -4  -1  540.48   10.05
   9   4  -1  529.72    9.56
   9   4   0  106.89    4.01
   9  -4   0  116.42    3.70
   9   4   1  146.30    4.54
   9   4   1  143.76    4.19
   9  -4   1  131.78    3.86
   9   4   2  259.00    5.44
   9  -4   2  259.17    4.93
   9   4   3  126.40    3.31
   9  -4   3  129.07    3.17
   9   5  -9  172.07    3.70
   9  -5  -9  182.16    3.80
   9   5  -8   51.76    2.01
   9   5  -8   48.05    2.06
   9   5  -8   51.94    2.37
   9  -5  -8   45.42    2.23
   9   5  -7   40.01    2.15
   9   5  -7   35.35    1.88
   9   5  -7   35.78    2.10
   9  -5  -7   37.41    2.00
   9  -5  -6  335.77    6.55
   9   5  -6  385.97    7.46
   9  -5  -5  298.84    6.51
   9   5  -5  325.13    7.16
   9  -5  -4   54.32    2.64
   9  -5  -4   64.57    3.13
   9   5  -4   59.67    3.14
   9   5  -3  157.01    4.33
   9  -5  -3  164.15    4.83
   9  -5  -3  167.43    5.08
   9   5  -3  160.94    5.02
   9   5  -2   80.47    3.25
   9  -5  -2   75.28    3.30
   9   5  -2   76.73    3.34
   9   5  -1  349.95    6.79
   9  -5  -1  360.48    7.07
   9   5   0   19.57    1.60
   9   5   0   18.84    1.40
   9   5   1   51.59    2.34
   9  -5   1   52.09    2.37
   9   5   2  230.81    4.17
   9  -5   2  220.63    4.10
   9   6  -7  435.18    5.40
   9  -6  -7  408.37    5.65
   9   6  -6   21.37    1.43
   9  -6  -6   16.06    1.28
   9   6  -5  889.35    9.65
   9  -6  -5  684.71    6.90
   9  -6  -4    8.77    0.92
   9   6  -4    7.51    0.98
   9   6  -3   83.81    2.42
   9  -6  -3   86.93    2.84
   9   6  -3   86.50    2.94
   9  -6  -2   84.91    2.50
   9  -6  -2   91.05    2.91
   9   6  -2   85.66    2.63
   9   6  -1  232.26    4.32
   9  -6  -1  243.57    4.48
   9   6   0   12.74    0.95
  10   0 -10  129.51    3.63
  10   0 -10  127.02    3.46
  10   0  -9    1.73    0.64
  10   0  -8 1201.65   13.86
  10   0  -7    5.88    1.23
  10   0  -7    4.90    1.03
  10   0  -6   62.32    3.51
  10   0  -6   57.11    3.11
  10   0  -5    4.59    0.92
  10   0  -5    3.73    1.06
  10   0  -5    4.43    0.97
  10   0  -4  969.93   13.79
  10   0  -4  994.85   12.80
  10   0  -3    3.42    0.85
  10   0  -3    3.03    0.92
  10   0  -3    3.37    0.78
  10   0  -2  425.31    8.66
  10   0  -2  448.84    8.89
  10   0  -1    0.18    0.57
  10   0  -1    0.30    0.49
  10   0   0  463.52    7.57
  10   0   0  488.24    8.73
  10   0   1    1.57    0.60
  10   0   2  136.34    3.81
  10   0   3    1.37    0.36
  10   1 -10  145.88    3.48
  10  -1 -10  165.37    4.18
  10   1 -10  175.90    4.18
  10  -1 -10  135.62    3.09
  10   1  -9  314.16    5.90
  10  -1  -9  306.91    6.02
  10   1  -8  132.94    4.62
  10  -1  -8  144.01    4.65
  10  -1  -8  142.89    4.64
  10  -1  -7   72.30    3.54
  10  -1  -7   74.02    3.53
  10   1  -6   33.29    2.57
  10  -1  -6   42.64    2.86
  10  -1  -6   41.65    2.76
  10   1  -6   33.62    2.25
  10   1  -5  350.85    8.16
  10  -1  -5  368.31    8.17
  10   1  -5  365.02    7.71
  10   1  -4 1400.86   16.10
  10  -1  -4 1435.28   16.81
  10  -1  -4 1397.81   15.69
  10   1  -4 1462.67   15.87
  10  -1  -4 1363.49   13.91
  10   1  -3  194.78    5.88
  10  -1  -3  225.85    6.64
  10  -1  -3  222.59    6.14
  10   1  -3  200.31    6.00
  10  -1  -3  219.50    5.86
  10   1  -2  492.02    8.81
  10  -1  -2  506.94    9.61
  10  -1  -2  486.80    8.69
  10  -1  -2  502.29    8.99
  10   1  -1  411.10    7.37
  10  -1  -1  418.25    8.30
  10  -1  -1  412.38    7.49
  10   1  -1  436.76    8.62
  10  -1  -1  429.38    8.24
  10  -1   0  198.26    5.22
  10  -1   0  200.70    4.66
  10   1   0  208.03    5.67
  10  -1   0  206.15    5.53
  10  -1   1  225.01    4.78
  10   1   1  227.85    5.45
  10  -1   1  236.81    5.51
  10   1   2   25.02    1.58
  10  -1   2   25.38    1.64
  10  -2 -10  153.31    3.69
  10   2 -10  179.56    4.00
  10  -2  -9  145.49    3.48
  10  -2  -9  137.28    3.17
  10   2  -8  329.68    6.93
  10  -2  -8  316.48    6.23
  10  -2  -8  332.48    6.85
  10   2  -7  187.80    5.58
  10  -2  -7  188.09    5.32
  10  -2  -7  193.15    5.58
  10  -2  -7  174.06    4.54
  10   2  -7  180.80    4.82
  10   2  -6  149.61    5.06
  10  -2  -6  151.43    5.07
  10  -2  -6  156.22    5.23
  10   2  -6  157.77    4.88
  10  -2  -5  488.15    9.37
  10  -2  -5  476.22    9.23
  10   2  -5  468.56    8.77
  10   2  -4  160.16    5.14
  10  -2  -4  155.51    5.40
  10  -2  -4  147.92    5.14
  10   2  -4  169.26    5.43
  10  -2  -3  734.41   11.64
  10  -2  -3  729.35   11.18
  10  -2  -2  130.19    4.80
  10  -2  -2  124.13    4.49
  10   2  -2  133.49    4.79
  10  -2  -2  122.07    4.04
  10  -2  -1  256.90    6.43
  10   2  -1  246.84    6.26
  10  -2  -1  248.14    5.77
  10  -2   0  245.14    5.78
  10   2   0  248.45    5.90
  10  -2   0  250.22    5.61
  10  -2   1   61.58    2.53
  10  -2   1   61.09    2.30
  10   2   1   62.28    2.67
  10  -2   1   61.99    2.62
  10   2   2   72.53    2.35
  10  -2   2   79.16    2.56
  10   3  -9  312.96    5.47
  10  -3  -9  257.56    4.31
  10   3  -8    3.14    0.71
  10  -3  -8    2.72    0.67
  10  -3  -8    3.83    0.66
  10   3  -7    7.85    1.10
  10  -3  -7    6.25    0.92
  10  -3  -7    6.28    1.04
  10  -3  -7    6.35    0.94
  10   3  -7    6.79    0.97
  10  -3  -6  718.85    9.91
  10   3  -6  719.67   10.06
  10   3  -5  116.43    4.00
  10  -3  -5  120.16    4.29
  10  -3  -5  122.00    4.49
  10   3  -5  126.79    4.40
  10  -3  -4  249.28    6.33
  10  -3  -4  251.27    6.40
  10   3  -4  241.50    6.21
  10  -3  -3  277.24    6.73
  10  -3  -3  274.19    6.62
  10   3  -3  260.90    6.42
  10   3  -2   23.67    1.64
  10  -3  -2   25.41    2.04
  10  -3  -2   26.09    2.03
  10   3  -2   24.40    1.97
  10  -3  -1  125.16    4.24
  10   3  -1  123.23    4.12
  10  -3  -1  114.17    3.25
  10  -3   0   15.77    1.41
  10   3   0   17.58    1.43
  10  -3   0   12.73    1.08
  10  -3   1  152.00    3.72
  10   3   1  153.97    3.57
  10   4  -8    2.86    0.52
  10  -4  -8    6.62    0.75
  10   4  -7   69.73    2.33
  10   4  -7   67.14    2.40
  10  -4  -7   97.74    3.16
  10  -4  -7   95.98    3.08
  10   4  -7   79.41    2.81
  10   4  -6  134.70    3.39
  10  -4  -6  141.03    3.50
  10  -4  -6  173.12    4.52
  10   4  -6  167.80    4.45
  10  -4  -5    6.79    0.91
  10  -4  -5    8.60    1.13
  10  -4  -4  227.22    5.24
  10   4  -4  225.22    5.44
  10  -4  -3  124.82    3.94
  10  -4  -3  133.77    4.20
  10   4  -3  124.17    4.01
  10   4  -2   43.19    1.90
  10  -4  -2   46.15    2.38
  10  -4  -2   48.84    2.47
  10   4  -2   44.42    2.33
  10   4  -1   13.67    1.10
  10  -4  -1   14.14    1.28
  10  -4  -1   14.41    1.28
  10   4  -1   13.62    1.23
  10   4   0   18.63    1.20
  10  -4   0   17.81    1.31
  10  -4   0   19.76    1.34
  10   4   0   19.30    1.19
  10   5  -6   70.14    2.22
  10  -5  -6   54.25    2.08
  10  -5  -5   65.80    2.32
  10   5  -5   60.86    2.34
  10  -5  -4    6.14    0.78
  10   5  -4    5.68    0.78
  10  -5  -3   59.41    2.04
  10  -5  -3   66.78    2.42
  10   5  -3   66.46    2.41
  10  -5  -2  328.59    4.78
  10   5  -2  300.57    4.55
  11   0  -8   -0.03    0.21
  11   0  -8    0.34    0.34
  11   0  -7  292.93    5.74
  11   0  -6    1.00    0.52
  11   0  -5  429.43    7.38
  11   0  -5  377.13    5.54
  11   0  -4    2.55    0.58
  11   0  -4    3.02    0.74
  11   0  -3  652.06    8.51
  11   0  -3  654.01    8.07
  11   0  -2    0.84    0.43
  11   0  -2    0.17    0.30
  11   0  -1  227.56    4.51
  11   0   0    0.36    0.27
  11   1  -9  231.50    3.89
  11   1  -8  110.89    3.18
  11  -1  -8  111.84    3.06
  11   1  -7  132.20    3.78
  11  -1  -7  122.57    3.60
  11  -1  -6  107.88    3.60
  11  -1  -6   99.87    3.16
  11   1  -5  396.53    6.79
  11  -1  -5  395.05    7.04
  11  -1  -5  380.54    6.20
  11   1  -5  372.72    5.90
  11   1  -4  281.12    5.55
  11  -1  -4  289.68    5.99
  11  -1  -4  273.16    5.12
  11   1  -4  284.01    5.44
  11   1  -3   71.88    2.60
  11  -1  -3   72.28    2.46
  11   1  -3   72.83    2.81
  11  -1  -3   65.89    2.28
  11  -1  -2  371.92    6.05
  11   1  -2  385.41    6.24
  11  -1  -1    9.17    0.87
  11  -1  -1    9.41    0.88
  11   1   0  231.64    3.94
  11   2  -8  160.07    3.43
  11   2  -7  293.43    5.06
  11  -2  -7  281.48    4.83
  11   2  -6  153.59    3.78
  11  -2  -6  164.16    4.08
  11  -2  -6  165.08    4.01
  11   2  -5  317.46    5.35
  11  -2  -5  315.40    5.90
  11  -2  -5  303.88    5.57
  11   2  -5  321.12    5.48
  11  -2  -4  534.01    7.28
  11   2  -4  530.10    7.32
  11  -2  -3  417.70    6.63
  11  -2  -3  407.28    6.02
  11   2  -3  410.09    6.42
  11  -2  -2  654.40    7.75
  11   2  -2  668.50    7.83
  11  -2  -1  101.98    2.69
  11   2  -1  116.97    3.03
  11  -3  -6   60.10    2.19
  11   3  -6   66.27    2.09
  11  -3  -5   12.52    1.05
  11  -3  -5   14.11    1.12
  11   3  -5   13.97    1.09
  11  -3  -4  148.34    3.59
  11  -3  -4  153.36    3.60
  11   3  -4  158.00    3.65
  11  -3  -3   71.53    2.44
  11  -3  -3   67.09    2.27
  11   3  -3   67.11    2.35
  11  -3  -2   83.30    2.43
  11   3  -2   82.42    2.41
   0   0   0    0.00    0.00


TITL jjw0439 in Pn
REM Pn (#7 in standard setting)
CELL 1.54184   9.333958   8.281394  11.255569  90.0000 109.4015  90.0000
ZERR    1.00   0.000121   0.000098   0.000142   0.0000   0.0014   0.0000
LATT -1
SYMM  x+1/2,-y, z+1/2
SFAC C H N O F P S Cl
UNIT 22.00 16.00 4.00 6.00 6.00 2.00 2.00 8.00
TREF
HKLF 4
END
_computing_structure_solution     'SHELXT 2014/5 (Sheldrick, 2014)'
;
_shelx_hkl_checksum              71375
_shelx_shelxl_version_number     2014/7
_olex2_submission_special_instructions 'No special instructions were received'
_oxdiff_exptl_absorpt_empirical_details
;
Empirical correction (ABSPACK) includes:
- Absorption correction using spherical harmonics
- Frame scaling
;
_oxdiff_exptl_absorpt_empirical_full_max 1.193
_oxdiff_exptl_absorpt_empirical_full_min 0.840
loop_
_space_group_symop_operation_xyz
'x, y, z'
'x+1/2, -y, z+1/2'
loop_
_atom_site_label
_atom_site_type_symbol
_atom_site_fract_x
_atom_site_fract_y
_atom_site_fract_z
_atom_site_U_iso_or_equiv
_atom_site_adp_type
_atom_site_occupancy
_atom_site_site_symmetry_order
_atom_site_calc_flag
_atom_site_refinement_flags_posn
_atom_site_refinement_flags_adp
_atom_site_refinement_flags_occupancy
_atom_site_disorder_assembly
_atom_site_disorder_group
Cl4 Cl 0.76726(10) 0.83204(12) 0.54576(9) 0.01660(19) Uani 1 1 d . . . . .
Cl2 Cl 0.50658(10) 0.90417(13) 0.64296(9) 0.0185(2) Uani 1 1 d . . . . .
Cl3 Cl 0.31653(10) 1.01123(12) 0.38001(9) 0.01634(19) Uani 1 1 d . . . . .
P1 P 0.54491(11) 0.92958(13) 0.47099(10) 0.01212(18) Uani 1 1 d . . . . .
Cl1 Cl 0.62455(11) 1.16688(12) 0.51726(10) 0.0202(2) Uani 1 1 d . . . . .
S1 S -0.15590(12) 0.46255(13) 0.31646(10) 0.0215(2) Uani 1 1 d . . . . .
F5 F 0.0616(3) 0.6642(4) 0.4330(2) 0.0279(6) Uani 1 1 d . . . . .
F7 F -0.1298(3) 0.7765(3) 0.2959(3) 0.0284(6) Uani 1 1 d . . . . .
F6 F 0.0279(3) 0.6363(4) 0.2356(3) 0.0281(6) Uani 1 1 d . . . . .
O1 O -0.2155(4) 0.4843(4) 0.4184(3) 0.0267(8) Uani 1 1 d . . . . .
N2A N 0.4690(4) 0.7155(4) 0.4173(3) 0.0122(7) Uani 0.68(3) 1 d . . P A 1
O2 O -0.0444(5) 0.3357(4) 0.3371(4) 0.0391(10) Uani 1 1 d . . . . .
O3 O -0.2676(4) 0.4675(5) 0.1919(3) 0.0407(10) Uani 1 1 d . . . . .
N1A N 0.5174(4) 0.8044(4) 0.2394(3) 0.0132(7) Uani 0.68(3) 1 d . . P A 1
C1A C 0.5702(4) 0.9367(5) 0.3108(4) 0.0140(8) Uani 0.68(3) 1 d . . P A 1
C6A C 0.4581(4) 0.6815(5) 0.2983(3) 0.0140(8) Uani 0.68(3) 1 d . . P A 1
C8 C 0.3388(5) 0.4327(5) 0.3055(4) 0.0207(9) Uani 1 1 d . . . . .
H8 H 0.2919 0.3381 0.2672 0.025 Uiso 1 1 calc R . . . .
C10 C 0.4190(5) 0.6063(5) 0.4843(4) 0.0163(8) Uani 1 1 d . . . . .
H10 H 0.4291 0.6280 0.5678 0.020 Uiso 0.68(3) 1 calc R . P A 1
H10A H 0.4291 0.6280 0.5678 0.020 Uiso 0.32(3) 1 calc R . P A 2
C7 C 0.3928(5) 0.5408(5) 0.2386(4) 0.0181(8) Uani 1 1 d . . . . .
H7 H 0.3857 0.5202 0.1556 0.022 Uiso 0.68(3) 1 calc R . P A 1
H7B H 0.3857 0.5202 0.1556 0.022 Uiso 0.32(3) 1 calc R . P A 2
C9 C 0.3536(5) 0.4635(5) 0.4300(4) 0.0186(8) Uani 1 1 d . . . . .
H9 H 0.3198 0.3887 0.4763 0.022 Uiso 1 1 calc R . . . .
C5 C 0.5202(5) 0.7886(6) 0.1186(4) 0.0184(8) Uani 1 1 d . . . . .
H5 H 0.4831 0.6959 0.0719 0.022 Uiso 0.68(3) 1 calc R . P A 1
H5B H 0.4831 0.6959 0.0719 0.022 Uiso 0.32(3) 1 calc R . P A 2
C4 C 0.5794(5) 0.9137(6) 0.0682(4) 0.0225(9) Uani 1 1 d . . . . .
H4 H 0.5806 0.9072 -0.0139 0.027 Uiso 1 1 calc R . . . .
C11 C -0.0431(5) 0.6437(6) 0.3207(4) 0.0181(8) Uani 1 1 d . . . . .
C2 C 0.6318(4) 1.0603(5) 0.2622(4) 0.0184(8) Uani 1 1 d . . . . .
H2 H 0.6701 1.1515 0.3105 0.022 Uiso 0.68(3) 1 calc R . P A 1
H2B H 0.6701 1.1515 0.3105 0.022 Uiso 0.32(3) 1 calc R . P A 2
C3 C 0.6367(5) 1.0483(6) 0.1405(4) 0.0221(9) Uani 1 1 d . . . . .
H3 H 0.6789 1.1315 0.1076 0.026 Uiso 1 1 calc R . . . .
C1B C 0.4690(4) 0.7155(4) 0.4173(3) 0.0122(7) Uani 0.32(3) 1 d . . P A 2
C6B C 0.5174(4) 0.8044(4) 0.2394(3) 0.0132(7) Uani 0.32(3) 1 d . . P A 2
N2B N 0.5702(4) 0.9367(5) 0.3108(4) 0.0140(8) Uani 0.32(3) 1 d . . P A 2
N1B N 0.4581(4) 0.6815(5) 0.2983(3) 0.0140(8) Uani 0.32(3) 1 d . . P A 2
loop_
_atom_site_aniso_label
_atom_site_aniso_U_11
_atom_site_aniso_U_22
_atom_site_aniso_U_33
_atom_site_aniso_U_23
_atom_site_aniso_U_13
_atom_site_aniso_U_12
Cl4 0.0112(4) 0.0204(5) 0.0159(4) 0.0020(4) 0.0015(3) 0.0022(4)
Cl2 0.0163(4) 0.0269(5) 0.0119(4) -0.0029(4) 0.0041(3) -0.0013(4)
Cl3 0.0117(4) 0.0178(4) 0.0175(4) 0.0014(4) 0.0021(3) 0.0024(4)
P1 0.0103(4) 0.0126(4) 0.0118(4) -0.0004(4) 0.0014(3) 0.0001(4)
Cl1 0.0182(5) 0.0129(5) 0.0269(5) -0.0038(4) 0.0038(4) -0.0021(4)
S1 0.0304(6) 0.0186(5) 0.0162(5) -0.0045(4) 0.0085(4) -0.0051(4)
F5 0.0234(13) 0.0332(16) 0.0212(13) -0.0064(11) -0.0007(11) -0.0048(12)
F7 0.0292(14) 0.0201(14) 0.0399(16) 0.0119(12) 0.0169(12) 0.0094(11)
F6 0.0283(14) 0.0350(16) 0.0264(14) 0.0008(12) 0.0165(12) 0.0020(12)
O1 0.038(2) 0.0244(18) 0.0224(17) -0.0008(13) 0.0168(15) -0.0045(15)
N2A 0.0112(15) 0.0133(17) 0.0109(16) 0.0011(13) 0.0019(12) -0.0004(14)
O2 0.066(3) 0.0173(18) 0.044(2) -0.0016(16) 0.030(2) 0.0080(17)
O3 0.039(2) 0.058(3) 0.0200(18) -0.0066(17) 0.0031(16) -0.021(2)
N1A 0.0116(16) 0.0151(18) 0.0132(17) 0.0025(14) 0.0044(13) 0.0013(13)
C1A 0.0099(17) 0.0157(19) 0.0147(18) 0.0047(14) 0.0018(14) 0.0025(14)
C6A 0.0109(17) 0.0173(18) 0.0133(19) 0.0038(15) 0.0035(14) 0.0017(15)
C8 0.022(2) 0.014(2) 0.023(2) 0.0020(18) 0.0033(17) -0.0018(17)
C10 0.0177(19) 0.017(2) 0.0145(19) 0.0035(16) 0.0060(16) 0.0014(16)
C7 0.020(2) 0.018(2) 0.0160(19) -0.0026(16) 0.0050(16) 0.0021(16)
C9 0.020(2) 0.013(2) 0.022(2) 0.0043(17) 0.0072(17) -0.0008(16)
C5 0.0171(19) 0.025(2) 0.015(2) 0.0015(17) 0.0075(16) 0.0043(17)
C4 0.0188(19) 0.033(3) 0.017(2) 0.0099(19) 0.0083(17) 0.0074(19)
C11 0.018(2) 0.022(2) 0.0138(18) 0.0005(16) 0.0041(17) 0.0058(17)
C2 0.0139(19) 0.016(2) 0.025(2) 0.0028(17) 0.0061(16) 0.0001(16)
C3 0.0131(19) 0.029(2) 0.025(2) 0.0136(19) 0.0074(17) 0.0052(17)
C1B 0.0112(15) 0.0133(17) 0.0109(16) 0.0011(13) 0.0019(12) -0.0004(14)
C6B 0.0116(16) 0.0151(18) 0.0132(17) 0.0025(14) 0.0044(13) 0.0013(13)
N2B 0.0099(17) 0.0157(19) 0.0147(18) 0.0047(14) 0.0018(14) 0.0025(14)
N1B 0.0109(17) 0.0173(18) 0.0133(19) 0.0038(15) 0.0035(14) 0.0017(15)
loop_
_atom_type_symbol
_atom_type_description
_atom_type_scat_dispersion_real
_atom_type_scat_dispersion_imag
_atom_type_scat_source
C C 0.0181 0.0091 'International Tables Vol C Tables 4.2.6.8 and 6.1.1.4'
H H 0.0000 0.0000 'International Tables Vol C Tables 4.2.6.8 and 6.1.1.4'
Cl Cl 0.3639 0.7018 'International Tables Vol C Tables 4.2.6.8 and 6.1.1.4'
F F 0.0727 0.0534 'International Tables Vol C Tables 4.2.6.8 and 6.1.1.4'
N N 0.0311 0.0180 'International Tables Vol C Tables 4.2.6.8 and 6.1.1.4'
O O 0.0492 0.0322 'International Tables Vol C Tables 4.2.6.8 and 6.1.1.4'
P P 0.2955 0.4335 'International Tables Vol C Tables 4.2.6.8 and 6.1.1.4'
S S 0.3331 0.5567 'International Tables Vol C Tables 4.2.6.8 and 6.1.1.4'
loop_
_exptl_crystal_face_index_h
_exptl_crystal_face_index_k
_exptl_crystal_face_index_l
_exptl_crystal_face_perp_dist
1 0 -1 0.0212
-1 0 1 0.0382
0 1 0 0.0574
0 -1 0 0.0574
-5 0 -2 0.0775
3 -3 4 0.0723
3 3 4 0.0801
-1 -1 -1 0.0851
-2 0 -5 0.0954
2 -3 -5 0.0705
5 2 -3 0.0475
5 -3 -1 0.0529
-5 -3 1 0.0576
-3 4 -1 0.0746
loop_
_geom_angle_atom_site_label_1
_geom_angle_atom_site_label_2
_geom_angle_atom_site_label_3
_geom_angle
_geom_angle_site_symmetry_1
_geom_angle_site_symmetry_3
_geom_angle_publ_flag
Cl4 P1 Cl3 174.21(7) . . ?
Cl2 P1 Cl4 92.30(5) . . ?
Cl2 P1 Cl3 91.44(5) . . ?
Cl2 P1 Cl1 91.14(6) . . ?
Cl1 P1 Cl4 92.22(5) . . ?
Cl1 P1 Cl3 92.13(5) . . ?
N2A P1 Cl4 89.05(11) . . ?
N2A P1 Cl2 92.25(11) . . ?
N2A P1 Cl3 86.38(11) . . ?
N2A P1 Cl1 176.33(12) . . ?
C1A P1 Cl4 88.56(12) . . ?
C1A P1 Cl2 175.26(14) . . ?
C1A P1 Cl3 87.36(12) . . ?
C1A P1 Cl1 93.49(13) . . ?
C1A P1 N2A 83.10(16) . . ?
C1B P1 Cl4 89.05(11) . . ?
C1B P1 Cl2 92.25(11) . . ?
C1B P1 Cl3 86.38(11) . . ?
C1B P1 Cl1 176.33(12) . . ?
N2B P1 Cl4 88.56(12) . . ?
N2B P1 Cl2 175.26(14) . . ?
N2B P1 Cl3 87.36(12) . . ?
N2B P1 Cl1 93.49(13) . . ?
N2B P1 C1B 83.10(16) . . ?
O1 S1 O3 115.1(2) . . ?
O1 S1 C11 104.4(2) . . ?
O2 S1 O1 114.3(2) . . ?
O2 S1 O3 115.2(2) . . ?
O2 S1 C11 102.4(2) . . ?
O3 S1 C11 103.1(2) . . ?
C6A N2A P1 113.8(3) . . ?
C6A N2A C10 119.3(4) . . ?
C10 N2A P1 126.7(3) . . ?
C1A N1A C6A 115.1(3) . . ?
C1A N1A C5 122.8(4) . . ?
C5 N1A C6A 122.1(4) . . ?
N1A C1A P1 113.8(3) . . ?
N1A C1A C2 119.1(4) . . ?
C2 C1A P1 127.1(3) . . ?
N2A C6A N1A 113.8(3) . . ?
N2A C6A C7 122.6(4) . . ?
C7 C6A N1A 123.6(4) . . ?
C7 C8 H8 119.9 . . ?
C7 C8 C9 120.3(4) . . ?
C9 C8 H8 119.9 . . ?
N2A C10 H10 119.7 . . ?
N2A C10 C9 120.6(4) . . ?
C9 C10 H10 119.7 . . ?
C9 C10 H10A 119.7 . . ?
C1B C10 H10A 119.7 . . ?
C1B C10 C9 120.6(4) . . ?
C6A C7 H7 121.0 . . ?
C8 C7 C6A 117.9(4) . . ?
C8 C7 H7 121.0 . . ?
C8 C7 H7B 121.0 . . ?
C8 C7 N1B 117.9(4) . . ?
N1B C7 H7B 121.0 . . ?
C8 C9 H9 120.4 . . ?
C10 C9 C8 119.2(4) . . ?
C10 C9 H9 120.4 . . ?
N1A C5 H5 120.8 . . ?
N1A C5 C4 118.4(4) . . ?
C4 C5 H5 120.8 . . ?
C4 C5 H5B 120.8 . . ?
C6B C5 H5B 120.8 . . ?
C6B C5 C4 118.4(4) . . ?
C5 C4 H4 120.2 . . ?
C3 C4 C5 119.6(4) . . ?
C3 C4 H4 120.2 . . ?
F5 C11 S1 111.5(3) . . ?
F5 C11 F7 107.2(4) . . ?
F5 C11 F6 107.8(3) . . ?
F7 C11 S1 111.5(3) . . ?
F6 C11 S1 111.3(3) . . ?
F6 C11 F7 107.3(3) . . ?
C1A C2 H2 120.2 . . ?
C1A C2 C3 119.6(4) . . ?
C3 C2 H2 120.2 . . ?
C3 C2 H2B 120.2 . . ?
N2B C2 H2B 120.2 . . ?
N2B C2 C3 119.6(4) . . ?
C4 C3 C2 120.4(4) . . ?
C4 C3 H3 119.8 . . ?
C2 C3 H3 119.8 . . ?
C10 C1B P1 126.7(3) . . ?
N1B C1B P1 113.8(3) . . ?
N1B C1B C10 119.3(4) . . ?
C5 C6B N1B 122.1(4) . . ?
N2B C6B C5 122.8(4) . . ?
N2B C6B N1B 115.1(3) . . ?
C2 N2B P1 127.1(3) . . ?
C6B N2B P1 113.8(3) . . ?
C6B N2B C2 119.1(4) . . ?
C7 N1B C6B 123.6(4) . . ?
C1B N1B C7 122.6(4) . . ?
C1B N1B C6B 113.8(3) . . ?
loop_
_geom_bond_atom_site_label_1
_geom_bond_atom_site_label_2
_geom_bond_distance
_geom_bond_site_symmetry_2
_geom_bond_publ_flag
Cl4 P1 2.1231(14) . ?
Cl2 P1 2.0926(14) . ?
Cl3 P1 2.1447(14) . ?
P1 Cl1 2.1044(14) . ?
P1 N2A 1.930(4) . ?
P1 C1A 1.896(4) . ?
P1 C1B 1.930(4) . ?
P1 N2B 1.896(4) . ?
S1 O1 1.443(3) . ?
S1 O2 1.443(4) . ?
S1 O3 1.443(4) . ?
S1 C11 1.824(5) . ?
F5 C11 1.327(5) . ?
F7 C11 1.339(5) . ?
F6 C11 1.334(5) . ?
N2A C6A 1.340(5) . ?
N2A C10 1.356(5) . ?
N1A C1A 1.352(5) . ?
N1A C6A 1.423(5) . ?
N1A C5 1.374(5) . ?
C1A C2 1.373(6) . ?
C6A C7 1.382(6) . ?
C8 H8 0.9300 . ?
C8 C7 1.369(6) . ?
C8 C9 1.385(6) . ?
C10 H10 0.9300 . ?
C10 H10A 0.9300 . ?
C10 C9 1.377(6) . ?
C10 C1B 1.356(5) . ?
C7 H7 0.9300 . ?
C7 H7B 0.9300 . ?
C7 N1B 1.382(6) . ?
C9 H9 0.9300 . ?
C5 H5 0.9300 . ?
C5 H5B 0.9300 . ?
C5 C4 1.382(6) . ?
C5 C6B 1.374(5) . ?
C4 H4 0.9300 . ?
C4 C3 1.379(7) . ?
C2 H2 0.9300 . ?
C2 H2B 0.9300 . ?
C2 C3 1.389(6) . ?
C2 N2B 1.373(6) . ?
C3 H3 0.9300 . ?
C1B N1B 1.340(5) . ?
C6B N2B 1.352(5) . ?
C6B N1B 1.423(5) . ?
loop_
_geom_torsion_atom_site_label_1
_geom_torsion_atom_site_label_2
_geom_torsion_atom_site_label_3
_geom_torsion_atom_site_label_4
_geom_torsion
_geom_torsion_site_symmetry_1
_geom_torsion_site_symmetry_2
_geom_torsion_site_symmetry_3
_geom_torsion_site_symmetry_4
_geom_torsion_publ_flag
Cl4 P1 C1A N1A 93.3(3) . . . . ?
Cl4 P1 C1A C2 -88.0(3) . . . . ?
Cl4 P1 N2B C2 -88.0(3) . . . . ?
Cl4 P1 N2B C6B 93.3(3) . . . . ?
Cl3 P1 C1A N1A -82.6(3) . . . . ?
Cl3 P1 C1A C2 96.1(3) . . . . ?
Cl3 P1 N2B C2 96.1(3) . . . . ?
Cl3 P1 N2B C6B -82.6(3) . . . . ?
P1 N2A C6A N1A 5.4(4) . . . . ?
P1 N2A C6A C7 -173.7(3) . . . . ?
P1 N2A C10 C9 173.5(3) . . . . ?
P1 C1A C2 C3 -177.6(3) . . . . ?
P1 C1B N1B C7 -173.7(3) . . . . ?
P1 C1B N1B C6B 5.4(4) . . . . ?
Cl1 P1 C1A N1A -174.6(3) . . . . ?
Cl1 P1 C1A C2 4.1(3) . . . . ?
Cl1 P1 N2B C2 4.1(3) . . . . ?
Cl1 P1 N2B C6B -174.6(3) . . . . ?
O1 S1 C11 F5 55.7(3) . . . . ?
O1 S1 C11 F7 -64.1(3) . . . . ?
O1 S1 C11 F6 176.1(3) . . . . ?
N2A P1 C1A N1A 4.1(3) . . . . ?
N2A P1 C1A C2 -177.3(4) . . . . ?
N2A C6A C7 C8 -0.5(6) . . . . ?
N2A C10 C9 C8 -0.2(6) . . . . ?
O2 S1 C11 F5 -63.7(3) . . . . ?
O2 S1 C11 F7 176.5(3) . . . . ?
O2 S1 C11 F6 56.6(3) . . . . ?
O3 S1 C11 F5 176.3(3) . . . . ?
O3 S1 C11 F7 56.5(4) . . . . ?
O3 S1 C11 F6 -63.3(3) . . . . ?
N1A C1A C2 C3 1.0(6) . . . . ?
N1A C6A C7 C8 -179.5(4) . . . . ?
N1A C5 C4 C3 1.4(6) . . . . ?
C1A N1A C6A N2A -2.1(5) . . . . ?
C1A N1A C6A C7 176.9(4) . . . . ?
C1A N1A C5 C4 -0.1(6) . . . . ?
C1A C2 C3 C4 0.3(6) . . . . ?
C6A N2A C10 C9 -1.8(6) . . . . ?
C6A N1A C1A P1 -2.3(4) . . . . ?
C6A N1A C1A C2 179.0(3) . . . . ?
C6A N1A C5 C4 179.8(4) . . . . ?
C8 C7 N1B C1B -0.5(6) . . . . ?
C8 C7 N1B C6B -179.5(4) . . . . ?
C10 N2A C6A N1A -178.7(3) . . . . ?
C10 N2A C6A C7 2.2(6) . . . . ?
C10 C1B N1B C7 2.2(6) . . . . ?
C10 C1B N1B C6B -178.7(3) . . . . ?
C7 C8 C9 C10 1.9(7) . . . . ?
C9 C8 C7 C6A -1.6(6) . . . . ?
C9 C8 C7 N1B -1.6(6) . . . . ?
C9 C10 C1B P1 173.5(3) . . . . ?
C9 C10 C1B N1B -1.8(6) . . . . ?
C5 N1A C1A P1 177.6(3) . . . . ?
C5 N1A C1A C2 -1.2(6) . . . . ?
C5 N1A C6A N2A 178.0(4) . . . . ?
C5 N1A C6A C7 -3.0(6) . . . . ?
C5 C4 C3 C2 -1.6(6) . . . . ?
C5 C6B N2B P1 177.6(3) . . . . ?
C5 C6B N2B C2 -1.2(6) . . . . ?
C5 C6B N1B C7 -3.0(6) . . . . ?
C5 C6B N1B C1B 178.0(4) . . . . ?
C4 C5 C6B N2B -0.1(6) . . . . ?
C4 C5 C6B N1B 179.8(4) . . . . ?
C3 C2 N2B P1 -177.6(3) . . . . ?
C3 C2 N2B C6B 1.0(6) . . . . ?
C1B P1 N2B C2 -177.3(4) . . . . ?
C1B P1 N2B C6B 4.1(3) . . . . ?
C1B C10 C9 C8 -0.2(6) . . . . ?
C6B C5 C4 C3 1.4(6) . . . . ?
N2B C2 C3 C4 0.3(6) . . . . ?
N2B C6B N1B C7 176.9(4) . . . . ?
N2B C6B N1B C1B -2.1(5) . . . . ?
N1B C6B N2B P1 -2.3(4) . . . . ?
N1B C6B N2B C2 179.0(3) . . . . ?
loop_
_exptl_oxdiff_crystal_face_indexfrac_h
_exptl_oxdiff_crystal_face_indexfrac_k
_exptl_oxdiff_crystal_face_indexfrac_l
_exptl_oxdiff_crystal_face_x
_exptl_oxdiff_crystal_face_y
_exptl_oxdiff_crystal_face_z
1.0007 -0.0001 -1.0001 -0.1831 -0.0364 0.0030
-1.0007 0.0001 1.0001 0.1831 0.0364 -0.0030
0.0001 1.0004 0.0002 -0.0068 0.0501 0.1791
-0.0001 -1.0004 -0.0002 0.0068 -0.0501 -0.1791
-5.0008 0.0006 -2.0009 0.6238 -0.7579 0.2362
2.9992 -3.0016 4.0004 -0.2373 0.6804 -0.7793
2.9995 3.0006 4.0017 -0.2780 0.9810 0.2950
-1.0000 -1.0002 -1.0005 0.1066 -0.2823 -0.1103
-1.9986 0.0004 -5.0012 0.0746 -0.8672 0.2452
2.0026 -3.0011 -5.0014 -0.4707 -0.6261 -0.4235
5.0030 2.0003 -2.9996 -0.8457 0.1866 0.3013
5.0019 -3.0016 -1.0003 -0.7284 0.2047 -0.6657
-5.0022 -3.0006 0.9990 0.7691 -0.5053 -0.4086
-3.0004 4.0019 -0.9996 0.3554 -0.2275 0.8508
