#------------------------------------------------------------------------------
#$Date: 2020-05-17 02:29:50 +0300 (Sun, 17 May 2020) $
#$Revision: 252119 $
#$URL: file:///home/coder/svn-repositories/cod/cif/4/03/83/4038375.cif $
#------------------------------------------------------------------------------
#
# This file is available in the Crystallography Open Database (COD),
# http://www.crystallography.net/
#
# All data on this site have been placed in the public domain by the
# contributors.
#
data_4038375
loop_
_publ_author_name
'Schoemaker, Robin'
'Schwedtmann, Kai'
'Hennersdorf, Felix'
'Bauz\'a, Antonio'
'Frontera, Antonio'
'Weigand, Jan J.'
_publ_section_title
;
 Toward N,P-Doped \p-Extended PAHs: A One-Pot Synthesis to Diannulated
 1,4,2-Diazaphospholium Triflate Salts.
;
_journal_name_full               'The Journal of organic chemistry'
_journal_paper_doi               10.1021/acs.joc.0c00577
_journal_year                    2020
_chemical_formula_moiety         'C10 H8 N2 P, C F3 O3 S'
_chemical_formula_sum            'C11 H8 F3 N2 O3 P S'
_chemical_formula_weight         336.22
_space_group_crystal_system      triclinic
_space_group_IT_number           2
_space_group_name_Hall           '-P 1'
_space_group_name_H-M_alt        'P -1'
_atom_sites_solution_hydrogens   geom
_audit_creation_date             2015-03-27
_audit_creation_method
;
Olex2 1.2
(compiled 2015.01.26 svn.r3150 for OlexSys, GUI svn.r4998)
;
_cell_angle_alpha                95.055(3)
_cell_angle_beta                 99.126(3)
_cell_angle_gamma                109.450(3)
_cell_formula_units_Z            2
_cell_length_a                   7.2241(5)
_cell_length_b                   9.0577(7)
_cell_length_c                   10.9162(8)
_cell_measurement_reflns_used    3662
_cell_measurement_temperature    100
_cell_measurement_theta_max      30.107
_cell_measurement_theta_min      2.841
_cell_volume                     657.34(9)
_computing_cell_refinement       'SAINT v8.34A (Bruker, 2013)'
_computing_data_reduction        'SAINT v8.34A (Bruker, 2013)'
_computing_molecular_graphics    'Olex2 (Dolomanov et al., 2009)'
_computing_publication_material  'Olex2 (Dolomanov et al., 2009)'
_computing_structure_refinement  'ShelXL (Sheldrick, 2008)'
_diffrn_ambient_temperature      100
_diffrn_measured_fraction_theta_full 0.998
_diffrn_measured_fraction_theta_max 0.989
_diffrn_measurement_device_type  'Bruker APEX-II CCD'
_diffrn_measurement_method       '\f and \w scans'
_diffrn_radiation_type           MoK\a
_diffrn_radiation_wavelength     0.71073
_diffrn_reflns_av_R_equivalents  0.0175
_diffrn_reflns_av_unetI/netI     0.0258
_diffrn_reflns_Laue_measured_fraction_full 0.998
_diffrn_reflns_Laue_measured_fraction_max 0.989
_diffrn_reflns_limit_h_max       10
_diffrn_reflns_limit_h_min       -10
_diffrn_reflns_limit_k_max       12
_diffrn_reflns_limit_k_min       -10
_diffrn_reflns_limit_l_max       13
_diffrn_reflns_limit_l_min       -15
_diffrn_reflns_number            8822
_diffrn_reflns_point_group_measured_fraction_full 0.998
_diffrn_reflns_point_group_measured_fraction_max 0.989
_diffrn_reflns_theta_full        26.000
_diffrn_reflns_theta_max         30.123
_diffrn_reflns_theta_min         1.911
_diffrn_standards_number         0
_exptl_absorpt_coefficient_mu    0.415
_exptl_absorpt_correction_T_max  0.7460
_exptl_absorpt_correction_T_min  0.6949
_exptl_absorpt_correction_type   multi-scan
_exptl_absorpt_process_details
;
SADABS-2012/1 (Bruker,2012) was used for absorption correction.
wR2(int) was 0.0332 before and 0.0287 after correction.
The Ratio of minimum to maximum transmission is 0.9315.
The \l/2 correction factor is 0.0015.
;
_exptl_crystal_colour            'clear yellow'
_exptl_crystal_colour_lustre     clear
_exptl_crystal_colour_primary    yellow
_exptl_crystal_density_diffrn    1.699
_exptl_crystal_description       parallelepiped
_exptl_crystal_F_000             340
_exptl_crystal_size_max          0.19
_exptl_crystal_size_mid          0.12
_exptl_crystal_size_min          0.06
_refine_diff_density_max         0.592
_refine_diff_density_min         -0.300
_refine_diff_density_rms         0.064
_refine_ls_extinction_method     none
_refine_ls_goodness_of_fit_ref   1.044
_refine_ls_hydrogen_treatment    constr
_refine_ls_matrix_type           full
_refine_ls_number_parameters     190
_refine_ls_number_reflns         3836
_refine_ls_number_restraints     0
_refine_ls_restrained_S_all      1.044
_refine_ls_R_factor_all          0.0406
_refine_ls_R_factor_gt           0.0340
_refine_ls_shift/su_max          0.001
_refine_ls_shift/su_mean         0.000
_refine_ls_structure_factor_coef Fsqd
_refine_ls_weighting_details
'w=1/[\s^2^(Fo^2^)+(0.0468P)^2^+0.2272P] where P=(Fo^2^+2Fc^2^)/3'
_refine_ls_weighting_scheme      calc
_refine_ls_wR_factor_gt          0.0875
_refine_ls_wR_factor_ref         0.0915
_reflns_Friedel_coverage         0.000
_reflns_number_gt                3277
_reflns_number_total             3836
_reflns_threshold_expression     'I > 2\s(I)'
_cod_data_source_file            jo0c00577_si_001.cif
_cod_data_source_block           jjw0327
_cod_original_cell_volume        657.34(8)
_cod_database_code               4038375
_shelx_space_group_comment
;
The symmetry employed for this shelxl refinement is uniquely defined
by the following loop, which should always be used as a source of
symmetry information in preference to the above space-group names.
They are only intended as comments.
;
_shelx_estimated_absorpt_t_max   0.976
_shelx_estimated_absorpt_t_min   0.925
_olex2_refinement_description
;
1. Fixed Uiso
 At 1.2 times of:
  All C(H) groups
2.a Aromatic/amide H refined with riding coordinates:
 C6(H6), C8(H8), C9(H9), C5(H5), C11(H11), C3(H3), C10(H10), C4(H4)
;
_shelx_res_file
;
    jjw0327.res created by SHELXL-2014/7

TITL jjw0327 in P-1
REM SHELXT solution in P-1
REM R1 0.093, Rweak 0.005, Alpha 0.034, Orientation as input
REM Formula found by SHELXT: C12 N O3 F3 S2
CELL 0.71073 7.2241 9.0577 10.9162 95.055 99.126 109.45
ZERR 2 0.0005 0.0007 0.0008 0.003 0.003 0.003
LATT 1
SFAC C H F N O P S
UNIT 22 16 6 4 6 2 2

L.S. 20
PLAN  20
SIZE 0.06 0.12 0.19
TEMP 23
BOND $H
LIST 6
MORE -1
CONF
fmap 2
acta 52
REM <olex2.extras>
REM <HklSrc "%.\\jjw0327.hkl">
REM </olex2.extras>

WGHT    0.046800    0.227200
FVAR       0.51404
S1    7    0.646638    0.815118    0.224081    11.00000    0.01866    0.01527 =
         0.01520    0.00340    0.00305    0.00594
P1    6    0.139143    0.701325    0.548783    11.00000    0.02042    0.01883 =
         0.01770    0.00146   -0.00093    0.00377
F1    3    0.902238    0.665128    0.235628    11.00000    0.02312    0.04121 =
         0.03713    0.00775    0.00835    0.01973
F2    3    0.656940    0.567945    0.328411    11.00000    0.04169    0.03560 =
         0.04799    0.02834    0.01817    0.01936
F3    3    0.608606    0.528876    0.127108    11.00000    0.03952    0.02835 =
         0.04683   -0.01558   -0.00274    0.01512
O3    5    0.775126    0.918219    0.335141    11.00000    0.02723    0.02179 =
         0.01976   -0.00420    0.00406    0.00283
O2    5    0.698440    0.864578    0.108075    11.00000    0.03349    0.03550 =
         0.01827    0.01320    0.00437    0.00844
O1    5    0.435845    0.759914    0.225443    11.00000    0.01870    0.02610 =
         0.03406    0.00496    0.00549    0.01026
N1    4    0.259625    0.757285    0.793094    11.00000    0.01774    0.01527 =
         0.01931    0.00399    0.00498    0.00577
N2    4    0.390330    0.797555    0.619511    11.00000    0.02110    0.01569 =
         0.01649    0.00271    0.00338    0.00609
C7    1    0.431796    0.819540    0.747301    11.00000    0.01624    0.01178 =
         0.01315    0.00299    0.00429    0.00524
C6    1    0.251925    0.760682    0.919806    11.00000    0.02320    0.01760 =
         0.01870    0.00442    0.00755    0.00816
AFIX  43
H6    2    0.367633    0.809142    0.981041    11.00000   -1.20000
AFIX   0
C8    1    0.626251    0.892574    0.816890    11.00000    0.01797    0.01745 =
         0.01510    0.00317    0.00195    0.00606
AFIX  43
H8    2    0.651854    0.905270    0.904123    11.00000   -1.20000
AFIX   0
C1    1    0.090846    0.687894    0.698747    11.00000    0.01538    0.01389 =
         0.02220    0.00349    0.00271    0.00476

C12   1    0.707558    0.635720    0.229015    11.00000    0.02019    0.02080 =
         0.02502    0.00362    0.00424    0.00878
C9    1    0.778628    0.945131    0.752997    11.00000    0.01682    0.01987 =
         0.02166    0.00466    0.00338    0.00520
AFIX  43
H9    2    0.909771    0.995125    0.796994    11.00000   -1.20000
AFIX   0
C5    1    0.073268    0.692291    0.952344    11.00000    0.02844    0.02310 =
         0.02621    0.00953    0.01478    0.01105
AFIX  43
H5    2    0.065416    0.694466    1.036662    11.00000   -1.20000
AFIX   0
C11   1    0.545664    0.850740    0.555840    11.00000    0.02500    0.01999 =
         0.01637    0.00505    0.00769    0.00943
AFIX  43
H11   2    0.518794    0.836519    0.468570    11.00000   -1.20000
AFIX   0
C3    1   -0.094098    0.614769    0.735011    11.00000    0.01728    0.01972 =
         0.03590    0.00463    0.00488    0.00521
AFIX  43
H3    2   -0.210035    0.565026    0.674186    11.00000   -1.20000
AFIX   0
C10   1    0.736898    0.923520    0.620424    11.00000    0.02185    0.02099 =
         0.02137    0.00720    0.00918    0.00799
AFIX  43
H10   2    0.840636    0.959223    0.577319    11.00000   -1.20000
AFIX   0
C4    1   -0.102215    0.617252    0.858458    11.00000    0.02196    0.02230 =
         0.03937    0.01007    0.01463    0.00741
AFIX  43
H4    2   -0.224133    0.569241    0.881748    11.00000   -1.20000
AFIX   0
HKLF 4

REM  jjw0327 in P-1
REM R1 =  0.0340 for    3277 Fo > 4sig(Fo)  and  0.0406 for all    3836 data
REM    190 parameters refined using      0 restraints

END

WGHT      0.0468      0.2272

REM Highest difference peak  0.592,  deepest hole -0.300,  1-sigma level  0.064
Q1    1   0.6853  0.7192  0.2238  11.00000  0.05    0.59
Q2    1   0.5186  0.8573  0.7809  11.00000  0.05    0.50
Q3    1   0.1570  0.7208  0.7364  11.00000  0.05    0.43
Q4    1   0.3724  0.8111  0.7711  11.00000  0.05    0.43
Q5    1   0.0067  0.6553  0.7178  11.00000  0.05    0.42
Q6    1   0.7039  0.9218  0.7788  11.00000  0.05    0.38
Q7    1   0.7519  0.9247  0.6839  11.00000  0.05    0.34
Q8    1   0.5311  0.7820  0.2163  11.00000  0.05    0.34
Q9    1   0.6394  0.8658  0.5947  11.00000  0.05    0.33
Q10   1   0.4272  0.8188  0.7020  11.00000  0.05    0.32
Q11   1   0.7005  0.8407  0.1616  11.00000  0.05    0.32
Q12   1   0.1052  0.6986  0.6390  11.00000  0.05    0.31
Q13   1  -0.0080  0.6861  0.8993  11.00000  0.05    0.28
Q14   1   0.1523  0.7232  0.9290  11.00000  0.05    0.27
Q15   1  -0.0824  0.6337  0.7973  11.00000  0.05    0.27
Q16   1   0.4326  0.7154  0.2545  11.00000  0.05    0.27
Q17   1   0.0992  0.6454  0.6848  11.00000  0.05    0.26
Q18   1   0.2659  0.7773  0.5793  11.00000  0.05    0.25
Q19   1   0.7293  0.8955  0.2770  11.00000  0.05    0.24
Q20   1   0.2757  0.7292  0.5808  11.00000  0.05    0.24
;
_shelx_res_checksum              73546
_shelx_hkl_file
;
  -1   0   0 216.020 2.78292   5
  -1   0   0 217.454 2.88811   1
  -1   0   0 214.750 3.02537   3
   1   0   0 214.105 3.03365   3
   1   0   0 215.075 2.87646   1
   1   0   0 218.624 2.78750   5
  -2   0   0 337.131 4.84194   3
  -2   0   0 327.604 4.56978   1
   2   0   0 324.165 4.84566   3
   2   0   0 332.381 4.36966   5
   2   0   0 331.545 4.56562   1
  -3   0   0 79.7740 1.73691   6
  -3   0   0 81.6305 1.97108   3
  -3   0   0 80.4862 1.75774   1
   3   0   0 80.5621 2.00428   3
   3   0   0 78.9876 1.54625   5
   3   0   0 79.8545 1.72869   1
  -4   0   0 435.484 6.44277   6
  -4   0   0 431.512 6.49601   1
   4   0   0 436.976 6.41720   1
   4   0   0 438.417 6.05624   5
   4   0   0 438.123 7.03068   3
  -5   0   0 39.7384 1.50327   1
  -5   0   0 40.7760 1.39337   4
   5   0   0 38.7700 1.20895   5
   5   0   0 39.4859 1.77647   3
  -6   0   0 61.8175 2.06409   1
   6   0   0 56.0533 2.37440   3
   6   0   0 58.1433 1.61132   5
  -7   0   0 3.92693 0.76300   1
   7   0   0 1.49331 0.70585   3
  -8   0   0 30.8732 1.73076   1
   8   0   0 27.2304 2.26513   3
   9   0   0 12.5611 1.74675   3
  -9   1   0 0.36407 0.51860   1
   8  -1   0 73.1033 3.12741   3
  -8   1   0 73.7928 2.70034   1
   7  -1   0 0.89532 0.61685   3
  -7   1   0 0.98607 0.48656   1
   6  -1   0 55.3539 2.25075   3
  -6   1   0 57.1180 1.69364   4
  -6   1   0 56.4334 1.98503   1
   5  -1   0 0.60872 0.39640   3
   5  -1   0 0.40062 0.21047   5
  -5   1   0 0.10849 0.28183   1
   4  -1   0 991.574 12.9665   1
   4  -1   0 983.862 13.5249   3
   4  -1   0 979.996 12.1456   5
  -4   1   0 978.479 13.0438   1
   3  -1   0 48.4018 1.28381   1
   3  -1   0 50.5747 1.45783   3
   3  -1   0 46.4112 0.91710   5
  -3   1   0 48.0096 1.38112   3
  -3   1   0 47.5350 1.30754   1
  -3   1   0 46.7569 0.91982   5
   2  -1   0 981.440 13.0319   3
   2  -1   0 988.779 12.2215   1
  -2   1   0 965.170 12.2287   1
  -2   1   0 966.249 12.3714   3
   1  -1   0 99.9099 1.58454   1
   1  -1   0 100.087 1.45074   4
   1  -1   0 99.8902 1.49231   3
  -1   1   0 99.7292 1.59080   1
  -1   1   0 99.9731 1.49277   3
  -1   1   0 100.022 1.45008   4
   0  -1   0 1.67749 0.21363   4
   0  -1   0 1.33036 0.15518   3
   0   1   0 1.00892 0.18942   2
   0   1   0 0.80490 0.14174   3
  -1  -1   0 691.245 8.67280   2
  -1  -1   0 664.385 8.90102   4
   1   1   0 682.691 8.77369   3
   1   1   0 689.225 8.34828   6
  -2  -1   0 2.99870 0.32164   6
  -2  -1   0 4.02255 0.43369   4
  -2  -1   0 3.65676 0.42423   3
  -2  -1   0 3.77457 0.40109   1
   2   1   0 5.53483 0.57012   3
   2   1   0 3.42269 0.38991   5
   2   1   0 3.01272 0.33904   1
  -3  -1   0 44.3040 1.32087   4
  -3  -1   0 43.7815 1.16904   6
  -3  -1   0 42.1437 1.24381   1
   3   1   0 40.7906 1.21607   5
   3   1   0 43.8955 1.21960   1
  -4  -1   0 3.41088 0.50218   4
  -4  -1   0 1.97986 0.41776   1
  -4  -1   0 3.48870 0.48212   6
   4   1   0 2.33949 0.51530   3
   4   1   0 2.70124 0.43871   5
   4   1   0 3.09930 0.47973   1
  -5  -1   0 178.526 3.59055   1
   5   1   0 178.240 3.38279   5
   5   1   0 168.308 4.11688   3
  -6  -1   0 25.9039 1.39218   1
   6   1   0 26.6587 1.72709   3
   6   1   0 30.7960 1.30029   5
  -7  -1   0 24.6697 1.46220   1
   7   1   0 26.2652 1.89753   3
   7   1   0 24.6780 1.25924   5
  -8  -1   0 68.7196 2.59099   1
   8   1   0 68.6357 3.22242   3
   9   1   0 1.54852 0.95919   3
  -9   2   0 29.2631 1.88953   1
   8  -2   0 12.2350 1.49228   3
  -8   2   0 11.5221 1.28429   1
   7  -2   0 1.33030 0.61056   3
  -7   2   0 1.74778 0.42328   4
  -7   2   0 2.16237 0.61287   1
   6  -2   0 28.8054 1.59545   3
  -6   2   0 28.3298 1.43886   1
  -6   2   0 27.4033 1.06404   4
   5  -2   0 11.8637 1.04461   3
  -5   2   0 12.3077 0.66562   4
  -5   2   0 13.2574 0.93049   1
   4  -2   0 46.2529 1.53092   3
  -4   2   0 43.8312 1.46647   3
  -4   2   0 45.3433 1.47888   1
  -4   2   0 45.6934 1.13906   4
   3  -2   0 55.3869 1.44072   1
   3  -2   0 55.5471 1.45210   3
  -3   2   0 55.2794 1.15222   4
  -3   2   0 56.3135 1.42416   3
  -3   2   0 54.1331 1.46285   1
   2  -2   0 144.660 2.30547   3
   2  -2   0 144.305 2.21848   4
   2  -2   0 150.402 2.51551   1
  -2   2   0 145.598 2.22541   4
  -2   2   0 141.271 2.50208   1
  -2   2   0 146.873 2.31017   3
   1  -2   0 189.784 2.83004   4
  -1   2   0 190.898 2.84343   4
  -1   2   0 190.349 2.89816   1
   0  -2   0 1154.18 14.4477   3
   0  -2   0 1144.76 15.9011   4
   0  -2   0 1162.04 14.3903   2
   0   2   0 1090.06 15.6085   4
   0   2   0 1148.50 14.6206   3
   0   2   0 1133.54 14.9962   2
  -1  -2   0 221.958 3.39338   3
  -1  -2   0 222.436 3.27347   2
   1   2   0 213.467 3.60704   4
   1   2   0 222.223 3.41620   3
   1   2   0 219.271 3.27868   2
  -2  -2   0 15.2752 0.70500   1
  -2  -2   0 16.3416 0.80344   3
  -2  -2   0 14.8704 0.64215   2
  -2  -2   0 13.4841 0.74282   4
   2   2   0 14.8035 0.55029   6
   2   2   0 14.2173 0.79399   3
  -3  -2   0 135.803 2.89450   4
  -3  -2   0 137.177 2.56699   2
  -3  -2   0 140.521 2.68380   1
   3   2   0 135.278 3.04829   3
   3   2   0 136.599 2.77907   5
  -4  -2   0 87.2250 2.20299   1
  -4  -2   0 92.6114 2.13078   2
   4   2   0 90.1380 2.27516   5
   4   2   0 91.8165 2.66842   3
  -5  -2   0 82.7703 2.31732   1
   5   2   0 88.1257 2.38176   5
   5   2   0 81.6737 2.80761   3
  -6  -2   0 5.18433 0.79948   1
   6   2   0 4.63819 0.73716   5
   6   2   0 4.32328 0.92364   3
  -7  -2   0 28.2253 1.57678   1
   7   2   0 26.9953 1.98349   3
   7   2   0 27.5488 1.48599   5
   8   2   0 0.01839 0.60805   3
  -9   3   0 1.83359 0.73553   1
  -8   3   0 0.56814 0.51752   1
   7  -3   0 12.7156 1.33017   3
  -7   3   0 11.7441 0.74722   4
  -7   3   0 11.6815 1.21256   1
   6  -3   0 103.275 2.90631   3
  -6   3   0 101.404 2.10182   4
  -6   3   0 97.7310 2.79623   1
   5  -3   0 74.2656 2.18236   3
  -5   3   0 79.5710 1.66253   4
  -5   3   0 72.6683 2.19444   1
   4  -3   0 3.66230 0.50611   3
  -4   3   0 2.51404 0.32864   4
  -4   3   0 2.76327 0.44522   3
  -4   3   0 2.38911 0.47316   1
   3  -3   0 327.351 4.70217   4
   3  -3   0 329.739 5.12179   1
  -3   3   0 328.173 5.16318   1
  -3   3   0 338.520 4.84690   3
  -3   3   0 335.358 4.73945   4
   2  -3   0 4.44956 0.40944   4
   2  -3   0 4.39206 0.47440   1
  -2   3   0 3.80128 0.49018   1
  -2   3   0 4.22421 0.39969   4
  -2   3   0 4.34555 0.32674   3
   1  -3   0 9604.25 124.246   4
   1  -3   0 9999.99 120.723   1
  -1   3   0 9734.45 124.707   4
  -1   3   0 9717.76 124.657   2
   0  -3   0 44.4940 1.28140   4
   0  -3   0 44.1683 0.99011   3
   0  -3   0 43.9790 1.15541   2
   0   3   0 45.3966 1.19183   2
   0   3   0 46.7238 1.01891   3
   0   3   0 44.5530 1.30530   4
  -1  -3   0 4.86985 0.58331   4
  -1  -3   0 4.70285 0.47923   3
  -1  -3   0 4.57664 0.42862   2
   1   3   0 5.25465 0.51670   3
   1   3   0 4.06361 0.42493   2
   1   3   0 3.22882 0.47169   4
  -2  -3   0 6.09313 0.64000   3
  -2  -3   0 5.51833 0.51449   2
   2   3   0 6.88671 0.71892   3
   2   3   0 5.42010 0.38408   6
  -3  -3   0 360.610 5.54286   2
  -3  -3   0 366.144 5.65596   1
   3   3   0 368.436 5.97560   5
   3   3   0 364.466 6.20946   3
  -4  -3   0 3.70089 0.54247   2
  -4  -3   0 2.37330 0.49574   1
   4   3   0 3.01558 0.60026   5
  -5  -3   0 220.881 4.34240   1
   5   3   0 220.736 4.53534   5
   5   3   0 217.043 5.09191   3
  -6  -3   0 0.47870 0.41387   1
   6   3   0 0.52243 0.44706   5
   6   3   0 0.64396 0.64038   3
  -7  -3   0 76.2288 2.60891   1
   7   3   0 78.6694 2.70574   5
   7   3   0 83.1424 3.45229   3
   8   3   0 -0.3714 0.75033   3
 -10   4   0 8.93264 1.37678   1
  -9   4   0 47.7590 2.43726   1
  -8   4   0 26.0955 1.70290   1
  -7   4   0 0.80682 0.48355   1
  -6   4   0 2.33323 0.60078   1
  -5   4   0 843.305 12.1556   1
  -5   4   0 861.872 11.3450   4
   4  -4   0 75.5329 1.64531   4
  -4   4   0 76.6682 2.15651   1
  -4   4   0 74.6466 1.65215   4
  -4   4   0 73.0044 1.78450   3
   3  -4   0 447.263 6.25175   4
  -3   4   0 426.496 6.62405   1
  -3   4   0 429.530 6.23151   4
  -3   4   0 435.477 5.95304   3
   2  -4   0 7.67488 0.53965   4
  -2   4   0 7.83188 0.57690   4
   1  -4   0 161.400 2.98353   4
   1  -4   0 157.054 2.90831   1
  -1   4   0 155.327 2.99432   4
  -1   4   0 155.107 2.99051   2
   0  -4   0 26.6523 1.10701   4
   0  -4   0 28.4071 0.83860   3
   0  -4   0 28.3897 1.01868   2
   0   4   0 26.0246 1.14097   4
   0   4   0 29.0667 1.05611   2
   0   4   0 29.1661 0.86951   3
  -1  -4   0 6.45872 0.58257   3
  -1  -4   0 6.20549 0.57140   2
   1   4   0 6.72033 0.76798   4
   1   4   0 6.34780 0.59431   2
   1   4   0 6.70202 0.60373   3
  -2  -4   0 -0.0022 0.21418   2
   2   4   0 0.16147 0.24661   2
   2   4   0 -0.2045 0.14288   6
   2   4   0 -0.2175 0.26742   3
  -3  -4   0 61.9334 1.84055   1
  -3  -4   0 60.2685 1.68755   2
   3   4   0 61.0492 2.09262   3
   3   4   0 60.5184 2.07128   5
  -4  -4   0 65.8275 2.06406   1
   4   4   0 67.1425 2.47629   3
   4   4   0 72.9777 2.38211   5
  -5  -4   0 56.1096 1.98985   1
   5   4   0 56.3711 2.22967   5
   5   4   0 54.7286 2.48204   3
  -6  -4   0 5.75835 0.85785   1
   6   4   0 7.05284 1.04165   5
   6   4   0 5.86918 1.14098   3
   7   4   0 22.9367 1.95317   5
   7   4   0 27.6377 2.41448   3
 -10   5   0 -0.1196 0.65020   1
  -9   5   0 3.94163 0.91787   1
  -8   5   0 0.93314 0.58415   1
  -7   5   0 17.1600 1.51823   1
  -6   5   0 135.549 2.59308   4
  -6   5   0 137.311 3.58391   1
  -5   5   0 0.22513 0.26917   3
  -5   5   0 0.57456 0.39057   1
  -5   5   0 -0.1867 0.20841   4
   4  -5   0 45.8221 1.35795   4
  -4   5   0 47.1656 1.29359   3
  -4   5   0 47.2611 1.39488   4
  -4   5   0 47.0516 1.76252   1
   3  -5   0 79.7347 1.92204   4
  -3   5   0 76.7773 1.48097   3
  -3   5   0 79.3886 1.92916   4
   2  -5   0 9.86172 0.72646   4
  -2   5   0 11.1207 0.85047   2
  -2   5   0 10.5741 0.85889   4
  -1   5   0 501.179 7.75937   4
  -1   5   0 508.191 6.60201   3
  -1   5   0 507.296 7.65983   2
   0  -5   0 9.70856 0.55572   3
   0   5   0 11.2238 0.77015   2
   0   5   0 9.45177 0.57929   3
   0   5   0 8.71934 0.83787   4
  -1  -5   0 63.0024 1.67468   3
  -1  -5   0 57.8898 1.67112   2
   1   5   0 56.6131 2.07564   4
   1   5   0 61.8650 1.72911   3
   1   5   0 59.1586 1.73245   2
  -2  -5   0 0.90305 0.32726   2
   2   5   0 1.04465 0.35903   2
   2   5   0 0.10309 0.29803   3
  -3  -5   0 142.885 3.20197   1
   3   5   0 137.480 3.49716   3
   3   5   0 146.633 3.66077   5
  -4  -5   0 7.29339 0.88540   1
   4   5   0 11.5937 1.26587   3
   4   5   0 7.01328 0.98511   5
  -5  -5   0 3.11407 0.65250   1
   5   5   0 5.68993 1.02092   3
   5   5   0 4.91225 0.94660   5
  -6  -5   0 9.10766 1.05873   1
   6   5   0 8.63359 1.38926   3
   6   5   0 9.86785 1.32305   5
   7   5   0 9.22513 1.53776   3
  -9   6   0 7.92768 1.30869   1
  -8   6   0 34.8693 2.05466   1
  -7   6   0 8.96096 1.15763   1
  -6   6   0 0.35826 0.44184   1
  -6   6   0 0.13649 0.26627   4
   5  -6   0 111.514 2.46069   4
  -5   6   0 112.739 3.14840   1
  -5   6   0 111.748 2.40290   3
  -5   6   0 115.944 2.52157   4
  -4   6   0 64.8389 1.82853   4
  -4   6   0 62.4298 1.44190   3
  -3   6   0 18.0853 1.16597   2
  -3   6   0 17.9851 1.01948   4
  -2   6   0 1170.33 16.1642   2
  -2   6   0 1152.64 16.0150   4
  -1   6   0 36.0913 1.54824   4
  -1   6   0 32.9699 1.42922   2
  -1   6   0 36.1122 0.95395   3
   0  -6   0 9.15030 0.59798   3
   0   6   0 8.29948 0.66375   3
   0   6   0 8.36970 0.84670   2
   0   6   0 9.11665 0.98252   4
   1   6   0 31.4143 1.29925   3
   1   6   0 30.8551 1.36832   2
   2   6   0 54.3353 2.18237   5
   2   6   0 51.5110 1.76398   2
   2   6   0 53.2117 1.91337   3
  -3  -6   0 -0.1544 0.28576   1
   3   6   0 0.28350 0.53177   5
   3   6   0 0.29083 0.46243   3
  -4  -6   0 161.728 3.79842   1
   4   6   0 164.850 4.36837   5
   4   6   0 168.162 4.41339   3
  -5  -6   0 6.39621 0.93065   1
   5   6   0 6.58344 1.15405   3
   5   6   0 9.59144 1.33474   5
   6   6   0 32.8943 2.16026   5
   6   6   0 34.3974 2.35732   3
  -9   7   0 18.7169 1.91477   1
  -8   7   0 27.8533 1.96514   1
  -7   7   0 15.5525 1.54041   1
  -6   7   0 174.200 3.45464   4
  -6   7   0 171.026 4.39200   1
  -5   7   0 30.1899 1.30995   4
  -5   7   0 29.4629 1.04409   3
  -4   7   0 34.3533 1.45845   4
  -4   7   0 33.4867 1.73670   2
  -3   7   0 53.0128 2.08872   2
  -3   7   0 50.9591 1.87341   4
  -2   7   0 73.7887 2.40787   2
  -2   7   0 74.0360 2.36086   4
  -1   7   0 43.7805 1.78845   2
  -1   7   0 44.1552 1.16785   3
  -1   7   0 45.6058 1.91984   4
   0  -7   0 6.47852 0.61491   3
   0   7   0 4.13957 0.77051   4
   0   7   0 7.32528 0.68238   3
   0   7   0 5.78890 0.80823   2
   1   7   0 1.70287 0.52202   2
   1   7   0 0.85124 0.39167   3
   2   7   0 192.244 4.07200   2
   2   7   0 191.068 4.72094   5
   2   7   0 190.551 4.18401   3
  -3  -7   0 0.96350 0.47144   1
   3   7   0 0.20068 0.43155   3
   3   7   0 1.01615 0.63546   5
  -4  -7   0 16.9181 1.44790   1
   4   7   0 13.6356 1.63716   5
   4   7   0 15.6648 1.58275   3
   5   7   0 6.37618 1.19690   5
   5   7   0 4.37952 1.08942   3
  -6   8   0 22.8162 1.23053   4
  -5   8   0 1.42585 0.47442   4
  -5   8   0 0.90112 0.55178   2
  -4   8   0 136.196 3.37556   4
  -4   8   0 127.034 3.70407   2
  -3   8   0 15.2623 1.32228   4
  -3   8   0 20.5176 1.69757   2
  -2   8   0 15.7500 1.45592   2
  -2   8   0 12.4686 1.22378   4
  -1   8   0 13.4745 1.27546   2
  -1   8   0 13.6936 1.37387   4
   0   8   0 109.374 3.10984   2
   0   8   0 111.346 2.51807   3
   1   8   0 5.79861 0.87249   2
   1   8   0 4.03999 0.92395   5
   1   8   0 5.92997 0.81736   3
   2   8   0 15.0077 1.34291   3
   2   8   0 13.7625 1.58383   5
   2   8   0 16.6993 1.24839   2
  -3  -8   0 0.09080 0.41716   1
   3   8   0 0.17634 0.56380   5
   3   8   0 0.88388 0.61315   3
  -4  -8   0 33.0115 1.82296   1
   4   8   0 31.2130 2.20411   5
   4   8   0 36.9569 2.23372   3
   5   8   0 13.1912 1.67075   3
   5   8   0 11.8739 1.68673   5
  -9   9   0 40.3978 2.68239   2
  -8   9   0 25.1434 2.43033   2
  -7   9   0 1.50789 0.70790   2
  -6   9   0 69.6518 3.02347   2
  -6   9   0 78.2478 2.45538   4
  -5   9   0 0.23882 0.40380   4
  -5   9   0 0.42988 0.53651   2
  -4   9   0 0.51564 0.45629   4
  -4   9   0 -0.1211 0.53375   2
  -3   9   0 150.167 4.17400   2
  -3   9   0 149.618 3.93887   4
  -2   9   0 73.6628 2.79226   4
  -2   9   0 72.0377 2.71303   2
  -1   9   0 2.36877 0.76191   4
  -1   9   0 1.27768 0.56134   2
   0   9   0 12.3444 1.32431   2
   0   9   0 10.0753 0.87775   3
   1   9   0 0.31374 0.48475   2
   1   9   0 0.17560 0.56501   5
   1   9   0 -0.1202 0.38917   3
   2   9   0 32.2934 2.19053   5
   2   9   0 36.2226 1.83759   3
  -3  -9   0 24.3190 1.64129   1
   3   9   0 23.0757 1.90046   3
   3   9   0 21.1670 2.18192   5
   4   9   0 4.62743 1.22653   5
   4   9   0 3.98961 1.02149   3
  -8  10   0 26.6399 2.47170   2
  -7  10   0 2.05994 0.90495   2
  -6  10   0 -0.0183 0.40112   4
  -6  10   0 -0.0101 0.69691   2
  -5  10   0 0.41099 0.60442   2
  -5  10   0 0.89481 0.58219   4
  -4  10   0 191.219 4.71800   4
  -4  10   0 177.774 4.97593   2
  -3  10   0 -0.1962 0.49722   2
  -3  10   0 0.00933 0.46083   4
  -2  10   0 13.1378 1.51864   4
  -2  10   0 15.8489 1.58975   2
  -1  10   0 14.0656 1.52075   2
   0  10   0 29.2728 1.83258   2
   0  10   0 24.6433 2.12834   5
   1  10   0 71.4167 3.22116   5
   1  10   0 78.2532 2.92169   2
   2  10   0 -0.3433 0.61176   5
   3  10   0 0.18058 0.71797   5
  -7  11   0 10.8118 1.62815   2
  -6  11   0 30.2760 2.24469   2
  -5  11   0 23.9127 1.71870   4
  -5  11   0 24.8899 2.28099   2
  -4  11   0 6.73342 1.15362   4
  -4  11   0 6.14221 1.21956   2
  -3  11   0 21.5919 2.11555   2
  -3  11   0 22.3723 2.15298   4
  -2  11   0 34.5231 2.18885   5
  -2  11   0 35.9132 2.18112   2
  -1  11   0 41.2582 2.31434   2
  -1  11   0 40.6579 2.48894   5
   0  11   0 5.17126 1.20471   5
   0  11   0 4.79978 1.05915   2
   1  11   0 6.23671 1.30902   5
  -6  12   0 -0.1974 0.71514   2
  -5  12   0 19.2703 2.15325   2
  -5  12   0 19.0256 1.86435   5
  -4  12   0 98.1712 3.92308   2
  -4  12   0 98.0373 3.63314   5
  -3  12   0 4.35642 1.08259   5
  -3  12   0 7.73848 1.36135   2
  -2  12   0 6.34604 1.28060   5
  -2  12   0 6.55221 1.32200   2
  -1  12   0 2.97621 0.97817   5
  -1  12   0 3.24838 1.05352   2
  -1  12  -1 0.84749 0.80143   5
  -2  12  -1 3.33959 1.05483   2
  -3  12  -1 29.4390 2.22417   4
  -3  12  -1 32.1871 2.26094   2
  -4  12  -1 0.44124 0.68796   2
  -4  12  -1 0.09926 0.57089   4
  -5  12  -1 57.2276 2.79378   4
  -5  12  -1 56.9573 3.10245   2
  -6  12  -1 2.42098 1.05411   2
   1  11  -1 48.6353 2.86904   5
   0  11  -1 5.79456 1.23754   5
  -1  11  -1 116.331 3.77332   2
  -2  11  -1 5.48685 1.08253   2
  -2  11  -1 4.45494 1.03277   4
  -3  11  -1 2.60361 0.88594   2
  -3  11  -1 2.17976 0.82916   4
  -4  11  -1 136.767 4.15085   4
  -4  11  -1 131.215 4.34022   2
  -5  11  -1 36.8213 2.09287   4
  -5  11  -1 33.9405 2.30748   2
  -6  11  -1 3.90283 0.91148   4
  -6  11  -1 1.45967 0.87764   2
  -7  11  -1 -0.4034 0.62753   2
   3  10  -1 15.9461 2.02291   5
   2  10  -1 0.75318 0.74224   5
   1  10  -1 20.3101 1.99985   5
   0  10  -1 2.96074 0.84344   2
  -1  10  -1 15.3548 1.55009   2
  -1  10  -1 13.7036 1.58886   4
  -2  10  -1 0.96242 0.64766   4
  -2  10  -1 0.90621 0.62603   2
  -3  10  -1 73.2018 2.94350   2
  -3  10  -1 72.2767 2.87346   4
  -4  10  -1 8.29369 1.14282   4
  -4  10  -1 7.42408 1.22956   2
  -5  10  -1 3.94803 0.95718   2
  -5  10  -1 5.94196 1.00080   4
  -6  10  -1 20.1648 2.07343   2
  -6  10  -1 18.3292 1.57160   4
  -7  10  -1 32.6224 2.30821   2
  -8  10  -1 2.28101 0.92891   2
   4   9  -1 3.56550 0.99926   3
   4   9  -1 3.14276 0.96761   5
   3   9  -1 18.7647 2.01614   5
   3   9  -1 19.3211 1.76623   3
   2   9  -1 46.2741 2.10175   3
   2   9  -1 51.2271 2.64909   5
   1   9  -1 0.75606 0.52789   2
   1   9  -1 -0.1594 0.35662   3
   0   9  -1 3.91674 0.60762   3
   0   9  -1 2.89476 0.84027   4
   0   9  -1 3.50797 0.73969   2
  -1   9  -1 2.20782 0.68578   2
  -1   9  -1 1.34244 0.66593   4
  -1   9  -1 0.98025 0.34026   3
  -2   9  -1 1.21234 0.60231   2
  -2   9  -1 0.61100 0.49059   4
  -3   9  -1 6.98997 1.00952   4
  -3   9  -1 6.91533 1.08793   2
  -4   9  -1 64.0516 2.68300   2
  -4   9  -1 70.7725 2.53366   4
  -5   9  -1 41.9615 1.90650   4
  -5   9  -1 42.3612 2.27099   2
  -6   9  -1 28.9100 1.95649   2
  -6   9  -1 26.9301 1.52400   4
   5   8  -1 25.0014 2.31381   5
   5   8  -1 27.1241 2.38148   3
   4   8  -1 0.91514 0.78291   5
   4   8  -1 2.06169 0.76396   3
   3   8  -1 66.1916 2.63451   3
   3   8  -1 65.7514 2.92338   5
  -3  -8   1 68.2349 2.37940   1
   2   8  -1 105.493 2.83236   2
   2   8  -1 108.545 3.10339   3
   1   8  -1 46.0918 1.76291   3
   1   8  -1 43.0565 2.32777   4
   1   8  -1 43.0302 1.79653   2
   0   8  -1 155.387 3.20432   3
   0   8  -1 158.159 4.26119   4
   0   8  -1 157.971 3.73281   2
  -1   8  -1 0.06713 0.40176   4
  -1   8  -1 0.56362 0.43391   2
  -1   8  -1 0.17644 0.24621   3
  -2   8  -1 77.5214 2.66812   4
  -2   8  -1 79.1724 2.61885   2
  -3   8  -1 789.258 12.2691   2
  -3   8  -1 777.075 11.9959   4
  -4   8  -1 26.3548 1.45412   4
  -4   8  -1 27.8858 1.69804   2
  -5   8  -1 16.8916 1.17189   4
  -6   8  -1 97.0436 2.69976   4
  -7   8  -1 28.1293 1.94211   1
  -8   8  -1 93.7747 3.61828   1
  -9   8  -1 8.60109 1.46862   1
   6   7  -1 3.45019 1.05830   3
   6   7  -1 3.08436 1.02686   5
   5   7  -1 14.7375 1.70536   3
   5   7  -1 13.4326 1.66007   5
   4   7  -1 80.3545 3.05600   3
   4   7  -1 85.2679 3.20645   5
  -4  -7   1 75.6124 2.44843   1
   3   7  -1 11.7746 1.39618   5
   3   7  -1 12.2493 1.30923   3
  -3  -7   1 10.2912 1.05792   1
   2   7  -1 2.88969 0.64693   3
   2   7  -1 2.09409 0.53671   2
   1   7  -1 20.2979 1.46457   4
   1   7  -1 22.6745 1.21994   2
   1   7  -1 24.1949 1.22950   3
   0   7  -1 125.154 2.66909   3
   0   7  -1 123.591 3.45882   4
   0   7  -1 128.991 3.07911   2
   0  -7   1 127.421 2.67384   3
  -1   7  -1 30.1949 1.44458   2
  -1   7  -1 30.1049 1.58782   4
  -1   7  -1 31.9339 1.06046   3
  -2   7  -1 18.4351 1.20029   2
  -2   7  -1 18.4480 1.20931   4
  -2   7  -1 18.1944 0.71112   3
  -3   7  -1 17.1340 1.21099   2
  -3   7  -1 16.5158 0.66372   3
  -3   7  -1 16.5656 1.11628   4
  -4   7  -1 146.535 3.34697   4
  -4   7  -1 146.086 2.67208   3
  -5   7  -1 2.11713 0.42319   3
  -5   7  -1 2.16178 0.62357   1
  -5   7  -1 1.20698 0.44175   4
  -6   7  -1 65.0542 2.59625   1
  -6   7  -1 59.4560 1.93948   4
  -7   7  -1 11.5318 0.99641   4
  -7   7  -1 10.8140 1.36374   1
  -8   7  -1 45.6985 2.45558   1
  -9   7  -1 2.36455 0.87225   1
   6   6  -1 42.0748 2.33168   5
   6   6  -1 42.4679 2.54667   3
   5   6  -1 1.44824 0.67402   5
   5   6  -1 0.73629 0.64299   3
  -5  -6   1 0.78402 0.49999   1
   4   6  -1 -0.2468 0.40468   5
   4   6  -1 -0.3886 0.42403   3
  -4  -6   1 0.43930 0.36776   1
   3   6  -1 77.1631 1.78655   6
   3   6  -1 71.5759 2.52596   3
  -3  -6   1 75.5134 2.20527   1
   2   6  -1 29.2802 1.45869   3
   2   6  -1 32.4029 1.29863   2
   1   6  -1 1.24695 0.48377   4
   1   6  -1 1.24988 0.41239   3
   1   6  -1 1.46748 0.42212   2
   0   6  -1 2.64087 0.40992   3
   0   6  -1 3.04363 0.51616   2
   0   6  -1 1.64481 0.48587   4
   0  -6   1 2.39248 0.39203   3
  -1   6  -1 4.13315 0.43065   3
  -1   6  -1 5.14418 0.65889   2
  -1   6  -1 3.69096 0.64314   4
  -2   6  -1 141.461 3.23627   4
  -2   6  -1 144.151 2.39603   3
  -2   6  -1 141.885 3.26235   2
  -3   6  -1 455.708 7.22140   4
  -4   6  -1 42.7788 1.31040   3
  -4   6  -1 44.0822 1.80636   1
  -4   6  -1 44.0566 1.54990   4
  -5   6  -1 13.8617 0.89932   4
  -5   6  -1 11.2893 1.20499   1
  -6   6  -1 0.44191 0.47920   1
  -6   6  -1 1.56151 0.43959   4
  -7   6  -1 7.27606 1.11176   1
  -7   6  -1 8.38357 0.80126   4
  -8   6  -1 73.5833 3.03119   1
  -9   6  -1 20.1992 2.04828   1
   7   5  -1 2.51329 0.95943   3
   6   5  -1 4.59518 0.96888   5
   6   5  -1 3.46875 0.94202   3
   5   5  -1 0.26254 0.49679   5
   5   5  -1 -0.2452 0.45728   3
  -5  -5   1 0.18823 0.35197   1
   4   5  -1 12.9746 1.32478   3
   4   5  -1 12.6463 1.27879   5
  -4  -5   1 13.0905 0.93615   1
   3   5  -1 51.6932 2.00695   3
   3   5  -1 50.1962 1.40190   6
  -3  -5   1 50.8989 1.65507   1
  -3  -5   1 49.9588 1.45235   2
   2   5  -1 11.9545 1.13117   4
   2   5  -1 13.3957 0.77455   2
   2   5  -1 12.6184 1.03010   3
  -2  -5   1 14.0570 0.75529   2
   1   5  -1 262.144 4.35267   2
   1   5  -1 256.469 5.00592   4
   1   5  -1 267.444 4.49348   3
  -1  -5   1 265.927 4.43582   3
   0   5  -1 59.6293 1.93307   4
   0   5  -1 60.2138 1.64753   2
   0   5  -1 59.3598 1.49615   3
   0  -5   1 58.9451 1.46203   3
  -1   5  -1 98.9454 2.49867   4
  -1   5  -1 104.107 1.92073   3
  -1   5  -1 101.239 2.38294   2
   1  -5   1 111.348 2.65161   1
  -2   5  -1 1980.06 25.8451   4
   2  -5   1 2015.15 25.8184   4
  -3   5  -1 9.95477 0.72948   4
  -3   5  -1 10.3578 0.58667   3
  -3   5  -1 7.35808 0.75642   1
   3  -5   1 9.62032 0.68281   4
  -4   5  -1 -0.3135 0.24061   4
  -4   5  -1 0.25010 0.32853   1
  -4   5  -1 0.62921 0.29037   3
   4  -5   1 0.87528 0.31889   4
  -5   5  -1 267.215 5.26842   1
  -5   5  -1 274.654 4.60213   4
  -6   5  -1 107.728 2.47331   4
  -6   5  -1 111.678 3.20845   1
  -7   5  -1 50.7054 1.63201   4
  -7   5  -1 54.1064 2.34180   1
  -8   5  -1 50.9674 2.44292   1
  -9   5  -1 23.3611 2.08178   1
   7   4  -1 5.83807 1.29718   3
   6   4  -1 41.7579 2.36187   3
   6   4  -1 41.0279 1.97655   5
  -6  -4   1 39.9449 1.67749   1
   5   4  -1 49.2720 2.03775   5
   5   4  -1 48.4984 2.29745   3
  -5  -4   1 51.1566 1.76403   1
   4   4  -1 0.53840 0.44009   3
   4   4  -1 0.31855 0.44641   5
  -4  -4   1 0.54404 0.33557   1
  -4  -4   1 1.01192 0.31220   2
   3   4  -1 19.3863 0.84420   6
   3   4  -1 18.8382 1.19125   3
  -3  -4   1 18.8070 0.92030   1
  -3  -4   1 18.3151 0.78980   2
   2   4  -1 192.231 3.75166   3
   2   4  -1 186.257 3.93592   4
   2   4  -1 188.363 3.19001   2
  -2  -4   1 195.065 3.18162   2
   1   4  -1 161.557 2.81442   2
   1   4  -1 161.109 2.99071   3
   1   4  -1 154.694 3.29827   4
  -1  -4   1 154.281 2.92999   3
  -1  -4   1 162.304 2.76109   2
   0   4  -1 231.173 3.58288   3
   0   4  -1 230.479 3.75001   2
   0  -4   1 230.633 3.54974   3
   0  -4   1 225.637 4.05669   4
  -1   4  -1 136.376 2.74641   4
  -1   4  -1 134.873 2.21796   3
   1  -4   1 138.397 2.59902   1
  -2   4  -1 24.9221 1.00293   4
  -2   4  -1 26.2171 1.07677   1
   2  -4   1 26.0369 0.98872   4
   2  -4   1 25.2551 1.01578   1
  -3   4  -1 304.718 5.08208   1
  -3   4  -1 301.838 4.57611   3
  -3   4  -1 302.273 4.78104   4
   3  -4   1 307.541 4.78840   4
  -4   4  -1 31.0715 1.09365   4
  -4   4  -1 29.7489 1.15197   3
  -5   4  -1 13.9616 0.77806   4
  -5   4  -1 11.2279 1.05519   1
  -5   4  -1 12.8458 0.60441   5
  -6   4  -1 0.35717 0.28508   4
  -6   4  -1 0.14673 0.40913   1
  -7   4  -1 122.518 2.71872   4
  -7   4  -1 122.848 3.56134   1
  -8   4  -1 17.1163 1.66913   1
  -9   4  -1 55.3914 2.69519   1
   8   3  -1 15.0300 1.90597   3
   7   3  -1 18.9363 1.94074   3
   7   3  -1 17.5436 1.50865   5
   6   3  -1 1.22805 0.51572   5
   6   3  -1 1.30350 0.67457   3
  -6  -3   1 1.43428 0.46224   1
   5   3  -1 35.8592 1.61743   5
   5   3  -1 38.6652 1.95462   3
  -5  -3   1 36.8425 1.43215   1
   4   3  -1 1.15152 0.44155   5
   4   3  -1 0.45492 0.41633   3
  -4  -3   1 1.00536 0.36300   1
  -4  -3   1 1.60397 0.34006   2
   3   3  -1 0.51927 0.36229   3
   3   3  -1 0.02548 0.21890   6
  -3  -3   1 -0.1552 0.16141   2
  -3  -3   1 0.35271 0.24198   1
   2   3  -1 1.55483 0.39019   3
   2   3  -1 1.66667 0.41132   4
  -2  -3   1 1.56815 0.37718   4
  -2  -3   1 1.42838 0.36052   3
  -2  -3   1 1.33773 0.24567   2
   1   3  -1 131.067 2.70535   4
   1   3  -1 132.316 2.48972   3
   1   3  -1 133.174 2.22892   2
  -1  -3   1 132.942 2.19758   2
  -1  -3   1 130.309 2.64785   4
  -1  -3   1 134.938 2.46881   3
   0   3  -1 171.046 2.67565   3
   0   3  -1 171.810 2.76974   2
   0   3  -1 166.568 3.03499   4
   0  -3   1 167.778 2.65250   3
   0  -3   1 170.687 3.02358   4
   0  -3   1 166.935 2.71480   1
  -1   3  -1 262.135 4.03061   1
  -1   3  -1 268.057 4.17665   4
   1  -3   1 268.772 4.02063   1
   1  -3   1 270.344 4.16700   4
  -2   3  -1 1892.63 23.6429   1
  -2   3  -1 1908.25 25.6627   4
   2  -3   1 1914.19 24.9593   4
   2  -3   1 1916.48 23.5924   1
  -3   3  -1 35.8330 1.26019   1
  -3   3  -1 36.1575 1.13397   3
  -3   3  -1 33.7377 1.04842   4
   3  -3   1 35.5228 1.05134   4
  -4   3  -1 64.3235 1.57008   4
  -4   3  -1 62.8043 1.34126   5
  -4   3  -1 64.7871 1.92708   1
  -4   3  -1 63.2706 1.78632   3
  -5   3  -1 154.172 3.46621   1
  -5   3  -1 146.315 2.87430   4
  -5   3  -1 150.452 2.45772   5
  -6   3  -1 113.958 2.52208   4
  -6   3  -1 112.342 3.11072   1
  -7   3  -1 61.2820 2.40603   1
  -7   3  -1 60.4058 1.82848   4
  -8   3  -1 4.31078 0.88630   1
  -9   3  -1 4.24501 1.00217   1
   8   2  -1 -0.3445 0.68132   3
   7   2  -1 7.26256 0.91701   5
   7   2  -1 5.65769 1.07799   3
  -7  -2   1 6.90899 0.91409   1
   6   2  -1 15.9579 1.06528   5
   6   2  -1 14.8594 1.53445   3
  -6  -2   1 15.1091 1.04204   1
   5   2  -1 9.27016 0.88548   5
   5   2  -1 9.79157 1.16446   3
  -5  -2   1 9.53091 0.84322   1
  -5  -2   1 9.31384 0.76789   2
   4   2  -1 46.0682 1.82126   3
   4   2  -1 46.5158 1.52582   5
  -4  -2   1 47.8087 1.41937   1
  -4  -2   1 46.4080 1.29118   2
   3   2  -1 25.0558 0.92988   6
   3   2  -1 25.3587 1.19658   3
  -3  -2   1 23.9067 0.88785   1
  -3  -2   1 22.5505 1.01884   4
  -3  -2   1 22.8561 0.77452   2
   2   2  -1 767.686 10.6950   4
   2   2  -1 784.309 10.6214   3
   2   2  -1 789.751 10.0619   6
  -2  -2   1 796.831 10.6024   3
  -2  -2   1 767.245 10.6672   4
  -2  -2   1 780.873 10.0076   2
  -2  -2   1 798.459 9.96149   1
   1   2  -1 92.5325 1.49197   2
   1   2  -1 89.8702 1.89473   4
   1   2  -1 93.9847 1.84823   3
  -1  -2   1 92.7476 1.47854   2
  -1  -2   1 92.0755 1.87972   4
  -1  -2   1 93.7628 1.81819   3
   0   2  -1 11.8034 0.57875   4
   0   2  -1 13.3140 0.49732   3
   0  -2   1 13.1875 0.49138   3
   0  -2   1 13.9441 0.58805   4
   0  -2   1 13.8078 0.49148   1
  -1   2  -1 1725.20 23.1658   4
  -1   2  -1 1783.46 23.2275   1
   1  -2   1 1823.48 22.8223   1
   1  -2   1 1768.70 22.8495   4
  -2   2  -1 180.084 2.86250   3
  -2   2  -1 178.981 2.98752   1
  -2   2  -1 172.930 2.81444   4
   2  -2   1 175.565 2.93438   1
   2  -2   1 181.567 2.83846   4
  -3   2  -1 21.4195 0.94768   1
  -3   2  -1 20.8355 0.66711   5
  -3   2  -1 20.6277 0.78420   4
  -3   2  -1 20.7472 0.90001   3
   3  -2   1 20.6111 0.90425   1
  -4   2  -1 104.341 2.16647   4
  -4   2  -1 104.615 1.87107   5
  -4   2  -1 103.232 2.47377   1
  -5   2  -1 23.0977 1.23556   1
  -5   2  -1 22.7424 0.99750   4
  -5   2  -1 24.6105 0.83451   5
   5  -2   1 25.4344 1.36083   3
  -6   2  -1 16.0469 0.93825   4
  -6   2  -1 16.4219 1.18218   1
  -7   2  -1 200.492 3.99749   4
  -7   2  -1 201.385 4.62473   1
  -8   2  -1 10.1079 1.29502   1
  -9   2  -1 67.5478 2.85047   1
   9   1  -1 6.44880 1.37150   3
   8   1  -1 1.52972 0.82000   3
  -8  -1   1 1.59186 0.63230   1
   7   1  -1 21.3019 1.94860   3
  -7  -1   1 21.1001 1.28868   1
   6   1  -1 0.13427 0.29451   5
   6   1  -1 0.51055 0.48657   3
  -6  -1   1 -0.4809 0.23926   1
   5   1  -1 84.2308 2.02917   5
   5   1  -1 77.9324 2.59332   3
  -5  -1   1 85.4182 2.15081   1
   4   1  -1 2.77887 0.55232   3
   4   1  -1 4.25226 0.49958   5
   4   1  -1 4.01496 0.47928   1
  -4  -1   1 3.72719 0.48461   1
  -4  -1   1 4.71924 0.54131   4
   3   1  -1 170.601 3.32899   3
   3   1  -1 169.956 2.74508   1
  -3  -1   1 172.970 2.79756   1
  -3  -1   1 162.589 3.24027   3
  -3  -1   1 169.430 2.98831   4
   2   1  -1 121.585 2.39373   3
   2   1  -1 127.998 2.28367   4
   2   1  -1 127.351 2.18530   6
   2   1  -1 128.731 1.96914   1
  -2  -1   1 125.604 1.97063   1
  -2  -1   1 124.888 2.39830   3
  -2  -1   1 125.232 2.22915   4
   1   1  -1 325.132 4.50659   4
   1   1  -1 330.641 4.53069   3
  -1  -1   1 324.919 4.50427   3
  -1  -1   1 318.046 4.49693   4
   0   1  -1 49.2208 0.90300   3
   0   1  -1 48.7620 0.96197   4
   0   1  -1 48.8595 0.80212   1
   0  -1   1 47.4141 0.79595   1
   0  -1   1 48.2127 0.95373   4
  -1   1  -1 224.855 3.23809   4
  -1   1  -1 225.397 3.20166   1
   1  -1   1 226.896 3.22816   4
   1  -1   1 227.515 3.19616   1
  -2   1  -1 76.3196 1.62652   1
  -2   1  -1 74.4509 1.62790   3
  -2   1  -1 79.7688 1.39530   5
   2  -1   1 77.1374 1.39750   5
   2  -1   1 82.1485 1.63399   1
  -3   1  -1 10.6741 0.53044   5
  -3   1  -1 10.9107 0.71533   3
  -3   1  -1 12.2152 0.71983   1
   3  -1   1 11.8961 0.76467   3
   3  -1   1 11.9198 0.69013   1
   3  -1   1 10.6175 0.52802   5
  -4   1  -1 -0.0554 0.16361   5
  -4   1  -1 0.00227 0.24524   1
   4  -1   1 0.44544 0.35853   3
   4  -1   1 -0.1151 0.16934   5
  -5   1  -1 191.784 3.94632   1
   5  -1   1 200.477 4.30049   3
   5  -1   1 200.350 3.31076   5
  -6   1  -1 36.4255 1.67203   1
   6  -1   1 31.4064 1.12490   5
   6  -1   1 31.1342 1.74313   3
  -7   1  -1 23.1454 1.51351   1
   7  -1   1 23.2602 1.15762   5
   7  -1   1 24.8429 1.76172   3
  -8   1  -1 12.6488 1.38496   1
  -9   1  -1 0.29486 0.63784   1
   9   0  -1 7.25117 1.39403   3
   8   0  -1 0.14957 0.57206   3
  -8   0   1 0.44591 0.48331   1
   7   0  -1 10.8332 1.31983   3
  -7   0   1 13.7031 1.20877   1
   6   0  -1 34.7510 1.12916   5
   6   0  -1 34.3391 1.82953   3
  -6   0   1 35.2022 1.47306   1
   5   0  -1 78.3930 2.47588   3
   5   0  -1 77.6920 1.69326   5
  -5   0   1 74.4989 1.99863   1
  -5   0   1 81.3184 1.93850   4
   4   0  -1 91.2091 2.41250   3
   4   0  -1 90.0550 1.97993   1
   4   0  -1 92.9490 1.74969   5
  -4   0   1 94.8228 2.04442   1
  -4   0   1 91.9384 1.91790   4
   3   0  -1 146.383 2.43313   1
   3   0  -1 147.658 2.87884   3
   3   0  -1 143.033 2.22897   5
  -3   0   1 142.363 2.44817   1
  -3   0   1 143.984 2.64296   6
  -3   0   1 144.373 2.80944   3
  -3   0   1 144.356 2.39904   4
   2   0  -1 282.916 3.91351   1
   2   0  -1 291.318 4.20509   6
   2   0  -1 296.056 4.34571   3
  -2   0   1 294.192 3.94800   1
  -2   0   1 296.314 3.99070   4
  -2   0   1 292.966 4.31388   3
  -2   0   1 296.645 4.18892   6
   1   0  -1 1787.04 23.1342   6
   1   0  -1 1723.63 23.3918   3
   1   0  -1 1776.55 21.7960   1
   1   0  -1 1817.63 22.6356   4
  -1   0   1 1719.70 23.0856   3
  -1   0   1 1791.15 22.6389   4
  -1   0   1 1808.52 21.9368   1
  -1   0   1 1764.12 23.1878   6
   0   0  -1 1.53894 0.21543   2
   0   0  -1 1.76662 0.20448   1
  -1   0  -1 1350.28 17.5463   1
  -1   0  -1 1264.63 16.7761   3
  -1   0  -1 1338.91 16.8671   5
   1   0   1 1277.42 17.0132   1
   1   0   1 1306.56 16.7627   5
  -2   0  -1 296.230 4.42784   1
  -2   0  -1 311.026 4.61562   3
  -2   0  -1 307.716 4.24395   5
   2   0   1 304.001 4.40279   1
   2   0   1 298.656 4.23899   5
   2   0   1 301.080 4.62509   3
  -3   0  -1 354.406 5.05710   5
  -3   0  -1 352.234 5.58811   3
  -3   0  -1 357.705 5.37735   1
   3   0   1 352.988 5.68245   3
   3   0   1 357.288 5.31296   1
   3   0   1 353.915 5.06785   5
  -4   0  -1 221.514 4.04352   1
   4   0   1 219.746 4.37351   3
   4   0   1 224.534 3.66625   5
  -5   0  -1 75.2165 2.28478   1
   5   0   1 85.8174 2.68825   3
   5   0   1 83.9545 1.99041   5
  -6   0  -1 5.66324 0.83473   1
   6   0   1 4.43731 0.60960   5
   6   0   1 4.39970 0.84610   3
  -7   0  -1 33.4019 1.76512   1
   7   0   1 34.5543 1.42044   5
   7   0   1 29.9266 1.97872   3
  -8   0  -1 10.4815 1.29860   1
  -9   0  -1 1.90490 0.74638   1
   9  -1  -1 15.1467 1.85635   3
  -9   1   1 18.3379 1.64315   1
   8  -1  -1 3.96518 0.98796   3
  -8   1   1 4.58745 0.82872   1
   7  -1  -1 31.3762 1.89411   3
  -7   1   1 33.7718 1.60692   1
   6  -1  -1 94.3075 2.96554   3
  -6   1   1 96.7752 2.12817   4
  -6   1   1 97.9403 2.56170   1
   5  -1  -1 338.695 5.93018   3
  -5   1   1 327.145 4.90014   4
  -5   1   1 320.427 5.33494   1
   4  -1  -1 44.5928 1.31629   1
   4  -1  -1 48.1307 1.59964   3
  -4   1   1 44.0422 1.35066   1
  -4   1   1 47.6935 1.08731   4
   3  -1  -1 940.470 12.3929   3
   3  -1  -1 951.703 12.0051   1
  -3   1   1 930.096 12.2542   6
  -3   1   1 928.999 12.0171   1
  -3   1   1 953.763 12.3581   3
   2  -1  -1 73.9677 1.39697   1
   2  -1  -1 75.1661 1.47525   3
  -2   1   1 73.6793 1.52629   6
  -2   1   1 72.4451 1.43798   3
  -2   1   1 72.3037 1.40527   1
   1  -1  -1 13.2099 0.33060   4
   1  -1  -1 13.3122 0.35880   5
   1  -1  -1 13.7054 0.37810   3
  -1   1   1 14.2299 0.50807   2
  -1   1   1 12.9854 0.46609   6
  -1   1   1 13.4399 0.37449   3
  -1   1   1 13.9488 0.36493   5
   0  -1  -1 52.8498 0.76326   6
   0  -1  -1 53.3159 1.06499   2
   0  -1  -1 51.5147 0.89269   3
   0  -1  -1 52.1504 1.02350   5
  -1  -1  -1 714.216 9.17883   3
  -1  -1  -1 715.067 9.05187   5
  -1  -1  -1 714.390 9.07652   1
  -1  -1  -1 716.422 9.27622   2
   1   1   1 693.740 9.04620   5
   1   1   1 701.624 9.21686   3
  -2  -1  -1 16.0141 0.77656   3
  -2  -1  -1 16.0070 0.69869   5
  -2  -1  -1 15.3918 0.52696   6
  -2  -1  -1 16.2785 0.73412   1
   2   1   1 15.1676 0.71344   5
  -3  -1  -1 4.50683 0.53738   1
  -3  -1  -1 6.45643 0.44741   6
   3   1   1 4.70555 0.52729   1
   3   1   1 4.39702 0.61292   3
   3   1   1 5.03563 0.53803   5
  -4  -1  -1 64.4986 1.63867   6
  -4  -1  -1 64.6570 1.89551   1
   4   1   1 63.8205 2.17419   3
   4   1   1 64.6234 1.79660   5
  -5  -1  -1 68.9614 2.17483   1
   5   1   1 73.3288 2.56239   3
   5   1   1 67.0502 1.96140   5
  -6  -1  -1 208.167 4.47749   1
   6   1   1 206.222 4.05531   5
   6   1   1 211.040 5.08672   3
  -7  -1  -1 0.79274 0.51199   1
   7   1   1 0.66493 0.59885   3
   7   1   1 1.22170 0.51169   5
  -8  -1  -1 30.5280 1.86784   1
   8   1   1 33.4471 2.34563   3
   9  -2  -1 7.11853 1.33200   3
  -9   2   1 6.46863 1.05472   1
   8  -2  -1 0.18284 0.54441   3
  -8   2   1 0.26990 0.41500   1
   7  -2  -1 5.06198 0.94784   3
  -7   2   1 5.09811 0.79385   1
   6  -2  -1 135.624 3.48550   3
  -6   2   1 137.470 3.21083   1
   5  -2  -1 23.2308 1.25279   3
  -5   2   1 24.8631 1.16450   1
   4  -2  -1 9.68279 0.79246   1
   4  -2  -1 8.03168 0.75230   3
  -4   2   1 6.89995 0.64605   1
  -4   2   1 9.32357 0.67403   3
   3  -2  -1 168.786 2.93129   3
   3  -2  -1 174.360 2.96929   1
  -3   2   1 172.144 2.99394   1
  -3   2   1 174.839 2.91028   3
   2  -2  -1 11.9346 0.59254   1
   2  -2  -1 11.2009 0.36542   4
   2  -2  -1 11.3526 0.46270   3
  -2   2   1 10.3938 0.57636   1
  -2   2   1 10.3246 0.43420   3
   1  -2  -1 918.036 11.7336   2
   1  -2  -1 890.620 11.8902   4
  -1   2   1 907.145 11.9085   4
  -1   2   1 893.304 11.7473   2
   0  -2  -1 0.12051 0.17211   2
   0  -2  -1 0.59967 0.20235   4
   0  -2  -1 0.10686 0.12593   3
   0   2   1 0.13546 0.14467   3
   0   2   1 0.26795 0.20488   5
   0   2   1 0.10324 0.19417   2
  -1  -2  -1 12.3590 0.60765   3
  -1  -2  -1 12.6979 0.62171   2
   1   2   1 12.7064 0.65552   3
   1   2   1 12.0565 0.67109   5
   1   2   1 10.9672 0.60930   2
  -2  -2  -1 99.7480 2.21576   3
  -2  -2  -1 99.3094 2.13979   1
  -2  -2  -1 97.2798 2.06947   2
  -2  -2  -1 98.6625 2.30395   4
   2   2   1 100.296 2.28064   3
   2   2   1 97.6204 2.20076   5
  -3  -2  -1 26.1073 1.11921   1
  -3  -2  -1 26.6260 1.07553   2
   3   2   1 28.1848 1.31902   3
   3   2   1 27.1968 1.15947   5
  -4  -2  -1 581.807 8.69632   1
   4   2   1 587.720 8.70263   5
   4   2   1 592.172 9.34412   3
  -5  -2  -1 2.78159 0.57693   1
   5   2   1 2.95479 0.76471   3
   5   2   1 2.67500 0.60701   5
  -6  -2  -1 -0.1254 0.36327   1
   6   2   1 0.82332 0.60192   3
   6   2   1 0.19858 0.37534   5
  -7  -2  -1 4.86285 0.87339   1
   7   2   1 2.75641 0.85187   3
   7   2   1 2.79081 0.65546   5
  -8  -2  -1 23.2362 1.89062   1
   8   2   1 21.5471 2.25799   3
 -10   3   1 0.33007 0.65326   1
  -9   3   1 2.72070 0.79982   1
   8  -3  -1 25.6490 1.78930   3
  -8   3   1 29.7645 1.70554   1
   7  -3  -1 1.72468 0.63929   3
  -7   3   1 2.16936 0.57894   1
   6  -3  -1 42.7853 1.80232   3
  -6   3   1 44.6953 1.76724   1
   5  -3  -1 3.56402 0.58023   3
  -5   3   1 2.98507 0.54543   1
   4  -3  -1 166.137 3.10424   3
  -4   3   1 161.964 2.99335   3
  -4   3   1 163.092 3.23806   1
   3  -3  -1 26.9107 0.86023   3
   3  -3  -1 27.2489 0.70738   4
  -3   3   1 26.7118 1.07233   1
  -3   3   1 27.9649 0.83965   3
  -3   3   1 27.5401 0.71511   4
   2  -3  -1 1056.79 13.5056   1
   2  -3  -1 1060.41 13.4559   4
  -2   3   1 1029.32 13.9309   2
  -2   3   1 1053.68 13.4701   4
   1  -3  -1 50.6652 1.36055   2
   1  -3  -1 50.9047 1.26923   4
  -1   3   1 50.0924 1.39703   2
  -1   3   1 48.2745 1.28646   4
   0  -3  -1 11.2777 0.47171   3
   0  -3  -1 12.9211 0.66937   2
   0  -3  -1 11.4124 0.66267   4
   0   3   1 11.3772 0.50185   3
   0   3   1 10.6126 0.64747   2
  -1  -3  -1 60.4993 1.53461   2
  -1  -3  -1 59.3834 1.46194   3
   1   3   1 60.0225 1.68792   5
   1   3   1 59.5078 1.56830   2
   1   3   1 59.1783 1.50936   3
  -2  -3  -1 462.168 6.86989   2
  -2  -3  -1 461.347 7.37095   3
   2   3   1 467.117 7.07801   3
   2   3   1 471.689 7.10572   5
  -3  -3  -1 7.95486 0.80574   1
  -3  -3  -1 5.73616 0.63314   2
   3   3   1 7.39927 0.83108   5
   3   3   1 6.06116 0.77535   3
  -4  -3  -1 28.4150 1.39085   1
   4   3   1 33.3366 1.53834   5
   4   3   1 33.2443 1.67759   3
  -5  -3  -1 -0.4797 0.31926   1
   5   3   1 0.12817 0.44910   3
   5   3   1 0.24921 0.42213   5
  -6  -3  -1 87.8327 2.80162   1
   6   3   1 95.6610 3.46774   3
   6   3   1 91.8474 2.89295   5
  -7  -3  -1 0.13797 0.51213   1
   7   3   1 -0.4000 0.55444   3
   7   3   1 0.08135 0.52321   5
   8   3   1 -0.8067 0.59634   3
 -10   4   1 57.0603 2.74296   1
  -9   4   1 1.23300 0.65596   1
  -8   4   1 7.84508 1.07261   1
   7  -4  -1 167.271 4.01067   3
  -7   4   1 164.370 4.03343   1
   6  -4  -1 539.730 8.43466   3
  -6   4   1 535.875 8.61914   1
   5  -4  -1 3.20199 0.54271   3
  -5   4   1 3.30271 0.62390   1
   4  -4  -1 181.665 2.86429   4
  -4   4   1 186.449 3.12035   3
  -4   4   1 181.217 3.65765   1
  -4   4   1 181.385 2.88558   4
   3  -4  -1 226.247 3.52041   4
  -3   4   1 222.520 3.51716   4
  -3   4   1 221.250 3.20684   3
   2  -4  -1 183.322 3.38312   1
   2  -4  -1 186.888 3.18001   4
  -2   4   1 184.992 3.20556   4
  -2   4   1 183.265 3.53786   2
   1  -4  -1 0.14979 0.22291   4
   1  -4  -1 0.50110 0.27537   2
  -1   4   1 0.28956 0.26264   2
  -1   4   1 0.18223 0.26593   4
   0  -4  -1 146.720 2.89990   2
   0  -4  -1 146.796 3.01025   4
   0  -4  -1 153.388 2.44894   3
   0   4   1 145.487 2.95016   2
   0   4   1 147.750 2.47998   3
  -1  -4  -1 5.08927 0.54027   3
  -1  -4  -1 5.24884 0.57595   2
   1   4   1 4.63191 0.57586   2
   1   4   1 4.59343 0.62296   5
   1   4   1 4.19877 0.50303   3
  -2  -4  -1 0.36404 0.26358   2
   2   4   1 0.54438 0.39668   5
   2   4   1 0.80398 0.36388   3
  -3  -4  -1 78.4769 2.25057   1
   3   4   1 75.2961 2.42932   3
   3   4   1 78.4139 2.45364   5
  -4  -4  -1 201.578 4.20136   1
   4   4   1 201.413 4.64731   3
   4   4   1 195.784 4.41190   5
  -5  -4  -1 30.0498 1.59042   1
   5   4   1 34.2459 1.80979   5
   5   4   1 31.2688 1.94534   3
  -6  -4  -1 0.65813 0.48465   1
   6   4   1 0.61754 0.60608   3
   6   4   1 1.56756 0.63865   5
   7   4   1 1.48294 0.72666   5
   7   4   1 1.48178 0.77285   3
 -10   5   1 1.91502 0.86899   1
  -9   5   1 5.44239 1.05062   1
  -8   5   1 0.18391 0.44546   1
  -7   5   1 20.9780 1.44434   1
  -6   5   1 17.2285 1.24097   1
  -5   5   1 70.9976 2.31017   1
  -5   5   1 74.1682 1.84050   3
   4  -5  -1 173.268 3.01537   4
  -4   5   1 170.288 2.81287   3
  -4   5   1 175.562 3.04261   4
   3  -5  -1 3.93262 0.48813   4
  -3   5   1 3.24923 0.57729   2
  -3   5   1 3.16904 0.45885   4
   2  -5  -1 1032.96 13.9528   4
  -2   5   1 1028.94 14.3537   2
  -2   5   1 1034.32 14.0345   4
  -1   5   1 78.1280 2.15053   2
  -1   5   1 79.7043 2.16825   4
   0  -5  -1 3.15526 0.37530   3
   0   5   1 2.72263 0.38883   3
   0   5   1 3.10317 0.52816   2
  -1  -5  -1 126.249 2.60630   3
   1   5   1 124.048 2.66674   3
   1   5   1 125.297 3.10404   5
   1   5   1 126.405 2.90074   2
   2   5   1 140.066 3.46236   5
   2   5   1 136.358 3.06809   2
   2   5   1 128.827 3.11029   3
  -3  -5  -1 279.289 5.19793   1
   3   5   1 269.871 5.42513   3
   3   5   1 274.137 5.53635   5
  -4  -5  -1 1.24665 0.54492   1
   4   5   1 2.42721 0.69292   5
   4   5   1 1.85140 0.64552   3
  -5  -5  -1 11.4415 1.25658   1
   5   5   1 11.3763 1.37013   5
   5   5   1 11.7568 1.41498   3
  -6  -5  -1 20.9632 1.51116   1
   6   5   1 22.4579 1.95174   5
   6   5   1 18.8962 1.86414   3
   7   5   1 11.2535 1.66810   3
 -10   6   1 8.04442 1.32409   1
  -9   6   1 1.61536 0.72502   1
  -8   6   1 0.86229 0.60231   1
  -7   6   1 0.60706 0.47587   1
  -6   6   1 111.187 3.25683   1
   5  -6  -1 39.2849 1.25447   4
  -5   6   1 40.6227 1.29978   4
  -5   6   1 39.2346 1.20266   3
   4  -6  -1 9.82672 0.68064   4
  -4   6   1 10.4034 1.07070   2
  -4   6   1 9.55792 0.80125   4
  -3   6   1 67.8011 1.93933   4
  -3   6   1 69.2872 2.28595   2
  -2   6   1 1.22697 0.47994   2
  -2   6   1 2.54512 0.55329   4
  -1   6   1 195.085 4.14787   4
  -1   6   1 198.239 4.08827   2
   0  -6  -1 0.12119 0.18587   3
   0   6   1 -0.1621 0.30326   2
   0   6   1 0.70628 0.29663   3
   1   6   1 143.500 3.06391   3
   1   6   1 142.649 3.61725   5
   1   6   1 142.939 3.34473   2
   2   6   1 1.82867 0.55057   3
   2   6   1 2.12034 0.55385   2
   2   6   1 1.45294 0.58362   5
  -3  -6  -1 186.263 4.19276   1
   3   6   1 185.140 4.37235   3
   3   6   1 191.195 4.65756   5
  -4  -6  -1 5.83979 0.90697   1
   4   6   1 3.88707 0.92435   3
   4   6   1 5.07576 1.01095   5
  -5  -6  -1 42.4523 2.03983   1
   5   6   1 44.5585 2.41576   3
   5   6   1 36.7459 2.21900   5
   6   6   1 2.48937 0.90641   5
   6   6   1 3.32412 1.05341   3
  -6   7   1 0.39921 0.47663   2
  -6   7   1 0.65706 0.30747   4
  -5   7   1 3.69957 0.53924   4
  -5   7   1 3.01798 0.71942   2
  -4   7   1 48.2375 2.11107   2
  -4   7   1 47.9654 1.70559   4
  -3   7   1 203.249 4.55976   2
  -3   7   1 201.889 4.15049   4
  -2   7   1 77.1971 2.43862   4
  -2   7   1 80.4331 2.55230   2
  -1   7   1 9.35478 1.01956   2
   0  -7  -1 4.62376 0.53615   3
   0   7   1 6.81794 0.91638   2
   0   7   1 4.99205 0.57938   3
   0   7   1 4.62929 0.86807   5
   1   7   1 64.4876 1.96595   3
   1   7   1 58.7722 2.14932   2
   1   7   1 61.1938 2.45045   5
   2   7   1 1.04502 0.55745   2
   2   7   1 0.39356 0.53470   5
   2   7   1 0.01481 0.42179   3
  -3  -7  -1 118.250 3.35875   1
   3   7   1 119.247 3.83598   5
   3   7   1 120.422 3.50008   3
  -4  -7  -1 0.82467 0.52067   1
   4   7   1 0.27832 0.64429   5
   4   7   1 0.14482 0.57005   3
  -5  -7  -1 0.56531 0.55429   1
   5   7   1 0.99852 0.73951   3
   5   7   1 -0.1708 0.60812   5
  -9   8   1 1.40436 0.75416   2
  -8   8   1 0.85574 0.71186   2
  -7   8   1 3.68363 0.92733   2
  -6   8   1 5.73943 0.71700   4
  -6   8   1 5.42318 1.03149   2
  -6   8   1 6.21364 0.69802   5
  -5   8   1 84.2238 2.38834   4
  -5   8   1 77.4344 2.96003   2
  -4   8   1 2.96286 0.76914   2
  -4   8   1 2.45582 0.59646   4
  -3   8   1 223.056 5.08066   2
  -3   8   1 221.719 4.75164   4
  -2   8   1 26.3230 1.57242   4
  -2   8   1 24.5087 1.55073   2
  -1   8   1 64.9522 2.44209   2
  -1   8   1 69.4837 2.53299   5
   0   8   1 14.5968 1.36281   2
   0   8   1 13.4958 1.48330   5
   0   8   1 13.4073 0.85990   3
   1   8   1 78.1974 2.67381   2
   1   8   1 81.3947 2.35563   3
   1   8   1 78.4287 2.98028   5
   2   8   1 37.1063 1.79185   3
   2   8   1 38.0721 1.87644   2
   2   8   1 37.3145 2.19799   5
  -3  -8  -1 48.6401 2.23169   1
   3   8   1 50.0211 2.63668   5
   3   8   1 50.7824 2.31431   3
  -4  -8  -1 3.75802 0.84539   1
   4   8   1 5.69669 1.22973   5
   4   8   1 4.12570 0.97844   3
  -9   9   1 13.5359 1.83120   2
  -8   9   1 0.83206 0.78439   2
  -7   9   1 170.772 5.05963   2
  -6   9   1 -0.2741 0.32491   5
  -6   9   1 -0.2852 0.30295   4
  -6   9   1 -0.3501 0.51620   2
  -5   9   1 1.23028 0.67593   2
  -5   9   1 2.02858 0.61766   5
  -5   9   1 1.73034 0.56026   4
  -4   9   1 1.02249 0.50644   4
  -4   9   1 0.46452 0.50716   2
  -3   9   1 51.5047 2.33512   2
  -3   9   1 47.3437 2.20075   4
  -2   9   1 37.7533 1.95815   5
  -2   9   1 36.0770 1.98055   2
  -1   9   1 3.87480 0.85944   5
  -1   9   1 2.85962 0.78916   2
   0   9   1 6.90841 1.13080   5
   0   9   1 9.65905 1.23423   2
   1   9   1 15.5358 1.67712   5
   1   9   1 13.7860 1.17389   3
   1   9   1 14.8161 1.48972   2
   2   9   1 97.3661 3.67181   5
   2   9   1 88.1876 3.01710   2
   2   9   1 89.8978 2.88544   3
  -3  -9  -1 7.18139 1.18708   1
   3   9   1 9.02516 1.46002   5
   3   9   1 7.85718 1.18077   3
  -8  10   1 10.5292 1.73793   2
  -7  10   1 1.74570 0.82278   2
  -6  10   1 33.8229 2.25573   2
  -5  10   1 0.43113 0.59524   2
  -5  10   1 -0.2634 0.38255   5
  -5  10   1 1.19502 0.54963   4
  -4  10   1 45.6663 2.15726   5
  -4  10   1 43.1293 2.41170   2
  -3  10   1 61.4875 2.75347   2
  -3  10   1 55.3299 2.46430   5
  -2  10   1 72.4059 2.91983   5
  -2  10   1 74.9117 2.98172   2
  -1  10   1 5.47270 1.07909   5
  -1  10   1 6.67819 1.10077   2
   0  10   1 38.4442 2.31273   5
   0  10   1 38.3405 2.15288   2
   1  10   1 6.95526 1.34053   5
   1  10   1 4.42832 0.94721   2
   2  10   1 12.8860 1.83833   5
  -7  11   1 13.4059 1.79620   2
  -6  11   1 3.33903 1.10627   2
  -5  11   1 7.46434 1.10220   5
  -5  11   1 6.89945 1.35489   2
  -4  11   1 4.12197 0.94198   5
  -4  11   1 3.17220 1.00973   2
  -3  11   1 2.79207 0.90062   5
  -3  11   1 1.45698 0.78565   2
  -2  11   1 26.2952 2.29449   2
  -2  11   1 29.9427 2.07511   5
  -1  11   1 -0.1479 0.58290   5
  -1  11   1 1.85923 0.81298   2
   0  11   1 4.22319 1.09074   2
   0  11   1 4.13235 1.09604   5
   1  11   1 14.0037 1.83889   5
  -6  12   1 3.47902 1.11332   2
  -5  12   1 4.73246 1.06112   5
  -5  12   1 3.70473 1.15064   2
  -4  12   1 18.9072 2.12319   2
  -4  12   1 20.9439 2.00509   5
  -3  12   1 0.78493 0.77473   2
  -3  12   1 1.03793 0.77331   5
  -2  12   1 37.8134 2.44273   2
  -2  12   1 36.8979 2.46331   5
  -1  12   1 1.73889 0.93753   5
  -1  12   1 1.48128 0.94007   2
  -1  12  -2 1.30772 0.92970   4
  -2  12  -2 64.3587 3.19138   4
  -2  12  -2 63.7511 2.94250   2
  -3  12  -2 0.43560 0.68244   2
  -3  12  -2 0.20920 0.64863   4
  -4  12  -2 2.94409 0.95084   4
  -4  12  -2 3.60111 1.07320   2
  -5  12  -2 4.52468 1.15878   2
  -5  12  -2 5.03380 1.07958   4
  -6  12  -2 5.44845 1.31394   2
  -1  11  -2 -0.4692 0.55246   2
  -1  11  -2 0.79768 0.66902   4
  -2  11  -2 3.21552 0.94857   4
  -2  11  -2 3.60097 0.89192   2
  -3  11  -2 35.9084 2.20914   2
  -3  11  -2 41.9310 2.34198   4
  -4  11  -2 55.8349 2.67020   4
  -4  11  -2 60.7172 2.86107   2
  -5  11  -2 4.74789 1.01967   4
  -6  11  -2 0.12959 0.60022   2
  -6  11  -2 0.67432 0.55361   4
  -7  11  -2 0.73657 0.78093   2
   3  10  -2 0.15992 0.63862   5
   2  10  -2 0.30342 0.68818   5
   0  10  -2 18.3253 1.57966   2
   0  10  -2 15.6904 1.74009   4
  -1  10  -2 0.69394 0.51570   2
  -1  10  -2 0.88998 0.68135   4
  -2  10  -2 49.7099 2.44735   4
  -2  10  -2 42.2764 2.16875   2
  -3  10  -2 8.54421 1.18165   4
  -3  10  -2 6.60467 1.10624   2
  -4  10  -2 8.60664 1.21228   4
  -4  10  -2 10.1992 1.38808   2
  -5  10  -2 4.55357 0.96090   2
  -5  10  -2 5.55332 0.96338   4
  -6  10  -2 4.54216 0.93777   4
  -6  10  -2 5.92504 1.21577   2
   4   9  -2 1.00863 0.84488   5
   4   9  -2 1.50141 0.84113   3
   3   9  -2 -0.3779 0.59266   5
   3   9  -2 -0.1174 0.47681   3
   2   9  -2 25.7142 1.63696   3
   1   9  -2 22.7158 1.39355   2
   1   9  -2 20.3670 1.94484   4
   1   9  -2 20.6327 1.33460   3
   0   9  -2 7.47122 1.21481   4
   0   9  -2 7.79799 0.86076   3
   0   9  -2 9.83806 1.11168   2
  -1   9  -2 57.6613 2.55000   4
  -1   9  -2 59.4080 1.75707   3
  -1   9  -2 59.5120 2.28308   2
  -2   9  -2 -0.2138 0.40482   2
  -2   9  -2 0.41748 0.26747   3
  -2   9  -2 -0.5734 0.37895   4
  -3   9  -2 7.99923 1.17801   2
  -3   9  -2 5.79198 0.56135   3
  -3   9  -2 4.80235 0.89548   4
  -4   9  -2 1.80309 0.39352   3
  -4   9  -2 0.80531 0.55484   4
  -4   9  -2 1.31247 0.64990   2
  -5   9  -2 13.3590 1.34647   4
  -6   9  -2 2.32598 0.66008   4
  -7   9  -2 2.45227 0.86224   1
  -8   9  -2 7.82544 1.45451   1
   5   8  -2 0.58929 0.76329   5
   5   8  -2 -0.0238 0.63391   3
   4   8  -2 0.15250 0.62891   5
   4   8  -2 1.06436 0.64746   3
   3   8  -2 79.4219 2.90798   3
  -3  -8   2 75.7636 2.40211   1
   2   8  -2 4.09557 0.66761   2
   2   8  -2 4.54472 0.82604   3
   1   8  -2 100.975 3.44253   4
   1   8  -2 98.4188 2.66779   2
   1   8  -2 103.976 2.80464   3
   0   8  -2 0.26638 0.38116   2
   0   8  -2 1.36938 0.61164   4
   0   8  -2 1.08424 0.41168   3
  -1   8  -2 16.6563 1.46579   4
  -1   8  -2 16.4349 0.89821   3
  -1   8  -2 15.0427 1.29381   2
  -2   8  -2 2.15294 0.41074   3
  -2   8  -2 1.81353 0.57911   2
  -2   8  -2 2.50463 0.66441   4
  -3   8  -2 56.4799 1.49794   3
  -3   8  -2 55.8587 2.20548   4
  -3   8  -2 56.6347 2.26901   2
  -4   8  -2 16.8947 1.24198   4
  -5   8  -2 57.9371 2.15979   4
  -5   8  -2 52.3874 2.35957   1
  -6   8  -2 0.94961 0.50353   4
  -6   8  -2 1.39126 0.64987   1
  -7   8  -2 87.3928 3.37349   1
  -7   8  -2 88.0633 2.67909   4
  -8   8  -2 0.37121 0.65395   1
  -9   8  -2 -0.0693 0.69470   1
   6   7  -2 0.53492 0.75361   5
   6   7  -2 0.82686 0.82670   3
   5   7  -2 61.6855 2.84974   5
   5   7  -2 65.5459 2.99470   3
   4   7  -2 22.0126 1.93792   3
   4   7  -2 19.9239 1.86230   5
   3   7  -2 9.61247 0.84032   6
   3   7  -2 8.97196 1.12212   3
  -3  -7   2 9.00365 0.92581   1
   2   7  -2 -0.2894 0.28086   2
   2   7  -2 -0.1954 0.38363   4
   2   7  -2 -0.2440 0.34360   3
   1   7  -2 144.023 3.29744   3
   1   7  -2 145.169 3.94411   4
   1   7  -2 151.489 3.18925   2
   0   7  -2 1.08446 0.36805   3
   0   7  -2 0.53810 0.36484   2
   0   7  -2 0.80287 0.47390   4
  -1   7  -2 50.7724 2.03902   4
  -1   7  -2 47.9168 1.43548   3
  -1   7  -2 45.5488 1.75227   2
  -2   7  -2 2.12348 0.37317   3
  -2   7  -2 1.40458 0.48354   4
  -2   7  -2 1.93532 0.52523   2
  -3   7  -2 56.7128 2.03867   4
  -3   7  -2 54.8940 1.48686   3
  -4   7  -2 0.42266 0.35761   4
  -4   7  -2 0.11126 0.41222   1
  -4   7  -2 -0.1404 0.26859   3
  -5   7  -2 32.2846 1.75828   1
  -5   7  -2 30.5208 1.47961   4
  -6   7  -2 0.34287 0.37159   4
  -6   7  -2 0.43408 0.50970   1
  -7   7  -2 19.9982 1.20378   4
  -7   7  -2 20.0054 1.81873   1
  -8   7  -2 5.73055 1.10325   1
  -9   7  -2 25.4338 2.31246   1
   6   6  -2 2.35511 0.84427   5
   6   6  -2 1.53142 0.77859   3
   5   6  -2 2.10823 0.77617   3
   5   6  -2 1.55928 0.69015   5
   4   6  -2 56.7325 1.73679   6
   4   6  -2 53.9015 2.36235   5
   4   6  -2 61.6005 2.53329   3
  -4  -6   2 57.9490 1.83199   1
   3   6  -2 242.183 4.21729   6
   3   6  -2 248.304 5.16133   3
  -3  -6   2 237.098 4.31906   1
   2   6  -2 0.90392 0.45600   3
   2   6  -2 1.27154 0.34677   2
   2   6  -2 0.68263 0.50193   4
   1   6  -2 7.83220 0.95890   4
   1   6  -2 8.99086 0.76382   2
   1   6  -2 8.23123 0.81831   3
   0   6  -2 21.7397 1.05017   2
   0   6  -2 21.6101 1.00945   3
   0   6  -2 25.0813 1.36126   4
  -1   6  -2 37.8049 1.44198   2
  -1   6  -2 36.2346 1.19401   3
  -1   6  -2 35.2424 1.56489   4
  -2   6  -2 18.4644 1.12334   4
  -2   6  -2 20.5459 0.85123   3
  -3   6  -2 6.81579 0.84259   1
  -3   6  -2 6.63352 0.78927   4
  -4   6  -2 0.43213 0.30817   3
  -4   6  -2 0.60415 0.37904   4
  -4   6  -2 0.28057 0.37262   1
  -5   6  -2 42.7319 1.62554   4
  -5   6  -2 43.4944 1.93451   1
  -6   6  -2 4.59154 0.86334   1
  -6   6  -2 8.25865 0.85947   4
  -7   6  -2 111.803 2.83135   4
  -7   6  -2 116.897 3.66752   1
  -8   6  -2 3.10949 0.89698   1
  -9   6  -2 1.54465 0.79202   1
   7   5  -2 1.93187 0.98300   3
   6   5  -2 1.39436 0.66353   5
   6   5  -2 2.46013 0.83608   3
   5   5  -2 25.1999 1.79278   3
   5   5  -2 27.7013 1.66717   5
  -5  -5   2 27.5347 1.24172   1
   4   5  -2 55.7720 2.32642   3
   4   5  -2 55.6274 1.73052   6
  -4  -5   2 57.6580 1.72418   1
   3   5  -2 0.39761 0.39936   3
   3   5  -2 1.07657 0.35310   6
  -3  -5   2 0.89889 0.33012   1
   2   5  -2 113.317 2.17663   2
   2   5  -2 109.102 2.97875   4
   2   5  -2 104.283 2.72741   3
   1   5  -2 17.6326 0.96037   3
   1   5  -2 19.1256 0.82374   2
   1   5  -2 17.5740 1.14068   4
   0   5  -2 78.5414 2.26668   4
   0   5  -2 79.8779 1.89720   2
   0   5  -2 78.9471 1.87741   3
   0  -5   2 76.5012 1.85781   1
   0  -5   2 78.2072 1.84624   3
  -1   5  -2 30.8314 1.02565   3
  -1   5  -2 32.1765 1.35939   4
   1  -5   2 32.6636 1.18690   1
  -2   5  -2 0.11687 0.26550   4
  -2   5  -2 -0.2924 0.23060   1
  -3   5  -2 17.9454 1.06664   1
  -3   5  -2 18.7173 1.00448   4
  -4   5  -2 296.775 5.51599   1
  -4   5  -2 313.252 5.46398   3
  -4   5  -2 312.888 5.27369   4
  -5   5  -2 50.9755 1.67276   4
  -5   5  -2 48.7409 1.45320   5
  -6   5  -2 37.2804 1.49063   4
  -6   5  -2 35.2493 1.82282   1
  -7   5  -2 16.7671 1.07712   4
  -7   5  -2 20.4929 1.72503   1
  -8   5  -2 7.54849 1.20689   1
  -9   5  -2 9.55007 1.41864   1
   8   4  -2 24.9362 2.85335   3
   7   4  -2 7.75731 1.36344   3
   6   4  -2 80.6379 2.72943   5
   6   4  -2 79.1041 3.19890   3
   5   4  -2 58.9703 2.51051   3
   5   4  -2 55.8636 2.13629   5
  -5  -4   2 57.6827 1.70732   1
   4   4  -2 158.528 3.94475   3
   4   4  -2 155.023 3.17159   6
  -4  -4   2 157.927 3.00541   1
   3   4  -2 51.2174 1.53740   6
   3   4  -2 53.6054 1.98420   4
   3   4  -2 52.1934 1.93754   3
  -3  -4   2 52.4799 1.40095   1
   2   4  -2 220.666 3.34499   2
   2   4  -2 224.941 4.34825   4
   2   4  -2 218.257 4.13979   3
   1   4  -2 2.29328 0.42330   3
   1   4  -2 1.00725 0.35123   4
   1   4  -2 1.43883 0.26603   2
  -1  -4   2 1.39742 0.34504   3
   0   4  -2 67.6422 1.55893   2
   0   4  -2 66.0693 1.59992   3
   0   4  -2 68.8709 1.89132   4
   0  -4   2 64.5432 1.52557   1
  -1   4  -2 5.86623 0.50018   3
  -1   4  -2 6.11791 0.58988   1
  -1   4  -2 5.21453 0.63512   4
   1  -4   2 6.69639 0.67574   4
   1  -4   2 5.99309 0.55966   1
  -2   4  -2 307.826 4.98193   1
  -2   4  -2 304.801 5.03046   4
   2  -4   2 316.508 5.03782   4
   2  -4   2 315.317 4.92788   1
  -3   4  -2 10.1942 0.84354   1
  -3   4  -2 9.95428 0.71219   4
   3  -4   2 11.1941 0.70950   4
  -4   4  -2 0.67100 0.36417   1
  -4   4  -2 0.64091 0.31003   4
  -5   4  -2 19.2935 0.85320   5
  -5   4  -2 20.3749 1.25766   1
  -5   4  -2 20.2705 1.03897   4
  -6   4  -2 140.796 3.09815   4
  -6   4  -2 140.619 2.64112   5
  -6   4  -2 140.378 3.66446   1
  -7   4  -2 63.1769 2.55470   1
  -7   4  -2 67.9700 2.07181   4
  -8   4  -2 15.8528 1.61037   1
  -9   4  -2 3.07856 0.96194   1
   8   3  -2 -0.0765 0.61452   3
   7   3  -2 16.4626 1.85888   3
   6   3  -2 37.8435 2.13257   3
   6   3  -2 40.7814 1.76461   5
  -6  -3   2 39.8896 1.48351   1
   5   3  -2 102.336 3.21225   3
   5   3  -2 103.038 2.73286   5
  -5  -3   2 103.867 2.33810   1
   4   3  -2 315.810 5.23014   6
   4   3  -2 322.394 6.02714   3
  -4  -3   2 327.365 4.89369   1
   3   3  -2 16.1362 0.98508   4
   3   3  -2 15.9434 0.84544   6
   3   3  -2 12.8601 0.95189   3
  -3  -3   2 16.3066 0.68780   1
   2   3  -2 5.34216 0.63794   3
   2   3  -2 3.96406 0.56919   4
  -2  -3   2 4.00273 0.59720   3
  -2  -3   2 4.18556 0.54219   4
   1   3  -2 93.7749 2.16842   4
   1   3  -2 93.8697 2.03733   3
   1   3  -2 93.1503 1.59857   2
  -1  -3   2 95.2141 2.01800   3
  -1  -3   2 96.1977 2.15288   4
   0   3  -2 193.829 3.40701   4
   0   3  -2 190.949 3.10920   3
   0  -3   2 186.798 3.35377   4
   0  -3   2 194.332 2.96112   1
  -1   3  -2 1049.10 13.8794   4
  -1   3  -2 1052.31 13.3273   1
   1  -3   2 1053.68 13.8624   4
   1  -3   2 1041.85 13.2825   1
  -2   3  -2 68.4653 1.68742   4
  -2   3  -2 70.7268 1.74353   1
   2  -3   2 73.9408 1.73003   1
   2  -3   2 73.4978 1.71890   4
  -3   3  -2 3.08424 0.49735   1
  -3   3  -2 3.18345 0.45084   4
  -3   3  -2 2.95735 0.43813   3
  -4   3  -2 370.269 5.85498   4
  -4   3  -2 377.960 5.38819   5
  -4   3  -2 371.652 6.13936   1
  -5   3  -2 19.8843 0.84876   5
  -5   3  -2 19.4757 1.21770   1
  -5   3  -2 20.7925 1.03130   4
  -6   3  -2 189.850 3.78855   4
  -6   3  -2 188.451 3.25772   5
  -6   3  -2 189.420 4.32698   1
  -7   3  -2 0.85151 0.42648   4
  -7   3  -2 1.09144 0.58438   1
  -8   3  -2 32.9581 2.00058   1
  -9   3  -2 12.0534 1.50184   1
   8   2  -2 39.9483 2.56137   3
   7   2  -2 -0.0732 0.56815   3
  -7  -2   2 0.37031 0.35599   1
   6   2  -2 91.8477 2.43260   5
   6   2  -2 88.3173 3.12159   3
  -6  -2   2 87.0655 2.25051   1
   5   2  -2 5.66078 0.70877   5
   5   2  -2 5.40168 0.83365   3
  -5  -2   2 6.65513 0.64537   1
  -5  -2   2 5.74380 0.53890   2
   4   2  -2 10.8512 1.03363   3
   4   2  -2 12.7762 0.83603   6
  -4  -2   2 12.4458 0.65987   1
   3   2  -2 494.301 7.00308   6
   3   2  -2 486.968 7.27942   4
   3   2  -2 489.671 7.50927   3
  -3  -2   2 478.402 7.21755   4
  -3  -2   2 486.707 6.43922   1
   2   2  -2 49.4135 1.45935   3
   2   2  -2 46.5043 1.35715   4
  -2  -2   2 47.0093 1.40417   3
  -2  -2   2 45.2013 1.31274   4
   1   2  -2 91.4557 1.89298   3
   1   2  -2 95.2130 1.95836   4
  -1  -2   2 96.4585 1.90358   3
  -1  -2   2 93.2584 1.92068   4
   0   2  -2 28.3860 0.85733   3
   0   2  -2 29.3743 0.72846   1
   0  -2   2 28.8684 0.71348   1
  -1   2  -2 1.16801 0.28642   4
  -1   2  -2 0.70443 0.22597   1
   1  -2   2 0.80737 0.23277   4
   1  -2   2 0.99229 0.24176   1
  -2   2  -2 475.372 6.68826   1
  -2   2  -2 470.418 6.73529   4
   2  -2   2 477.130 6.64589   1
  -3   2  -2 501.380 7.41847   3
  -3   2  -2 504.291 7.44613   1
  -3   2  -2 509.960 6.89242   5
  -3   2  -2 526.443 7.40425   4
   3  -2   2 511.141 7.36381   1
  -4   2  -2 52.4044 1.74081   1
  -4   2  -2 49.4848 1.52664   4
  -4   2  -2 51.7508 1.34120   5
  -5   2  -2 22.4593 0.92928   5
  -5   2  -2 23.8401 1.13062   4
  -5   2  -2 23.1233 1.30311   1
  -6   2  -2 283.104 4.53572   5
  -6   2  -2 284.864 5.61843   1
  -6   2  -2 278.310 5.10612   4
  -7   2  -2 19.3502 1.21406   4
  -7   2  -2 15.9000 1.48418   1
  -8   2  -2 42.0722 2.20448   1
  -8   2  -2 42.0810 1.94528   4
  -9   2  -2 7.63748 1.25854   1
   9   1  -2 8.55488 1.55720   3
   8   1  -2 19.9035 1.96689   3
   7   1  -2 28.9777 1.95705   3
  -7  -1   2 29.7371 1.38077   1
   6   1  -2 18.5651 1.54604   3
   6   1  -2 17.8889 0.95121   5
  -6  -1   2 17.2712 0.96933   1
   5   1  -2 332.149 5.17802   5
   5   1  -2 338.610 5.16740   1
   5   1  -2 339.217 6.29222   3
  -5  -1   2 339.561 5.22172   1
  -5  -1   2 341.765 5.49357   4
   4   1  -2 184.209 2.99582   1
   4   1  -2 182.524 3.84494   3
  -4  -1   2 181.360 3.27001   4
  -4  -1   2 177.285 3.00479   1
   3   1  -2 121.305 2.35445   4
   3   1  -2 124.931 2.69992   3
   3   1  -2 118.926 2.43034   6
   3   1  -2 119.990 1.97742   1
  -3  -1   2 123.081 2.31046   4
  -3  -1   2 119.627 1.98411   1
   2   1  -2 88.0660 1.81320   6
   2   1  -2 86.8518 1.71959   4
   2   1  -2 89.6741 1.95876   3
  -2  -1   2 89.5850 1.72228   4
  -2  -1   2 84.5705 1.88783   3
   1   1  -2 888.815 11.3871   4
   1   1  -2 871.050 11.3096   3
  -1  -1   2 884.002 11.3635   4
  -1  -1   2 888.785 11.3001   3
   0   1  -2 267.814 3.56197   1
   0   1  -2 266.790 3.90213   4
   0  -1   2 270.118 3.56508   1
   0  -1   2 270.578 3.90605   4
  -1   1  -2 72.6050 1.45356   1
  -1   1  -2 72.8017 1.52176   4
  -1   1  -2 69.0306 1.40114   5
   1  -1   2 72.4924 1.43786   1
  -2   1  -2 69.3493 1.45516   5
  -2   1  -2 68.5688 1.62797   3
  -2   1  -2 65.9679 1.59955   1
   2  -1   2 67.3087 1.57073   1
   2  -1   2 68.0778 1.47088   5
  -3   1  -2 53.6472 1.36208   5
  -3   1  -2 56.2742 1.67192   3
  -3   1  -2 56.8567 1.63007   1
   3  -1   2 57.2470 1.60346   1
   3  -1   2 54.5595 1.37869   5
  -4   1  -2 13.1445 0.70966   5
  -4   1  -2 14.0099 0.92903   1
   4  -1   2 12.6403 0.72609   5
  -5   1  -2 59.0702 1.62223   5
  -5   1  -2 54.5474 1.98323   1
   5  -1   2 58.4695 1.62672   5
  -6   1  -2 163.937 3.90842   1
   6  -1   2 158.629 3.16402   5
  -7   1  -2 5.58678 0.93919   1
  -8   1  -2 0.04700 0.48148   1
  -9   1  -2 16.6757 1.79963   1
   9   0  -2 20.2371 2.15945   3
   8   0  -2 0.10661 0.62946   3
  -8   0   2 -0.2791 0.33874   1
   7   0  -2 50.0565 2.40208   3
  -7   0   2 49.7057 1.79525   1
   6   0  -2 40.4984 1.92306   3
  -6   0   2 34.1153 1.37858   1
  -6   0   2 39.1793 1.31072   4
   5   0  -2 52.1545 1.49004   1
   5   0  -2 50.6541 1.94691   3
   5   0  -2 53.2066 1.25725   5
  -5   0   2 50.1271 1.48858   1
  -5   0   2 52.6578 1.39366   4
   4   0  -2 0.28183 0.30597   3
   4   0  -2 0.21432 0.16556   5
   4   0  -2 0.06769 0.16827   1
  -4   0   2 0.07098 0.18662   4
  -4   0   2 0.19800 0.19573   1
   3   0  -2 7.75749 0.42612   1
   3   0  -2 6.56519 0.61800   3
   3   0  -2 8.10656 0.64227   6
  -3   0   2 7.66852 0.56016   6
  -3   0   2 7.99291 0.65944   3
  -3   0   2 7.30036 0.42376   1
  -3   0   2 7.55824 0.40203   4
   2   0  -2 369.466 5.29960   6
   2   0  -2 368.942 5.36624   3
   2   0  -2 373.336 4.95866   4
   2   0  -2 372.023 4.77778   1
  -2   0   2 381.117 4.96934   4
  -2   0   2 375.005 4.98075   2
  -2   0   2 375.688 5.34507   3
  -2   0   2 374.964 4.78771   1
   1   0  -2 155.235 2.27251   4
   1   0  -2 155.517 2.25000   2
   1   0  -2 152.859 2.41473   3
  -1   0   2 155.851 2.26334   2
  -1   0   2 153.412 2.26768   4
  -1   0   2 155.158 2.40093   3
   0   0  -2 2272.78 28.9709   1
   0   0  -2 2248.33 29.9986   2
   0   0  -2 2236.36 28.8119   5
   0   0   2 2208.70 28.7739   5
  -1   0  -2 247.719 3.56672   5
  -1   0  -2 241.194 3.62149   1
   1   0   2 241.727 3.57132   5
   1   0   2 240.798 3.57422   1
  -2   0  -2 34.9209 1.04355   5
  -2   0  -2 36.0557 1.18776   3
   2   0   2 36.8333 1.07927   5
  -3   0  -2 555.426 7.62713   5
  -3   0  -2 546.972 7.95358   1
   3   0   2 545.245 7.86428   1
   3   0   2 560.608 7.64223   5
  -4   0  -2 95.8796 2.19222   5
  -4   0  -2 96.9176 2.48941   1
   4   0   2 97.8083 2.68255   3
   4   0   2 99.3591 2.24088   5
  -5   0  -2 34.0398 1.57049   1
   5   0   2 39.1208 1.43469   5
   5   0   2 37.4959 1.81701   3
  -6   0  -2 20.7178 1.37681   1
   6   0   2 19.7893 1.13091   5
  -7   0  -2 79.4471 2.82604   1
   7   0   2 83.1968 2.35613   5
  -8   0  -2 1.76463 0.73959   1
  -9   0  -2 13.9793 1.63818   1
   9  -1  -2 34.2020 2.38076   3
   8  -1  -2 9.73315 1.36237   3
  -8   1   2 8.22206 1.00762   1
   7  -1  -2 40.9708 2.08774   3
  -7   1   2 33.2753 1.52686   1
   6  -1  -2 11.2387 1.16171   3
  -6   1   2 14.5113 0.93740   1
   5  -1  -2 74.0305 1.87088   1
   5  -1  -2 74.4076 2.28817   3
  -5   1   2 74.4352 1.90586   1
   4  -1  -2 1151.30 15.3554   3
   4  -1  -2 1138.69 14.6107   1
  -4   1   2 1157.53 14.6803   1
   3  -1  -2 0.43958 0.23933   3
   3  -1  -2 0.38031 0.20073   1
  -3   1   2 0.30659 0.22685   6
  -3   1   2 0.43422 0.22937   3
  -3   1   2 0.29154 0.20180   1
   2  -1  -2 31.2783 0.89805   3
   2  -1  -2 29.8923 0.61931   5
   2  -1  -2 31.7068 0.82214   1
   2  -1  -2 32.1468 0.98470   6
  -2   1   2 29.6313 0.93617   6
  -2   1   2 30.8971 0.87923   3
  -2   1   2 31.2197 0.89790   2
   1  -1  -2 1057.55 13.7779   3
   1  -1  -2 1053.19 13.6272   6
   1  -1  -2 1106.12 13.6457   2
   1  -1  -2 1103.46 13.5248   5
  -1   1   2 1049.16 13.5715   5
  -1   1   2 1046.52 14.6271   2
   0  -1  -2 192.223 3.01772   2
   0  -1  -2 193.066 2.91140   5
   0   1   2 186.978 2.90506   5
   0   1   2 188.068 3.02629   2
  -1  -1  -2 520.618 7.05595   5
  -1  -1  -2 520.092 7.10507   3
  -1  -1  -2 522.590 7.11150   1
  -1  -1  -2 535.993 7.28994   2
   1   1   2 514.424 7.07430   5
  -2  -1  -2 540.011 7.61517   3
  -2  -1  -2 537.104 7.37352   5
  -2  -1  -2 531.075 7.48241   1
   2   1   2 512.321 7.36857   5
   2   1   2 527.430 7.63844   3
  -3  -1  -2 6.38480 0.72442   1
  -3  -1  -2 7.33041 0.67888   5
   3   1   2 8.84686 0.82931   3
   3   1   2 7.80653 0.71958   5
  -4  -1  -2 48.6474 1.36018   6
  -4  -1  -2 47.2825 1.71899   1
   4   1   2 50.3232 1.92209   3
   4   1   2 44.2041 1.57312   5
  -5  -1  -2 477.763 7.98833   1
   5   1   2 506.153 7.66878   5
   5   1   2 498.438 8.57967   3
  -6  -1  -2 4.31176 0.76418   1
   6   1   2 3.85880 0.86406   3
   6   1   2 3.92053 0.68875   5
  -7  -1  -2 21.5568 1.82401   1
   7   1   2 20.9310 1.32910   5
  -8  -1  -2 21.2785 1.88363   1
  10  -2  -2 0.34268 0.74347   3
   9  -2  -2 -0.2797 0.54879   3
  -9   2   2 -0.0789 0.45650   1
   8  -2  -2 24.8163 1.80518   3
  -8   2   2 26.4132 1.54404   1
   7  -2  -2 0.62492 0.50318   3
  -7   2   2 0.08243 0.33341   1
   6  -2  -2 142.696 3.55506   3
  -6   2   2 142.595 3.17470   1
   5  -2  -2 6.67364 0.76278   3
  -5   2   2 6.89092 0.70859   1
   4  -2  -2 87.0426 1.97219   1
   4  -2  -2 85.8161 2.07390   3
  -4   2   2 85.2405 2.03086   3
  -4   2   2 82.0299 1.96067   1
   3  -2  -2 304.487 4.61447   1
   3  -2  -2 309.811 4.60942   3
  -3   2   2 312.429 4.87335   6
  -3   2   2 310.931 4.67669   1
  -3   2   2 313.032 4.57453   3
   2  -2  -2 397.881 5.65453   1
   2  -2  -2 401.670 5.24118   5
   2  -2  -2 408.347 5.30669   4
   2  -2  -2 406.197 5.37386   3
  -2   2   2 411.188 5.37220   3
  -2   2   2 408.281 5.72673   6
  -2   2   2 404.755 5.91337   2
  -2   2   2 412.330 5.27424   5
   1  -2  -2 188.263 2.84448   5
   1  -2  -2 184.182 3.08287   2
  -1   2   2 180.683 2.85758   5
  -1   2   2 181.021 2.73970   6
  -1   2   2 182.667 3.10793   2
   0  -2  -2 119.201 2.22103   5
   0  -2  -2 123.502 1.97973   3
   0  -2  -2 118.987 2.30117   2
   0   2   2 119.195 2.33131   2
   0   2   2 116.872 2.24369   5
  -1  -2  -2 703.367 9.59680   2
  -1  -2  -2 705.014 9.31662   3
  -1  -2  -2 692.076 9.37110   5
   1   2   2 695.244 9.32712   3
   1   2   2 686.531 9.60413   2
   1   2   2 695.214 9.41758   5
  -2  -2  -2 47.3792 1.47514   3
  -2  -2  -2 45.7347 1.46961   1
  -2  -2  -2 49.2207 1.47964   2
   2   2   2 48.2618 1.52534   5
   2   2   2 44.8147 1.49877   3
  -3  -2  -2 260.390 3.72710   6
  -3  -2  -2 257.068 4.61651   1
   3   2   2 264.296 4.64912   5
   3   2   2 259.926 4.86667   3
  -4  -2  -2 30.7429 0.99742   6
  -4  -2  -2 29.5117 1.41029   1
   4   2   2 30.0450 1.59747   3
   4   2   2 27.5200 1.36134   5
  -5  -2  -2 70.3274 2.37453   1
   5   2   2 70.5103 2.28533   5
   5   2   2 73.9589 2.69118   3
  -6  -2  -2 39.2262 1.90045   1
   6   2   2 38.7578 2.19973   3
   6   2   2 39.5836 1.79620   5
  -7  -2  -2 10.3058 1.27936   1
   7   2   2 8.62860 1.11950   5
  -8  -2  -2 7.66267 1.19526   1
  10  -3  -2 40.5025 2.56726   3
   9  -3  -2 4.00202 0.96060   3
  -9   3   2 4.99976 0.92745   1
   8  -3  -2 9.69088 1.27117   3
  -8   3   2 11.4914 1.22101   1
   7  -3  -2 25.8652 1.59875   3
  -7   3   2 24.0111 1.39610   1
   6  -3  -2 -0.0479 0.35452   3
  -6   3   2 0.17894 0.36074   1
   5  -3  -2 46.8907 1.62778   3
  -5   3   2 46.7312 1.61779   1
   4  -3  -2 29.6566 1.08859   3
  -4   3   2 31.3507 1.08262   3
  -4   3   2 29.7425 1.20394   1
   3  -3  -2 158.610 2.58660   3
   3  -3  -2 160.504 2.97412   1
  -3   3   2 163.879 2.57751   3
  -3   3   2 157.899 3.13393   2
  -3   3   2 159.521 2.39511   5
   2  -3  -2 0.06554 0.15338   4
  -2   3   2 -0.0936 0.21494   2
  -2   3   2 -0.0908 0.17309   5
   1  -3  -2 106.505 2.26912   2
   1  -3  -2 109.506 2.13418   4
  -1   3   2 104.853 1.85341   6
  -1   3   2 103.570 2.10360   5
  -1   3   2 103.972 2.29084   2
   0  -3  -2 3.68136 0.47121   2
   0  -3  -2 3.71359 0.35414   3
   0   3   2 3.64986 0.50237   2
   0   3   2 3.77651 0.52246   5
  -1  -3  -2 108.048 2.41263   2
  -1  -3  -2 111.216 2.25438   3
   1   3   2 111.833 2.29195   3
   1   3   2 111.538 2.53656   5
   1   3   2 114.291 2.49974   2
  -2  -3  -2 68.6188 1.94215   1
  -2  -3  -2 66.4341 1.88049   2
   2   3   2 66.6645 1.93810   3
   2   3   2 67.9833 2.01375   5
  -3  -3  -2 0.83704 0.40152   1
   3   3   2 0.96179 0.43381   3
   3   3   2 1.20451 0.45116   5
  -4  -3  -2 4.34093 0.70321   1
   4   3   2 4.57102 0.80504   3
  -5  -3  -2 122.958 3.30387   1
   5   3   2 121.614 3.33412   5
   5   3   2 118.091 3.62035   3
  -6  -3  -2 39.2539 1.94592   1
   6   3   2 36.7319 2.22771   3
   6   3   2 40.4600 1.97353   5
  -7  -3  -2 0.07686 0.44962   1
   7   3   2 0.07727 0.53074   5
 -10   4   2 -0.3021 0.53652   1
   9  -4  -2 1.21465 0.74572   3
  -9   4   2 1.16829 0.64617   1
   8  -4  -2 0.51061 0.50609   3
  -8   4   2 0.55767 0.43725   1
   7  -4  -2 92.8199 2.81986   3
  -7   4   2 93.1193 2.82667   1
   6  -4  -2 28.1039 1.38445   3
  -6   4   2 27.1515 1.42577   1
   5  -4  -2 574.810 8.30971   3
  -5   4   2 558.736 8.63672   1
  -5   4   2 573.422 8.18777   3
   4  -4  -2 14.1603 0.71089   3
  -4   4   2 15.3362 0.69125   3
  -4   4   2 15.4489 0.99707   2
   3  -4  -2 46.9610 1.16270   4
  -3   4   2 47.4299 1.64304   2
  -3   4   2 45.6350 1.20335   5
   2  -4  -2 590.408 8.11636   4
  -2   4   2 581.148 7.97612   5
  -2   4   2 565.121 8.59252   2
   1  -4  -2 156.439 3.14814   2
   1  -4  -2 156.419 3.02813   4
  -1   4   2 156.275 3.03778   5
  -1   4   2 153.707 3.17562   2
   0  -4  -2 9.14505 0.50304   3
   0  -4  -2 9.29397 0.77934   2
   0   4   2 8.68948 0.80930   5
   0   4   2 6.80694 0.71265   2
  -1  -4  -2 583.647 8.18398   3
   1   4   2 579.781 8.70984   2
   1   4   2 582.315 8.69297   5
   1   4   2 579.746 8.26653   3
   2   4   2 66.7138 2.04034   3
   2   4   2 72.2066 2.25057   5
  -3  -4  -2 10.5986 1.10185   1
   3   4   2 10.4322 1.06865   3
   3   4   2 11.7054 1.19677   5
  -4  -4  -2 141.529 3.54660   1
   4   4   2 140.176 3.69450   5
   4   4   2 143.747 3.84828   3
  -5  -4  -2 5.41011 0.85596   1
   5   4   2 5.10275 0.92544   5
   5   4   2 4.65269 0.97986   3
  -6  -4  -2 0.39095 0.52562   1
   6   4   2 1.31658 0.63861   5
   6   4   2 0.83455 0.66106   3
  -7  -4  -2 2.13953 0.73404   1
   7   4   2 1.42916 0.67380   5
 -10   5   2 7.90707 1.32033   1
  -9   5   2 53.5240 2.50170   1
  -8   5   2 0.43667 0.45137   1
   7  -5  -2 12.7526 1.16549   3
  -7   5   2 12.1268 1.26122   1
   6  -5  -2 66.9803 2.00493   3
  -6   5   2 69.1920 2.38376   1
  -5   5   2 84.8649 2.62317   2
  -5   5   2 83.3052 1.91540   3
   4  -5  -2 185.332 3.13298   4
  -4   5   2 191.621 3.14049   5
  -4   5   2 188.383 4.08537   2
   3  -5  -2 15.4636 0.78044   4
  -3   5   2 16.7953 1.08231   2
  -3   5   2 15.6726 0.82243   5
   2  -5  -2 -0.2663 0.20622   4
  -2   5   2 -0.3761 0.26172   2
  -2   5   2 0.13555 0.28804   5
  -1   5   2 15.4203 0.98892   2
  -1   5   2 16.1483 0.98939   5
   0  -5  -2 445.694 6.13436   3
   0   5   2 428.755 6.14763   3
   0   5   2 431.718 7.02451   5
   0   5   2 435.532 7.08547   2
  -1  -5  -2 0.64862 0.27520   3
   1   5   2 0.73128 0.40798   5
   1   5   2 0.44674 0.36599   2
   1   5   2 0.43621 0.29241   3
   2   5   2 134.018 3.18875   3
   2   5   2 139.832 3.57373   5
  -3  -5  -2 45.7298 1.91071   1
   3   5   2 44.3919 1.95518   3
   3   5   2 46.4999 2.06932   5
  -4  -5  -2 -0.3524 0.35739   1
   4   5   2 -0.0577 0.49764   3
   4   5   2 -0.5589 0.38215   5
  -5  -5  -2 7.83740 1.09599   1
   5   5   2 5.89322 1.06554   5
   5   5   2 4.14348 0.97588   3
  -6  -5  -2 9.04718 1.23994   1
   6   5   2 5.67049 1.05275   5
 -10   6   2 0.02553 0.60768   2
  -9   6   2 -0.1908 0.48434   2
  -8   6   2 54.1307 2.52727   2
  -7   6   2 10.7188 1.32898   2
  -6   6   2 46.5855 2.12867   2
   5  -6  -2 78.7723 1.77553   4
  -5   6   2 78.9091 1.65354   3
  -5   6   2 77.6164 2.65342   2
  -5   6   2 78.0172 1.77436   5
   4  -6  -2 3.59952 0.50777   4
  -4   6   2 3.37906 0.68470   2
  -4   6   2 2.94479 0.49224   5
  -3   6   2 4.12932 0.74314   2
  -3   6   2 2.84204 0.50883   5
  -2   6   2 133.236 3.08849   5
  -2   6   2 134.768 3.34121   2
  -1   6   2 104.025 2.79480   5
  -1   6   2 106.576 2.86686   2
   0  -6  -2 18.5330 0.80235   3
   0   6   2 17.7938 1.23062   5
   0   6   2 19.6218 1.23274   2
   1   6   2 0.08519 0.34580   2
   1   6   2 0.68372 0.37770   3
   1   6   2 1.01782 0.50950   5
   2   6   2 84.2737 2.90513   5
   2   6   2 86.7459 2.62657   2
   2   6   2 82.9905 2.50237   3
  -3  -6  -2 0.90367 0.48716   1
   3   6   2 -0.3295 0.41751   3
   3   6   2 0.28335 0.55060   5
  -4  -6  -2 60.7040 2.41005   1
   4   6   2 60.1272 2.56888   3
   4   6   2 59.1001 2.66989   5
  -5  -6  -2 7.94182 1.18516   1
   5   6   2 6.66056 1.19986   5
   5   6   2 6.61268 1.16418   3
   6   6   2 9.08502 1.47205   5
  -9   7   2 -0.4498 0.48662   2
  -8   7   2 84.9653 3.32123   2
  -7   7   2 1.90936 0.69560   2
  -6   7   2 44.9745 2.21215   2
  -5   7   2 2.50584 0.66117   2
  -5   7   2 2.49318 0.46556   5
  -4   7   2 89.3580 2.34264   5
  -4   7   2 84.8793 2.85770   2
  -3   7   2 28.6260 1.63131   2
  -3   7   2 29.5159 1.42203   5
  -2   7   2 0.90936 0.48446   5
  -2   7   2 -0.1934 0.38291   2
  -1   7   2 20.2263 1.35352   2
  -1   7   2 19.0379 1.32587   5
   0  -7  -2 507.638 7.30232   3
   0   7   2 514.449 8.72251   5
   0   7   2 522.103 8.68141   2
   1   7   2 16.0184 1.52108   5
   1   7   2 15.8178 1.40077   2
   1   7   2 15.6491 1.03383   3
   2   7   2 51.0593 2.41390   5
   2   7   2 48.8696 2.05472   2
   2   7   2 48.9402 1.96777   3
  -3  -7  -2 1.49178 0.63395   1
   3   7   2 1.81142 0.65311   3
   3   7   2 1.03249 0.67497   5
  -4  -7  -2 27.7729 1.77656   1
   4   7   2 33.0776 2.01111   3
   4   7   2 30.6222 2.11172   5
  -5  -7  -2 3.57597 0.87648   1
   5   7   2 5.93884 1.20974   5
  -9   8   2 11.8553 1.67871   2
  -8   8   2 6.45036 1.23011   2
  -7   8   2 51.4162 2.63513   2
  -6   8   2 53.0400 2.51513   2
  -6   8   2 53.2064 1.64167   5
  -5   8   2 21.5063 1.21027   5
  -5   8   2 22.8105 1.99051   2
  -4   8   2 5.09599 0.76376   5
  -4   8   2 5.40690 0.93484   2
  -3   8   2 20.6524 1.51048   2
  -3   8   2 22.3430 1.37597   5
  -2   8   2 55.4718 2.21621   5
  -2   8   2 57.8233 2.38460   2
  -1   8   2 75.0429 2.70831   5
  -1   8   2 73.1482 2.70916   2
   0   8   2 9.69061 1.17682   5
   0   8   2 8.44925 1.13521   2
   1   8   2 1.51673 0.66597   5
   1   8   2 1.11549 0.56070   2
   2   8   2 1.40102 0.76264   5
   2   8   2 1.32363 0.56749   3
  -3  -8  -2 3.54902 0.82560   1
   3   8   2 4.21353 1.04989   5
  -4  -8  -2 0.27684 0.53600   1
   4   8   2 0.53351 0.78193   5
  -9   9   2 52.1911 2.99369   2
  -8   9   2 52.3091 2.85970   2
  -7   9   2 3.97323 1.00482   2
  -6   9   2 20.0989 1.32140   5
  -6   9   2 17.9262 1.75557   2
  -5   9   2 8.85281 1.03564   5
  -5   9   2 9.47798 1.38810   2
  -4   9   2 9.35228 1.11589   5
  -4   9   2 5.59422 1.10831   2
  -3   9   2 79.0971 3.03021   2
  -3   9   2 80.3563 2.78017   5
  -2   9   2 49.0080 2.34836   2
  -2   9   2 45.9899 2.19651   5
  -1   9   2 7.73690 1.12366   5
  -1   9   2 8.07737 1.18823   2
   0   9   2 1.55621 0.76169   5
   0   9   2 0.04095 0.50602   2
   1   9   2 91.5604 3.51864   5
   1   9   2 77.1424 2.93159   2
   2   9   2 18.6265 1.96924   5
  -3  -9  -2 1.13120 0.68587   1
   3   9   2 0.22440 0.69730   5
  -8  10   2 3.30014 1.06343   2
  -7  10   2 4.03724 1.01611   2
  -6  10   2 7.05721 1.31888   2
  -5  10   2 24.5822 2.16506   2
  -5  10   2 29.5791 1.66218   5
  -4  10   2 8.19246 1.29195   2
  -4  10   2 7.78609 1.15598   5
  -3  10   2 44.6424 2.46462   2
  -3  10   2 47.7557 2.31544   5
  -2  10   2 3.46494 0.98280   2
  -2  10   2 2.38421 0.86453   5
  -1  10   2 222.878 5.65499   5
  -1  10   2 223.076 5.57227   2
   0  10   2 1.38390 0.80351   5
   0  10   2 0.62521 0.63650   2
   1  10   2 3.55429 0.92532   2
   1  10   2 4.46638 1.05390   5
   2  10   2 0.25986 0.71549   5
  -7  11   2 3.80758 1.16586   2
  -6  11   2 0.23796 0.65153   2
  -5  11   2 25.7925 1.74047   5
  -5  11   2 26.7884 2.54814   2
  -4  11   2 1.14537 0.62943   5
  -4  11   2 1.67782 0.84217   2
  -3  11   2 78.9394 3.19181   5
  -3  11   2 78.1113 3.40234   2
  -2  11   2 0.54976 0.70851   5
  -2  11   2 0.12328 0.66686   2
  -1  11   2 -0.2595 0.58581   5
  -1  11   2 -0.4075 0.54553   2
   0  11   2 4.09889 1.03371   2
   0  11   2 2.61709 0.96327   5
  -6  12   2 -0.3451 0.67222   2
  -5  12   2 11.6685 1.44996   5
  -5  12   2 11.9779 1.79701   2
  -4  12   2 0.24699 0.76410   2
  -4  12   2 0.71380 0.74360   5
  -3  12   2 0.68139 0.79349   2
  -3  12   2 0.00456 0.55635   5
  -2  12   2 10.0372 1.57017   2
  -2  12   2 12.1676 1.69834   5
  -1  12  -3 28.9865 2.68675   4
  -2  12  -3 8.63662 1.43921   4
  -2  12  -3 14.8742 1.73242   2
  -3  12  -3 4.47417 1.08680   4
  -3  12  -3 4.40417 1.17695   2
  -4  12  -3 3.78030 1.02695   4
  -4  12  -3 5.10529 1.13864   2
  -5  12  -3 4.12543 1.10665   2
  -5  12  -3 6.45581 1.33271   4
  -6  12  -3 9.53177 1.70936   2
  -6  12  -3 8.10528 1.39171   4
   0  11  -3 0.97484 0.78125   4
  -1  11  -3 51.8605 2.42152   2
  -1  11  -3 58.0712 2.95430   4
  -2  11  -3 41.5311 2.45804   4
  -2  11  -3 41.8914 2.17635   2
  -3  11  -3 17.3377 1.80588   2
  -3  11  -3 18.1412 1.86515   4
  -4  11  -3 4.76463 0.99502   4
  -4  11  -3 5.35976 1.21048   2
  -5  11  -3 5.32846 1.03452   4
  -5  11  -3 6.13304 1.26619   2
  -6  11  -3 3.86982 0.97264   4
  -6  11  -3 3.51090 1.03836   2
  -7  11  -3 15.2154 1.96322   2
   3  10  -3 42.0742 2.64691   5
   3  10  -3 35.6790 2.23887   3
   2  10  -3 5.14596 0.98508   3
   1  10  -3 0.37902 0.45974   3
   1  10  -3 0.19064 0.64306   4
   0  10  -3 3.66462 0.98716   4
   0  10  -3 4.92975 0.77872   3
   0  10  -3 4.80400 0.88601   2
  -1  10  -3 3.70798 0.83180   2
  -1  10  -3 5.78380 1.13553   4
  -2  10  -3 34.3366 2.12327   4
  -2  10  -3 34.4431 1.93736   2
  -3  10  -3 0.00212 0.50804   2
  -3  10  -3 -0.7809 0.41386   4
  -4  10  -3 29.2098 1.89385   4
  -4  10  -3 35.7851 2.10360   2
  -5  10  -3 6.44289 1.07550   4
  -5  10  -3 6.43402 1.23230   2
  -6  10  -3 162.411 4.37529   4
   4   9  -3 1.59263 0.78624   3
   4   9  -3 0.69868 0.81504   5
   3   9  -3 26.4645 1.85439   3
   2   9  -3 145.698 3.91356   3
   2   9  -3 145.008 4.69125   4
   1   9  -3 0.27802 0.44082   2
   1   9  -3 0.13969 0.52009   4
   1   9  -3 0.40860 0.47170   3
   0   9  -3 18.7336 1.27883   2
   0   9  -3 20.1544 1.89336   4
   0   9  -3 17.5055 1.16384   3
  -1   9  -3 3.17997 0.57836   3
  -1   9  -3 2.71887 0.80312   4
  -1   9  -3 2.92511 0.69791   2
  -2   9  -3 49.7234 2.33985   4
  -2   9  -3 50.3245 1.62855   3
  -2   9  -3 50.4511 2.16842   2
  -3   9  -3 -0.0236 0.40797   4
  -3   9  -3 -0.4766 0.23852   3
  -3   9  -3 -0.2265 0.40843   2
  -4   9  -3 28.3605 1.20584   3
  -4   9  -3 32.2994 1.80030   4
  -5   9  -3 -0.1352 0.39371   4
  -6   9  -3 7.65686 1.08095   4
  -6   9  -3 5.24725 1.07671   1
  -7   9  -3 11.5822 1.36484   4
  -7   9  -3 12.4336 1.64251   1
  -8   9  -3 33.9765 2.35150   1
   5   8  -3 21.0808 2.15280   3
   5   8  -3 21.9007 2.15608   5
   4   8  -3 40.1704 2.32037   3
   3   8  -3 73.4559 2.82372   3
   2   8  -3 95.3209 2.99668   3
   2   8  -3 92.8330 3.43365   4
   1   8  -3 5.72069 1.05209   4
   1   8  -3 4.52388 0.76244   3
   1   8  -3 5.81880 0.76644   2
   0   8  -3 39.0966 2.04743   4
   0   8  -3 39.6004 1.58440   3
   0   8  -3 37.7248 1.61216   2
  -1   8  -3 32.3409 1.32101   3
  -1   8  -3 30.0897 1.51487   2
  -2   8  -3 56.2120 2.31870   4
  -2   8  -3 57.2160 2.17159   2
  -2   8  -3 59.9330 1.74238   3
  -3   8  -3 13.5074 1.29731   4
  -3   8  -3 12.1364 0.80731   3
  -4   8  -3 3.39526 0.76983   1
  -4   8  -3 3.14720 0.69292   4
  -5   8  -3 9.63048 1.10264   4
  -5   8  -3 8.96471 1.17319   1
  -6   8  -3 144.588 4.22816   1
  -6   8  -3 149.695 3.80354   4
  -7   8  -3 0.23124 0.44719   4
  -7   8  -3 0.18866 0.50116   1
  -8   8  -3 0.63554 0.67903   1
  -9   8  -3 -0.3036 0.70729   1
   6   7  -3 60.0138 3.11822   3
   6   7  -3 52.7274 2.73341   5
   5   7  -3 4.57874 1.11665   3
   5   7  -3 4.81117 1.03324   5
   4   7  -3 92.2423 3.29849   3
   3   7  -3 74.0811 2.72956   3
   3   7  -3 87.5594 3.24956   4
  -3  -7   3 76.6167 2.10798   1
   2   7  -3 39.4698 1.32049   2
   2   7  -3 39.8847 1.80728   3
   2   7  -3 41.0943 2.09469   4
   1   7  -3 -0.1155 0.35263   4
   1   7  -3 0.10274 0.36604   3
   1   7  -3 0.08124 0.30208   2
   0   7  -3 24.4356 1.20348   3
   0   7  -3 26.0431 1.55299   4
   0   7  -3 23.7395 1.17374   2
  -1   7  -3 9.72335 0.84405   3
  -1   7  -3 9.78475 1.12350   4
  -1   7  -3 8.34949 0.86184   2
  -2   7  -3 75.3149 1.94749   3
  -2   7  -3 73.4301 2.48112   4
  -3   7  -3 55.0108 2.06307   1
  -3   7  -3 54.1214 2.06223   4
  -4   7  -3 38.1915 1.81071   1
  -4   7  -3 37.5614 1.71272   4
  -5   7  -3 191.058 4.59782   1
  -5   7  -3 193.172 4.26171   4
  -6   7  -3 3.06044 0.77487   1
  -6   7  -3 1.87021 0.55401   4
  -7   7  -3 41.7971 1.85414   4
  -7   7  -3 48.7017 2.43828   1
  -8   7  -3 39.9641 2.40038   1
  -9   7  -3 5.30026 1.24895   1
   6   6  -3 3.36605 0.96539   3
   6   6  -3 4.24754 1.02593   5
   5   6  -3 19.0227 1.84349   3
   5   6  -3 20.7061 1.85798   5
   4   6  -3 0.28197 0.35892   6
   4   6  -3 0.38575 0.49119   3
  -4  -6   3 0.77201 0.34781   1
   3   6  -3 205.150 4.66294   3
   3   6  -3 204.518 4.88626   4
  -3  -6   3 211.118 3.69231   1
   2   6  -3 1.18128 0.47133   3
   2   6  -3 1.91902 0.57285   4
  -2  -6   3 1.17987 0.34316   1
   1   6  -3 4.80586 0.70417   3
   1   6  -3 2.46452 0.61254   4
   1   6  -3 2.77381 0.43988   2
  -1  -6   3 3.11929 0.48836   1
   0   6  -3 17.1118 0.92910   2
   0   6  -3 18.6747 1.22964   4
   0   6  -3 16.7872 0.96494   3
  -1   6  -3 249.213 4.26622   3
  -1   6  -3 250.312 4.96522   4
  -2   6  -3 19.7348 1.20828   4
  -2   6  -3 21.9775 0.99313   3
  -2   6  -3 21.6835 1.16550   1
  -3   6  -3 1.16471 0.42067   1
  -3   6  -3 1.09447 0.43875   4
  -4   6  -3 0.41694 0.40485   1
  -4   6  -3 1.36293 0.44321   4
  -5   6  -3 58.3123 2.03867   4
  -6   6  -3 4.29262 0.86898   1
  -6   6  -3 4.23757 0.75829   4
  -7   6  -3 4.49447 0.75389   4
  -7   6  -3 4.60924 0.98136   1
  -8   6  -3 23.4755 2.10975   1
  -9   6  -3 25.1300 2.26743   1
   7   5  -3 79.2587 3.61427   3
   6   5  -3 3.87148 0.86618   5
   6   5  -3 2.60134 0.86188   3
   5   5  -3 35.1604 1.56300   6
   5   5  -3 33.7999 2.01855   3
   4   5  -3 23.5036 1.22348   6
   4   5  -3 23.5541 1.57054   3
  -4  -5   3 22.5287 0.95534   1
   3   5  -3 1.90158 0.58383   3
   3   5  -3 0.61146 0.47039   4
  -3  -5   3 1.16634 0.30572   1
   2   5  -3 3.12629 0.57496   3
   2   5  -3 2.08546 0.55179   4
  -2  -5   3 3.90520 0.44889   1
   1   5  -3 61.4324 2.05704   4
   1   5  -3 59.8494 1.83297   3
   1   5  -3 58.4196 1.43205   2
  -1  -5   3 59.9623 1.50365   1
   0   5  -3 10.4764 0.66404   2
   0   5  -3 11.4989 0.75963   3
   0   5  -3 10.8110 0.95953   4
   0  -5   3 10.8141 0.66704   1
  -1   5  -3 10.0087 0.68017   3
  -1   5  -3 8.85776 0.90399   4
  -1   5  -3 9.50326 0.80545   1
   1  -5   3 9.63308 0.69066   1
  -2   5  -3 9.15410 0.88711   4
  -2   5  -3 8.51168 0.80196   1
  -3   5  -3 26.3803 1.29133   1
  -3   5  -3 29.1537 1.32024   4
  -4   5  -3 -0.0871 0.31296   1
  -4   5  -3 0.18209 0.32298   4
  -5   5  -3 183.018 3.82649   4
  -5   5  -3 178.029 4.18545   1
  -6   5  -3 -0.5030 0.28474   1
  -6   5  -3 0.07045 0.32398   4
  -7   5  -3 37.6866 1.68132   4
  -7   5  -3 37.1708 2.08908   1
  -8   5  -3 7.00911 1.25387   1
  -9   5  -3 35.5928 2.35198   1
   8   4  -3 5.57843 1.37613   3
   7   4  -3 54.8582 2.90682   3
   6   4  -3 0.41231 0.58829   3
   6   4  -3 -0.1385 0.45594   5
   5   4  -3 25.8178 1.36055   6
   5   4  -3 29.1693 1.81647   3
  -5  -4   3 27.3300 1.02032   1
   4   4  -3 39.4799 1.91649   3
   4   4  -3 39.8384 1.54727   6
  -4  -4   3 42.4416 1.18187   1
   3   4  -3 105.955 2.88766   3
   3   4  -3 106.490 2.86430   4
  -3  -4   3 108.386 1.97190   1
   2   4  -3 66.1291 2.06290   4
   2   4  -3 62.3491 1.96611   3
  -2  -4   3 65.3248 1.37006   1
   1   4  -3 4.34577 0.63205   4
   1   4  -3 5.16404 0.39066   2
   1   4  -3 4.42964 0.61496   3
  -1  -4   3 4.73220 0.42294   1
  -1  -4   3 4.77226 0.64580   3
   0   4  -3 1.04983 0.30870   3
   0   4  -3 0.99770 0.35655   4
   0  -4   3 1.12319 0.26371   1
  -1   4  -3 739.796 9.87476   1
  -1   4  -3 723.784 10.4685   4
   1  -4   3 738.206 9.83544   1
   1  -4   3 729.709 10.4693   4
  -2   4  -3 2.11580 0.43135   4
  -2   4  -3 2.54980 0.43973   1
   2  -4   3 2.14504 0.41800   4
   2  -4   3 2.54018 0.47056   1
  -3   4  -3 0.71133 0.34423   4
  -3   4  -3 0.70262 0.34969   1
  -4   4  -3 279.337 4.53914   5
  -4   4  -3 277.031 5.16793   1
  -4   4  -3 273.061 4.90885   4
  -5   4  -3 112.745 2.80376   4
  -5   4  -3 111.864 3.10236   1
  -5   4  -3 114.855 2.48248   5
  -6   4  -3 20.7787 1.20139   4
  -6   4  -3 19.5734 1.42952   1
  -7   4  -3 26.9494 1.43438   4
  -7   4  -3 26.9947 1.76676   1
  -8   4  -3 0.78252 0.59445   1
  -9   4  -3 7.96224 1.33308   1
   8   3  -3 10.5146 1.59232   3
   7   3  -3 36.9512 2.30198   3
   6   3  -3 39.9607 2.17171   3
   6   3  -3 40.0961 1.73222   5
   5   3  -3 9.07310 0.96092   6
   5   3  -3 6.64265 0.98476   3
  -5  -3   3 8.47145 0.58579   1
   4   3  -3 71.3165 2.40285   3
   4   3  -3 69.3842 2.04437   6
   3   3  -3 55.2802 1.91935   3
   3   3  -3 60.4535 1.87023   4
   2   3  -3 17.9310 0.98683   3
   2   3  -3 18.4391 0.97061   4
  -2  -3   3 18.3823 0.94479   4
   1   3  -3 85.5928 2.09416   4
   1   3  -3 85.2431 2.03222   3
  -1  -3   3 86.0285 1.46877   1
  -1  -3   3 84.6195 2.00158   3
  -1  -3   3 88.7228 2.10286   4
   0   3  -3 130.674 2.53395   3
   0   3  -3 134.715 2.72497   4
   0   3  -3 131.125 2.24477   1
   0  -3   3 132.319 2.22577   1
   0  -3   3 134.121 2.67518   4
  -1   3  -3 0.00062 0.21559   4
  -1   3  -3 0.14500 0.19769   1
   1  -3   3 0.24103 0.22189   4
   1  -3   3 -0.0807 0.16834   1
  -2   3  -3 2.33880 0.42029   4
  -2   3  -3 2.66879 0.43728   1
   2  -3   3 2.79078 0.42947   1
   2  -3   3 1.70687 0.34725   4
  -3   3  -3 41.0173 1.48879   1
  -3   3  -3 41.1629 1.42861   4
  -3   3  -3 41.4521 1.29147   5
  -4   3  -3 42.5961 1.65951   1
  -4   3  -3 40.5462 1.50215   4
  -4   3  -3 45.6511 1.36698   5
  -5   3  -3 41.7340 1.81414   1
  -5   3  -3 43.5176 1.62358   4
  -5   3  -3 44.7234 1.42683   5
  -6   3  -3 20.4451 1.21447   4
  -6   3  -3 23.8875 1.52107   1
  -7   3  -3 0.30706 0.45840   1
  -7   3  -3 0.03241 0.37929   4
  -8   3  -3 71.1945 2.96958   1
  -8   3  -3 64.9756 2.39108   4
  -9   3  -3 11.2383 1.56325   1
   8   2  -3 76.9536 3.46981   3
   7   2  -3 1.06846 0.65007   3
   6   2  -3 -0.2774 0.41453   3
   6   2  -3 -0.3018 0.30484   5
  -6  -2   3 0.44819 0.29816   1
   5   2  -3 32.7773 1.73452   3
  -5  -2   3 32.0785 1.04170   1
   4   2  -3 17.1078 1.00644   6
   4   2  -3 19.2756 1.19396   3
  -4  -2   3 18.3373 1.09169   4
   3   2  -3 67.4455 1.79606   4
   3   2  -3 68.9461 1.83432   6
   3   2  -3 66.3191 1.99656   3
  -3  -2   3 63.9778 1.72561   4
   2   2  -3 188.948 3.49241   3
   2   2  -3 192.579 3.37838   4
  -2  -2   3 190.272 3.33791   4
   1   2  -3 121.970 2.40158   4
   1   2  -3 119.557 2.39464   3
  -1  -2   3 124.573 2.39195   4
  -1  -2   3 121.457 2.37955   3
   0   2  -3 33.4922 1.09064   4
   0   2  -3 31.3757 0.80982   1
   0  -2   3 29.8607 0.79887   1
  -1   2  -3 240.508 3.97062   4
  -1   2  -3 239.362 3.70286   1
   1  -2   3 247.172 3.70072   1
   1  -2   3 236.410 3.92776   4
  -2   2  -3 9.10273 0.65288   4
  -2   2  -3 6.22769 0.57731   1
  -2   2  -3 7.50804 0.54936   5
   2  -2   3 8.64549 0.61660   1
  -3   2  -3 -0.1548 0.23111   1
  -3   2  -3 0.04968 0.24715   4
  -3   2  -3 0.07756 0.20698   5
  -4   2  -3 27.0992 1.06618   5
  -4   2  -3 23.5740 1.24163   1
  -4   2  -3 27.8905 1.22510   4
  -5   2  -3 127.130 3.25144   1
  -5   2  -3 129.005 3.05310   4
  -5   2  -3 122.145 2.91236   5
  -6   2  -3 84.0851 2.81607   1
  -6   2  -3 91.0513 2.60466   4
  -7   2  -3 40.5423 2.08100   1
  -7   2  -3 38.3584 1.80271   4
  -8   2  -3 4.80234 1.03874   1
  -8   2  -3 4.56920 0.83359   4
  -9   2  -3 4.94906 1.12277   1
   9   1  -3 0.50257 0.76203   3
   8   1  -3 1.97034 0.82165   3
   7   1  -3 5.80793 1.06697   3
  -7  -1   3 5.27441 0.67160   1
   6   1  -3 6.12666 0.65933   5
   6   1  -3 7.25040 1.03861   3
  -6  -1   3 6.52104 0.66955   1
   5   1  -3 14.4489 0.68615   1
   5   1  -3 13.7192 1.26154   3
  -5  -1   3 14.0027 0.70443   1
  -5  -1   3 13.6172 0.80911   4
   4   1  -3 21.0293 0.69333   1
   4   1  -3 21.5748 1.19404   3
   4   1  -3 22.4175 1.12367   6
  -4  -1   3 22.2593 0.90192   4
   3   1  -3 101.242 2.28665   6
   3   1  -3 100.940 2.03941   4
   3   1  -3 95.8315 2.37151   3
  -3  -1   3 100.480 2.00381   4
   2   1  -3 226.423 3.59678   4
  -2  -1   3 234.284 3.62284   4
  -2  -1   3 234.346 3.86891   3
   1   1  -3 22.1407 0.81233   4
   1   1  -3 21.9231 0.60021   2
   1   1  -3 20.7769 0.83986   3
  -1  -1   3 22.8551 0.79548   4
  -1  -1   3 22.2961 0.84456   3
   0   1  -3 1067.68 13.6499   1
   0   1  -3 1100.63 14.0939   4
   0  -1   3 1081.78 13.3395   1
   0  -1   3 1078.34 14.0458   4
  -1   1  -3 6.71328 0.56687   4
  -1   1  -3 7.43802 0.63810   5
   1  -1   3 7.88071 0.51899   1
  -2   1  -3 111.516 2.35801   1
  -2   1  -3 115.847 2.25802   5
   2  -1   3 118.031 2.31847   5
  -3   1  -3 733.657 9.75067   5
  -3   1  -3 710.983 10.1379   1
   3  -1   3 723.309 9.76185   5
  -4   1  -3 168.719 3.63207   1
  -4   1  -3 169.557 3.23095   5
   4  -1   3 173.672 3.27277   5
  -5   1  -3 22.8260 1.35694   1
   5  -1   3 21.2548 1.08140   5
  -6   1  -3 27.4138 1.61559   1
   6  -1   3 29.6367 1.35029   5
  -7   1  -3 8.07822 1.17694   1
  -8   1  -3 66.3200 2.85806   1
  -9   1  -3 0.85176 0.66947   1
   9   0  -3 1.02181 0.78016   3
   8   0  -3 67.2318 3.00752   3
   7   0  -3 6.33678 1.11433   3
  -7   0   3 6.74833 0.74617   1
   6   0  -3 5.84081 0.95076   3
  -6   0   3 5.50400 0.55543   4
  -6   0   3 5.64191 0.65068   1
   5   0  -3 2.29538 0.58744   3
   5   0  -3 1.83887 0.33941   1
  -5   0   3 2.61261 0.40591   1
  -5   0   3 2.84667 0.37571   4
   4   0  -3 318.343 5.52441   3
   4   0  -3 327.977 5.44189   6
   4   0  -3 331.902 4.62632   1
  -4   0   3 322.551 4.63339   1
  -4   0   3 325.381 4.67098   4
   3   0  -3 0.83306 0.18960   1
   3   0  -3 0.81200 0.30295   3
   3   0  -3 0.65010 0.18334   4
   3   0  -3 0.89469 0.31552   6
  -3   0   3 0.98558 0.22461   2
  -3   0   3 0.47799 0.25584   3
  -3   0   3 0.64383 0.17213   4
  -3   0   3 1.16395 0.19791   1
   2   0  -3 119.340 1.75302   1
   2   0  -3 114.955 1.91312   2
   2   0  -3 116.175 2.26622   3
   2   0  -3 117.695 2.30862   6
   2   0  -3 116.045 1.94054   4
  -2   0   3 119.052 2.26573   3
  -2   0   3 118.790 1.94351   2
  -2   0   3 116.461 1.94027   4
   1   0  -3 26.0709 0.85620   3
   1   0  -3 25.9394 0.75700   2
   1   0  -3 26.5274 0.80059   5
   1   0  -3 27.0838 0.78419   4
  -1   0   3 25.6148 0.76510   2
   0   0  -3 208.578 3.22294   1
   0   0  -3 219.084 3.35094   5
   0   0  -3 223.583 3.42145   2
   0   0   3 215.863 3.34746   5
  -1   0  -3 131.641 2.42912   1
  -1   0  -3 131.329 2.39570   5
   1   0   3 130.587 2.43489   5
  -2   0  -3 10.2551 0.70654   1
  -2   0  -3 13.5441 0.73254   5
   2   0   3 12.0320 0.71139   1
   2   0   3 11.7320 0.71254   5
  -3   0  -3 3.87242 0.58724   1
  -3   0  -3 3.65367 0.51697   5
   3   0   3 3.37193 0.50979   5
  -4   0  -3 0.03339 0.28994   1
   4   0   3 -0.1609 0.24275   5
  -5   0  -3 2.00648 0.58405   1
   5   0   3 3.87615 0.67489   5
  -6   0  -3 15.0118 1.42989   1
   6   0   3 19.5525 1.19683   5
  -7   0  -3 31.5918 1.87449   1
   7   0   3 27.4105 1.48171   5
  -8   0  -3 2.79531 0.84597   1
   9  -1  -3 14.8036 1.88467   3
   8  -1  -3 4.91301 1.03350   3
  -8   1   3 2.84940 0.60356   1
   7  -1  -3 16.4485 1.51365   3
  -7   1   3 14.8910 1.01622   1
   6  -1  -3 124.699 3.37253   3
  -6   1   3 120.979 2.68864   1
   5  -1  -3 17.1721 1.11152   3
   5  -1  -3 17.2379 0.83196   1
  -5   1   3 16.2678 0.84146   1
   4  -1  -3 27.4363 1.18977   3
   4  -1  -3 28.5936 0.94075   1
  -4   1   3 26.3231 0.94153   1
  -4   1   3 27.0266 1.00221   2
   3  -1  -3 181.749 2.84703   1
   3  -1  -3 179.311 3.20455   3
   3  -1  -3 178.201 3.31818   6
   3  -1  -3 182.049 2.55425   5
  -3   1   3 179.676 3.05600   2
  -3   1   3 183.882 3.20893   3
  -3   1   3 177.374 3.27626   6
   2  -1  -3 13.8468 0.71335   6
   2  -1  -3 14.3416 0.63140   2
   2  -1  -3 13.9622 0.63626   3
   2  -1  -3 13.6548 0.45893   4
   2  -1  -3 13.0352 0.51700   5
  -2   1   3 13.9015 0.64784   2
  -2   1   3 14.9911 0.63933   3
   1  -1  -3 32.1214 0.91292   5
   1  -1  -3 32.9603 0.99375   2
  -1   1   3 32.5340 1.00685   2
  -1   1   3 33.0105 0.94205   5
   0  -1  -3 862.245 10.9335   5
   0  -1  -3 860.367 11.3152   2
   0   1   3 829.985 10.8966   5
   0   1   3 835.637 11.2975   2
  -1  -1  -3 60.7183 1.59516   1
  -1  -1  -3 63.3785 1.63835   2
  -1  -1  -3 62.1821 1.58313   5
   1   1   3 61.0133 1.58484   5
  -2  -1  -3 46.0073 1.47246   3
  -2  -1  -3 45.2932 1.47447   1
  -2  -1  -3 47.6784 1.49888   2
  -2  -1  -3 46.5010 1.43635   5
   2   1   3 44.3507 1.43114   5
  -3  -1  -3 13.0791 0.91644   1
   3   1   3 12.0187 0.83964   5
  -4  -1  -3 473.862 7.61895   1
   4   1   3 455.223 7.24039   5
  -5  -1  -3 18.9676 1.30799   1
   5   1   3 21.5609 1.27600   5
  -6  -1  -3 6.10670 1.01182   1
   6   1   3 5.69281 0.84936   5
  -7  -1  -3 2.97782 0.82346   1
   7   1   3 3.26219 0.74892   5
  -8  -1  -3 27.5117 1.96624   1
  10  -2  -3 -1.2941 0.61115   3
   9  -2  -3 -0.1443 0.63829   3
   8  -2  -3 24.2981 1.79820   3
  -8   2   3 26.2810 1.44860   1
   7  -2  -3 15.4796 1.47903   3
  -7   2   3 17.2198 1.11051   1
   6  -2  -3 24.8020 1.42908   3
  -6   2   3 26.8581 1.22829   1
   5  -2  -3 7.93821 0.84119   3
  -5   2   3 9.49228 0.80593   1
   4  -2  -3 1.51468 0.36995   3
   4  -2  -3 1.24763 0.32913   1
  -4   2   3 1.44274 0.34538   3
  -4   2   3 1.17918 0.32540   2
   3  -2  -3 220.329 3.55622   3
   3  -2  -3 220.191 3.05556   5
   3  -2  -3 215.186 3.54724   1
  -3   2   3 227.785 3.55417   3
  -3   2   3 219.159 3.80998   2
   2  -2  -3 68.8074 1.40083   3
   2  -2  -3 71.7351 1.42094   5
   2  -2  -3 72.4886 1.70690   2
   2  -2  -3 67.9022 1.62784   6
  -2   2   3 68.1764 1.61850   6
  -2   2   3 71.4697 1.73996   2
  -2   2   3 70.8458 1.43470   5
   1  -2  -3 29.1484 0.84783   6
   1  -2  -3 29.0226 1.03864   2
   1  -2  -3 29.8226 0.95126   5
  -1   2   3 28.3998 0.95283   5
  -1   2   3 28.0187 1.04921   2
   0  -2  -3 312.874 4.75527   5
   0  -2  -3 303.610 4.90817   2
   0  -2  -3 307.567 4.08829   6
   0   2   3 302.326 4.93916   2
   0   2   3 318.715 4.81526   5
  -1  -2  -3 171.978 3.12179   3
  -1  -2  -3 176.840 3.34160   2
  -1  -2  -3 172.533 3.23759   5
   1   2   3 175.997 3.31898   5
  -2  -2  -3 1009.19 13.5448   1
   2   2   3 993.515 13.4847   5
  -3  -2  -3 8.33489 0.43179   6
  -3  -2  -3 8.50019 0.93187   1
   3   2   3 8.01444 0.86941   5
  -4  -2  -3 38.1538 1.08690   6
  -4  -2  -3 38.2278 1.71979   1
   4   2   3 36.8767 1.63585   5
  -5  -2  -3 159.993 3.95035   1
   5   2   3 157.516 3.77864   5
  -6  -2  -3 53.3873 2.33153   1
   6   2   3 47.9573 2.07526   5
  -7  -2  -3 70.7811 2.87495   1
   7   2   3 71.4064 2.70048   5
  -8  -2  -3 10.2033 1.40471   1
  10  -3  -3 11.1026 1.60452   3
   9  -3  -3 23.5347 2.06503   3
  -9   3   3 20.8002 1.69600   1
   8  -3  -3 0.23084 0.51546   3
  -8   3   3 0.72591 0.44521   1
   7  -3  -3 81.0271 2.73039   3
  -7   3   3 82.4998 2.49582   1
   6  -3  -3 5.72934 0.79827   3
  -6   3   3 6.92958 0.81678   1
   5  -3  -3 106.377 2.55268   3
  -5   3   3 107.232 2.70365   2
   4  -3  -3 3.26504 0.45268   3
  -4   3   3 2.44015 0.39079   3
  -4   3   3 2.86165 0.50888   2
   3  -3  -3 4.76679 0.41483   3
   3  -3  -3 5.49317 0.62228   1
  -3   3   3 3.79463 0.56408   6
  -3   3   3 4.06859 0.37738   3
  -3   3   3 4.79897 0.40967   5
  -3   3   3 5.91367 0.69674   2
   2  -3  -3 6.78996 0.46579   4
   2  -3  -3 6.92066 0.49360   5
   2  -3  -3 6.47109 0.64083   2
   2  -3  -3 6.31450 0.34084   3
  -2   3   3 6.30519 0.68688   2
  -2   3   3 5.92852 0.54971   6
  -2   3   3 7.13070 0.59117   5
   1  -3  -3 98.6711 2.30725   2
   1  -3  -3 104.628 2.17906   5
  -1   3   3 101.010 1.85536   6
  -1   3   3 103.780 2.22069   5
  -1   3   3 103.742 2.39539   2
   0  -3  -3 501.386 7.30211   5
   0  -3  -3 509.515 6.85575   3
   0  -3  -3 496.439 7.52478   2
   0   3   3 501.116 7.63163   2
   0   3   3 501.069 7.37092   5
  -1  -3  -3 69.7142 1.74539   3
   1   3   3 69.2484 2.01305   5
   1   3   3 66.3825 1.97082   2
  -2  -3  -3 9.86932 0.90757   1
   2   3   3 9.17589 0.91394   5
  -3  -3  -3 147.904 3.44340   1
   3   3   3 145.640 3.48187   5
  -4  -3  -3 115.987 3.17562   1
   4   3   3 105.100 3.06016   5
  -5  -3  -3 7.64137 0.99670   1
   5   3   3 8.50481 1.07911   5
  -6  -3  -3 10.8040 1.33299   1
   6   3   3 9.63964 1.24410   5
  -7  -3  -3 10.7406 1.44373   1
   7   3   3 9.83878 1.33567   5
  10  -4  -3 0.30932 0.69372   3
   9  -4  -3 29.9905 1.97426   3
  -9   4   3 29.3652 1.77375   1
  -9   4   3 28.9692 1.82742   2
   8  -4  -3 3.92250 0.86713   3
  -8   4   3 6.26927 0.97985   2
  -8   4   3 3.77595 0.79596   1
   7  -4  -3 130.307 3.38532   3
  -7   4   3 129.385 3.37381   1
  -7   4   3 123.444 3.43499   2
   6  -4  -3 96.2722 2.56307   3
  -6   4   3 88.9810 2.71664   2
   5  -4  -3 2.51036 0.48292   3
  -5   4   3 3.06404 0.62143   2
  -5   4   3 3.31048 0.49215   3
   4  -4  -3 8.16986 0.55066   3
  -4   4   3 8.67247 0.86776   2
  -4   4   3 7.57066 0.52231   3
  -4   4   3 8.89022 0.48779   5
   3  -4  -3 6.47379 0.46049   4
  -3   4   3 6.05571 0.57038   5
  -3   4   3 6.05852 0.73938   2
   2  -4  -3 0.13589 0.21688   4
  -2   4   3 -0.0191 0.24554   2
  -2   4   3 0.15543 0.18746   6
  -2   4   3 0.31223 0.27719   5
   1  -4  -3 100.057 2.33297   4
  -1   4   3 102.622 1.88706   6
  -1   4   3 98.9768 2.38000   5
  -1   4   3 104.711 2.57987   2
   0  -4  -3 30.4384 0.96914   3
   0   4   3 29.6387 1.33435   2
   0   4   3 28.8845 1.29883   5
  -1  -4  -3 116.878 2.51312   3
   1   4   3 121.477 2.98584   5
   1   4   3 117.042 2.90434   2
  -2  -4  -3 0.17543 0.30730   1
   2   4   3 -0.1535 0.31096   5
  -3  -4  -3 212.137 4.50760   1
   3   4   3 212.979 4.68462   5
  -4  -4  -3 0.98581 0.51480   1
   4   4   3 0.05858 0.45343   5
  -5  -4  -3 32.8218 1.85676   1
   5   4   3 39.5852 2.06363   5
  -6  -4  -3 0.68451 0.58632   1
   6   4   3 1.80798 0.71179   5
  -7  -4  -3 49.3449 2.55864   1
   7   4   3 51.0193 2.59786   5
 -10   5   3 4.08208 1.02331   2
   9  -5  -3 16.1057 1.59640   3
  -9   5   3 14.5462 1.59532   2
   8  -5  -3 1.37612 0.59430   3
  -8   5   3 1.23375 0.60073   2
   7  -5  -3 5.81305 0.82718   3
  -7   5   3 6.57859 0.97362   2
   6  -5  -3 6.36006 0.72474   3
  -6   5   3 7.69549 1.01448   2
   5  -5  -3 30.9273 1.10515   3
  -5   5   3 32.0728 1.08100   3
  -5   5   3 29.2371 1.56497   2
   4  -5  -3 62.8618 1.46750   4
  -4   5   3 63.5374 1.57624   5
  -4   5   3 64.3291 2.20742   2
   3  -5  -3 14.2557 0.77151   4
  -3   5   3 14.9101 1.05836   2
  -3   5   3 14.2623 0.83982   5
  -2   5   3 28.7406 1.23960   5
  -2   5   3 29.8002 1.07089   6
  -2   5   3 28.1213 1.39642   2
  -1   5   3 308.707 4.43359   6
  -1   5   3 298.285 5.30991   5
  -1   5   3 303.909 5.58058   2
   0  -5  -3 22.9652 0.87459   3
   0   5   3 20.5274 1.23940   2
   0   5   3 22.0377 1.26083   5
   1   5   3 350.562 6.29111   2
   1   5   3 352.521 6.36310   5
   2   5   3 25.0133 1.52945   5
  -3  -5  -3 3.97250 0.76812   1
   3   5   3 4.94775 0.95911   5
  -4  -5  -3 54.6882 2.28803   1
   4   5   3 55.2440 2.45715   5
  -5  -5  -3 46.3112 2.28275   1
   5   5   3 42.7326 2.32438   5
  -6  -5  -3 18.4575 1.83156   1
   6   5   3 19.4048 1.97082   5
 -10   6   3 -0.1016 0.65332   2
  -9   6   3 8.72728 1.33136   2
  -8   6   3 66.0385 2.80559   2
  -7   6   3 19.3534 1.75721   2
  -6   6   3 5.18382 0.92692   2
  -5   6   3 30.3581 1.68281   2
  -5   6   3 29.0169 1.04247   5
   4  -6  -3 6.12300 0.63287   4
  -4   6   3 6.76874 0.70042   5
  -4   6   3 5.69225 0.84421   2
  -3   6   3 49.4627 1.70338   5
  -3   6   3 52.8559 2.03911   2
  -2   6   3 -0.0418 0.37491   2
  -2   6   3 0.26242 0.26676   6
  -2   6   3 0.28662 0.36545   5
  -1   6   3 205.971 4.54006   2
  -1   6   3 209.660 4.42897   5
  -1   6   3 215.553 3.36976   6
   0  -6  -3 76.2461 1.80223   3
   0   6   3 78.3585 2.57527   5
   0   6   3 83.0873 2.60436   2
   1   6   3 56.8381 2.30365   5
   1   6   3 62.8169 2.29785   2
   2   6   3 132.379 3.78785   5
  -3  -6  -3 173.707 4.37971   1
   3   6   3 175.934 4.66748   5
  -4  -6  -3 0.31364 0.54920   1
   4   6   3 1.16826 0.71462   5
  -5  -6  -3 28.9112 1.94446   1
   5   6   3 29.6807 2.11418   5
  -9   7   3 -0.0963 0.53503   2
  -8   7   3 26.9592 1.98029   2
  -7   7   3 16.1791 1.72539   2
  -6   7   3 8.34346 1.19157   2
  -5   7   3 26.7269 1.17529   5
  -5   7   3 22.2474 1.55183   2
  -4   7   3 0.02367 0.39947   2
  -4   7   3 0.67231 0.36226   5
  -3   7   3 -0.5423 0.37201   2
  -3   7   3 0.17765 0.37115   5
  -2   7   3 19.4748 1.35827   2
  -1   7   3 195.132 4.53699   2
  -1   7   3 195.078 3.19319   6
  -1   7   3 185.684 4.40052   5
   0   7   3 50.6347 2.22909   5
   0   7   3 51.2626 2.21089   2
   1   7   3 19.3146 1.42982   2
   1   7   3 18.9000 1.74233   5
   2   7   3 5.15904 1.00007   5
  -3  -7  -3 0.68010 0.50171   1
   3   7   3 2.32848 0.82617   5
  -4  -7  -3 68.4468 2.82076   1
   4   7   3 65.0493 3.04310   5
  -5  -7  -3 -0.4034 0.54325   1
   5   7   3 -0.0352 0.68316   5
  -9   8   3 2.36024 0.95921   2
  -8   8   3 42.0248 2.48914   2
  -7   8   3 3.82452 0.94043   2
  -6   8   3 0.68331 0.32693   5
  -6   8   3 0.31984 0.52843   2
  -5   8   3 30.7513 1.41027   5
  -5   8   3 30.0570 1.86270   2
  -4   8   3 5.11733 0.96428   2
  -4   8   3 7.62736 0.94179   5
  -3   8   3 0.53509 0.55167   2
  -3   8   3 0.53973 0.43776   5
  -2   8   3 50.3459 2.31546   2
  -2   8   3 49.3216 2.15820   5
  -1   8   3 0.13740 0.45756   2
  -1   8   3 0.99632 0.57866   5
   0   8   3 15.8429 1.61599   5
   0   8   3 19.0831 1.71118   2
   1   8   3 3.82625 0.91799   5
   1   8   3 4.38300 0.91331   2
   2   8   3 41.7655 2.40765   5
  -3  -8  -3 0.13745 0.54955   1
   3   8   3 -0.7630 0.58275   5
  -4  -8  -3 5.22841 1.09752   1
   4   8   3 3.08675 1.11502   5
  -9   9   3 10.5045 1.72037   2
  -8   9   3 5.47806 1.24051   2
  -7   9   3 38.3155 2.39946   2
  -6   9   3 48.5155 2.55502   2
  -5   9   3 -0.2400 0.35423   5
  -5   9   3 -0.0949 0.50969   2
  -4   9   3 39.8824 1.90712   5
  -4   9   3 42.4542 2.30029   2
  -3   9   3 25.7342 1.83388   2
  -3   9   3 25.7250 1.66026   5
  -2   9   3 9.50607 1.24803   5
  -2   9   3 5.28546 1.05987   2
  -1   9   3 4.30664 0.96772   5
  -1   9   3 3.42613 0.89435   2
   0   9   3 63.8962 2.74428   2
   0   9   3 68.4416 2.93549   5
   1   9   3 13.4978 1.64655   5
   1   9   3 12.1587 1.45720   2
   2   9   3 31.1790 2.66101   5
  -3  -9  -3 1.34160 0.75570   1
   3   9   3 1.93529 0.90559   5
  -8  10   3 11.7066 1.71555   2
  -7  10   3 -0.0335 0.60472   2
  -6  10   3 21.4426 2.15412   2
  -5  10   3 20.5023 2.13536   2
  -5  10   3 19.0149 1.59418   5
  -4  10   3 19.7686 2.00827   2
  -4  10   3 24.1364 1.64390   5
  -3  10   3 14.2261 1.55472   5
  -3  10   3 12.6682 1.64272   2
  -2  10   3 140.514 4.38433   2
  -2  10   3 132.817 4.16298   5
  -1  10   3 0.43063 0.68379   5
  -1  10   3 1.21469 0.75183   2
   0  10   3 1.67190 0.81502   5
   0  10   3 1.64103 0.77126   2
   1  10   3 0.08739 0.64488   5
   1  10   3 0.89993 0.66522   2
  -2 -10  -3 10.8177 1.53439   1
   2  10   3 11.7003 1.82421   5
  -7  11   3 22.3176 2.23426   2
  -6  11   3 44.8076 2.77969   2
  -5  11   3 7.81209 1.39832   2
  -5  11   3 6.18042 1.03187   5
  -4  11   3 27.0488 1.89155   5
  -4  11   3 31.5474 2.26771   2
  -3  11   3 5.84050 1.15824   5
  -3  11   3 6.79831 1.29530   2
  -2  11   3 0.48137 0.75520   2
  -2  11   3 0.69223 0.68062   5
  -1  11   3 0.52645 0.77346   2
  -1  11   3 1.53835 0.85888   5
   0  11   3 4.09122 1.16600   5
   0  11   3 3.55974 1.12074   2
  -5  12   3 -0.9746 0.60382   2
  -4  12   3 4.39816 1.24240   2
  -4  12   3 1.52354 0.83408   5
  -3  12   3 5.02058 1.30858   2
  -3  12   3 6.31299 1.29151   5
  -2  12   3 7.22742 1.38148   5
  -2  12   3 13.0657 1.90142   2
  -1  12  -4 1.14238 0.87800   4
  -2  12  -4 -0.5912 0.55632   4
  -3  12  -4 8.43200 1.45524   2
  -3  12  -4 6.69972 1.40162   4
  -4  12  -4 6.04348 1.21551   2
  -4  12  -4 2.11747 0.86207   4
  -5  12  -4 11.8363 1.82451   2
  -5  12  -4 9.38640 1.48312   4
   1  11  -4 9.70370 1.61536   4
   0  11  -4 2.03230 0.88992   4
  -1  11  -4 49.1192 2.76568   4
  -2  11  -4 5.40446 1.01914   2
  -2  11  -4 3.88572 1.02827   4
  -3  11  -4 23.5827 2.09565   4
  -3  11  -4 17.3923 1.79859   2
  -4  11  -4 1.93678 0.81959   4
  -4  11  -4 1.16525 0.74962   2
  -5  11  -4 -0.2742 0.58962   4
  -5  11  -4 0.51868 0.66472   2
  -6  11  -4 10.5019 1.42504   4
   3  10  -4 -0.3973 0.55460   3
   2  10  -4 1.48437 0.63091   3
   2  10  -4 1.86270 0.93942   4
   1  10  -4 66.4101 3.18055   4
   1  10  -4 66.4314 2.52041   3
   0  10  -4 0.12155 0.49476   4
   0  10  -4 0.94533 0.50570   3
  -1  10  -4 0.25197 0.38048   3
  -1  10  -4 0.15752 0.46589   2
  -1  10  -4 -0.7443 0.41844   4
  -2  10  -4 25.1095 1.88266   4
  -2  10  -4 21.2728 1.55738   2
  -2  10  -4 23.5878 1.27854   3
  -3  10  -4 24.7026 1.77408   2
  -3  10  -4 26.3775 1.89347   4
  -4  10  -4 1.53120 0.68122   4
  -5  10  -4 34.1893 2.05314   4
  -6  10  -4 -0.1271 0.55824   4
  -7  10  -4 17.2707 2.08551   1
   4   9  -4 0.74906 0.74501   3
   3   9  -4 21.3121 1.88014   3
   2   9  -4 25.3427 1.68795   3
   2   9  -4 26.6586 2.34714   4
   1   9  -4 2.92993 0.87170   4
   1   9  -4 3.04497 0.68892   3
   0   9  -4 11.5502 1.13603   3
   0   9  -4 10.5772 1.06021   2
   0   9  -4 9.30604 1.30762   4
  -1   9  -4 72.0198 2.24384   3
  -1   9  -4 75.9814 2.51979   2
  -1   9  -4 70.5212 2.91719   4
  -2   9  -4 16.3332 1.61517   4
  -2   9  -4 17.0297 1.49072   2
  -2   9  -4 19.6302 1.14780   3
  -3   9  -4 60.8490 1.92701   3
  -3   9  -4 57.6930 2.51273   4
  -4   9  -4 3.04216 0.58261   3
  -4   9  -4 3.68389 0.81746   4
  -5   9  -4 4.62026 0.88763   4
  -5   9  -4 2.25684 0.76713   1
  -6   9  -4 12.6323 1.41109   4
  -6   9  -4 15.4724 1.80673   1
  -7   9  -4 38.4770 2.04032   4
  -7   9  -4 37.5496 2.40661   1
  -8   9  -4 5.39431 1.22850   1
   5   8  -4 25.0801 2.27479   5
   4   8  -4 61.7407 2.84830   3
   3   8  -4 0.68428 0.58570   3
   3   8  -4 1.29618 0.73571   4
   2   8  -4 9.81199 1.17700   3
   2   8  -4 5.83264 1.12488   4
   1   8  -4 12.8117 0.93520   2
   1   8  -4 15.6272 1.56124   4
   1   8  -4 14.3679 1.26737   3
   0   8  -4 89.2442 2.44427   2
   0   8  -4 81.2008 3.00305   4
   0   8  -4 85.3313 2.51711   3
  -1   8  -4 1.02572 0.49168   2
  -1   8  -4 1.20605 0.59070   4
  -1   8  -4 0.89099 0.39190   3
  -2   8  -4 28.6596 1.71897   4
  -2   8  -4 29.4387 1.32919   3
  -3   8  -4 13.5875 1.35712   4
  -3   8  -4 14.3648 0.96673   3
  -4   8  -4 4.66872 0.87904   1
  -4   8  -4 5.58501 0.93004   4
  -5   8  -4 0.31305 0.45265   4
  -5   8  -4 -0.0092 0.43991   1
  -6   8  -4 3.15930 0.73596   4
  -6   8  -4 3.79557 0.92302   1
  -7   8  -4 -0.4697 0.43391   4
  -7   8  -4 0.33055 0.62278   1
  -8   8  -4 -0.7305 0.52829   1
   6   7  -4 27.1033 2.48749   3
   6   7  -4 23.8522 2.19875   5
   5   7  -4 4.96631 1.15860   3
   4   7  -4 59.3496 2.10951   6
   4   7  -4 58.6223 2.65531   3
   3   7  -4 3.16792 0.85377   4
   3   7  -4 2.46762 0.70718   3
   2   7  -4 124.572 3.75886   4
   2   7  -4 125.203 3.40872   3
   1   7  -4 19.1115 1.25417   3
   1   7  -4 20.4740 1.49960   4
   1   7  -4 21.6160 1.01596   2
   0   7  -4 11.5159 1.00860   3
   0   7  -4 13.2548 1.35175   4
   0   7  -4 13.7548 0.91068   2
  -1   7  -4 38.4549 1.86159   4
  -1   7  -4 37.8079 1.48274   3
  -2   7  -4 127.722 2.87567   3
  -2   7  -4 124.062 3.39563   4
  -3   7  -4 23.1841 1.43989   4
  -3   7  -4 20.3244 1.32068   1
  -4   7  -4 28.2846 1.62842   1
  -4   7  -4 30.7599 1.62092   4
  -5   7  -4 0.59373 0.51730   1
  -5   7  -4 0.92198 0.52470   4
  -6   7  -4 1.50701 0.66727   1
  -6   7  -4 1.69815 0.59232   4
  -7   7  -4 10.3131 1.37986   1
  -7   7  -4 13.6873 1.35691   4
  -8   7  -4 11.7124 1.58302   1
  -9   7  -4 3.63100 1.14425   1
   6   6  -4 21.6317 1.96037   5
   6   6  -4 20.5985 2.08131   3
   5   6  -4 3.28927 0.66116   6
   5   6  -4 5.51420 1.05231   3
   4   6  -4 116.833 3.01911   6
   4   6  -4 117.398 3.66203   3
   4   6  -4 110.458 3.64907   4
   3   6  -4 1.47940 0.58176   3
   3   6  -4 0.64931 0.51815   4
   2   6  -4 31.0559 1.56483   3
   2   6  -4 26.5509 1.61330   4
  -2  -6   4 29.9211 1.05310   1
   1   6  -4 50.0330 1.80252   3
   1   6  -4 45.1237 1.31768   2
   1   6  -4 44.3230 1.97731   4
  -1  -6   4 46.7437 1.38495   1
   0   6  -4 470.941 7.10586   2
   0   6  -4 470.585 8.02573   4
   0   6  -4 472.134 7.40486   3
  -1   6  -4 0.65940 0.41560   4
  -1   6  -4 0.73741 0.34906   3
  -2   6  -4 32.7111 1.42521   1
  -2   6  -4 31.1374 1.53355   4
  -3   6  -4 27.6070 1.43137   1
  -3   6  -4 29.1970 1.46960   4
  -4   6  -4 48.6487 2.00983   1
  -4   6  -4 49.3152 1.96131   4
  -5   6  -4 10.9233 1.18254   1
  -5   6  -4 12.5768 1.16857   4
  -6   6  -4 37.4286 1.80123   4
  -6   6  -4 37.2959 2.04533   1
  -7   6  -4 2.35887 0.76863   1
  -7   6  -4 1.44872 0.56465   4
  -8   6  -4 32.3963 2.22674   1
  -9   6  -4 -0.4964 0.64554   1
   7   5  -4 -0.4683 0.67958   3
   6   5  -4 31.3756 2.15805   3
   6   5  -4 33.4169 1.88586   5
   5   5  -4 10.8762 1.40795   3
   5   5  -4 11.3202 1.12180   6
   4   5  -4 86.4314 2.53689   6
   4   5  -4 93.6813 2.97354   4
   4   5  -4 88.8557 2.99174   3
   3   5  -4 25.1098 1.50559   4
   3   5  -4 26.2791 1.50635   3
   2   5  -4 94.9332 2.67972   3
   2   5  -4 99.5667 2.85190   4
  -2  -5   4 96.6494 1.84979   1
   1   5  -4 12.6156 1.13890   4
   1   5  -4 14.9048 0.67881   2
   1   5  -4 14.4908 0.97004   3
  -1  -5   4 14.8582 0.69249   1
   0   5  -4 1.12586 0.44952   4
   0   5  -4 0.35876 0.29991   3
   0  -5   4 0.44981 0.23691   1
  -1   5  -4 504.565 7.52279   3
  -1   5  -4 503.427 8.06188   4
  -1   5  -4 493.315 7.35391   1
   1  -5   4 506.067 7.69680   1
  -2   5  -4 189.121 3.73364   1
  -2   5  -4 193.556 4.02998   4
  -3   5  -4 7.25444 0.81656   1
  -3   5  -4 7.09784 0.82645   4
  -4   5  -4 4.95830 0.75375   1
  -4   5  -4 4.85747 0.73010   4
  -5   5  -4 5.82957 0.89691   1
  -5   5  -4 4.19231 0.71935   4
  -6   5  -4 52.4767 2.05202   4
  -6   5  -4 49.1711 2.25614   1
  -7   5  -4 12.6952 1.45918   1
  -7   5  -4 17.2520 1.46425   4
  -8   5  -4 9.02411 1.39166   1
  -9   5  -4 2.67055 0.95120   1
   8   4  -4 18.0200 2.25897   3
   7   4  -4 1.54226 0.79029   3
   6   4  -4 3.61184 0.76663   5
   6   4  -4 2.56238 0.79940   3
   5   4  -4 104.916 3.40622   3
   5   4  -4 102.188 2.84034   6
   4   4  -4 73.3515 2.24211   6
   4   4  -4 69.7805 2.39411   4
   4   4  -4 71.4580 2.57160   3
   3   4  -4 7.41163 0.92346   3
   3   4  -4 7.82331 0.91158   4
   2   4  -4 -0.1416 0.27015   4
   2   4  -4 0.13342 0.31655   3
   1   4  -4 71.4471 2.03413   3
   1   4  -4 73.9449 2.15042   4
  -1  -4   4 73.6659 1.46442   1
   0   4  -4 12.8089 0.89778   4
   0   4  -4 12.5438 0.80931   3
   0   4  -4 14.2728 0.68811   1
   0  -4   4 13.0955 0.65144   1
  -1   4  -4 86.9348 1.99298   1
  -1   4  -4 83.6104 2.28928   4
   1  -4   4 82.9073 1.93642   1
  -2   4  -4 32.5819 1.37399   4
  -2   4  -4 35.8610 1.34811   1
  -3   4  -4 25.1742 1.25466   4
  -3   4  -4 25.3937 1.25658   1
  -4   4  -4 38.2691 1.59855   4
  -4   4  -4 41.8346 1.73821   1
  -5   4  -4 12.2876 1.18517   1
  -5   4  -4 12.5532 1.09340   4
  -6   4  -4 39.5468 1.97947   1
  -6   4  -4 38.1621 1.72407   4
  -7   4  -4 0.29240 0.52227   1
  -7   4  -4 0.14384 0.42673   4
  -8   4  -4 26.7962 1.62740   4
  -8   4  -4 25.3947 2.21368   1
  -9   4  -4 39.6195 2.48838   1
   8   3  -4 17.2896 2.04883   3
   7   3  -4 35.1393 2.25089   3
   6   3  -4 30.6558 1.93311   3
   6   3  -4 27.8065 1.45522   5
   5   3  -4 81.2711 2.47139   6
   5   3  -4 78.8713 2.83503   3
   4   3  -4 3.43483 0.67793   3
   4   3  -4 4.56007 0.71309   4
   4   3  -4 3.84235 0.60982   6
   3   3  -4 123.222 2.87100   4
   3   3  -4 124.953 3.09319   3
   2   3  -4 53.1867 1.69204   4
   2   3  -4 51.8163 1.72215   3
   1   3  -4 813.958 11.5044   4
   1   3  -4 830.502 11.3447   3
  -1  -3   4 830.511 10.1978   1
  -1  -3   4 812.076 11.4563   4
   0   3  -4 5.19282 0.55212   3
   0   3  -4 4.11818 0.59046   4
   0   3  -4 4.97643 0.44494   1
   0  -3   4 5.08476 0.44479   1
  -1   3  -4 44.3928 1.29401   1
  -1   3  -4 42.6595 1.47129   4
   1  -3   4 43.6130 1.26193   1
   1  -3   4 43.6231 1.43178   4
  -2   3  -4 15.6501 0.93023   4
  -2   3  -4 15.7962 0.88278   1
  -3   3  -4 37.0349 1.46458   1
  -3   3  -4 36.1230 1.45392   4
  -4   3  -4 0.58220 0.39047   1
  -4   3  -4 1.09088 0.39640   4
  -5   3  -4 2.43006 0.60115   1
  -5   3  -4 2.72500 0.60482   4
  -6   3  -4 -0.0389 0.37598   4
  -6   3  -4 -0.1560 0.41940   1
  -7   3  -4 77.2425 2.96443   1
  -7   3  -4 72.8162 2.56092   4
  -8   3  -4 3.14590 0.73783   4
  -8   3  -4 4.30007 0.95126   1
  -9   3  -4 48.3262 2.75265   1
   8   2  -4 15.3356 1.85100   3
   7   2  -4 1.12586 0.75411   3
   6   2  -4 0.19520 0.49247   3
   6   2  -4 1.10754 0.42700   5
   5   2  -4 350.990 6.20089   6
   5   2  -4 353.253 6.69153   3
   4   2  -4 0.48238 0.31010   4
   4   2  -4 0.29133 0.37302   3
   4   2  -4 0.81894 0.37240   6
  -4  -2   4 0.14410 0.28362   4
   3   2  -4 19.8061 1.12007   3
   3   2  -4 21.2452 0.97974   4
  -3  -2   4 19.4614 0.92494   4
   2   2  -4 1.89479 0.44124   3
   2   2  -4 2.20639 0.40705   4
  -2  -2   4 2.13777 0.37977   4
   1   2  -4 24.9990 1.03768   3
   1   2  -4 22.8647 0.98657   4
  -1  -2   4 26.2337 1.00707   4
   0   2  -4 1041.24 13.0482   1
   0   2  -4 1039.44 13.9767   4
   0  -2   4 1029.09 13.8910   4
   0  -2   4 1055.86 13.0558   1
  -1   2  -4 229.038 4.04096   4
  -1   2  -4 223.601 3.69300   1
   1  -2   4 229.635 3.68310   1
  -2   2  -4 61.6975 1.65743   5
  -2   2  -4 63.3540 1.74703   1
  -2   2  -4 60.9044 1.80470   4
   2  -2   4 63.3596 1.73001   1
  -3   2  -4 6.97457 0.69086   5
  -3   2  -4 7.23855 0.77461   4
  -3   2  -4 5.97975 0.70063   1
  -4   2  -4 0.59448 0.39152   1
  -4   2  -4 0.72663 0.36282   4
  -5   2  -4 240.305 4.83710   4
  -5   2  -4 242.290 5.06099   1
  -6   2  -4 150.694 3.78759   4
  -6   2  -4 160.737 4.12676   1
  -7   2  -4 1.13345 0.54945   4
  -7   2  -4 -0.5303 0.38355   1
  -8   2  -4 -0.0636 0.45108   4
  -8   2  -4 0.54722 0.61137   1
  -9   2  -4 42.1842 2.57264   1
   9   1  -4 1.06918 0.89049   3
   8   1  -4 -0.6068 0.52213   3
   7   1  -4 52.2108 2.52390   3
   6   1  -4 22.3377 1.56019   3
   6   1  -4 21.5409 0.99118   5
  -6  -1   4 22.8108 0.89569   1
   5   1  -4 77.5841 2.40634   6
   5   1  -4 82.3296 2.62739   3
  -5  -1   4 80.9943 1.97109   4
   4   1  -4 23.9321 0.96940   4
   4   1  -4 22.1978 1.19284   6
   4   1  -4 22.8342 1.25527   3
  -4  -1   4 23.3621 0.93005   4
   3   1  -4 100.946 2.41876   6
   3   1  -4 102.376 2.10109   4
   3   1  -4 102.956 2.50453   3
  -3  -1   4 101.118 2.07629   4
   2   1  -4 82.6509 1.42117   2
   2   1  -4 82.1943 1.80453   4
   2   1  -4 84.4451 2.05521   3
  -2  -1   4 85.4487 1.80741   4
  -2  -1   4 82.3438 1.99746   3
   1   1  -4 244.129 3.96820   4
   1   1  -4 244.937 3.66317   2
   1   1  -4 249.555 4.09272   3
   1   1  -4 248.552 3.38524   1
  -1  -1   4 250.906 3.97179   4
   0   1  -4 9.57081 0.61819   5
   0   1  -4 8.60458 0.61513   4
   0   1  -4 8.69357 0.50676   1
   0  -1   4 9.01209 0.50550   1
  -1   1  -4 35.6222 1.16300   5
  -1   1  -4 34.9384 1.25162   4
  -1   1  -4 33.9352 1.12735   1
   1  -1   4 34.7793 1.10816   1
  -2   1  -4 191.334 3.42777   5
  -2   1  -4 194.395 3.56603   1
   2  -1   4 189.688 3.77534   1
   2  -1   4 189.311 3.49014   5
  -3   1  -4 87.9106 2.35363   1
   3  -1   4 89.0075 2.22174   5
  -4   1  -4 6.36778 0.84458   1
   4  -1   4 6.54463 0.74875   5
  -5   1  -4 7.40560 0.94202   1
   5  -1   4 7.57358 0.83181   5
  -6   1  -4 5.66076 0.96510   1
   6  -1   4 5.91236 0.81206   5
  -7   1  -4 112.329 3.64507   1
  -8   1  -4 25.7199 2.25025   1
   9   0  -4 75.4338 3.50956   3
   8   0  -4 2.19001 0.81440   3
   7   0  -4 4.78632 0.93091   3
  -7   0   4 4.72492 0.58990   1
  -7   0   4 5.69295 0.64659   2
   6   0  -4 6.04590 0.93971   3
  -6   0   4 8.65861 0.70443   1
  -6   0   4 7.11150 0.65981   2
   5   0  -4 256.184 3.84073   1
   5   0  -4 246.359 4.96048   3
  -5   0   4 248.266 3.85165   1
  -5   0   4 249.745 4.01400   2
   4   0  -4 27.8833 0.80018   1
   4   0  -4 27.6414 1.29109   3
   4   0  -4 28.5390 0.86841   4
   4   0  -4 28.3094 1.30114   6
  -4   0   4 27.7542 0.90530   2
  -4   0   4 28.2462 0.85479   4
   3   0  -4 74.2885 1.51897   4
   3   0  -4 76.7196 1.99774   3
   3   0  -4 79.5142 2.03884   6
  -3   0   4 76.7438 1.97584   3
  -3   0   4 76.2200 1.54998   2
  -3   0   4 76.4040 1.53354   4
   2   0  -4 393.637 5.43573   2
   2   0  -4 389.574 5.49647   4
   2   0  -4 378.002 5.76691   3
  -2   0   4 384.946 5.47618   4
  -2   0   4 385.455 5.76694   3
  -2   0   4 392.101 5.47190   2
   1   0  -4 7.01124 0.50631   4
   1   0  -4 6.32990 0.46125   2
   1   0  -4 5.83540 0.54775   3
  -1   0   4 5.32120 0.48155   2
   0   0  -4 136.190 2.59634   2
   0   0  -4 137.619 2.43703   1
   0   0  -4 137.752 2.55478   5
   0   0   4 136.467 2.60050   5
  -1   0  -4 84.7459 1.93509   5
  -1   0  -4 81.8580 1.91942   1
   1   0   4 83.2448 1.90559   1
   1   0   4 79.1852 1.92961   5
  -2   0  -4 0.00539 0.21621   1
  -2   0  -4 0.39124 0.27366   5
   2   0   4 0.25404 0.27134   5
  -3   0  -4 21.2314 1.14818   1
   3   0   4 18.6970 1.03475   5
  -4   0  -4 37.2244 1.66207   1
   4   0   4 37.1699 1.54006   5
  -5   0  -4 38.3699 1.84123   1
   5   0   4 34.5436 1.57903   5
  -6   0  -4 14.1434 1.42006   1
   6   0   4 14.7057 1.25821   5
  -7   0  -4 0.72312 0.59770   1
   7   0   4 1.61300 0.59426   5
  -8   0  -4 18.1688 1.88321   1
   9  -1  -4 4.87346 1.13625   3
   8  -1  -4 7.26468 1.19541   3
   7  -1  -4 11.3817 1.31536   3
  -7   1   4 12.2093 1.01334   2
  -7   1   4 13.0377 0.90344   1
   6  -1  -4 207.272 4.64154   3
  -6   1   4 211.209 3.95633   2
  -6   1   4 217.385 3.81503   1
   5  -1  -4 3.26730 0.64834   3
   5  -1  -4 3.88633 0.47360   1
  -5   1   4 3.49499 0.49452   2
   4  -1  -4 70.8530 1.57629   1
   4  -1  -4 72.2977 2.02537   3
   4  -1  -4 69.9687 1.34706   5
  -4   1   4 75.0169 1.79326   2
   3  -1  -4 4.20750 0.51628   3
   3  -1  -4 4.13425 0.37725   5
   3  -1  -4 3.56321 0.51765   6
   3  -1  -4 4.01253 0.31838   4
   3  -1  -4 3.58892 0.38828   1
  -3   1   4 3.61753 0.45615   2
  -3   1   4 4.10544 0.49836   3
   2  -1  -4 99.2918 1.89408   5
   2  -1  -4 98.1632 1.83695   4
   2  -1  -4 98.4347 2.15635   6
   2  -1  -4 99.2711 2.05062   2
   2  -1  -4 101.636 2.05283   3
  -2   1   4 98.8808 2.07900   2
   1  -1  -4 348.775 5.08764   5
   1  -1  -4 356.346 5.32633   2
  -1   1   4 347.820 5.31119   2
  -1   1   4 342.367 5.08445   5
   0  -1  -4 8.62284 0.64692   2
   0  -1  -4 9.21126 0.62486   5
   0   1   4 8.75220 0.72807   2
   0   1   4 7.99495 0.66824   5
  -1  -1  -4 4.20784 0.51483   5
  -1  -1  -4 4.57968 0.57211   2
  -1  -1  -4 4.93300 0.60271   1
   1   1   4 3.55108 0.51445   5
  -2  -1  -4 28.3896 1.24235   1
   2   1   4 27.5140 1.22818   5
  -3  -1  -4 79.0328 2.36011   1
   3   1   4 81.1705 2.28862   5
  -4  -1  -4 180.231 4.09574   1
   4   1   4 185.074 3.92380   5
  -5  -1  -4 139.863 3.73836   1
   5   1   4 143.403 3.53307   5
  -6  -1  -4 6.98537 1.07448   1
   6   1   4 6.84393 0.99030   5
  -7  -1  -4 11.6216 1.42132   1
   7   1   4 10.3741 1.23874   5
  -8  -1  -4 44.9750 2.53404   1
   9  -2  -4 12.7575 1.71363   3
   8  -2  -4 30.5970 1.95842   3
  -8   2   4 34.8445 1.59481   1
  -8   2   4 33.4921 1.62321   2
   7  -2  -4 0.46249 0.51943   3
  -7   2   4 0.86412 0.42585   2
   6  -2  -4 0.32993 0.40498   3
  -6   2   4 0.50587 0.33939   2
   5  -2  -4 7.17544 0.69578   1
   5  -2  -4 6.20916 0.76486   3
  -5   2   4 7.76749 0.78734   2
   4  -2  -4 121.226 2.63038   3
   4  -2  -4 120.636 2.44521   1
  -4   2   4 123.019 2.68909   2
  -4   2   4 123.471 2.61579   3
   3  -2  -4 10.6656 0.51970   5
   3  -2  -4 9.97723 0.62218   1
   3  -2  -4 10.2642 0.63527   3
   3  -2  -4 8.72376 0.76272   6
  -3   2   4 9.64595 0.60531   3
  -3   2   4 10.4913 0.73191   2
   2  -2  -4 45.9110 1.33628   6
   2  -2  -4 45.1552 1.22051   5
   2  -2  -4 45.4616 1.18018   3
   2  -2  -4 44.3574 1.39478   2
  -2   2   4 44.0224 1.42727   2
  -2   2   4 43.0792 1.21997   5
   1  -2  -4 41.8673 1.12777   6
   1  -2  -4 43.3799 1.38143   2
   1  -2  -4 39.0250 1.24034   5
  -1   2   4 40.5534 1.27291   5
  -1   2   4 40.1430 1.37860   2
   0  -2  -4 322.233 5.26095   2
   0  -2  -4 316.255 5.05161   5
   0   2   4 322.639 5.10446   5
   0   2   4 312.499 5.28536   2
  -1  -2  -4 413.955 6.49889   1
  -1  -2  -4 420.754 6.29990   3
   1   2   4 414.334 6.50190   5
  -2  -2  -4 16.9657 1.03623   1
   2   2   4 18.0755 1.07984   5
  -3  -2  -4 59.2226 2.07888   1
   3   2   4 58.6233 2.02824   5
  -4  -2  -4 201.523 4.51417   1
  -4  -2  -4 194.360 3.18617   6
   4   2   4 199.894 4.31414   5
  -5  -2  -4 1.78882 0.64774   1
   5   2   4 1.31255 0.53432   5
  -6  -2  -4 96.4934 3.28628   1
   6   2   4 90.9045 3.05700   5
  -7  -2  -4 6.28166 1.15815   1
   7   2   4 6.57476 1.09610   5
  10  -3  -4 57.8800 2.98147   3
   9  -3  -4 0.60921 0.66561   3
  -9   3   4 0.44989 0.53443   2
   8  -3  -4 11.5077 1.36303   3
  -8   3   4 15.3811 1.41341   2
   7  -3  -4 1.86805 0.62933   3
  -7   3   4 1.22473 0.49430   2
   6  -3  -4 359.231 6.33496   3
  -6   3   4 370.821 6.46232   2
   5  -3  -4 5.24839 0.66210   3
  -5   3   4 5.87703 0.75687   2
   4  -3  -4 192.849 3.40525   3
  -4   3   4 186.362 3.33536   3
  -4   3   4 192.292 3.85600   2
   3  -3  -4 76.4066 1.51764   4
   3  -3  -4 77.7343 1.65534   3
   3  -3  -4 77.7399 1.96287   1
   3  -3  -4 75.3085 1.62904   5
  -3   3   4 77.2140 1.67535   5
  -3   3   4 75.8516 2.11908   2
   2  -3  -4 78.9902 1.52552   3
   2  -3  -4 74.1867 1.77206   5
  -2   3   4 75.3638 1.78156   6
  -2   3   4 76.5217 1.81898   5
  -2   3   4 72.7545 2.06324   2
   1  -3  -4 15.8640 0.85240   5
  -1   3   4 14.2369 0.85970   5
  -1   3   4 15.6981 0.94489   2
   0  -3  -4 461.619 6.50378   3
   0   3   4 447.070 6.99700   5
   0   3   4 460.184 7.28863   2
  -1  -3  -4 5.85518 0.67075   3
   1   3   4 3.97451 0.61876   5
   1   3   4 4.15107 0.62850   2
  -2  -3  -4 170.726 3.80686   1
   2   3   4 173.193 3.83447   5
  -3  -3  -4 0.42917 0.36340   1
   3   3   4 0.38826 0.41845   5
  -4  -3  -4 39.9168 1.94819   1
   4   3   4 46.3224 2.04369   5
  -5  -3  -4 1.59193 0.63378   1
   5   3   4 2.41642 0.72392   5
  -6  -3  -4 12.7588 1.50948   1
   6   3   4 12.6149 1.42886   5
  -7  -3  -4 18.3982 1.88183   1
   7   3   4 14.7218 1.62184   5
  10  -4  -4 15.7066 1.81012   3
   9  -4  -4 2.15271 0.81562   3
  -9   4   4 0.44805 0.54137   2
   8  -4  -4 26.0129 1.65259   3
  -8   4   4 25.8349 1.64577   2
   7  -4  -4 14.8778 1.29831   3
  -7   4   4 14.7144 1.36269   2
   6  -4  -4 7.18782 0.86019   3
  -6   4   4 8.25077 0.97814   2
   5  -4  -4 67.7379 1.83689   3
  -5   4   4 69.3936 1.82204   3
  -5   4   4 64.0310 2.19876   2
   4  -4  -4 17.5923 0.77964   3
  -4   4   4 16.8825 0.73554   5
  -4   4   4 17.0324 0.74316   3
  -4   4   4 18.4711 1.14906   2
   3  -4  -4 30.4358 0.82795   3
   3  -4  -4 28.7031 0.98377   4
  -3   4   4 27.5198 1.34538   2
  -3   4   4 29.0031 1.07291   5
   2  -4  -4 98.6321 2.26047   4
  -2   4   4 104.316 2.69775   2
  -2   4   4 100.790 2.37537   5
  -2   4   4 102.987 2.20183   6
   1  -4  -4 0.82296 0.22841   3
  -1   4   4 0.63616 0.36354   2
  -1   4   4 0.79044 0.37557   5
   0  -4  -4 53.4094 1.44833   3
   0   4   4 50.2622 1.82254   5
   0   4   4 54.3167 1.92370   2
   1   4   4 0.66450 0.43726   5
   1   4   4 0.91231 0.41848   2
  -2  -4  -4 77.9834 2.47775   1
   2   4   4 75.3874 2.53477   5
  -3  -4  -4 14.4251 1.31675   1
   3   4   4 14.3938 1.42601   5
  -4  -4  -4 0.90760 0.55410   1
   4   4   4 2.17051 0.70553   5
  -5  -4  -4 1.93790 0.69844   1
   5   4   4 2.59080 0.80169   5
  -6  -4  -4 33.5534 2.13126   1
   6   4   4 36.6425 2.17644   5
 -10   5   4 14.3765 1.69545   2
   9  -5  -4 1.51557 0.70585   3
  -9   5   4 2.61222 0.84686   2
   8  -5  -4 6.58802 0.97308   3
  -8   5   4 7.81182 1.16521   2
   7  -5  -4 14.7611 1.24042   3
  -7   5   4 17.9447 1.58460   2
   6  -5  -4 115.983 2.70579   3
  -6   5   4 114.249 3.32624   2
   5  -5  -4 27.2624 1.03243   3
  -5   5   4 27.8177 1.54605   2
  -5   5   4 26.5138 0.98505   3
   4  -5  -4 5.31035 0.49466   4
  -4   5   4 3.92096 0.74613   2
  -4   5   4 4.15016 0.52445   5
   3  -5  -4 20.8988 0.95797   4
  -3   5   4 21.8005 1.05894   5
  -3   5   4 22.2471 1.31420   2
  -2   5   4 138.205 2.71488   6
  -2   5   4 138.129 3.42968   2
  -2   5   4 138.622 3.10363   5
   1  -5  -4 108.357 1.96801   3
  -1   5   4 111.121 3.01334   2
  -1   5   4 112.144 2.88373   5
   0  -5  -4 116.105 2.37199   3
   0   5   4 111.146 3.03899   5
   0   5   4 116.666 3.11766   2
   1   5   4 3.84076 0.72991   2
   1   5   4 1.73527 0.58319   5
  -2  -5  -4 3.97230 0.79811   1
   2   5   4 5.41673 0.93121   5
  -3  -5  -4 125.124 3.53119   1
   3   5   4 116.227 3.61960   5
  -4  -5  -4 12.7940 1.40124   1
   4   5   4 10.0371 1.33967   5
  -5  -5  -4 5.91952 1.06624   1
   5   5   4 6.94200 1.21915   5
  -6  -5  -4 14.3124 1.65060   1
   6   5   4 19.6480 2.01370   5
  -9   6   4 22.3005 2.02060   2
  -8   6   4 13.1510 1.52870   2
   7  -6  -4 75.9094 2.19982   3
  -7   6   4 78.7908 2.97976   2
   6  -6  -4 2.94311 0.46065   3
  -6   6   4 1.52953 0.58152   2
  -5   6   4 227.505 5.09025   2
  -5   6   4 221.902 3.77438   5
   4  -6  -4 40.9402 1.35844   4
  -4   6   4 40.8280 1.46276   5
  -3   6   4 39.4151 1.85081   2
  -3   6   4 36.8447 1.53427   5
  -2   6   4 86.3355 2.78272   2
  -2   6   4 86.0024 2.54506   5
  -2   6   4 91.8214 2.09735   6
  -1   6   4 475.222 8.19584   2
  -1   6   4 464.422 7.86348   5
   0  -6  -4 4.12204 0.50374   3
   0   6   4 4.96435 0.88528   5
   0   6   4 4.38057 0.83961   2
   1   6   4 160.387 4.05902   2
   1   6   4 156.314 4.12461   5
   2   6   4 42.3766 2.19214   5
  -3  -6  -4 0.45837 0.48622   1
   3   6   4 0.16047 0.50187   5
  -4  -6  -4 0.64289 0.57734   1
   4   6   4 1.49780 0.79284   5
  -5  -6  -4 28.6499 2.03081   1
   5   6   4 34.6809 2.27399   5
  -9   7   4 3.54132 1.00665   2
  -8   7   4 -0.1362 0.52608   2
  -7   7   4 38.6108 2.20785   2
  -6   7   4 -0.0580 0.46578   2
  -5   7   4 0.78339 0.38584   5
  -5   7   4 0.53424 0.54479   2
  -4   7   4 0.02228 0.32884   5
  -4   7   4 0.41000 0.46165   2
  -3   7   4 164.423 3.77414   5
  -3   7   4 160.566 4.23237   2
  -2   7   4 35.9001 1.91072   2
  -2   7   4 39.6556 1.82686   5
  -1   7   4 56.8986 2.30537   5
  -1   7   4 56.1740 2.36010   2
   0   7   4 14.4844 1.41645   5
   0   7   4 15.8554 1.51785   2
   1   7   4 4.46832 0.95063   5
   1   7   4 4.89919 0.94493   2
   2   7   4 1.39341 0.73797   5
  -3  -7  -4 25.4265 1.78372   1
   3   7   4 24.0485 2.20547   5
  -4  -7  -4 2.67595 0.89953   1
   4   7   4 3.76784 1.04341   5
  -9   8   4 23.5157 2.25563   2
  -8   8   4 4.77801 1.07880   2
  -7   8   4 57.9008 2.79958   2
  -6   8   4 4.07221 0.92240   2
  -5   8   4 29.9782 1.90102   2
  -5   8   4 30.5174 1.44044   5
  -4   8   4 18.5247 1.70494   2
  -4   8   4 20.3349 1.31958   5
  -3   8   4 86.8650 2.81578   5
  -3   8   4 93.0056 3.25107   2
  -2   8   4 0.22942 0.49863   2
  -2   8   4 0.34281 0.51210   5
  -1   8   4 1.69460 0.68303   5
  -1   8   4 1.03047 0.62128   2
   0   8   4 6.37908 1.07702   2
   0   8   4 4.69983 0.97756   5
   1   8   4 16.2723 1.75801   5
   1   8   4 12.8741 1.53306   2
  -2  -8  -4 1.23244 0.63545   1
   2   8   4 2.02827 0.91662   5
  -3  -8  -4 -0.1191 0.53814   1
   3   8   4 -0.0038 0.63247   5
  -8   9   4 -0.6807 0.57351   2
  -7   9   4 4.51149 1.15669   2
  -6   9   4 75.1653 3.20309   2
  -5   9   4 17.9983 1.26033   5
  -5   9   4 14.0454 1.66627   2
  -4   9   4 0.12912 0.59004   2
  -4   9   4 0.19297 0.43009   5
  -3   9   4 11.4103 1.43987   2
  -3   9   4 11.2442 1.33382   5
  -2   9   4 168.299 4.75308   2
  -2   9   4 165.555 4.48136   5
  -1   9   4 16.7384 1.78449   2
  -1   9   4 15.1939 1.62253   5
   0   9   4 22.3456 2.08768   2
   0   9   4 23.8207 2.19997   5
   1   9   4 12.9521 1.61523   5
   1   9   4 13.5931 1.65789   2
  -2  -9  -4 11.0098 1.50794   1
   2   9   4 11.0911 1.75729   5
  -8  10   4 7.59822 1.38518   2
  -7  10   4 9.23022 1.56574   2
  -6  10   4 10.1230 1.58840   2
  -5  10   4 1.21006 0.64839   5
  -5  10   4 2.25314 0.89437   2
  -4  10   4 136.426 3.94438   5
  -4  10   4 136.162 4.51539   2
  -3  10   4 65.0027 2.79269   5
  -3  10   4 67.0612 3.13982   2
  -2  10   4 2.65255 0.93592   2
  -2  10   4 2.10979 0.84475   5
  -1  10   4 1.34071 0.78550   2
  -1  10   4 0.79524 0.77292   5
   0  10   4 2.15316 0.91308   2
   0  10   4 2.20411 0.88820   5
   1  10   4 8.92884 1.49712   2
   1  10   4 12.7322 1.72097   5
  -7  11   4 15.6495 2.10246   2
  -6  11   4 23.8383 2.55688   2
  -5  11   4 0.74633 0.57480   5
  -5  11   4 -0.2980 0.58971   2
  -4  11   4 4.96160 1.05166   5
  -4  11   4 6.90872 1.41915   2
  -3  11   4 3.67388 1.08122   2
  -3  11   4 4.28667 1.09866   5
  -2  11   4 28.3655 2.54332   2
  -2  11   4 30.9981 2.18755   5
  -1  11   4 0.11175 0.65926   2
  -1  11   4 -0.0026 0.69721   5
   0  11   4 7.74147 1.47490   2
   0  11   4 5.75153 1.48400   5
  -4  12   4 4.91031 1.31533   2
  -4  12   4 3.80219 1.01039   5
  -1  12  -5 2.40644 1.03006   4
  -2  12  -5 21.9767 2.28028   4
  -3  12  -5 -0.5700 0.63797   2
  -3  12  -5 0.18202 0.75699   4
  -4  12  -5 17.6770 1.97744   2
  -4  12  -5 19.5888 2.06302   4
  -5  12  -5 1.99133 0.98054   4
  -5  12  -5 0.92834 0.77949   2
   1  11  -5 0.08696 0.72166   4
   0  11  -5 19.1455 2.11689   4
  -1  11  -5 37.9254 2.52425   4
  -2  11  -5 55.1536 2.51459   2
  -2  11  -5 57.0625 2.91251   4
  -3  11  -5 1.41779 0.72185   4
  -3  11  -5 1.60861 0.81970   2
  -4  11  -5 24.1429 2.18846   4
  -4  11  -5 26.2998 1.96502   2
  -5  11  -5 33.9175 2.24613   4
  -6  11  -5 2.59838 0.88755   4
   3  10  -5 1.86045 0.82668   3
   2  10  -5 67.3877 3.35933   4
   2  10  -5 63.8031 2.74179   3
   1  10  -5 26.0934 2.42075   4
   1  10  -5 28.2339 1.76059   3
   0  10  -5 10.4006 1.17157   3
   0  10  -5 6.61894 1.24885   4
  -1  10  -5 3.87509 1.00978   4
  -1  10  -5 6.18494 0.98022   2
  -1  10  -5 6.37865 0.88846   3
  -2  10  -5 5.02318 0.78632   3
  -2  10  -5 3.97803 0.89181   2
  -2  10  -5 4.32891 1.03903   4
  -3  10  -5 226.481 4.60870   3
  -3  10  -5 221.031 5.38629   2
  -3  10  -5 234.873 5.79217   4
  -4  10  -5 57.1798 2.68540   4
  -5  10  -5 2.78623 0.82838   4
  -6  10  -5 30.0549 2.15565   1
  -6  10  -5 27.5523 1.97917   4
  -7  10  -5 22.5632 2.30325   1
  -7  10  -5 22.5188 2.13766   4
   4   9  -5 8.67014 1.37022   3
   3   9  -5 39.0219 2.51389   4
   3   9  -5 35.1069 2.18583   3
   2   9  -5 8.07231 1.38315   4
   2   9  -5 8.35007 1.20933   3
   1   9  -5 2.17415 0.88791   4
   1   9  -5 2.43989 0.67489   3
   0   9  -5 8.75253 1.31761   4
   0   9  -5 9.13111 1.05611   3
   0   9  -5 9.21730 0.98194   2
  -1   9  -5 112.793 3.74720   4
  -1   9  -5 110.384 3.00716   3
  -1   9  -5 106.108 3.06040   2
  -2   9  -5 55.0254 1.99862   3
  -2   9  -5 55.4764 2.23886   2
  -2   9  -5 50.8890 2.48741   4
  -3   9  -5 0.90796 0.60465   4
  -3   9  -5 0.11552 0.33486   3
  -4   9  -5 2.28779 0.57379   3
  -4   9  -5 2.47331 0.75916   1
  -4   9  -5 1.55722 0.65477   4
  -5   9  -5 72.8577 2.89045   4
  -5   9  -5 69.9621 2.92003   1
  -6   9  -5 2.43938 0.84457   1
  -6   9  -5 1.15499 0.68737   4
  -7   9  -5 19.2857 1.99556   1
  -7   9  -5 17.9512 1.74545   4
   5   8  -5 14.7415 1.81381   3
   4   8  -5 1.00892 0.65105   3
   3   8  -5 -0.3663 0.61061   4
   3   8  -5 -0.1397 0.49581   3
   2   8  -5 19.5934 1.86252   4
   2   8  -5 21.9749 1.53901   3
   1   8  -5 35.6127 1.78060   3
   1   8  -5 31.9481 1.98077   4
   1   8  -5 32.3824 1.30702   2
   0   8  -5 21.7016 1.19779   2
   0   8  -5 23.0567 1.65560   4
   0   8  -5 20.9806 1.32558   3
  -1   8  -5 1.73089 0.54536   2
  -1   8  -5 1.51871 0.49481   3
  -1   8  -5 1.34713 0.55595   4
  -2   8  -5 -0.0018 0.46055   4
  -2   8  -5 0.60971 0.43517   3
  -3   8  -5 185.212 4.38854   1
  -3   8  -5 186.853 4.66703   4
  -3   8  -5 184.438 3.99083   3
  -4   8  -5 13.7261 1.40923   1
  -4   8  -5 11.9800 1.34707   4
  -5   8  -5 0.29651 0.44688   4
  -5   8  -5 -0.1035 0.46325   1
  -6   8  -5 3.57925 0.90581   1
  -6   8  -5 3.23434 0.78522   4
  -7   8  -5 18.6136 1.99167   1
  -7   8  -5 19.6425 1.74517   4
  -8   8  -5 0.33036 0.69514   1
   6   7  -5 2.31764 0.93476   3
   6   7  -5 3.63675 1.03840   5
   5   7  -5 14.5038 1.73554   3
   4   7  -5 5.01462 1.00698   3
   4   7  -5 2.93997 0.94066   4
   4   7  -5 3.98187 0.77890   6
   3   7  -5 144.597 4.24277   4
   3   7  -5 141.614 4.00380   3
   2   7  -5 3.53473 0.77254   3
   2   7  -5 2.25099 0.72354   4
   1   7  -5 4.49616 0.54666   2
   1   7  -5 3.31272 0.67302   3
   1   7  -5 6.29816 1.02592   4
   0   7  -5 28.6621 1.24654   2
   0   7  -5 25.7998 1.62946   4
   0   7  -5 26.1392 1.40102   3
  -1   7  -5 74.1016 2.26261   3
  -1   7  -5 76.2029 2.68380   4
  -2   7  -5 237.370 4.73319   1
  -2   7  -5 238.687 4.61536   3
  -2   7  -5 232.207 5.16752   4
  -3   7  -5 47.7836 1.98850   1
  -3   7  -5 47.1230 2.08519   4
  -4   7  -5 0.03305 0.41047   1
  -4   7  -5 0.95922 0.51577   4
  -5   7  -5 1.77493 0.64111   4
  -5   7  -5 1.85803 0.67569   1
  -6   7  -5 6.51214 1.02708   4
  -6   7  -5 8.03133 1.24047   1
  -7   7  -5 12.9191 1.57065   1
  -7   7  -5 12.9432 1.39962   4
  -8   7  -5 14.7511 1.84361   1
   6   6  -5 -0.1094 0.62925   3
   5   6  -5 56.5711 2.22234   6
   5   6  -5 54.4851 2.69499   3
   4   6  -5 0.82950 0.47560   6
   4   6  -5 -0.3008 0.51441   3
   4   6  -5 0.73214 0.59964   4
   3   6  -5 1.43623 0.65924   4
   3   6  -5 1.29969 0.60243   3
   2   6  -5 17.1033 1.49223   4
   2   6  -5 16.9246 1.25333   3
   1   6  -5 134.856 3.61466   4
   1   6  -5 134.968 3.33855   3
   1   6  -5 137.343 2.60871   2
  -1  -6   5 136.456 2.61437   1
   0   6  -5 130.617 3.12192   3
   0   6  -5 123.302 3.37826   4
  -1   6  -5 153.778 3.24731   1
  -1   6  -5 155.277 3.40065   3
  -1   6  -5 150.927 3.75601   4
  -2   6  -5 51.2221 2.05176   4
  -2   6  -5 49.1951 1.80625   1
  -3   6  -5 15.4497 1.13082   1
  -3   6  -5 12.8372 1.23222   4
  -4   6  -5 118.887 3.34259   1
  -4   6  -5 122.682 3.32899   4
  -5   6  -5 7.11480 1.00737   4
  -5   6  -5 7.56881 1.09228   1
  -6   6  -5 0.94295 0.52210   4
  -6   6  -5 1.32554 0.61339   1
  -7   6  -5 16.9703 1.72098   1
  -7   6  -5 13.6925 1.39829   4
  -8   6  -5 29.7361 2.16541   1
   7   5  -5 43.0672 2.75081   3
   6   5  -5 0.26066 0.47698   6
   6   5  -5 -0.5452 0.58119   3
   5   5  -5 8.01331 0.99246   6
   5   5  -5 7.51994 1.15078   3
   4   5  -5 33.6428 1.89009   3
   4   5  -5 35.8803 1.85032   4
   4   5  -5 33.2183 1.63373   6
   3   5  -5 250.359 5.29672   3
   3   5  -5 256.077 5.32028   4
   2   5  -5 7.10998 0.90571   4
   2   5  -5 6.15352 0.81863   3
   1   5  -5 30.8467 1.54628   4
   1   5  -5 28.6437 1.39568   3
  -1  -5   5 30.5489 0.96571   1
   0   5  -5 263.972 5.14743   4
   0   5  -5 265.775 4.28756   1
   0   5  -5 263.444 4.82567   3
   0  -5   5 260.307 4.22763   1
  -1   5  -5 64.4366 1.98968   3
  -1   5  -5 63.3316 2.15518   4
  -1   5  -5 63.2400 1.81804   1
  -2   5  -5 253.179 4.57874   1
  -2   5  -5 238.355 4.86330   4
  -3   5  -5 11.2128 1.02626   1
  -3   5  -5 10.4528 1.11098   4
  -4   5  -5 56.1802 2.12099   4
  -4   5  -5 56.7399 2.18091   1
  -5   5  -5 23.2357 1.55164   1
  -5   5  -5 27.8192 1.55307   4
  -6   5  -5 35.2570 1.79980   4
  -6   5  -5 33.3470 1.97021   1
  -7   5  -5 12.1428 1.48400   1
  -7   5  -5 16.8638 1.53616   4
  -8   5  -5 5.10446 1.11085   1
  -8   5  -5 3.04098 0.79914   4
   7   4  -5 0.61296 0.67451   3
   6   4  -5 32.9224 2.11554   3
   6   4  -5 34.2885 1.81501   6
   5   4  -5 5.82949 0.90745   4
   5   4  -5 7.73710 0.97005   6
   5   4  -5 5.48310 0.94514   3
   4   4  -5 16.3612 1.34503   4
   4   4  -5 12.4096 1.13380   6
   4   4  -5 11.5119 1.28314   3
   3   4  -5 9.65766 0.99214   4
   3   4  -5 9.64132 1.03908   3
   2   4  -5 144.946 3.37298   3
   2   4  -5 138.512 3.31953   4
   1   4  -5 2.53276 0.53990   4
   1   4  -5 0.85210 0.41185   3
  -1  -4   5 1.93708 0.28503   1
   0   4  -5 129.393 2.41908   1
   0   4  -5 122.813 2.99849   4
   0   4  -5 123.094 2.89037   3
   0  -4   5 128.453 2.40391   1
  -1   4  -5 141.089 2.85789   1
   1  -4   5 145.061 2.82841   1
  -2   4  -5 0.19147 0.28947   4
  -2   4  -5 -0.0627 0.26586   1
  -3   4  -5 40.4750 1.64212   1
  -3   4  -5 42.5540 1.73384   4
  -4   4  -5 6.13733 0.84530   1
  -4   4  -5 5.67962 0.78820   4
  -5   4  -5 8.47657 1.07878   1
  -5   4  -5 11.3122 1.14454   4
  -6   4  -5 -0.0691 0.36954   4
  -6   4  -5 0.62612 0.56332   1
  -7   4  -5 6.99577 1.02644   4
  -7   4  -5 4.97605 1.02533   1
  -8   4  -5 12.1633 1.57596   1
  -8   4  -5 12.5900 1.41323   4
   8   3  -5 94.4672 3.95416   3
   7   3  -5 5.15835 1.14808   3
   6   3  -5 46.0330 2.05976   6
   6   3  -5 44.5767 2.33521   3
   5   3  -5 1.93497 0.55775   4
   5   3  -5 0.70862 0.57356   3
   5   3  -5 0.83730 0.46150   6
   4   3  -5 95.9410 2.61996   4
   4   3  -5 94.7706 2.91531   3
   4   3  -5 96.0204 2.70942   6
   3   3  -5 14.5581 0.97755   4
   3   3  -5 11.9378 1.05397   3
   2   3  -5 153.364 3.28425   4
   1   3  -5 118.539 2.78140   3
   1   3  -5 122.205 2.81409   4
   1   3  -5 125.212 2.00423   1
   0   3  -5 6.98929 0.51271   1
   0   3  -5 5.49983 0.65720   4
   0   3  -5 5.45320 0.63547   3
   0  -3   5 6.70610 0.49025   1
  -1   3  -5 14.5746 0.80429   1
  -1   3  -5 14.3893 0.95014   4
   1  -3   5 16.4193 0.81872   1
  -2   3  -5 37.2090 1.52737   4
  -2   3  -5 40.6419 1.45229   1
  -3   3  -5 105.495 2.72071   1
  -3   3  -5 105.756 2.80847   4
  -4   3  -5 8.47812 0.99542   4
  -4   3  -5 7.53142 0.92433   1
  -5   3  -5 32.3323 1.64533   4
  -5   3  -5 27.9721 1.61773   1
  -6   3  -5 100.958 3.10313   4
  -6   3  -5 99.2365 3.31639   1
  -7   3  -5 11.6196 1.44424   1
  -7   3  -5 10.1008 1.22475   4
  -8   3  -5 2.62783 0.78901   4
  -8   3  -5 2.31749 0.88033   1
   8   2  -5 10.6683 1.57221   3
   7   2  -5 5.31041 1.05805   3
   6   2  -5 95.5318 2.99453   6
   6   2  -5 94.6919 3.27196   3
   5   2  -5 28.6451 1.31264   4
   5   2  -5 30.6609 1.57462   6
   5   2  -5 30.5495 1.70107   3
   4   2  -5 314.893 5.90124   3
   4   2  -5 317.047 5.32925   4
   4   2  -5 313.206 5.68222   6
   3   2  -5 165.640 3.29014   4
   3   2  -5 165.126 3.59936   3
  -3  -2   5 163.393 3.24091   4
   2   2  -5 133.309 2.81329   4
   2   2  -5 133.637 2.98750   3
  -2  -2   5 133.839 2.79143   4
   1   2  -5 1007.67 12.5652   1
   1   2  -5 1010.09 13.1438   2
   1   2  -5 1019.09 13.8828   4
   1   2  -5 1007.14 13.7348   3
  -1  -2   5 1024.82 12.5855   1
  -1  -2   5 1034.88 13.8219   4
   0   2  -5 242.989 4.35552   4
   0   2  -5 241.879 3.78217   1
   0  -2   5 250.900 3.80169   1
   0  -2   5 247.045 4.32822   4
  -1   2  -5 23.1438 1.12830   4
  -1   2  -5 23.0710 0.98935   1
   1  -2   5 23.3209 0.96937   1
  -2   2  -5 128.915 2.83599   1
  -2   2  -5 128.285 2.99540   4
  -3   2  -5 155.811 3.53209   4
  -3   2  -5 147.847 3.36508   1
  -4   2  -5 167.564 3.89452   4
  -4   2  -5 169.357 3.91566   1
  -5   2  -5 3.76479 0.74332   4
  -5   2  -5 4.66526 0.82112   1
  -6   2  -5 4.61269 0.89228   1
  -6   2  -5 3.97795 0.79754   4
  -7   2  -5 17.2382 1.65318   4
  -7   2  -5 15.7481 1.64803   1
  -8   2  -5 19.8960 2.04682   1
  -8   2  -5 27.6328 1.83542   4
   9   1  -5 11.0038 1.70739   3
   8   1  -5 28.5545 2.45073   3
   7   1  -5 4.43134 0.97461   3
   6   1  -5 32.0087 1.86587   3
   5   1  -5 117.990 3.29407   3
   5   1  -5 115.671 3.12446   6
   5   1  -5 123.791 2.58711   4
  -5  -1   5 120.196 2.52886   4
   4   1  -5 145.970 2.82519   4
   4   1  -5 143.515 3.44211   3
   4   1  -5 146.618 3.35614   6
  -4  -1   5 143.676 2.79573   4
   3   1  -5 177.585 3.68099   3
   3   1  -5 182.170 3.27031   4
  -3  -1   5 184.115 3.25901   4
   2   1  -5 135.312 2.30353   2
   2   1  -5 134.348 2.90268   3
   2   1  -5 135.758 2.66812   4
  -2  -1   5 141.706 2.67667   4
   1   1  -5 30.0318 0.85108   1
   1   1  -5 29.0846 0.96809   2
   1   1  -5 27.1793 1.09072   4
   1   1  -5 29.5853 1.17357   3
  -1  -1   5 29.7811 1.09760   4
   0   1  -5 306.323 4.64406   1
   0   1  -5 312.103 5.11939   4
   0  -1   5 315.703 4.65747   1
  -1   1  -5 1.38322 0.36964   4
  -1   1  -5 1.00451 0.29993   1
   1  -1   5 1.35865 0.32617   1
  -2   1  -5 150.240 3.18013   1
  -3   1  -5 0.00367 0.28972   1
   3  -1   5 -0.1024 0.28252   5
  -4   1  -5 6.61757 0.92075   1
   4  -1   5 4.95120 0.73666   5
  -5   1  -5 35.8251 1.83063   1
   5  -1   5 32.7488 1.58455   5
  -6   1  -5 18.7963 1.65568   1
  -7   1  -5 6.80117 1.13366   1
  -8   1  -5 -0.0896 0.57270   4
  -8   1  -5 0.21256 0.56489   1
   9   0  -5 27.7490 2.47630   3
   8   0  -5 0.10474 0.65266   3
   7   0  -5 4.56731 0.97174   3
   6   0  -5 34.7484 1.87385   3
  -6   0   5 39.4689 1.23150   2
   5   0  -5 126.900 3.25408   6
   5   0  -5 122.268 3.23331   3
  -5   0   5 120.125 2.36704   2
  -5   0   5 126.594 2.30302   4
   4   0  -5 148.893 3.37729   3
   4   0  -5 144.990 2.57860   4
   4   0  -5 146.637 3.35636   6
  -4   0   5 145.705 2.63280   2
  -4   0   5 153.008 2.60492   4
   3   0  -5 10.4606 0.63626   5
   3   0  -5 9.58119 0.83032   6
   3   0  -5 9.48312 0.87194   3
   3   0  -5 9.21819 0.56143   4
  -3   0   5 9.35600 0.56162   2
  -3   0   5 9.86381 0.56682   4
   2   0  -5 170.455 2.98091   5
   2   0  -5 167.414 2.90078   2
   2   0  -5 164.975 2.94828   4
   2   0  -5 169.185 3.21807   3
  -2   0   5 163.617 2.91618   2
   1   0  -5 321.229 5.05450   4
   1   0  -5 314.175 4.94079   5
   1   0  -5 315.814 4.64348   1
   1   0  -5 328.371 4.99496   2
   0   0  -5 36.1464 1.17327   1
   0   0  -5 38.2264 1.29413   5
   0   0  -5 35.4661 1.25829   2
   0   0   5 35.0823 1.28653   5
  -1   0  -5 0.81386 0.33911   1
   1   0   5 0.79414 0.34948   5
   2   0   5 168.900 3.47247   5
  -3   0  -5 86.8289 2.51880   1
   3   0   5 91.2386 2.45684   5
  -4   0  -5 10.4470 1.08092   1
   4   0   5 12.1009 1.09448   5
  -5   0  -5 34.9309 1.86050   1
   5   0   5 35.0118 1.68585   5
  -6   0  -5 14.8155 1.60560   1
   6   0   5 12.7664 1.29769   5
  -7   0  -5 6.41463 1.14038   1
   7   0   5 8.34354 1.14173   5
  -8   0  -5 14.8311 1.82014   1
   9  -1  -5 0.22067 0.71766   3
   8  -1  -5 0.93014 0.64431   3
   7  -1  -5 79.8181 2.91382   3
  -7   1   5 79.5359 2.20558   2
   6  -1  -5 1.57686 0.57321   3
  -6   1   5 1.03035 0.38568   2
   5  -1  -5 6.54811 0.60014   1
   5  -1  -5 5.66417 0.75917   3
  -5   1   5 7.59895 0.69812   2
   4  -1  -5 94.4130 1.82570   5
   4  -1  -5 92.0510 2.52204   6
   4  -1  -5 93.5081 2.44170   3
   4  -1  -5 93.8617 1.87908   1
  -4   1   5 93.1796 2.13955   2
   3  -1  -5 213.531 3.38936   1
   3  -1  -5 207.977 3.83570   3
   3  -1  -5 215.052 3.45339   5
   3  -1  -5 214.110 3.34826   4
   3  -1  -5 218.469 4.04654   6
   3  -1  -5 214.544 3.65654   2
  -3   1   5 210.905 3.74302   2
  -3   1   5 222.144 3.86531   3
   2  -1  -5 650.720 8.98534   6
   2  -1  -5 645.315 8.98892   2
   2  -1  -5 640.271 8.89742   3
   2  -1  -5 626.072 8.62555   5
   2  -1  -5 638.574 8.78400   4
  -2   1   5 631.582 9.03600   2
   1  -1  -5 81.6046 1.99578   2
   1  -1  -5 76.2497 1.86402   5
  -1   1   5 74.7055 1.95634   2
  -1   1   5 77.3604 1.90453   5
   0  -1  -5 24.7322 1.13377   5
   0  -1  -5 25.4170 1.06207   1
   0  -1  -5 26.0099 1.16199   2
   0   1   5 25.8979 1.13197   5
  -1  -1  -5 261.610 4.54633   1
   1   1   5 254.960 4.57599   5
  -2  -1  -5 102.304 2.67548   1
   2   1   5 105.053 2.67695   5
  -3  -1  -5 232.707 4.75127   1
   3   1   5 229.143 4.57514   5
  -4  -1  -5 66.1455 2.39802   1
   4   1   5 62.6413 2.24536   5
  -5  -1  -5 17.9865 1.55376   1
   5   1   5 19.0533 1.36118   5
  -6  -1  -5 0.39409 0.51995   1
   6   1   5 -0.1159 0.46900   5
  -7  -1  -5 44.8251 2.46865   1
   7   1   5 49.7787 2.29510   5
   9  -2  -5 12.3346 1.63564   3
   8  -2  -5 3.30137 0.85095   3
  -8   2   5 2.29921 0.57483   2
   7  -2  -5 6.15400 0.98595   3
  -7   2   5 4.49450 0.73369   2
   6  -2  -5 134.355 3.43861   3
  -6   2   5 135.503 3.14148   2
   5  -2  -5 202.500 3.61918   1
   5  -2  -5 202.865 4.09397   3
  -5   2   5 204.279 3.95970   2
   4  -2  -5 10.6797 0.67746   1
   4  -2  -5 9.11486 0.80345   3
   4  -2  -5 8.94929 0.88723   6
   4  -2  -5 10.3450 0.54506   5
  -4   2   5 10.2808 0.77084   2
   3  -2  -5 79.1247 1.77051   5
   3  -2  -5 83.6022 2.17333   6
   3  -2  -5 81.3254 1.93927   3
   3  -2  -5 80.8523 2.05933   2
   3  -2  -5 81.7674 1.65111   4
  -3   2   5 80.0336 2.11722   2
   2  -2  -5 3.30241 0.47789   6
   2  -2  -5 3.76740 0.49523   5
   2  -2  -5 3.71840 0.45475   3
   2  -2  -5 2.69173 0.47947   2
  -2   2   5 2.83899 0.52060   2
  -2   2   5 2.60272 0.43978   5
   1  -2  -5 834.122 11.0968   6
   1  -2  -5 870.835 11.4520   5
  -1   2   5 848.845 11.9787   2
  -1   2   5 838.521 11.4580   5
   0   2   5 136.398 2.98000   5
   0   2   5 137.876 3.10231   2
  -1  -2  -5 69.0623 2.08429   1
   1   2   5 69.5500 2.10288   5
  -2  -2  -5 8.72635 0.96751   1
   2   2   5 6.59487 0.82945   5
  -3  -2  -5 34.9532 1.71277   1
   3   2   5 38.9207 1.74775   5
  -4  -2  -5 28.8744 1.69947   1
   4   2   5 34.2409 1.75477   5
  -5  -2  -5 33.4477 1.94535   1
   5   2   5 39.4466 1.98152   5
  -6  -2  -5 -0.2139 0.46554   1
   6   2   5 -0.1528 0.50906   5
  -7  -2  -5 1.98712 0.88927   1
   7   2   5 1.60862 0.81445   5
  10  -3  -5 2.04862 0.90029   3
   9  -3  -5 9.54823 1.40771   3
   8  -3  -5 1.50033 0.69488   3
  -8   3   5 0.84339 0.51232   2
   7  -3  -5 137.282 3.63480   3
  -7   3   5 131.792 3.43105   2
   6  -3  -5 15.2431 1.11105   3
  -6   3   5 16.6254 1.15829   2
   5  -3  -5 17.2597 1.02399   3
  -5   3   5 16.1196 1.07500   2
   4  -3  -5 0.47740 0.23090   5
   4  -3  -5 0.72872 0.27403   3
  -4   3   5 0.34040 0.31767   2
  -4   3   5 0.18768 0.23709   3
   3  -3  -5 232.306 3.82998   5
   3  -3  -5 235.438 3.80915   3
  -3   3   5 228.983 4.43500   2
  -3   3   5 235.180 3.86550   5
   2  -3  -5 257.383 4.28920   5
   2  -3  -5 254.015 3.99785   3
   2  -3  -5 258.177 4.25906   6
  -2   3   5 253.367 4.33379   5
  -2   3   5 254.582 4.75850   2
   1  -3  -5 5.15644 0.49411   6
  -1   3   5 4.64890 0.64729   5
  -1   3   5 5.13745 0.72733   2
   0  -3  -5 50.2037 1.14968   6
   0   3   5 46.8622 1.79884   2
   0   3   5 50.9528 1.78300   5
   1   3   5 294.070 5.42800   5
  -2  -3  -5 60.0579 2.17801   1
   2   3   5 57.6646 2.15110   5
  -3  -3  -5 -0.2395 0.36314   1
   3   3   5 0.35503 0.41618   5
  -4  -3  -5 16.5081 1.54867   1
   4   3   5 19.5480 1.65572   5
  -5  -3  -5 50.2822 2.39957   1
   5   3   5 52.5115 2.40548   5
  -6  -3  -5 21.6701 1.97844   1
   6   3   5 18.2704 1.80160   5
  -7  -3  -5 43.7134 2.57177   1
   7   3   5 41.1010 2.44789   5
  10  -4  -5 1.80058 0.92427   3
   9  -4  -5 17.7212 1.77990   3
  -9   4   5 20.2223 1.75978   2
   8  -4  -5 7.77882 1.10371   3
  -8   4   5 7.96042 1.09515   2
   7  -4  -5 0.87594 0.50903   3
  -7   4   5 2.14392 0.62600   2
   6  -4  -5 54.7292 1.88387   3
  -6   4   5 57.2326 2.18219   2
   5  -4  -5 4.45846 0.59724   3
  -5   4   5 3.06705 0.64974   2
   4  -4  -5 67.3529 1.64816   3
  -4   4   5 64.5693 1.62719   5
  -4   4   5 67.1857 2.22376   2
   3  -4  -5 176.734 3.29387   5
   3  -4  -5 182.006 2.94508   3
   3  -4  -5 181.462 3.23666   4
  -3   4   5 175.655 3.33119   5
  -3   4   5 168.561 3.84604   2
   2  -4  -5 1.42871 0.27983   3
  -2   4   5 1.11654 0.39392   5
  -2   4   5 1.22393 0.45765   2
  -1   4   5 1.47986 0.48366   5
  -1   4   5 1.86381 0.53872   2
   0  -4  -5 35.0113 1.24030   3
   0   4   5 35.6974 1.66954   2
   0   4   5 31.9209 1.55050   5
   1   4   5 49.3542 2.01707   5
   1   4   5 50.9322 2.03786   2
  -2  -4  -5 42.3413 1.91661   1
   2   4   5 44.9378 2.00638   5
  -3  -4  -5 6.17971 0.99033   1
   3   4   5 7.76148 1.11681   5
  -4  -4  -5 32.7776 1.92900   1
   4   4   5 33.1645 1.95372   5
  -5  -4  -5 16.7013 1.70365   1
   5   4   5 17.7464 1.76541   5
  -6  -4  -5 12.6085 1.55520   1
   6   4   5 13.4238 1.65218   5
   9  -5  -5 0.18512 0.62611   3
  -9   5   5 -0.0401 0.53460   2
   8  -5  -5 0.35392 0.53116   3
  -8   5   5 1.73655 0.64142   2
   7  -5  -5 5.25050 0.77153   3
  -7   5   5 9.06235 1.21479   2
   6  -5  -5 39.6665 1.47836   3
  -6   5   5 36.2844 1.85817   2
   5  -5  -5 0.85194 0.31790   3
  -5   5   5 0.78882 0.27833   5
  -5   5   5 1.53593 0.53701   2
   4  -5  -5 0.38232 0.20560   3
   4  -5  -5 0.38348 0.25068   4
  -4   5   5 0.31522 0.30553   5
  -4   5   5 0.82409 0.46235   2
  -3   5   5 -0.0376 0.31483   2
  -3   5   5 0.16892 0.30704   5
  -2   5   5 547.075 9.13065   2
  -2   5   5 567.712 8.59083   5
   1  -5  -5 120.523 2.28756   3
  -1   5   5 114.349 3.23359   2
  -1   5   5 117.984 3.11729   5
   0  -5  -5 -0.2363 0.23846   3
   0   5   5 0.13838 0.39306   5
   0   5   5 -0.0184 0.40109   2
   1   5   5 1.75676 0.61527   2
   1   5   5 2.39305 0.67636   5
  -2  -5  -5 68.2973 2.56554   1
   2   5   5 69.5543 2.68550   5
  -3  -5  -5 -0.0760 0.40803   1
   3   5   5 0.50261 0.54682   5
  -4  -5  -5 1.42068 0.69241   1
   4   5   5 0.53507 0.65940   5
  -5  -5  -5 2.91884 0.86174   1
   5   5   5 3.39488 0.94551   5
  -9   6   5 14.8621 1.75245   2
  -8   6   5 52.3401 2.53378   2
  -7   6   5 -0.5658 0.37915   2
   6  -6  -5 46.5839 1.45503   3
  -6   6   5 46.1206 2.21195   2
  -5   6   5 5.48008 0.92189   2
  -5   6   5 7.52740 0.73800   5
  -4   6   5 136.292 3.76513   2
  -4   6   5 138.663 3.05706   5
  -3   6   5 27.2002 1.63000   2
  -3   6   5 28.8788 1.41449   5
  -2   6   5 50.2900 2.17080   2
  -2   6   5 47.8092 1.93160   5
   1  -6  -5 14.1527 0.68239   3
  -1   6   5 15.2258 1.40801   2
  -1   6   5 15.0479 1.41116   5
   0   6   5 174.675 4.30226   5
   0   6   5 172.318 4.38759   2
   1   6   5 5.60314 1.01920   2
   1   6   5 6.39827 1.04427   5
  -2  -6  -5 9.00412 1.26229   1
   2   6   5 8.43079 1.30124   5
  -3  -6  -5 33.8009 1.97961   1
   3   6   5 34.2698 2.17277   5
  -4  -6  -5 78.9988 3.17350   1
   4   6   5 79.7047 3.32342   5
  -5  -6  -5 2.61378 0.99855   1
   5   6   5 3.42459 1.02458   5
  -9   7   5 0.85269 0.70960   2
  -8   7   5 19.6055 1.90324   2
  -7   7   5 16.7631 1.70917   2
  -6   7   5 1.89886 0.73877   2
  -5   7   5 1.56892 0.48532   5
  -5   7   5 1.76381 0.68894   2
  -4   7   5 121.984 3.08578   5
  -4   7   5 126.754 3.80429   2
  -3   7   5 1.07238 0.46002   5
  -3   7   5 2.48672 0.79613   2
  -2   7   5 39.9566 1.91265   5
  -2   7   5 43.3670 2.14789   2
  -1   7   5 11.4291 1.34350   2
  -1   7   5 14.3783 1.40715   5
   0   7   5 55.4293 2.48570   2
   0   7   5 56.4160 2.48713   5
   1   7   5 0.06402 0.52972   2
   1   7   5 0.17685 0.47140   5
  -2  -7  -5 13.6348 1.52512   1
   2   7   5 11.9564 1.50608   5
  -3  -7  -5 3.42773 0.91603   1
   3   7   5 3.13653 1.00405   5
  -4  -7  -5 8.24092 1.38553   1
   4   7   5 8.65843 1.52770   5
  -9   8   5 -0.2945 0.60489   2
  -8   8   5 3.51128 1.00936   2
  -7   8   5 1.94807 0.74734   2
  -6   8   5 9.26449 1.35386   2
  -5   8   5 0.51551 0.55209   2
  -5   8   5 0.35095 0.38057   5
  -4   8   5 5.76497 0.91227   5
  -4   8   5 7.76119 1.20043   2
  -3   8   5 86.2017 2.87649   5
  -3   8   5 84.8489 3.25781   2
  -2   8   5 2.04650 0.75653   2
  -2   8   5 3.36617 0.80197   5
  -1   8   5 11.8807 1.37435   5
  -1   8   5 12.7041 1.52188   2
   0   8   5 46.6836 2.41706   2
   0   8   5 41.5758 2.31635   5
   1   8   5 6.71272 1.17455   5
   1   8   5 5.94971 1.11100   2
  -2  -8  -5 0.15891 0.54998   1
   2   8   5 0.46028 0.70396   5
  -3  -8  -5 39.0738 2.34274   1
   3   8   5 41.2114 2.67467   5
  -8   9   5 1.66636 0.79031   2
  -7   9   5 56.0033 2.92939   2
  -6   9   5 11.9711 1.57075   2
  -5   9   5 19.1545 1.39036   5
  -5   9   5 20.6088 2.05878   2
  -4   9   5 9.91752 1.20099   5
  -4   9   5 10.4477 1.46430   2
  -3   9   5 68.6241 2.73767   5
  -3   9   5 67.9102 3.02897   2
  -2   9   5 4.54995 1.03956   2
  -2   9   5 2.50739 0.81583   5
  -1   9   5 11.6134 1.55200   5
  -1   9   5 14.9139 1.74793   2
   0   9   5 1.09483 0.81956   2
   0   9   5 1.20819 0.66049   5
   1   9   5 43.9889 2.49578   2
   1   9   5 48.0517 2.66647   5
  -2  -9  -5 -0.4680 0.51769   1
   2   9   5 -0.3705 0.67235   5
  -7  10   5 23.3024 2.43716   2
  -6  10   5 0.84096 0.67532   2
  -5  10   5 103.837 4.02697   2
  -5  10   5 100.796 3.25198   5
  -4  10   5 5.94432 1.25711   2
  -4  10   5 5.78769 1.07961   5
  -3  10   5 6.59932 1.26043   2
  -3  10   5 5.80661 1.13466   5
  -2  10   5 19.2276 2.03098   2
  -2  10   5 18.2871 1.87757   5
  -1  10   5 67.0193 3.16438   5
  -1  10   5 73.7203 3.33943   2
   0  10   5 1.01373 0.79910   5
   0  10   5 3.32370 0.99411   2
   1  10   5 8.50939 1.50220   5
  -6  11   5 3.15108 1.07040   2
  -5  11   5 -0.8187 0.60786   2
  -5  11   5 -0.1431 0.58709   5
  -4  11   5 3.28386 1.08950   2
  -4  11   5 0.96232 0.69573   5
  -3  11   5 17.6594 1.91400   5
  -3  11   5 16.7151 2.02365   2
  -2  11   5 0.91254 0.87619   2
  -2  11   5 3.24935 1.00192   5
  -1  11   5 27.5276 2.57599   2
  -1  11   5 25.3177 2.43341   5
  -3  12  -6 13.9524 1.87564   4
  -3  12  -6 15.1235 1.75591   2
  -4  12  -6 2.34363 0.96785   4
  -4  12  -6 5.50881 1.20353   2
   1  11  -6 17.8768 2.17126   4
   0  11  -6 12.5883 1.78886   4
  -1  11  -6 2.09453 0.96272   4
  -2  11  -6 2.62406 0.82831   2
  -2  11  -6 4.41865 1.11940   4
  -3  11  -6 6.27805 1.19659   2
  -3  11  -6 6.41460 1.25661   4
  -4  11  -6 20.2160 2.01222   4
  -5  11  -6 0.94748 0.75568   4
  -6  11  -6 10.5432 1.58515   4
   2  10  -6 19.3955 2.15758   4
   2  10  -6 25.9123 2.12031   3
   1  10  -6 5.54309 1.23016   4
   1  10  -6 3.65675 0.86102   3
   0  10  -6 26.0242 1.69159   3
   0  10  -6 26.8799 2.36957   4
  -1  10  -6 -0.3456 0.43612   3
  -1  10  -6 -0.4630 0.47109   2
  -1  10  -6 -0.4142 0.49279   4
  -2  10  -6 159.805 4.21864   2
  -2  10  -6 157.578 4.77964   4
  -2  10  -6 161.057 3.96945   3
  -3  10  -6 8.07158 1.01802   3
  -3  10  -6 10.1984 1.44953   4
  -4  10  -6 29.2177 2.05271   4
  -4  10  -6 27.4564 1.59569   3
  -5  10  -6 14.7250 1.70602   1
  -5  10  -6 16.6587 1.77031   4
  -6  10  -6 46.9401 2.72576   1
  -6  10  -6 47.6163 2.58803   4
  -7  10  -6 -0.1211 0.62599   4
  -7  10  -6 0.43642 0.79277   1
   4   9  -6 27.0898 2.40081   3
   3   9  -6 14.3254 1.63642   3
   3   9  -6 14.9433 1.91856   4
   2   9  -6 32.7761 2.29096   4
   2   9  -6 34.8546 2.06111   3
   1   9  -6 1.61698 0.79571   4
   1   9  -6 1.66019 0.66702   3
   0   9  -6 94.5940 3.55175   4
   0   9  -6 90.0443 2.92800   3
  -1   9  -6 16.9476 1.27445   2
  -1   9  -6 14.0790 1.54530   4
  -1   9  -6 14.6216 1.36248   3
  -2   9  -6 3.49836 0.96543   4
  -2   9  -6 3.31621 0.73111   3
  -3   9  -6 1.00476 0.65623   4
  -3   9  -6 -0.1947 0.38439   3
  -4   9  -6 74.2164 3.02702   4
  -4   9  -6 73.6150 2.56085   3
  -4   9  -6 77.8059 2.98567   1
  -5   9  -6 1.54916 0.66970   4
  -5   9  -6 1.13536 0.66888   1
  -6   9  -6 37.5739 2.20484   4
  -6   9  -6 37.4886 2.33898   1
  -7   9  -6 21.3403 2.14126   1
  -7   9  -6 19.9938 1.88793   4
   5   8  -6 -0.4812 0.61301   3
   4   8  -6 0.07436 0.51921   4
   4   8  -6 -0.0741 0.59871   3
   4   8  -6 -0.0722 0.43672   6
   3   8  -6 5.71206 1.16366   4
   3   8  -6 5.52589 1.05769   3
   2   8  -6 85.9093 3.04400   3
   2   8  -6 87.5591 3.36798   4
   1   8  -6 0.40746 0.48114   3
   1   8  -6 1.14282 0.70098   4
   0   8  -6 24.0677 1.47012   3
   0   8  -6 22.7534 1.23932   2
   0   8  -6 23.8349 1.71945   4
  -1   8  -6 0.13758 0.41641   3
  -1   8  -6 -0.5525 0.35358   4
  -2   8  -6 229.542 4.78406   3
  -2   8  -6 229.929 5.46144   4
  -3   8  -6 0.58637 0.45896   3
  -3   8  -6 0.07105 0.44809   1
  -3   8  -6 0.25340 0.43962   4
  -4   8  -6 -0.5780 0.38523   1
  -4   8  -6 0.41723 0.50568   4
  -5   8  -6 8.39963 1.22734   1
  -5   8  -6 6.00770 1.05709   4
  -6   8  -6 73.9465 3.13364   1
  -6   8  -6 74.8624 2.95150   4
  -7   8  -6 29.4634 2.51843   1
  -7   8  -6 28.0245 1.89455   4
  -8   8  -6 5.01647 1.27074   1
   5   7  -6 22.9859 2.09980   3
   5   7  -6 24.1928 1.64774   6
   4   7  -6 15.7218 1.67573   4
   4   7  -6 17.4132 1.51038   6
   4   7  -6 14.0438 1.60068   3
   3   7  -6 7.79044 1.15109   3
   3   7  -6 7.08338 1.13218   4
   2   7  -6 10.6177 1.24656   3
   2   7  -6 9.04971 1.22766   4
   1   7  -6 87.1006 3.08920   4
   1   7  -6 96.2266 2.15459   2
   1   7  -6 92.6764 2.89417   3
   0   7  -6 8.54062 1.12954   4
   0   7  -6 10.8457 1.11940   3
  -1   7  -6 198.575 4.28807   3
  -1   7  -6 190.401 4.70291   4
  -2   7  -6 10.1594 1.05778   1
  -2   7  -6 9.08081 1.16638   4
  -2   7  -6 9.90085 1.00518   3
  -3   7  -6 1.10929 0.56171   4
  -3   7  -6 0.62955 0.49492   1
  -4   7  -6 5.23348 0.95300   4
  -4   7  -6 3.57486 0.79390   1
  -5   7  -6 96.9236 3.34411   1
  -5   7  -6 105.200 3.38244   4
  -6   7  -6 31.1950 1.88531   4
  -6   7  -6 27.1496 1.91951   1
  -7   7  -6 5.84924 1.14346   1
  -7   7  -6 9.32274 1.29713   4
  -8   7  -6 0.79209 0.74391   1
   6   6  -6 1.60117 0.62803   6
   6   6  -6 3.09211 0.95530   3
   5   6  -6 2.70337 0.73186   6
   5   6  -6 1.07620 0.64989   3
   5   6  -6 2.42452 0.83241   4
   4   6  -6 26.4693 1.80281   3
   4   6  -6 23.8477 1.72917   4
   3   6  -6 195.240 4.78602   4
   3   6  -6 187.553 4.70636   3
   2   6  -6 48.4291 2.17993   4
   2   6  -6 47.7485 2.05945   3
   1   6  -6 83.8504 2.83383   4
   1   6  -6 83.3821 1.90149   2
   1   6  -6 84.3462 2.67277   3
  -1  -6   6 84.0315 1.87482   1
   0   6  -6 123.379 3.47921   4
   0   6  -6 127.354 3.23943   3
  -1   6  -6 35.7711 1.78651   4
  -1   6  -6 32.6861 1.57734   3
  -1   6  -6 34.6440 1.43340   1
  -2   6  -6 27.7142 1.60355   4
  -2   6  -6 29.6477 1.43789   1
  -3   6  -6 120.547 3.23951   1
  -3   6  -6 118.564 3.39933   4
  -4   6  -6 15.9774 1.42712   1
  -4   6  -6 17.2764 1.53529   4
  -5   6  -6 23.4416 1.59153   4
  -5   6  -6 25.4156 1.67949   1
  -6   6  -6 6.92720 1.13101   1
  -6   6  -6 7.15186 1.08877   4
  -7   6  -6 82.8895 3.34487   1
  -7   6  -6 81.1791 3.03188   4
  -8   6  -6 0.80306 0.63101   1
  -8   6  -6 0.27589 0.62092   4
   7   5  -6 14.2651 1.84794   3
   6   5  -6 3.94592 0.88042   6
   6   5  -6 4.35568 1.02559   3
   5   5  -6 13.2354 1.31933   6
   5   5  -6 15.9372 1.54584   4
   5   5  -6 14.7071 1.65840   3
   4   5  -6 32.8937 1.90014   3
   4   5  -6 28.5425 1.71317   4
   3   5  -6 44.2187 2.05409   3
   3   5  -6 41.8120 1.93497   4
   2   5  -6 14.0531 1.27839   3
   1   5  -6 339.077 6.37796   4
   1   5  -6 344.920 6.18284   3
  -1  -5   6 339.837 4.92669   1
   0   5  -6 18.4205 0.91042   1
   0   5  -6 17.6746 1.14819   3
   0   5  -6 20.0654 1.29468   4
   0  -5   6 18.4541 0.88479   1
  -1   5  -6 858.448 11.7225   1
  -1   5  -6 843.255 12.8050   4
  -2   5  -6 62.8538 2.30388   4
  -2   5  -6 67.5066 2.08363   1
  -3   5  -6 52.3274 2.10950   4
  -3   5  -6 52.4434 1.99247   1
  -4   5  -6 26.2356 1.57194   4
  -4   5  -6 25.3016 1.53934   1
  -5   5  -6 214.567 5.05906   1
  -5   5  -6 220.804 5.02246   4
  -6   5  -6 10.1451 1.35184   1
  -6   5  -6 9.44007 1.20204   4
  -7   5  -6 7.86508 1.15080   4
  -7   5  -6 5.45862 1.07371   1
  -8   5  -6 0.89254 0.79584   1
  -8   5  -6 0.94201 0.60841   4
   7   4  -6 20.9407 2.11310   3
   6   4  -6 6.00193 1.10060   3
   6   4  -6 10.3271 1.22787   6
   5   4  -6 0.39636 0.44951   6
   5   4  -6 0.30505 0.40864   4
   5   4  -6 0.16558 0.46117   3
   4   4  -6 0.44758 0.43272   4
   4   4  -6 0.90467 0.51243   3
   3   4  -6 335.413 6.34203   3
   3   4  -6 331.127 6.12992   4
   2   4  -6 28.0930 1.43488   4
   2   4  -6 24.4698 1.38727   3
   1   4  -6 13.3282 0.61300   1
   1   4  -6 14.4694 1.05944   4
   1   4  -6 14.2820 1.03229   3
  -1  -4   6 12.8295 0.60385   1
   0   4  -6 22.4748 0.93341   1
   0   4  -6 21.4760 1.20986   3
   0   4  -6 21.4238 1.26837   4
   0  -4   6 20.7921 0.89196   1
  -1   4  -6 47.2187 1.85912   4
  -1   4  -6 50.1408 1.58163   1
  -2   4  -6 11.8386 1.12506   4
  -2   4  -6 12.0591 1.03172   1
  -3   4  -6 0.82785 0.43942   4
  -3   4  -6 1.65829 0.50770   1
  -4   4  -6 65.1568 2.35569   1
  -4   4  -6 63.2663 2.37341   4
  -5   4  -6 37.2518 1.89256   4
  -5   4  -6 35.4994 1.89950   1
  -6   4  -6 40.2597 2.04302   4
  -6   4  -6 40.8810 2.17597   1
  -7   4  -6 18.8286 1.91200   1
  -7   4  -6 22.1143 1.62531   4
  -8   4  -6 6.70879 1.14515   4
  -8   4  -6 6.50823 1.27966   1
   8   3  -6 0.12329 0.67521   3
   7   3  -6 0.75997 0.60065   3
   6   3  -6 0.31940 0.56976   3
   6   3  -6 1.16223 0.56503   6
   5   3  -6 0.02171 0.40727   6
   5   3  -6 0.36273 0.39226   4
   5   3  -6 0.07336 0.45403   3
   4   3  -6 109.759 3.25073   3
   4   3  -6 108.848 3.04950   6
   4   3  -6 110.433 2.86668   4
   3   3  -6 40.5170 1.77533   3
   3   3  -6 42.3637 1.67477   4
   2   3  -6 12.5102 0.92331   4
   2   3  -6 11.5768 1.05496   3
   1   3  -6 70.1598 2.14783   3
   1   3  -6 72.1353 1.46108   1
   1   3  -6 69.9417 2.15551   4
  -1  -3   6 73.2419 1.45376   1
   0   3  -6 81.4873 1.87090   1
   0   3  -6 83.9163 2.36897   4
   0  -3   6 82.9774 1.87338   1
  -1   3  -6 304.062 4.94515   1
  -1   3  -6 297.827 5.49997   4
  -2   3  -6 11.4480 0.98013   1
  -2   3  -6 10.7332 1.02708   4
  -3   3  -6 0.92429 0.43999   1
  -3   3  -6 1.67662 0.52031   4
  -4   3  -6 0.23684 0.34469   4
  -4   3  -6 -0.4875 0.28353   1
  -5   3  -6 27.2647 1.63037   4
  -5   3  -6 30.3455 1.74605   1
  -6   3  -6 64.1965 2.59387   4
  -6   3  -6 71.2393 2.84880   1
  -7   3  -6 1.21200 0.69188   1
  -7   3  -6 0.34804 0.55708   4
  -8   3  -6 0.69143 0.72250   1
  -8   3  -6 -0.5574 0.48365   4
   8   2  -6 0.95676 0.75089   3
   7   2  -6 33.6222 2.19416   3
   6   2  -6 13.6226 1.53364   3
   6   2  -6 13.3852 1.31009   6
   5   2  -6 103.938 3.23002   3
   5   2  -6 101.901 2.59917   4
   5   2  -6 106.543 3.11785   6
   4   2  -6 4.46062 0.76278   3
   4   2  -6 6.39316 0.87795   6
   4   2  -6 5.36907 0.67390   4
   3   2  -6 20.1797 1.06452   4
   3   2  -6 19.6439 1.20780   3
   2   2  -6 729.892 9.60881   2
   2   2  -6 726.096 10.6713   3
   2   2  -6 727.863 10.5185   4
   1   2  -6 156.258 3.40874   3
   1   2  -6 159.163 2.87328   2
   1   2  -6 158.149 2.58904   1
   1   2  -6 156.670 3.30460   4
   0   2  -6 845.388 11.1184   1
   0   2  -6 841.647 12.0384   4
   0  -2   6 835.703 11.0888   1
  -1   2  -6 27.8457 1.33411   4
  -1   2  -6 28.0113 1.15986   1
  -2   2  -6 198.566 3.96502   1
  -2   2  -6 200.615 4.22212   4
  -3   2  -6 2.64219 0.60119   4
  -3   2  -6 4.04950 0.73258   1
  -4   2  -6 142.026 3.69994   4
  -4   2  -6 139.417 3.62215   1
  -5   2  -6 4.49747 0.85744   4
  -5   2  -6 3.80506 0.78817   1
  -6   2  -6 104.682 3.52325   1
  -6   2  -6 99.2874 3.32331   4
  -7   2  -6 14.8855 1.66634   1
  -7   2  -6 15.0640 1.60087   4
  -8   2  -6 24.2578 2.13226   4
  -8   2  -6 23.3349 2.21905   1
   9   1  -6 76.8989 3.58929   3
   8   1  -6 5.62107 1.18202   3
   7   1  -6 0.11770 0.53493   3
   6   1  -6 85.1862 2.90013   6
   6   1  -6 84.9695 2.99924   3
   5   1  -6 18.1739 1.33111   6
   5   1  -6 23.1318 1.03958   4
   5   1  -6 24.8990 1.50531   3
  -5  -1   6 21.0671 1.00564   4
   4   1  -6 672.171 9.66508   4
   4   1  -6 686.096 10.4809   3
   4   1  -6 690.870 10.4037   6
  -4  -1   6 688.571 9.68094   4
   3   1  -6 6.30718 0.64629   4
   3   1  -6 7.10577 0.45250   2
   3   1  -6 6.55518 0.76531   3
  -3  -1   6 7.51546 0.69192   4
   2   1  -6 5.75887 0.69945   3
   2   1  -6 7.31793 0.70261   4
   2   1  -6 6.53244 0.40638   1
   2   1  -6 7.06878 0.51906   2
  -2  -1   6 6.36693 0.63889   4
   1   1  -6 9.62291 0.57588   1
   1   1  -6 9.08674 0.84402   3
   1   1  -6 10.6033 0.66139   2
   1   1  -6 10.9298 0.78251   4
   0   1  -6 285.336 4.57037   1
   0   1  -6 284.612 5.05987   4
   0   1  -6 291.011 4.87244   2
  -1   1  -6 5.49625 0.73344   4
  -1   1  -6 6.69113 0.72941   1
  -2   1  -6 77.9583 2.40310   4
  -2   1  -6 76.9809 2.23918   1
  -3   1  -6 52.7405 1.98050   1
  -4   1  -6 0.54357 0.38213   1
   4  -1   6 0.26600 0.39622   5
  -5   1  -6 1.86672 0.61460   1
  -6   1  -6 18.5380 1.77791   1
  -7   1  -6 1.45634 0.71315   4
  -7   1  -6 0.80297 0.65462   1
  -8   1  -6 6.91793 1.25231   4
  -8   1  -6 6.82193 1.35092   1
   9   0  -6 3.22878 1.04904   3
   8   0  -6 54.8570 2.74841   3
   7   0  -6 6.43816 1.07005   3
   6   0  -6 7.25914 1.04449   3
   6   0  -6 8.13112 1.11728   6
  -6   0   6 9.17963 0.63111   2
   5   0  -6 4.89673 0.56454   5
   5   0  -6 4.32695 0.75522   6
   5   0  -6 5.47295 0.85924   3
  -5   0   6 4.24677 0.48099   4
  -5   0   6 4.95926 0.53153   2
   4   0  -6 29.5861 1.43541   3
   4   0  -6 29.7470 1.03123   4
   4   0  -6 28.9951 1.10448   5
   4   0  -6 28.2362 1.43705   6
  -4   0   6 30.5417 1.03471   4
  -4   0   6 29.2476 1.03646   2
   3   0  -6 1.48557 0.33536   4
   3   0  -6 1.97346 0.35484   2
   3   0  -6 1.27915 0.39830   3
   3   0  -6 2.87072 0.53083   6
   3   0  -6 2.10408 0.43291   5
  -3   0   6 2.30219 0.38393   2
   2   0  -6 14.4376 0.81444   4
   2   0  -6 15.4851 0.84422   5
   2   0  -6 14.6092 0.78313   2
   2   0  -6 15.1282 0.91709   3
  -2   0   6 13.5138 0.77350   2
   1   0  -6 4.23180 0.56996   2
   1   0  -6 4.59784 0.50072   1
   1   0  -6 4.69633 0.60051   4
   0   0  -6 294.113 4.78726   1
  -1   0  -6 1.72715 0.46393   1
   1   0   6 1.72955 0.45633   5
  -2   0  -6 44.4508 1.73172   1
   2   0   6 44.9827 1.73340   5
  -3   0  -6 0.00437 0.34371   1
   3   0   6 0.29172 0.35370   5
  -4   0  -6 61.2993 2.38747   1
   4   0   6 66.8564 2.32709   5
  -5   0  -6 17.3092 1.61646   1
   5   0   6 18.6504 1.54911   5
  -6   0  -6 43.3837 2.32307   1
   6   0   6 39.4738 2.02015   5
  -7   0  -6 3.06708 0.97995   1
   7   0   6 1.67737 0.68148   5
   9  -1  -6 5.78451 1.21174   3
   8  -1  -6 22.9751 2.00852   3
   7  -1  -6 -0.0154 0.44227   3
  -7   1   6 0.25285 0.32290   2
   6  -1  -6 1.75709 0.61997   3
  -6   1   6 2.47900 0.50148   2
   5  -1  -6 17.2170 1.24045   6
   5  -1  -6 15.6482 0.74924   1
   5  -1  -6 15.4991 1.14519   3
   5  -1  -6 14.5191 0.70201   5
  -5   1   6 14.2128 0.87284   2
   4  -1  -6 216.823 3.61383   5
   4  -1  -6 226.615 4.48790   6
   4  -1  -6 216.775 3.43168   4
   4  -1  -6 219.563 3.52126   1
   4  -1  -6 215.829 4.26535   3
  -4   1   6 217.688 3.92602   2
   3  -1  -6 356.902 5.59991   2
   3  -1  -6 354.299 5.37347   5
   3  -1  -6 351.385 5.93366   6
   3  -1  -6 351.802 5.78930   3
   3  -1  -6 354.905 5.33082   4
  -3   1   6 348.580 5.65755   2
   2  -1  -6 141.158 2.93070   3
   2  -1  -6 136.749 2.78505   4
   2  -1  -6 139.847 2.91581   2
   2  -1  -6 141.618 2.81802   5
  -2   1   6 140.437 2.96796   2
  -1   1   6 133.761 2.96903   2
  -1   1   6 133.723 2.89703   5
   0  -1  -6 72.7230 2.00588   1
   0   1   6 72.7993 2.09691   5
  -1  -1  -6 108.002 2.70339   1
   1   1   6 106.120 2.76167   5
  -2  -1  -6 -0.1491 0.31084   1
   2   1   6 0.65428 0.40024   5
  -3  -1  -6 5.79204 0.83846   1
   3   1   6 7.36550 0.95930   5
  -4  -1  -6 43.1015 2.03121   1
   4   1   6 42.8196 1.97874   5
  -5  -1  -6 102.088 3.41561   1
   5   1   6 101.319 3.17430   5
  -6  -1  -6 28.5143 1.96738   1
   6   1   6 20.6131 1.74520   5
  -7  -1  -6 5.93956 1.20466   1
   7   1   6 5.87481 1.10618   5
   9  -2  -6 2.33512 0.84638   3
   8  -2  -6 6.65918 1.15091   3
   7  -2  -6 132.019 3.72817   3
  -7   2   6 139.085 3.30260   2
   6  -2  -6 103.012 2.97773   3
  -6   2   6 103.365 2.68151   2
   5  -2  -6 203.952 4.19816   3
  -5   2   6 206.112 4.08844   2
   4  -2  -6 0.15677 0.23432   1
   4  -2  -6 0.53042 0.38674   6
   4  -2  -6 0.16520 0.20876   5
   4  -2  -6 0.13008 0.28229   3
  -4   2   6 0.00121 0.30048   2
   3  -2  -6 65.8959 1.72773   5
   3  -2  -6 65.8313 1.81964   3
   3  -2  -6 62.9585 1.96161   6
   3  -2  -6 65.4957 1.61770   4
  -3   2   6 65.7330 1.98152   2
   2  -2  -6 26.4888 1.14847   6
   2  -2  -6 24.7347 1.06733   3
  -2   2   6 26.2623 1.14058   5
  -2   2   6 25.4634 1.24980   2
   1  -2  -6 64.2235 1.69545   6
  -1   2   6 68.4887 1.99394   5
  -1   2   6 65.9254 2.07546   2
   0   2   6 39.5190 1.64588   2
   0   2   6 40.4513 1.60242   5
  -1  -2  -6 316.164 5.67739   1
   1   2   6 307.745 5.66360   5
  -2  -2  -6 130.248 3.34231   1
   2   2   6 124.364 3.30186   5
  -3  -2  -6 26.4093 1.57816   1
   3   2   6 27.4420 1.60374   5
  -4  -2  -6 15.9070 1.53853   1
   4   2   6 16.4487 1.51246   5
  -5  -2  -6 0.98593 0.58829   1
   5   2   6 0.39135 0.50980   5
  -6  -2  -6 9.53326 1.35333   1
   6   2   6 6.99796 1.17482   5
  -7  -2  -6 0.22178 0.70088   1
   7   2   6 0.33529 0.67315   5
   9  -3  -6 62.3943 2.86442   3
   8  -3  -6 37.0740 2.05441   3
  -8   3   6 35.0777 1.73790   2
   7  -3  -6 0.31408 0.42505   3
  -7   3   6 0.30544 0.41005   2
   6  -3  -6 13.3997 1.18615   3
  -6   3   6 15.6940 1.30941   2
   5  -3  -6 143.643 3.22372   3
  -5   3   6 147.888 3.47424   2
   4  -3  -6 34.2824 0.97379   4
   4  -3  -6 32.7672 1.13626   5
   4  -3  -6 32.9795 1.28349   3
  -4   3   6 34.6720 1.54893   2
   3  -3  -6 35.6431 1.44432   5
   3  -3  -6 38.9131 1.50431   6
   3  -3  -6 36.8028 1.24911   3
  -3   3   6 36.9940 1.58225   2
  -3   3   6 35.8676 1.32156   5
   2  -3  -6 2.28674 0.41066   3
   2  -3  -6 2.52500 0.44982   6
  -2   3   6 2.49639 0.57916   2
  -2   3   6 2.92369 0.54428   5
   1  -3  -6 0.44285 0.25554   6
  -1   3   6 0.10521 0.34493   2
  -1   3   6 0.23136 0.34976   5
   0  -3  -6 37.4804 1.08114   6
   0   3   6 38.3942 1.72921   2
   0   3   6 38.3657 1.64442   5
   1   3   6 72.6814 2.40651   5
  -2  -3  -6 10.8649 1.10075   1
   2   3   6 13.8806 1.30795   5
  -3  -3  -6 0.68361 0.55041   1
   3   3   6 0.37582 0.49191   5
  -4  -3  -6 18.8844 1.69119   1
   4   3   6 19.6287 1.75843   5
  -5  -3  -6 80.2860 3.15592   1
   5   3   6 80.6168 3.12314   5
  -6  -3  -6 17.2157 1.88489   1
   6   3   6 20.5178 2.01479   5
   9  -4  -6 1.23161 0.69753   3
   8  -4  -6 4.91180 0.92756   3
  -8   4   6 5.34534 0.94148   2
   7  -4  -6 81.8584 2.61923   3
  -7   4   6 81.1874 2.72213   2
   6  -4  -6 1.39702 0.50271   3
  -6   4   6 1.69798 0.55761   2
   5  -4  -6 128.153 2.83737   3
  -5   4   6 130.184 3.41554   2
   4  -4  -6 91.5133 1.94183   4
   4  -4  -6 91.4604 2.12072   3
   4  -4  -6 94.2321 2.17233   5
  -4   4   6 94.4229 2.80274   2
  -4   4   6 88.6063 2.14449   5
   3  -4  -6 5.02742 0.51873   3
  -3   4   6 4.05730 0.61663   5
  -3   4   6 4.40558 0.76293   2
   2  -4  -6 23.3123 0.93084   3
  -2   4   6 21.7388 1.21355   5
  -2   4   6 23.9448 1.40224   2
  -1   4   6 78.8813 2.42261   5
  -1   4   6 83.3499 2.65931   2
   0   4   6 4.93660 0.80993   2
   0   4   6 6.14007 0.89321   5
  -1  -4  -6 14.0548 1.29966   1
   1   4   6 12.1946 1.20407   5
  -2  -4  -6 0.05726 0.38452   1
   2   4   6 0.75452 0.53715   5
  -3  -4  -6 101.986 3.34192   1
   3   4   6 109.337 3.45694   5
  -4  -4  -6 6.08003 1.09067   1
   4   4   6 5.82516 1.08900   5
  -5  -4  -6 1.54113 0.79315   1
   5   4   6 1.53942 0.76371   5
  -6  -4  -6 1.00551 0.72358   1
   6   4   6 -0.6076 0.59852   5
  -9   5   6 24.3191 1.76329   2
   8  -5  -6 35.6512 1.84149   3
  -8   5   6 35.3160 1.98095   2
   7  -5  -6 78.6687 2.40844   3
  -7   5   6 76.7655 2.82522   2
   6  -5  -6 6.90907 0.77338   3
  -6   5   6 4.88340 0.87945   2
   5  -5  -6 43.0338 1.40039   3
  -5   5   6 44.5225 1.39715   5
  -5   5   6 43.4448 2.02504   2
   4  -5  -6 24.0331 0.89677   3
   4  -5  -6 23.9950 1.01594   4
  -4   5   6 23.1495 1.48442   2
  -4   5   6 23.0352 1.15461   5
   3  -5  -6 118.487 2.19072   3
  -3   5   6 118.155 2.89598   5
  -3   5   6 123.056 3.43419   2
   2  -5  -6 12.2615 0.65034   3
  -2   5   6 9.83579 1.02886   5
  -2   5   6 10.5956 1.20837   2
   1  -5  -6 0.07602 0.25415   3
  -1   5   6 0.52670 0.42619   2
  -1   5   6 -0.2573 0.37240   5
   0   5   6 188.371 4.42599   5
   0   5   6 187.410 4.56736   2
   1   5   6 157.617 4.12468   5
  -2  -5  -6 7.44634 1.06995   1
   2   5   6 6.09042 1.07743   5
  -3  -5  -6 0.30507 0.49900   1
   3   5   6 0.06812 0.48009   5
  -4  -5  -6 0.40899 0.54667   1
   4   5   6 -0.7434 0.44772   5
  -5  -5  -6 46.0489 2.58701   1
   5   5   6 44.2202 2.57543   5
  -9   6   6 14.0706 1.60121   2
  -8   6   6 5.59787 1.05383   2
  -7   6   6 18.5164 1.73585   2
  -6   6   6 45.3996 2.22346   2
  -5   6   6 38.2042 1.43491   5
  -5   6   6 37.9496 2.01051   2
  -4   6   6 0.79917 0.49642   2
  -4   6   6 0.45885 0.40707   5
  -3   6   6 10.1327 1.05735   5
  -3   6   6 10.6281 1.24199   2
  -2   6   6 49.1536 2.24944   2
  -2   6   6 52.5034 2.09489   5
  -1   6   6 75.0449 2.70182   5
  -1   6   6 78.3757 2.85476   2
   0   6   6 26.4436 1.72807   5
   0   6   6 29.2789 1.81322   2
   1   6   6 7.16577 1.12045   5
  -2  -6  -6 23.0273 1.67948   1
   2   6   6 21.3181 1.96154   5
  -3  -6  -6 41.9122 2.31003   1
   3   6   6 41.6451 2.45016   5
  -4  -6  -6 18.5574 1.97015   1
   4   6   6 21.6855 2.17887   5
  -9   7   6 0.13019 0.58051   2
  -8   7   6 81.0443 3.33017   2
  -7   7   6 5.65331 1.07554   2
  -6   7   6 2.64466 0.81352   2
  -5   7   6 73.7856 2.20610   5
  -5   7   6 74.9845 2.99339   2
  -4   7   6 5.27867 0.82917   5
  -4   7   6 6.14459 1.07231   2
  -3   7   6 49.4439 2.41124   2
  -3   7   6 52.6583 2.13055   5
  -2   7   6 -0.8947 0.30598   5
  -2   7   6 0.49433 0.57328   2
  -1   7   6 0.60636 0.56198   2
  -1   7   6 0.50775 0.48651   5
   0   7   6 40.9984 2.24009   2
   0   7   6 43.0338 2.27633   5
   1   7   6 3.91681 0.90834   5
  -2  -7  -6 51.7625 2.57302   1
   2   7   6 52.1230 2.71561   5
  -3  -7  -6 -0.1557 0.56414   1
   3   7   6 0.64144 0.78129   5
  -4  -7  -6 4.25606 1.13273   1
   4   7   6 5.01602 1.26719   5
  -9   8   6 5.54155 1.24393   2
  -8   8   6 6.78186 1.28730   2
  -7   8   6 4.00601 1.01864   2
  -6   8   6 30.5919 2.09346   2
  -5   8   6 -0.0297 0.40091   5
  -5   8   6 0.23819 0.55441   2
  -4   8   6 35.9150 1.81441   5
  -4   8   6 34.4816 2.13823   2
  -3   8   6 19.9249 1.67021   5
  -3   8   6 13.9987 1.64568   2
  -2   8   6 38.6545 2.30688   2
  -2   8   6 37.3177 2.08391   5
  -1   8   6 21.7395 2.02666   2
  -1   8   6 26.4378 1.88723   5
   0   8   6 69.2017 3.04237   2
   0   8   6 71.6176 3.09888   5
   1   8   6 -0.1158 0.52963   5
  -2  -8  -6 39.4716 2.37914   1
   2   8   6 41.0020 2.59527   5
  -3  -8  -6 4.76133 1.12073   1
   3   8   6 5.06650 1.28904   5
  -8   9   6 65.6074 3.31715   2
  -7   9   6 0.64632 0.68781   2
  -6   9   6 0.86558 0.69097   2
  -5   9   6 0.35758 0.63805   2
  -5   9   6 -0.4919 0.40057   5
  -4   9   6 47.9469 2.26074   5
  -4   9   6 45.8950 2.62130   2
  -3   9   6 10.1179 1.51698   2
  -3   9   6 12.6457 1.52308   5
  -2   9   6 4.82921 1.04119   5
  -2   9   6 5.75624 1.26037   2
  -1   9   6 6.86097 1.29389   2
  -1   9   6 10.9058 1.51397   5
   0   9   6 4.63969 1.17792   2
   0   9   6 6.14029 1.22096   5
   1   9   6 2.83844 1.00713   5
  -7  10   6 4.21281 1.13076   2
  -6  10   6 74.9296 3.57923   2
  -5  10   6 0.27962 0.55489   5
  -5  10   6 -0.2517 0.63996   2
  -4  10   6 33.2364 2.42285   2
  -4  10   6 28.8234 1.97405   5
  -3  10   6 25.5300 2.15061   5
  -3  10   6 24.4897 2.35871   2
  -2  10   6 10.1226 1.49290   5
  -2  10   6 8.31570 1.51177   2
  -1  10   6 5.91953 1.30811   5
  -1  10   6 5.52886 1.28624   2
   0  10   6 2.30505 1.00926   5
   0  10   6 1.43099 0.85583   2
  -5  11   6 0.06132 0.75212   2
  -4  11   6 -0.7297 0.64741   2
  -4  11   6 0.00976 0.64776   5
  -3  11   6 15.5275 1.81657   5
  -3  11   6 16.8283 2.15089   2
  -2  11   6 1.78172 0.90001   5
  -2  11   6 2.75923 1.11073   2
   0  11  -7 -0.0712 0.71978   4
  -1  11  -7 0.55657 0.75791   4
  -2  11  -7 -0.7310 0.61814   4
  -3  11  -7 20.8705 2.04481   4
  -3  11  -7 26.7459 1.92747   2
  -4  11  -7 8.85970 1.49050   4
  -5  11  -7 2.01167 0.96691   4
   2  10  -7 8.27074 1.27635   3
   2  10  -7 8.19715 1.44677   4
   1  10  -7 0.95078 0.78616   4
   1  10  -7 0.36550 0.57339   3
   0  10  -7 18.6222 2.00298   4
   0  10  -7 15.2508 1.51894   3
  -1  10  -7 103.325 3.27271   3
  -1  10  -7 100.336 3.88324   4
  -2  10  -7 0.76689 0.74308   4
  -2  10  -7 2.64764 0.74509   3
  -3  10  -7 59.3769 2.40485   3
  -3  10  -7 61.4720 3.00608   4
  -4  10  -7 21.5779 1.54387   3
  -4  10  -7 20.0205 2.03258   4
  -5  10  -7 17.1647 1.90057   1
  -5  10  -7 18.7640 2.01930   4
  -6  10  -7 126.573 4.34779   4
  -6  10  -7 118.617 4.36111   1
   3   9  -7 6.14117 1.25763   4
   3   9  -7 7.39603 1.32484   3
   2   9  -7 6.41458 1.15255   3
   2   9  -7 6.86806 1.35927   4
   1   9  -7 153.024 4.27200   3
   1   9  -7 158.991 4.85914   4
   0   9  -7 1.31900 0.71510   4
   0   9  -7 2.48732 0.70441   3
  -1   9  -7 2.41950 0.70344   3
  -1   9  -7 3.70903 0.97332   4
  -2   9  -7 80.7837 2.78669   3
  -2   9  -7 87.0548 3.37239   4
  -3   9  -7 67.0774 2.98957   4
  -3   9  -7 70.4404 2.59882   3
  -3   9  -7 66.4895 2.65310   1
  -4   9  -7 25.7307 2.23182   4
  -4   9  -7 26.1343 1.83007   1
  -4   9  -7 24.7428 1.64688   3
  -5   9  -7 2.22169 0.85875   1
  -5   9  -7 1.52246 0.74152   4
  -6   9  -7 -0.5303 0.57054   1
  -6   9  -7 -0.0520 0.50826   4
  -7   9  -7 2.49733 0.86914   4
  -7   9  -7 2.29711 1.00449   1
   4   8  -7 8.66761 1.46018   4
   4   8  -7 6.87851 1.06930   6
   4   8  -7 6.96588 1.31047   3
   3   8  -7 -0.9673 0.41761   3
   3   8  -7 -0.0342 0.59111   4
   2   8  -7 4.00094 0.86800   3
   2   8  -7 4.52262 1.03638   4
   1   8  -7 20.2717 1.88023   4
   1   8  -7 20.9134 1.53762   3
   0   8  -7 18.1658 1.56420   3
   0   8  -7 21.3599 1.20916   2
   0   8  -7 19.4074 1.78106   4
  -1   8  -7 69.9299 2.87648   4
  -1   8  -7 69.4639 2.54712   3
  -2   8  -7 14.7552 1.37495   3
  -2   8  -7 12.2507 1.50866   4
  -2   8  -7 14.9162 1.36039   1
  -3   8  -7 40.9721 2.22324   4
  -3   8  -7 37.6317 1.93623   1
  -3   8  -7 40.8252 1.96604   3
  -4   8  -7 23.5451 1.89533   1
  -4   8  -7 23.5076 1.77624   4
  -5   8  -7 12.9362 1.51240   4
  -5   8  -7 10.7378 1.43463   1
  -6   8  -7 24.7550 2.15505   1
  -6   8  -7 30.6685 2.06725   4
  -7   8  -7 10.2558 1.43766   4
  -7   8  -7 16.2005 1.86265   1
   5   7  -7 0.04637 0.54444   6
   5   7  -7 0.47806 0.68512   4
   5   7  -7 0.85412 0.72126   3
   4   7  -7 4.06134 1.01777   4
   4   7  -7 4.25315 0.94354   3
   3   7  -7 19.2480 1.79961   3
   3   7  -7 18.6001 1.79376   4
   2   7  -7 15.7598 1.50983   3
   2   7  -7 17.9507 1.77587   4
   1   7  -7 97.0206 2.24691   2
   1   7  -7 104.242 3.44411   4
   1   7  -7 104.924 3.20035   3
   0   7  -7 138.426 3.69899   3
   0   7  -7 141.808 4.02686   4
  -1   7  -7 0.60893 0.42061   1
  -1   7  -7 1.67697 0.55421   3
  -1   7  -7 1.27743 0.54749   4
  -2   7  -7 1.08146 0.45729   3
  -2   7  -7 0.98271 0.58278   4
  -2   7  -7 1.80103 0.57545   1
  -3   7  -7 1.25574 0.57168   1
  -3   7  -7 0.60300 0.51695   4
  -4   7  -7 37.5878 2.00673   1
  -4   7  -7 36.9508 2.11934   4
  -5   7  -7 81.8159 3.11164   1
  -5   7  -7 75.2841 2.97006   4
  -6   7  -7 0.26028 0.59347   1
  -6   7  -7 -0.4567 0.48143   4
  -7   7  -7 0.10165 0.64009   1
  -7   7  -7 0.57474 0.62230   4
   6   6  -7 1.06222 0.74422   3
   6   6  -7 1.74861 0.68016   6
   5   6  -7 7.67749 1.26346   4
   5   6  -7 5.67273 0.97766   6
   5   6  -7 6.40856 1.20522   3
   4   6  -7 95.4574 3.44019   3
   4   6  -7 97.6598 3.37182   4
   3   6  -7 5.93395 1.00497   3
   3   6  -7 5.43574 0.94674   4
   2   6  -7 226.421 5.24634   4
   2   6  -7 225.859 5.11519   3
   1   6  -7 7.43855 1.02895   4
   1   6  -7 7.51014 0.99354   3
   0   6  -7 64.7130 2.51125   4
   0   6  -7 67.7932 2.41313   3
   0   6  -7 68.0296 1.89655   1
  -1   6  -7 134.657 3.09742   1
  -1   6  -7 137.486 3.77717   4
  -1   6  -7 132.627 3.49069   3
  -2   6  -7 146.217 3.48388   1
  -2   6  -7 149.202 4.03814   4
  -3   6  -7 2.11233 0.66452   4
  -3   6  -7 3.49636 0.70285   1
  -4   6  -7 70.2324 2.77095   4
  -4   6  -7 72.8523 2.66307   1
  -5   6  -7 0.59056 0.55053   4
  -5   6  -7 -0.0216 0.50481   1
  -6   6  -7 20.1231 1.87077   1
  -6   6  -7 22.9759 1.71809   4
  -7   6  -7 0.38046 0.63067   1
  -7   6  -7 -0.5108 0.55064   4
  -8   6  -7 2.08016 0.87086   1
  -8   6  -7 1.73135 0.69890   4
   7   5  -7 8.62409 1.47932   3
   6   5  -7 35.4868 2.32105   3
   6   5  -7 34.6062 2.00229   6
   5   5  -7 -0.1318 0.46232   4
   5   5  -7 -0.3148 0.48007   3
   5   5  -7 0.40940 0.50240   6
   4   5  -7 2.16611 0.69231   4
   4   5  -7 3.11168 0.83538   3
   3   5  -7 22.7228 1.51702   4
   3   5  -7 23.5423 1.59283   3
   2   5  -7 234.720 5.11409   3
   2   5  -7 241.470 5.20109   4
   1   5  -7 39.2508 1.85376   4
   1   5  -7 40.7619 1.84301   3
  -1  -5   7 38.8163 1.16996   1
   0   5  -7 363.249 5.61779   1
   0   5  -7 349.941 6.70429   4
   0   5  -7 354.688 6.49533   3
   0  -5   7 368.717 5.61135   1
  -1   5  -7 18.3324 1.32686   4
  -1   5  -7 18.7574 1.06796   1
  -2   5  -7 -0.0821 0.30399   1
  -2   5  -7 -0.1623 0.34217   4
  -3   5  -7 78.1944 2.54353   1
  -3   5  -7 76.6193 2.74021   4
  -4   5  -7 111.748 3.42591   4
  -4   5  -7 107.498 3.25423   1
  -5   5  -7 13.7566 1.42753   1
  -5   5  -7 12.8853 1.41887   4
  -6   5  -7 6.46655 1.11604   4
  -6   5  -7 7.23911 1.15603   1
  -7   5  -7 2.98758 0.89692   1
  -7   5  -7 2.92654 0.89420   4
  -8   5  -7 13.1233 1.57539   4
  -8   5  -7 10.3886 1.61639   1
   7   4  -7 7.44955 1.18318   6
   7   4  -7 4.74814 1.17307   3
   6   4  -7 1.67922 0.70789   3
   6   4  -7 1.04095 0.56027   6
   5   4  -7 7.47573 1.11790   3
   5   4  -7 8.42726 1.06644   4
   5   4  -7 7.89397 1.08826   6
   4   4  -7 231.124 5.32947   3
   4   4  -7 225.087 4.89368   4
   3   4  -7 5.31386 0.87746   3
   3   4  -7 4.43720 0.80896   4
   2   4  -7 224.080 4.74509   4
   2   4  -7 224.149 4.82318   3
   1   4  -7 20.6693 1.30161   4
   1   4  -7 19.0649 1.25059   3
   1   4  -7 19.6522 0.78718   1
  -1  -4   7 19.6779 0.76648   1
   0   4  -7 10.4786 1.02465   3
   0   4  -7 13.8204 0.80721   1
   0   4  -7 11.6997 1.19158   4
   0  -4   7 11.1310 0.72069   1
  -1   4  -7 47.3762 1.64036   1
  -1   4  -7 49.5914 1.99491   4
  -2   4  -7 41.7445 1.66706   1
  -2   4  -7 36.6920 1.79031   4
  -3   4  -7 1.11832 0.49471   1
  -3   4  -7 1.25012 0.55592   4
  -4   4  -7 52.2161 2.20979   1
  -4   4  -7 52.0315 2.27090   4
  -5   4  -7 70.9213 2.76607   4
  -5   4  -7 76.1519 2.85916   1
  -6   4  -7 18.3228 1.77788   1
  -6   4  -7 18.8854 1.79200   4
  -7   4  -7 62.0372 2.80291   4
  -7   4  -7 68.2124 3.08797   1
  -8   4  -7 1.33090 0.73513   4
  -8   4  -7 1.80963 0.88306   1
   8   3  -7 29.8487 2.73959   3
   7   3  -7 3.16102 0.98026   3
   7   3  -7 2.16152 0.75220   6
   6   3  -7 20.5293 1.38157   4
   6   3  -7 17.9894 1.76633   3
   6   3  -7 16.6724 1.57005   6
   5   3  -7 111.364 3.33273   6
   5   3  -7 101.981 3.42868   3
   5   3  -7 113.625 3.02655   4
   4   3  -7 40.9338 1.99657   3
   4   3  -7 43.0120 1.76218   4
   3   3  -7 61.4802 2.07743   4
   3   3  -7 57.4376 2.21619   3
   2   3  -7 -0.3470 0.27105   3
   2   3  -7 1.32923 0.27384   2
   2   3  -7 -0.1181 0.33528   4
   1   3  -7 157.266 2.96421   2
   1   3  -7 155.820 2.65283   1
   1   3  -7 154.028 3.60724   3
   1   3  -7 152.901 3.55071   4
  -1  -3   7 152.342 2.64009   1
   0   3  -7 8.36934 0.92993   4
   0   3  -7 7.12260 0.65528   1
   0  -3   7 8.19151 0.69119   1
  -1   3  -7 3.03173 0.53225   1
  -1   3  -7 2.69611 0.61085   4
  -2   3  -7 6.36002 0.80344   1
  -2   3  -7 5.01915 0.77642   4
  -3   3  -7 388.202 6.87695   1
  -3   3  -7 392.499 7.23716   4
  -4   3  -7 51.7262 2.19962   1
  -4   3  -7 54.2755 2.27740   4
  -5   3  -7 66.7844 2.67112   1
  -5   3  -7 66.5234 2.63758   4
  -6   3  -7 8.35221 1.26432   1
  -6   3  -7 9.64058 1.27904   4
  -7   3  -7 3.72127 0.93586   4
  -7   3  -7 3.01859 0.96511   1
  -8   3  -7 -0.0111 0.63195   4
  -8   3  -7 0.28173 0.68520   1
   8   2  -7 0.02550 0.68853   3
   7   2  -7 37.7388 2.32533   3
   6   2  -7 16.4807 1.52491   6
   6   2  -7 17.1502 1.68892   3
   6   2  -7 17.4077 1.13859   4
   5   2  -7 7.48509 0.84433   4
   5   2  -7 7.55105 1.01933   6
   5   2  -7 5.44462 0.98180   3
   4   2  -7 2.46823 0.62648   3
   4   2  -7 2.11212 0.49995   4
   4   2  -7 3.65041 0.68384   6
   3   2  -7 421.623 7.35825   3
   3   2  -7 429.333 6.93521   4
   2   2  -7 16.1286 1.10482   3
   2   2  -7 14.3156 0.97925   4
   2   2  -7 13.9026 0.70624   2
   1   2  -7 330.200 4.85708   1
   1   2  -7 330.168 5.87342   3
   1   2  -7 321.450 5.22866   2
   1   2  -7 322.972 5.75955   4
   0   2  -7 26.7893 1.34856   4
   0   2  -7 25.8673 1.08131   1
   0  -2   7 25.6443 1.05591   1
  -1   2  -7 200.794 3.88358   1
  -1   2  -7 203.269 4.34794   4
  -2   2  -7 16.8079 1.09776   1
  -2   2  -7 16.8174 1.20361   4
  -3   2  -7 132.836 3.62295   4
  -3   2  -7 134.550 3.45480   1
  -4   2  -7 6.89790 1.02110   1
  -4   2  -7 5.92335 0.94342   4
  -5   2  -7 38.2225 2.07020   1
  -5   2  -7 34.1982 1.95995   4
  -6   2  -7 1.85118 0.74359   1
  -6   2  -7 1.39799 0.62023   4
  -7   2  -7 16.7776 1.86850   4
  -7   2  -7 15.2921 1.80906   1
  -8   2  -7 0.06819 0.60682   4
   8   1  -7 18.9062 1.97347   3
   7   1  -7 45.7049 2.44279   3
   6   1  -7 16.6629 0.97309   4
   6   1  -7 14.7887 1.48190   3
   6   1  -7 14.1931 1.42827   6
   5   1  -7 583.633 9.66238   6
   5   1  -7 582.133 8.58604   4
   5   1  -7 589.073 9.79591   3
   4   1  -7 21.7409 1.36692   3
   4   1  -7 24.0450 1.11875   4
   4   1  -7 25.1137 1.45948   6
   3   1  -7 70.8650 1.98878   4
   3   1  -7 70.6116 2.29460   3
   3   1  -7 68.6305 1.62887   2
   2   1  -7 3.82180 0.39683   1
   2   1  -7 5.11174 0.57674   2
   2   1  -7 3.40215 0.58368   3
   2   1  -7 3.75985 0.59535   4
   1   1  -7 143.420 2.74233   1
   1   1  -7 146.817 3.05302   2
   1   1  -7 148.600 3.28553   4
   1   1  -7 148.659 3.37882   3
   0   1  -7 11.2950 0.77020   1
   0   1  -7 9.95976 0.95792   4
  -1   1  -7 1.74499 0.44757   1
  -1   1  -7 2.80823 0.59128   4
  -2   1  -7 19.4472 1.19354   1
  -2   1  -7 21.4368 1.33368   4
  -3   1  -7 110.866 3.12411   1
  -4   1  -7 99.4458 3.15411   1
  -5   1  -7 43.5174 2.21794   1
  -6   1  -7 16.6495 1.78360   1
  -6   1  -7 15.1810 1.62359   4
  -7   1  -7 -0.0727 0.58851   1
  -7   1  -7 0.63467 0.63037   4
   9   0  -7 0.85410 0.75389   3
   8   0  -7 0.19277 0.65358   3
   7   0  -7 35.9323 2.09825   3
   6   0  -7 6.58628 1.01055   6
   6   0  -7 6.27712 0.99271   3
   5   0  -7 6.93295 0.94847   6
   5   0  -7 7.70139 1.02402   3
   5   0  -7 8.22165 0.61628   4
  -5   0   7 8.31584 0.69316   2
   4   0  -7 4.65116 0.54005   4
   4   0  -7 4.14396 0.69078   3
   4   0  -7 4.53306 0.73564   6
  -4   0   7 4.64153 0.54223   2
   3   0  -7 41.2649 1.38042   4
   3   0  -7 43.2484 1.72542   6
   3   0  -7 41.0918 1.64674   3
   3   0  -7 37.6812 1.29555   2
  -3   0   7 40.4105 1.35569   2
   2   0  -7 52.2435 1.81147   3
   2   0  -7 53.7587 1.69978   4
   2   0  -7 52.5713 1.41937   1
   2   0  -7 52.3148 1.61549   2
   1   0  -7 41.5498 1.55740   4
   1   0  -7 41.4198 1.34606   1
   0   0  -7 145.272 3.34756   4
   0   0  -7 143.682 3.05412   1
  -1   0  -7 110.501 2.80315   1
   1   0   7 109.898 2.93223   5
  -2   0  -7 588.918 9.19816   1
   2   0   7 571.180 9.15382   5
  -3   0  -7 172.987 4.17424   1
   3   0   7 175.731 4.09950   5
  -4   0  -7 26.3204 1.65881   1
   4   0   7 27.5874 1.63674   5
  -5   0  -7 1.54002 0.63341   1
   5   0   7 1.93554 0.68758   5
  -6   0  -7 4.34380 1.03495   1
   6   0   7 7.35663 1.14359   5
  -7   0  -7 7.53990 1.37164   1
   9  -1  -7 4.56656 1.17908   3
   8  -1  -7 3.45497 0.97153   3
   7  -1  -7 2.55656 0.79244   3
   6  -1  -7 26.4824 1.60981   3
  -6   1   7 23.8407 1.14672   2
   5  -1  -7 124.104 2.39347   1
   5  -1  -7 126.409 2.52773   5
   5  -1  -7 124.791 3.45080   6
   5  -1  -7 124.071 3.30569   3
  -5   1   7 128.725 2.83648   2
   4  -1  -7 114.283 2.30138   4
   4  -1  -7 110.492 2.24797   1
   4  -1  -7 109.234 3.02932   6
   4  -1  -7 111.867 2.89778   3
   4  -1  -7 115.250 2.62961   5
  -4   1   7 109.787 2.61353   2
   3  -1  -7 24.6903 1.04248   4
   3  -1  -7 22.4175 1.25579   6
   3  -1  -7 21.9803 1.18282   3
  -3   1   7 22.0486 1.11597   2
   2  -1  -7 12.5419 0.84689   4
   2  -1  -7 12.9192 0.91134   3
  -2   1   7 10.4030 0.92864   2
   1  -1  -7 63.6133 1.83421   1
  -1   1   7 59.4006 1.96380   5
   0  -1  -7 381.088 6.31584   1
   0   1   7 388.899 6.51699   5
  -1  -1  -7 0.02492 0.30122   1
   1   1   7 0.21491 0.36122   5
  -2  -1  -7 29.9538 1.58029   1
   2   1   7 27.6867 1.52060   5
  -3  -1  -7 11.2243 1.30944   1
   3   1   7 12.5946 1.26721   5
  -4  -1  -7 119.594 3.68271   1
   4   1   7 125.095 3.58597   5
  -5  -1  -7 1.15082 0.63908   1
   5   1   7 1.01469 0.62912   5
  -6  -1  -7 0.95513 0.70951   1
   6   1   7 1.06521 0.62948   5
  -7  -1  -7 0.49888 0.70129   1
   7   1   7 0.55516 0.76232   5
   9  -2  -7 4.04085 1.08146   3
   8  -2  -7 72.9429 2.97000   3
   7  -2  -7 2.45513 0.75617   3
  -7   2   7 1.96961 0.55101   2
   6  -2  -7 327.230 6.34107   3
  -6   2   7 350.382 6.06830   2
   5  -2  -7 9.45306 1.01400   3
   5  -2  -7 9.43295 0.73610   5
   5  -2  -7 9.25637 1.07456   6
  -5   2   7 8.96159 0.93476   2
   4  -2  -7 13.0764 0.69598   4
   4  -2  -7 12.1221 0.78912   5
   4  -2  -7 13.7898 0.97500   3
   4  -2  -7 13.0982 1.15504   6
  -4   2   7 12.9104 0.95132   2
   3  -2  -7 9.81599 0.70925   4
   3  -2  -7 7.72674 0.78042   3
   3  -2  -7 10.8473 0.99762   6
  -3   2   7 9.00205 0.93870   2
   2  -2  -7 109.765 2.64865   6
   2  -2  -7 109.970 2.60611   3
  -2   2   7 105.585 2.82663   2
  -2   2   7 107.672 2.65630   5
  -1   2   7 41.1705 1.63955   5
  -1   2   7 43.6375 1.77071   2
   0  -2  -7 187.727 3.97155   1
   0   2   7 188.721 4.08419   5
  -1  -2  -7 8.56600 0.96073   1
   1   2   7 8.55848 1.00744   5
  -2  -2  -7 151.777 3.85610   1
   2   2   7 153.889 3.88944   5
  -3  -2  -7 13.9781 1.44351   1
   3   2   7 14.6507 1.43043   5
  -4  -2  -7 6.42610 1.06901   1
   4   2   7 6.67991 1.05333   5
  -5  -2  -7 7.59562 1.24584   1
   5   2   7 6.97862 1.17015   5
  -6  -2  -7 7.54313 1.27255   1
   6   2   7 8.41907 1.34965   5
   9  -3  -7 4.94996 1.09029   3
   8  -3  -7 7.33745 1.12461   3
  -8   3   7 6.59236 0.95369   2
   7  -3  -7 7.28635 1.03766   3
  -7   3   7 7.09370 0.97209   2
   6  -3  -7 11.1251 1.10788   3
  -6   3   7 12.6369 1.20085   2
   5  -3  -7 54.3035 1.90078   3
  -5   3   7 54.6482 2.06221   2
   4  -3  -7 10.3077 0.91144   3
   4  -3  -7 9.46236 0.99950   6
   4  -3  -7 7.83661 0.59231   4
  -4   3   7 9.71302 0.99609   2
   3  -3  -7 0.66816 0.35817   6
   3  -3  -7 0.35575 0.26599   3
  -3   3   7 0.18645 0.29372   5
  -3   3   7 0.40462 0.40873   2
   2  -3  -7 -0.1756 0.25125   6
   2  -3  -7 0.24881 0.25875   3
  -2   3   7 0.14864 0.35409   2
  -2   3   7 0.22284 0.33043   5
   1  -3  -7 64.4812 1.74407   6
  -1   3   7 60.9264 2.12403   5
  -1   3   7 62.1959 2.26521   2
   0  -3  -7 195.808 3.32332   6
   0   3   7 186.670 4.40453   2
   0   3   7 189.651 4.26958   5
  -1  -3  -7 295.704 5.84127   1
   1   3   7 287.766 5.78417   5
  -2  -3  -7 93.3248 3.02998   1
   2   3   7 92.6839 3.04977   5
  -3  -3  -7 4.54009 0.86553   1
   3   3   7 4.30991 0.88788   5
  -4  -3  -7 70.3320 2.95445   1
   4   3   7 63.6423 2.76796   5
  -5  -3  -7 2.24656 0.84362   1
   5   3   7 1.27512 0.74004   5
  -6  -3  -7 1.95827 0.85445   1
   6   3   7 2.04614 0.89066   5
   9  -4  -7 0.77902 0.68362   3
   8  -4  -7 11.6269 1.32664   3
  -8   4   7 13.7885 1.41278   2
   7  -4  -7 1.86577 0.61994   3
  -7   4   7 1.71360 0.63422   2
   6  -4  -7 216.585 4.38348   3
  -6   4   7 213.911 4.84140   2
   5  -4  -7 1.92472 0.47607   3
  -5   4   7 0.99432 0.51375   2
   4  -4  -7 98.2958 2.34799   3
  -4   4   7 102.523 3.03856   2
  -4   4   7 102.225 2.46701   5
   3  -4  -7 9.83962 0.71904   3
  -3   4   7 9.13743 1.03446   2
  -3   4   7 10.3972 0.97540   5
   2  -4  -7 217.880 3.86253   3
  -2   4   7 209.781 4.38894   5
  -2   4   7 215.941 4.82179   2
   1  -4  -7 124.767 2.55100   6
  -1   4   7 119.457 3.42250   2
  -1   4   7 122.710 3.27419   5
   0   4   7 41.5483 2.02114   2
   0   4   7 43.1672 1.96776   5
  -1  -4  -7 2.14343 0.64042   1
   1   4   7 3.23979 0.77019   5
  -2  -4  -7 0.82000 0.51307   1
   2   4   7 1.39015 0.65190   5
  -3  -4  -7 32.2420 1.96917   1
   3   4   7 31.4039 2.01423   5
  -4  -4  -7 1.44185 0.71543   1
   4   4   7 1.82714 0.75215   5
  -5  -4  -7 21.5486 2.08225   1
   5   4   7 27.7670 2.38159   5
  -9   5   7 21.6716 1.94113   2
  -8   5   7 0.04470 0.47990   2
   7  -5  -7 39.1362 1.72404   3
  -7   5   7 38.6303 2.07279   2
   6  -5  -7 22.9413 1.21333   3
  -6   5   7 23.5056 1.60072   2
   5  -5  -7 35.2556 1.31369   3
  -5   5   7 34.2035 1.36119   5
  -5   5   7 34.5344 1.88830   2
   4  -5  -7 57.1039 1.57118   3
  -4   5   7 56.4067 1.89893   5
  -4   5   7 56.4090 2.36008   2
   3  -5  -7 1.36244 0.33965   3
  -3   5   7 1.11758 0.49692   5
  -3   5   7 1.28963 0.59425   2
   2  -5  -7 25.0594 1.03103   3
  -2   5   7 26.1461 1.66956   2
  -2   5   7 23.8215 1.43284   5
  -1   5   7 294.698 6.20701   2
  -1   5   7 287.038 5.78168   5
   0   5   7 2.80033 0.79402   2
   0   5   7 3.21079 0.80347   5
  -1  -5  -7 46.2050 2.19237   1
   1   5   7 42.2371 2.15547   5
  -2  -5  -7 5.30713 1.01596   1
   2   5   7 3.08743 0.82422   5
  -3  -5  -7 8.89394 1.30503   1
   3   5   7 9.37311 1.35160   5
  -4  -5  -7 40.5564 2.43455   1
   4   5   7 37.5362 2.43203   5
  -5  -5  -7 -0.5481 0.58884   1
   5   5   7 0.59191 0.72827   5
  -9   6   7 3.10519 0.88529   2
  -8   6   7 0.40688 0.56690   2
  -7   6   7 8.64099 1.25687   2
  -6   6   7 142.569 4.16244   2
  -5   6   7 25.1445 1.78126   2
  -5   6   7 23.8172 1.23941   5
  -4   6   7 0.27245 0.47469   2
  -4   6   7 0.35592 0.38397   5
  -3   6   7 52.9703 2.08771   5
  -3   6   7 49.5784 2.34607   2
   2  -6  -7 3.32410 0.45668   3
  -2   6   7 3.40725 0.86037   2
  -2   6   7 3.90915 0.79114   5
  -1   6   7 54.2030 2.35393   5
  -1   6   7 56.0057 2.56059   2
   0   6   7 139.440 4.07140   5
   0   6   7 143.238 4.22410   2
  -1  -6  -7 7.67047 1.22073   1
   1   6   7 9.75486 1.35485   5
  -2  -6  -7 11.1340 1.44282   1
   2   6   7 13.2669 1.60939   5
  -3  -6  -7 45.1494 2.50523   1
   3   6   7 42.1132 2.51508   5
  -4  -6  -7 4.29270 1.09661   1
   4   6   7 4.81118 1.20294   5
  -9   7   7 14.7067 1.84817   2
  -8   7   7 5.85823 1.23864   2
  -7   7   7 54.8082 2.74269   2
  -6   7   7 2.18246 0.80993   2
  -5   7   7 126.973 3.15849   5
  -5   7   7 124.795 4.05133   2
  -4   7   7 0.41832 0.41167   5
  -4   7   7 0.02314 0.53001   2
  -3   7   7 63.8162 2.80599   2
  -3   7   7 66.6961 2.52245   5
  -2   7   7 20.7615 1.77554   5
  -2   7   7 19.9145 1.87405   2
  -1   7   7 166.578 4.75710   2
  -1   7   7 158.249 4.43607   5
   0   7   7 8.34523 1.28316   5
   0   7   7 11.0085 1.51616   2
  -1  -7  -7 3.90354 0.98816   1
   1   7   7 5.76069 1.10720   5
  -2  -7  -7 0.19535 0.56719   1
   2   7   7 1.22543 0.71136   5
  -3  -7  -7 23.5999 2.19237   1
   3   7   7 24.6111 2.40628   5
  -8   8   7 2.06424 0.93891   2
  -7   8   7 54.2500 2.84807   2
  -6   8   7 1.73020 0.78876   2
  -5   8   7 14.8775 1.78815   2
  -5   8   7 14.3804 1.35018   5
  -4   8   7 8.47300 1.10077   5
  -4   8   7 9.56906 1.37975   2
  -3   8   7 9.11357 1.41614   2
  -3   8   7 5.58392 0.97964   5
  -2   8   7 77.8781 3.32014   2
  -2   8   7 78.6969 3.04160   5
  -1   8   7 2.35280 0.90275   2
  -1   8   7 1.96062 0.75980   5
   0   8   7 0.01332 0.63001   5
   0   8   7 0.38326 0.65731   2
  -1  -8  -7 28.5813 2.05037   1
   1   8   7 29.0499 2.61470   5
  -2  -8  -7 6.99061 1.38752   1
   2   8   7 10.5442 1.60954   5
  -7   9   7 74.1172 3.52063   2
  -6   9   7 48.5703 2.84350   2
  -5   9   7 10.2708 1.48626   2
  -5   9   7 10.8650 1.23384   5
  -4   9   7 24.2067 2.32884   2
  -4   9   7 23.8440 1.94202   5
  -3   9   7 10.3507 1.35503   5
  -3   9   7 8.20864 1.44063   2
  -2   9   7 -0.3260 0.58479   2
  -2   9   7 1.21599 0.72107   5
  -1   9   7 135.191 4.63772   2
  -1   9   7 132.726 4.44626   5
   0   9   7 3.47409 1.10919   2
   0   9   7 3.23182 1.00111   5
  -1  -9  -7 23.3728 2.31963   1
   1   9   7 19.9366 2.18147   5
  -6  10   7 39.6640 2.78619   2
  -5  10   7 3.29519 1.11110   2
  -4  10   7 -0.0168 0.75738   2
  -4  10   7 0.80312 0.65168   5
  -3  10   7 16.1128 2.04910   2
  -3  10   7 19.4363 1.94263   5
  -2  10   7 100.688 4.15769   2
  -2  10   7 97.5638 3.81223   5
  -1  10   7 12.4816 1.67283   5
  -1  10   7 18.0454 2.10608   2
   0  11  -8 11.3940 1.96190   4
  -1  11  -8 6.43716 1.36563   4
  -2  11  -8 38.5981 2.63423   4
  -3  11  -8 6.96884 1.39221   4
  -4  11  -8 0.97289 0.74013   4
   2  10  -8 1.87563 0.93160   4
   2  10  -8 2.40058 0.90072   3
   1  10  -8 -0.7598 0.62701   4
   1  10  -8 -0.4584 0.53759   3
   0  10  -8 16.4751 1.64238   3
   0  10  -8 22.2038 2.21885   4
  -1  10  -8 30.1394 1.91073   3
  -1  10  -8 34.5255 2.33833   4
  -2  10  -8 30.9687 1.87012   3
  -2  10  -8 31.6402 2.28768   4
  -3  10  -8 9.61073 1.45358   4
  -3  10  -8 7.86142 1.12917   3
  -4  10  -8 10.9009 1.64680   4
  -4  10  -8 9.30480 1.38149   1
  -4  10  -8 10.7805 1.34408   3
  -5  10  -8 57.3386 3.02521   4
  -5  10  -8 53.5812 2.58822   3
  -5  10  -8 54.8097 2.86723   1
   3   9  -8 29.7192 2.59610   4
   3   9  -8 34.8678 2.31523   3
   2   9  -8 52.5734 2.86024   4
   2   9  -8 49.1325 2.59732   3
   1   9  -8 3.24830 0.87391   3
   1   9  -8 2.85155 0.97115   4
   0   9  -8 59.4553 2.57095   3
   0   9  -8 55.8596 2.84750   4
  -1   9  -8 29.5394 2.12301   4
  -1   9  -8 29.4556 1.82452   3
  -2   9  -8 2.38923 0.70663   3
  -2   9  -8 3.61306 0.98019   4
  -3   9  -8 51.0062 2.37280   1
  -3   9  -8 47.9691 2.61319   4
  -3   9  -8 46.8216 2.27568   3
  -4   9  -8 0.24679 0.61013   4
  -4   9  -8 1.41035 0.68019   3
  -4   9  -8 0.27680 0.58525   1
  -5   9  -8 10.4463 1.54625   4
  -5   9  -8 10.3136 1.46329   1
  -6   9  -8 16.2159 1.91634   4
  -6   9  -8 15.9194 1.87985   1
   4   8  -8 0.49386 0.73462   4
   4   8  -8 2.16590 0.84206   3
   3   8  -8 12.2142 1.50481   3
   3   8  -8 10.9802 1.57873   4
   2   8  -8 14.9903 1.65314   3
   2   8  -8 13.0600 1.59866   4
   1   8  -8 0.81761 0.66298   4
   1   8  -8 2.28683 0.71809   3
   0   8  -8 1.66751 0.68431   3
   0   8  -8 0.94214 0.67467   4
  -1   8  -8 72.7832 3.06046   4
  -1   8  -8 72.8761 2.73541   3
  -2   8  -8 5.84053 0.98252   1
  -2   8  -8 4.06884 0.92237   4
  -2   8  -8 3.36287 0.76857   3
  -3   8  -8 34.4083 2.15657   4
  -3   8  -8 36.4703 1.96340   1
  -3   8  -8 36.0305 1.97164   3
  -4   8  -8 19.0199 1.74450   1
  -4   8  -8 16.5169 1.77924   4
  -5   8  -8 263.044 6.42685   4
  -5   8  -8 263.010 6.23344   1
  -6   8  -8 36.0527 2.35505   1
  -6   8  -8 32.8856 2.24826   4
  -7   8  -8 1.48852 0.86763   4
  -7   8  -8 1.81233 0.95274   1
   5   7  -8 2.52936 0.80920   6
   5   7  -8 2.65660 0.94093   4
   5   7  -8 4.95958 1.17000   3
   4   7  -8 0.35984 0.69291   3
   4   7  -8 0.86270 0.67210   4
   3   7  -8 30.0028 2.04563   4
   3   7  -8 32.1215 2.03487   3
   2   7  -8 18.7873 1.71226   3
   2   7  -8 14.6371 1.60259   4
   1   7  -8 29.4408 1.92507   4
   1   7  -8 28.1269 1.78051   3
   0   7  -8 39.6851 2.17601   4
   0   7  -8 35.7954 1.91486   3
  -1   7  -8 0.46285 0.48230   3
  -1   7  -8 0.55429 0.53267   4
  -1   7  -8 -0.3362 0.31317   1
  -2   7  -8 0.24954 0.47965   4
  -2   7  -8 0.44912 0.48434   1
  -2   7  -8 -0.1089 0.40949   3
  -3   7  -8 99.0858 3.48948   4
  -3   7  -8 96.3541 3.10272   1
  -4   7  -8 28.3386 1.93943   4
  -4   7  -8 26.1784 1.77738   1
  -5   7  -8 -0.3365 0.52086   1
  -5   7  -8 -0.6167 0.47525   4
  -6   7  -8 25.6935 2.22118   1
  -6   7  -8 28.1729 2.03500   4
  -7   7  -8 51.9146 2.78501   4
  -7   7  -8 56.8632 3.03404   1
   6   6  -8 -0.2346 0.67824   3
   6   6  -8 0.44347 0.56838   6
   5   6  -8 21.8079 1.90797   6
   5   6  -8 22.8121 2.01628   4
   5   6  -8 22.5548 2.08734   3
   4   6  -8 48.5249 2.49375   3
   4   6  -8 44.2283 2.29584   4
   3   6  -8 105.837 3.52274   3
   3   6  -8 100.001 3.41079   4
   2   6  -8 4.72366 0.96128   4
   2   6  -8 5.91113 1.02346   3
   1   6  -8 9.52153 1.18198   4
   1   6  -8 10.5654 1.27354   3
   0   6  -8 89.0812 3.09970   4
   0   6  -8 93.9672 2.31806   1
   0   6  -8 91.0575 2.98945   3
  -1   6  -8 26.8012 1.35588   1
  -1   6  -8 27.8930 1.64345   3
  -1   6  -8 29.6660 1.79442   4
  -2   6  -8 1.51464 0.53366   1
  -2   6  -8 1.56209 0.63270   4
  -3   6  -8 28.1720 1.85006   4
  -3   6  -8 31.3269 1.69424   1
  -4   6  -8 47.9544 2.28200   1
  -4   6  -8 48.5315 2.38861   4
  -5   6  -8 82.2197 3.16614   1
  -5   6  -8 78.1161 3.11049   4
  -6   6  -8 20.3803 2.01010   1
  -6   6  -8 18.2812 1.88952   4
  -7   6  -8 4.07400 1.02099   4
  -7   6  -8 4.01918 1.14620   1
   6   5  -8 5.08351 1.02400   6
   6   5  -8 6.47419 1.29608   3
   6   5  -8 7.37009 1.21891   4
   5   5  -8 5.31605 1.10706   3
   5   5  -8 6.01189 1.02153   6
   5   5  -8 5.52111 1.01292   4
   4   5  -8 16.8603 1.65350   3
   4   5  -8 14.7174 1.48393   4
   3   5  -8 0.35331 0.50064   4
   3   5  -8 -0.0656 0.42774   3
   2   5  -8 5.47523 0.92179   4
   2   5  -8 5.73551 0.91452   3
   1   5  -8 4.46037 0.49432   1
   1   5  -8 3.01757 0.72400   4
   1   5  -8 4.30768 0.82007   3
  -1  -5   8 4.35312 0.50727   1
   0   5  -8 13.2455 0.88118   1
   0   5  -8 13.4691 1.37306   4
   0   5  -8 12.1994 1.25070   3
  -1   5  -8 2.94032 0.72899   4
  -1   5  -8 3.98570 0.63700   1
  -2   5  -8 125.363 3.61982   4
  -2   5  -8 123.007 3.18950   1
  -3   5  -8 116.335 3.60343   4
  -3   5  -8 111.731 3.23404   1
  -4   5  -8 357.329 6.93816   1
  -4   5  -8 352.618 7.29251   4
  -5   5  -8 79.9622 3.11112   4
  -5   5  -8 79.1608 3.03368   1
  -6   5  -8 5.41146 1.09152   1
  -6   5  -8 4.96623 1.05128   4
  -7   5  -8 0.46464 0.65530   4
  -7   5  -8 -0.3302 0.57610   1
   7   4  -8 -0.1164 0.52957   6
   7   4  -8 -0.0953 0.65991   3
   6   4  -8 1.12292 0.64474   6
   6   4  -8 0.67425 0.63724   3
   6   4  -8 0.65646 0.56921   4
   5   4  -8 14.4259 1.49861   6
   5   4  -8 11.8687 1.47941   3
   5   4  -8 14.1676 1.39387   4
   4   4  -8 43.3113 1.97964   4
   4   4  -8 43.1470 2.19980   3
   3   4  -8 158.086 4.17911   3
   3   4  -8 163.649 4.00740   4
   2   4  -8 5.33184 0.83412   3
   2   4  -8 5.58420 0.87147   4
   1   4  -8 120.166 2.60422   2
   1   4  -8 120.335 3.34904   4
   1   4  -8 122.483 3.38526   3
   1   4  -8 120.742 2.34051   1
  -1  -4   8 120.112 2.32557   1
   0   4  -8 136.553 3.57892   3
   0   4  -8 134.083 3.61952   4
   0   4  -8 131.884 2.80322   1
  -1   4  -8 95.9884 2.52353   1
  -1   4  -8 95.1335 3.00974   4
  -2   4  -8 81.7173 2.87511   4
  -2   4  -8 89.8438 2.62829   1
  -3   4  -8 19.5351 1.35855   1
  -3   4  -8 22.1511 1.55812   4
  -4   4  -8 58.0721 2.43296   1
  -4   4  -8 60.3310 2.59914   4
  -5   4  -8 33.7873 2.03365   1
  -5   4  -8 33.2225 2.01878   4
  -6   4  -8 100.874 3.61003   4
  -6   4  -8 94.4941 3.57083   1
  -7   4  -8 6.31953 1.21936   1
  -7   4  -8 4.69367 1.06924   4
   7   3  -8 2.05117 0.77306   6
   7   3  -8 0.59224 0.77879   3
   6   3  -8 54.1483 2.18636   4
   6   3  -8 51.2125 2.58876   3
   6   3  -8 50.4112 2.43023   6
   5   3  -8 25.3686 1.46883   4
   5   3  -8 24.8961 1.76594   3
   5   3  -8 27.1381 1.74661   6
   4   3  -8 11.6297 1.14290   4
   4   3  -8 10.7168 1.29412   3
   3   3  -8 0.18087 0.35821   4
   3   3  -8 -0.1046 0.40038   3
   2   3  -8 5.49662 0.87481   3
   2   3  -8 6.45704 0.87433   4
   2   3  -8 7.25835 0.62806   2
   1   3  -8 29.3576 1.53853   4
   1   3  -8 29.2739 1.05203   1
   1   3  -8 31.4136 1.60429   3
   0   3  -8 0.72213 0.43967   4
   0   3  -8 0.19919 0.27798   1
  -1   3  -8 35.1026 1.47945   1
  -1   3  -8 32.9401 1.70732   4
  -2   3  -8 366.109 6.51236   1
  -2   3  -8 380.399 7.16254   4
  -3   3  -8 16.6745 1.41601   1
  -3   3  -8 17.7271 1.66959   4
  -4   3  -8 136.530 3.98275   4
  -4   3  -8 140.691 3.90786   1
  -5   3  -8 9.50422 1.29802   1
  -5   3  -8 10.7918 1.32511   4
  -6   3  -8 12.3833 1.61181   1
  -6   3  -8 12.0647 1.49065   4
  -7   3  -8 -0.2251 0.52777   4
  -7   3  -8 0.68053 0.68374   1
   8   2  -8 9.22513 1.61747   3
   7   2  -8 -0.4238 0.46974   3
   7   2  -8 0.60424 0.59242   6
   6   2  -8 -0.0350 0.50229   3
   6   2  -8 -0.2479 0.44213   6
   5   2  -8 57.6764 1.96412   4
   5   2  -8 56.2328 2.49673   3
   5   2  -8 55.2042 2.38381   6
   4   2  -8 24.2531 1.28624   4
   4   2  -8 22.8741 1.50055   6
   4   2  -8 19.5336 1.42853   3
   3   2  -8 121.240 3.04591   4
   3   2  -8 123.116 3.40187   3
   2   2  -8 9.54315 1.05627   3
   2   2  -8 9.05249 0.67010   2
   2   2  -8 10.0016 0.55121   1
   2   2  -8 9.05382 0.97506   4
   1   2  -8 0.85318 0.42613   4
   1   2  -8 1.94284 0.35709   1
   1   2  -8 0.63768 0.40291   3
   0   2  -8 70.7553 2.40138   4
   0   2  -8 74.8730 2.03298   1
  -1   2  -8 10.5828 1.14067   4
  -1   2  -8 11.1976 1.01953   1
  -2   2  -8 145.133 3.51471   1
  -2   2  -8 146.975 3.87602   4
  -3   2  -8 207.434 4.69600   1
  -3   2  -8 208.512 4.95321   4
  -4   2  -8 8.61835 1.16693   1
  -4   2  -8 7.30403 1.09081   4
  -5   2  -8 12.0762 1.47087   1
  -5   2  -8 10.4642 1.36617   4
  -6   2  -8 20.7458 1.93211   4
  -6   2  -8 23.5917 2.19745   1
  -7   2  -8 3.77163 1.03560   1
  -7   2  -8 3.79895 1.03285   4
   8   1  -8 5.65583 1.29006   3
   7   1  -8 3.98019 0.93989   6
   7   1  -8 3.78037 0.89164   3
   6   1  -8 79.2415 2.95927   6
   6   1  -8 75.0477 2.93490   3
   5   1  -8 1.09868 0.55671   6
   5   1  -8 0.86621 0.41188   4
   5   1  -8 0.44170 0.49345   3
   4   1  -8 166.665 4.07895   3
   4   1  -8 161.787 4.03926   6
   4   1  -8 170.150 3.50038   4
   3   1  -8 69.0935 2.36926   3
   3   1  -8 67.5831 2.07526   4
   3   1  -8 70.2463 1.79896   2
   2   1  -8 343.103 6.21060   3
   2   1  -8 344.563 5.09972   1
   2   1  -8 336.751 5.95631   4
   1   1  -8 195.138 4.20792   4
   1   1  -8 202.014 3.64926   1
   1   1  -8 204.242 4.35459   3
   0   1  -8 172.828 3.98008   4
   0   1  -8 178.588 3.56175   1
  -1   1  -8 3.83540 0.72968   4
  -1   1  -8 3.86826 0.70154   1
  -2   1  -8 144.241 3.59944   1
  -2   1  -8 149.405 3.90726   4
  -3   1  -8 107.537 3.22456   1
  -3   1  -8 109.622 3.38353   4
  -4   1  -8 5.39299 1.02037   4
  -4   1  -8 4.77244 0.89938   1
  -5   1  -8 10.4640 1.42798   4
  -5   1  -8 13.7806 1.52580   1
  -6   1  -8 30.1921 2.10993   1
  -6   1  -8 28.1428 1.99014   4
  -7   1  -8 41.0927 2.52180   4
  -7   1  -8 38.5358 2.56587   1
   9   0  -8 36.2918 2.51957   3
   8   0  -8 17.8921 1.94056   3
   7   0  -8 10.4029 1.32913   3
   6   0  -8 15.7286 1.57423   3
   6   0  -8 20.8352 1.77857   6
   5   0  -8 44.4929 2.03559   3
   5   0  -8 46.5772 1.46841   4
   5   0  -8 46.2996 2.10641   6
  -5   0   8 44.5896 1.42505   2
   4   0  -8 61.7763 2.32976   6
   4   0  -8 63.8990 1.75653   2
   4   0  -8 67.2035 1.87366   4
   4   0  -8 60.1768 2.23819   3
  -4   0   8 63.1349 1.79476   2
   3   0  -8 5.55569 0.55472   1
   3   0  -8 4.37367 0.71413   3
   3   0  -8 6.31011 0.74511   4
   2   0  -8 0.29603 0.32781   4
   2   0  -8 0.65094 0.30882   1
   2   0  -8 1.36107 0.44080   3
   1   0  -8 158.575 3.65362   4
   1   0  -8 165.719 3.28143   1
   0   0  -8 6.82564 0.79117   1
   0   0  -8 5.95791 0.88751   4
  -1   0  -8 561.307 8.91156   1
  -2   0  -8 1.76602 0.57119   1
   2   0   8 1.76032 0.62247   5
  -3   0  -8 58.8343 2.39821   1
   3   0   8 56.7482 2.36074   5
  -4   0  -8 24.1904 1.68838   1
   4   0   8 24.7921 1.68997   5
  -5   0  -8 72.9016 3.04962   1
   5   0   8 73.5277 2.90045   5
  -6   0  -8 7.08733 1.31298   1
  -7   0  -8 0.09664 0.73147   1
   9  -1  -8 0.22355 0.65063   3
   8  -1  -8 0.77017 0.61083   3
   7  -1  -8 13.3591 1.48465   3
   6  -1  -8 2.48098 0.73668   6
   6  -1  -8 2.00786 0.64511   3
  -6   1   8 1.47976 0.45224   2
   5  -1  -8 0.32956 0.44254   6
   5  -1  -8 -0.0635 0.37415   3
   5  -1  -8 0.22751 0.25685   4
  -5   1   8 0.23001 0.33921   2
   4  -1  -8 260.181 4.24277   1
   4  -1  -8 257.791 4.44229   4
   4  -1  -8 255.004 5.08719   3
   4  -1  -8 255.786 5.27000   6
  -4   1   8 262.245 4.79177   2
   3  -1  -8 187.820 3.99487   3
   3  -1  -8 182.640 4.05257   6
   3  -1  -8 180.308 3.63557   4
  -3   1   8 182.824 3.81600   2
   2  -1  -8 8.31289 0.92291   3
   2  -1  -8 7.67564 0.75531   1
   2  -1  -8 5.83853 0.74185   4
  -2   1   8 8.14056 0.88775   2
   1  -1  -8 295.918 5.22238   1
   1  -1  -8 295.461 5.53042   4
   0  -1  -8 91.4479 2.56277   1
   0   1   8 94.5696 2.79652   5
  -1  -1  -8 12.1484 1.15645   1
   1   1   8 11.4481 1.15782   5
  -2  -1  -8 123.743 3.48664   1
   2   1   8 118.942 3.41995   5
  -3  -1  -8 25.6852 1.65600   1
   3   1   8 22.1613 1.55262   5
  -4  -1  -8 -0.1410 0.35712   1
   4   1   8 -0.0188 0.47870   5
  -5  -1  -8 7.16112 1.21660   1
   5   1   8 4.93048 1.03187   5
  -6  -1  -8 -0.3361 0.58668   1
   6   1   8 1.27927 0.72133   5
   9  -2  -8 14.7000 1.73397   3
   8  -2  -8 1.00671 0.60478   3
   7  -2  -8 55.7177 2.41533   3
  -7   2   8 51.6333 1.96002   2
   6  -2  -8 17.7840 1.55105   3
  -6   2   8 16.1727 1.15387   2
   5  -2  -8 8.35795 0.99869   3
   5  -2  -8 5.09192 0.88316   6
  -5   2   8 6.04822 0.82100   2
   4  -2  -8 8.23341 0.72690   4
   4  -2  -8 8.55081 0.99512   6
   4  -2  -8 9.53898 0.98252   3
  -4   2   8 9.60390 0.99721   2
   3  -2  -8 295.450 5.33205   3
   3  -2  -8 305.510 5.16749   4
   3  -2  -8 286.425 5.43334   6
  -3   2   8 293.453 5.56888   2
   2  -2  -8 14.6546 1.01621   6
   2  -2  -8 15.6129 1.04691   3
  -2   2   8 16.5635 1.12873   5
  -2   2   8 16.0950 1.16724   2
   1  -2  -8 0.41112 0.34920   1
  -1   2   8 0.73592 0.42205   5
   0  -2  -8 0.81425 0.44928   1
   0   2   8 -0.0122 0.38795   5
  -1  -2  -8 350.347 6.59800   1
   1   2   8 364.935 6.77793   5
  -2  -2  -8 22.9067 1.55448   1
   2   2   8 23.4408 1.61581   5
  -3  -2  -8 3.66076 0.84056   1
   3   2   8 4.73610 0.96086   5
  -4  -2  -8 8.51398 1.24896   1
   4   2   8 8.27633 1.26438   5
  -5  -2  -8 81.0069 3.42690   1
   5   2   8 92.2393 3.44104   5
  -6  -2  -8 30.2566 2.54956   1
   6   2   8 33.4584 2.27442   5
   9  -3  -8 12.9297 1.55936   3
   8  -3  -8 1.12121 0.63786   3
   7  -3  -8 39.1673 1.95758   3
  -7   3   8 36.5771 1.81231   2
   6  -3  -8 36.7910 1.73968   3
  -6   3   8 36.4629 1.76536   2
   5  -3  -8 55.5767 1.99356   3
  -5   3   8 52.5233 2.09778   2
   4  -3  -8 3.93387 0.64947   3
   4  -3  -8 3.72139 0.53159   4
   4  -3  -8 3.72646 0.69366   6
  -4   3   8 4.48541 0.80522   2
   3  -3  -8 5.71913 0.70370   3
   3  -3  -8 5.23548 0.73011   6
  -3   3   8 6.83235 0.84908   5
  -3   3   8 5.30803 0.83374   2
   2  -3  -8 171.111 3.58189   6
   2  -3  -8 169.362 3.56679   3
  -2   3   8 164.473 3.80073   5
  -2   3   8 173.763 4.14763   2
   1  -3  -8 41.7741 1.47622   6
  -1   3   8 39.6288 1.93232   2
  -1   3   8 41.6789 1.88189   5
   0  -3  -8 144.804 3.71386   1
   0  -3  -8 149.920 2.93138   6
   0   3   8 150.145 3.87526   5
  -1  -3  -8 -0.3147 0.21544   6
  -1  -3  -8 -0.1047 0.37499   1
   1   3   8 -0.0514 0.38507   5
  -2  -3  -8 -0.1614 0.38364   1
   2   3   8 0.17338 0.47495   5
  -3  -3  -8 2.06518 0.67168   1
   3   3   8 0.89991 0.63617   5
  -4  -3  -8 41.8147 2.41415   1
   4   3   8 50.0683 2.55255   5
  -5  -3  -8 8.57144 1.47417   1
   5   3   8 10.5617 1.50631   5
   8  -4  -8 12.7491 1.41014   3
  -8   4   8 13.6044 1.43652   2
   7  -4  -8 20.0885 1.42282   3
  -7   4   8 19.7757 1.68566   2
   6  -4  -8 31.3304 1.55307   3
  -6   4   8 30.6742 1.77839   2
   5  -4  -8 102.547 2.66422   3
  -5   4   8 97.1705 3.11522   2
   4  -4  -8 199.867 3.88445   3
  -4   4   8 201.917 4.06584   5
  -4   4   8 192.880 4.62903   2
   3  -4  -8 49.2229 1.64152   3
  -3   4   8 50.1839 1.91052   5
  -3   4   8 49.3562 2.20355   2
   2  -4  -8 112.469 2.63991   3
   2  -4  -8 107.353 2.65933   6
  -2   4   8 106.825 3.32815   2
  -2   4   8 102.387 3.00182   5
   1  -4  -8 52.7323 1.62062   6
  -1   4   8 52.5333 2.32276   2
  -1   4   8 55.0999 2.25102   5
   0  -4  -8 15.6882 0.79326   6
   0   4   8 14.7550 1.41883   5
  -1  -4  -8 144.761 4.07826   1
   1   4   8 144.212 4.09352   5
  -2  -4  -8 14.4947 1.51961   1
   2   4   8 17.1453 1.69891   5
  -3  -4  -8 3.38833 0.94429   1
   3   4   8 4.74661 1.01805   5
  -4  -4  -8 15.9601 1.88682   1
   4   4   8 19.2494 2.03350   5
  -5  -4  -8 10.2719 1.55241   1
   5   4   8 7.44776 1.36792   5
  -8   5   8 -0.0660 0.51819   2
  -7   5   8 6.18793 1.10870   2
   6  -5  -8 7.32004 0.86295   3
  -6   5   8 11.9003 1.40300   2
   5  -5  -8 6.07719 0.72713   3
  -5   5   8 5.62681 0.76178   5
  -5   5   8 4.44010 0.88578   2
   4  -5  -8 64.5213 1.81411   3
  -4   5   8 61.5999 2.58151   2
  -4   5   8 62.0850 2.14069   5
   3  -5  -8 1.45699 0.39434   3
  -3   5   8 1.72718 0.58357   5
  -3   5   8 1.58964 0.67039   2
   2  -5  -8 95.0457 2.37175   3
  -2   5   8 102.035 3.10192   5
  -2   5   8 102.097 3.37962   2
  -1   5   8 28.3470 1.84674   2
  -1   5   8 27.5199 1.72270   5
   0   5   8 189.235 4.96314   2
   0   5   8 182.826 4.71681   5
  -1  -5  -8 0.26980 0.47400   1
   1   5   8 -0.2533 0.46260   5
  -2  -5  -8 26.6105 1.83900   1
   2   5   8 25.2161 2.17692   5
  -3  -5  -8 -0.0441 0.58222   1
   3   5   8 0.30218 0.62108   5
  -4  -5  -8 59.0096 3.09913   1
   4   5   8 57.4025 3.06823   5
  -9   6   8 0.57662 0.62593   2
  -8   6   8 27.8441 2.01079   2
  -7   6   8 1.80920 0.77855   2
  -6   6   8 0.88427 0.65096   2
  -5   6   8 2.03050 0.77543   2
  -5   6   8 1.40365 0.49664   5
  -4   6   8 55.9642 2.60704   2
  -4   6   8 54.8325 2.14514   5
  -3   6   8 14.0695 1.61018   2
  -3   6   8 14.1875 1.38247   5
   2  -6  -8 45.1333 1.51220   3
  -2   6   8 45.0701 2.14162   5
  -2   6   8 48.5371 2.43261   2
  -1   6   8 12.3541 1.45299   2
  -1   6   8 14.8992 1.56166   5
   0   6   8 13.2936 1.59762   2
   0   6   8 14.5019 1.61046   5
  -1  -6  -8 0.79106 0.60712   1
   1   6   8 0.99029 0.62947   5
  -2  -6  -8 10.5831 1.49842   1
   2   6   8 11.5229 1.55904   5
  -3  -6  -8 10.3144 1.50854   1
   3   6   8 11.5933 1.70849   5
  -8   7   8 3.07493 1.00619   2
  -7   7   8 25.3224 2.27281   2
  -6   7   8 3.56097 0.94699   2
  -5   7   8 38.7778 1.80355   5
  -5   7   8 38.3820 2.32766   2
  -4   7   8 22.3946 2.07854   2
  -4   7   8 18.7411 1.58454   5
  -3   7   8 2.93710 0.93082   2
  -3   7   8 0.36210 0.52843   5
  -2   7   8 8.20190 1.19303   5
  -2   7   8 7.91630 1.29479   2
  -1   7   8 9.63258 1.44730   2
  -1   7   8 11.3066 1.44622   5
   0   7   8 99.1632 3.73369   2
   0   7   8 91.3829 3.51953   5
  -1  -7  -8 0.89206 0.59708   1
   1   7   8 0.69601 0.63027   5
  -2  -7  -8 2.12231 0.89518   1
   2   7   8 2.00749 0.90918   5
  -8   8   8 0.89406 0.71394   2
  -7   8   8 0.29413 0.72218   2
  -6   8   8 -0.3724 0.56853   2
  -5   8   8 1.14038 0.55001   5
  -5   8   8 1.36120 0.84380   2
  -4   8   8 2.90318 0.78431   5
  -4   8   8 2.93499 1.01142   2
  -3   8   8 46.0830 2.71293   2
  -3   8   8 56.4013 2.54512   5
  -2   8   8 45.4268 2.44304   5
  -2   8   8 41.6722 2.57523   2
  -1   8   8 15.7140 1.80210   5
  -1   8   8 20.4211 2.05680   2
   0   8   8 2.38483 0.92481   5
   0   8   8 2.00079 0.92966   2
  -1  -8  -8 26.5092 2.44481   1
   1   8   8 29.5206 2.62297   5
  -7   9   8 32.2769 2.83447   2
  -6   9   8 6.44195 1.39032   2
  -5   9   8 21.6139 1.83210   5
  -5   9   8 24.4838 2.37322   2
  -4   9   8 4.43743 0.96769   5
  -4   9   8 3.84941 1.11245   2
  -3   9   8 2.28849 0.82121   5
  -3   9   8 2.20743 0.95505   2
  -2   9   8 21.2943 2.27924   2
  -2   9   8 22.0974 2.08634   5
  -1   9   8 6.73119 1.33509   5
  -1   9   8 5.14095 1.27673   2
   0   9   8 0.67398 0.73490   5
  -5  10   8 0.90502 0.77806   2
  -4  10   8 0.29750 0.63525   5
  -4  10   8 -0.1796 0.76414   2
  -3  10   8 33.8582 2.33050   5
  -3  10   8 36.8151 2.67244   2
  -2  10   8 0.25157 0.77970   5
  -2  10   8 -0.3755 0.71854   2
   1  10  -9 -0.1616 0.64795   3
   1  10  -9 0.82267 0.87487   4
   0  10  -9 20.9323 1.93373   3
   0  10  -9 22.7244 2.25822   4
  -1  10  -9 10.5583 1.40642   3
  -1  10  -9 10.6119 1.56370   4
  -2  10  -9 -0.0426 0.68325   4
  -3  10  -9 1.91254 0.76373   3
  -3  10  -9 1.39940 0.82625   4
  -4  10  -9 10.9648 1.67627   4
  -4  10  -9 13.6926 1.68801   1
  -4  10  -9 11.7433 1.47565   3
   3   9  -9 0.91075 0.86291   4
   3   9  -9 1.14619 0.76914   3
   2   9  -9 20.2632 2.16941   4
   2   9  -9 17.7507 1.87662   3
   1   9  -9 9.34147 1.37585   3
   1   9  -9 12.3133 1.73779   4
   0   9  -9 28.4104 1.95404   3
   0   9  -9 27.0591 2.43073   4
  -1   9  -9 3.01820 0.98794   4
  -1   9  -9 3.26588 0.83721   3
  -2   9  -9 75.3564 2.99518   3
  -2   9  -9 72.8886 3.31937   4
  -3   9  -9 1.68057 0.80649   4
  -3   9  -9 1.19119 0.68012   3
  -3   9  -9 2.43007 0.76480   1
  -4   9  -9 -0.3123 0.49527   1
  -4   9  -9 0.53209 0.69169   4
  -4   9  -9 0.00272 0.54658   3
  -5   9  -9 3.36257 0.98856   1
  -5   9  -9 3.30401 1.00477   4
   4   8  -9 17.2947 1.93741   3
   4   8  -9 16.6734 1.94157   4
   3   8  -9 0.71634 0.71614   4
   3   8  -9 1.52614 0.80482   3
   2   8  -9 27.1031 1.94821   3
   2   8  -9 31.1957 2.19201   4
   1   8  -9 9.31552 1.30733   3
   1   8  -9 10.9672 1.53176   4
   0   8  -9 0.42373 0.61388   4
   0   8  -9 0.26825 0.51646   3
  -1   8  -9 7.61791 1.15753   3
  -1   8  -9 7.04339 1.21061   4
  -1   8  -9 7.16901 0.94199   1
  -2   8  -9 20.2484 1.64888   1
  -2   8  -9 19.6703 1.97048   4
  -2   8  -9 21.1077 1.82095   3
  -3   8  -9 23.4019 2.14154   4
  -3   8  -9 23.4728 1.73369   3
  -3   8  -9 26.1510 1.73692   1
  -4   8  -9 55.7781 2.60470   1
  -4   8  -9 59.2390 2.90820   4
  -5   8  -9 0.37419 0.59480   4
  -5   8  -9 -0.1445 0.61804   1
  -6   8  -9 18.7932 2.02688   1
  -6   8  -9 20.1076 2.08645   4
   5   7  -9 3.29190 1.03817   4
   5   7  -9 2.41579 0.97591   3
   5   7  -9 2.92428 0.94620   6
   4   7  -9 2.83436 0.94266   3
   4   7  -9 1.48845 0.76915   4
   3   7  -9 23.1152 2.08377   3
   3   7  -9 21.5436 2.00343   4
   2   7  -9 0.68373 0.60763   4
   2   7  -9 0.09958 0.57634   3
   1   7  -9 100.753 3.46570   3
   1   7  -9 104.091 3.63323   4
   0   7  -9 53.0183 2.56657   4
   0   7  -9 48.9920 2.32504   3
  -1   7  -9 10.4629 1.25221   3
  -1   7  -9 8.86824 1.00389   1
  -1   7  -9 10.0666 1.38119   4
  -2   7  -9 53.4742 2.17893   1
  -2   7  -9 54.3375 2.60814   4
  -2   7  -9 53.0993 2.42255   3
  -3   7  -9 3.39104 0.96865   4
  -3   7  -9 4.34541 0.87850   1
  -4   7  -9 3.45570 0.92192   1
  -4   7  -9 1.33014 0.77682   4
  -5   7  -9 1.43272 0.74966   4
  -5   7  -9 0.79296 0.69118   1
  -6   7  -9 18.2968 1.96396   1
  -6   7  -9 16.0982 1.88166   4
   6   6  -9 -0.3072 0.56472   6
   5   6  -9 6.67984 1.17773   6
   5   6  -9 6.87241 1.25899   4
   5   6  -9 6.48148 1.24671   3
   4   6  -9 6.74921 1.20345   3
   4   6  -9 10.7290 1.39483   4
   3   6  -9 2.09566 0.75047   3
   3   6  -9 1.19111 0.61928   4
   2   6  -9 3.88541 0.87163   3
   2   6  -9 3.80357 0.88813   4
   1   6  -9 111.226 3.64617   4
   1   6  -9 123.974 3.73902   3
   0   6  -9 37.0625 1.45139   1
   0   6  -9 36.8546 2.07092   4
   0   6  -9 35.0043 1.93852   3
  -1   6  -9 47.0395 2.36993   4
  -1   6  -9 50.3415 1.89548   1
  -1   6  -9 51.1302 2.32592   3
  -2   6  -9 0.62097 0.51275   4
  -2   6  -9 1.69179 0.54553   1
  -3   6  -9 21.2140 1.91175   4
  -3   6  -9 20.8106 1.71267   1
  -4   6  -9 51.6172 2.45822   1
  -4   6  -9 58.7570 2.72724   4
  -5   6  -9 20.2210 1.91293   1
  -5   6  -9 22.7036 2.07636   4
  -6   6  -9 0.24959 0.65220   4
  -6   6  -9 0.08116 0.63766   1
  -7   6  -9 33.2355 2.92685   1
  -7   6  -9 32.0867 2.27006   4
   6   5  -9 -0.2271 0.55891   3
   6   5  -9 -0.1261 0.52317   6
   5   5  -9 1.13633 0.66996   3
   5   5  -9 -0.3400 0.50579   6
   5   5  -9 -0.3482 0.55795   4
   4   5  -9 1.86951 0.72134   3
   4   5  -9 1.61429 0.70278   4
   3   5  -9 123.268 3.70813   4
   3   5  -9 126.975 3.92228   3
   2   5  -9 0.09373 0.48686   4
   2   5  -9 -0.0755 0.41178   3
   1   5  -9 3.83402 0.48637   1
   1   5  -9 2.94986 0.70608   3
   1   5  -9 3.06033 0.79838   4
   0   5  -9 -0.0072 0.42792   3
   0   5  -9 0.67657 0.55291   4
   0   5  -9 -0.0007 0.28283   1
  -1   5  -9 124.075 3.78734   4
  -1   5  -9 125.722 3.10668   1
  -2   5  -9 0.34659 0.42268   1
  -2   5  -9 0.52487 0.52352   4
  -3   5  -9 47.5659 2.40418   4
  -3   5  -9 44.8838 2.08727   1
  -4   5  -9 6.83421 1.14021   1
  -4   5  -9 6.15311 1.09378   4
  -5   5  -9 0.10892 0.53772   4
  -5   5  -9 0.92854 0.60994   1
  -6   5  -9 41.3609 2.46780   4
  -6   5  -9 43.5173 2.50922   1
  -7   5  -9 49.3647 2.83822   1
  -7   5  -9 44.3746 2.61948   4
   7   4  -9 0.37336 0.65116   6
   7   4  -9 0.73539 0.85435   3
   6   4  -9 1.66215 0.68591   6
   6   4  -9 1.67720 0.81010   3
   5   4  -9 20.6007 1.84163   6
   5   4  -9 21.8628 1.98435   3
   5   4  -9 25.1366 1.61878   4
   4   4  -9 0.47510 0.50121   3
   4   4  -9 -0.0916 0.44746   4
   3   4  -9 11.6503 1.28336   4
   3   4  -9 9.97908 1.27983   3
   2   4  -9 173.675 4.45099   3
   2   4  -9 174.740 4.31709   4
   1   4  -9 197.166 4.75652   4
   1   4  -9 208.808 4.84874   3
   1   4  -9 206.515 3.53338   1
   0   4  -9 0.51853 0.47092   4
   0   4  -9 0.35520 0.33317   1
   0   4  -9 0.61924 0.46627   3
  -1   4  -9 81.9412 2.44003   1
  -1   4  -9 84.2398 2.95295   4
  -2   4  -9 70.1442 2.42788   1
  -2   4  -9 70.8966 2.77428   4
  -3   4  -9 28.2125 1.70594   1
  -3   4  -9 30.7869 1.91190   4
  -4   4  -9 0.06592 0.46908   1
  -4   4  -9 0.42403 0.56012   4
  -5   4  -9 89.9247 3.38918   1
  -5   4  -9 93.8571 3.52262   4
  -6   4  -9 -0.3526 0.53290   4
  -6   4  -9 0.48155 0.67492   1
  -7   4  -9 -0.0846 0.63841   4
  -7   4  -9 0.89931 0.80097   1
   7   3  -9 1.68240 0.69267   6
   7   3  -9 0.04015 0.68449   3
   6   3  -9 0.07680 0.50010   6
   6   3  -9 -0.1388 0.52885   3
   5   3  -9 1.77070 0.58821   4
   5   3  -9 1.66237 0.73699   3
   5   3  -9 2.54226 0.72785   6
   4   3  -9 30.8114 1.65760   4
   4   3  -9 31.2663 1.90074   3
   3   3  -9 10.9593 1.15501   4
   3   3  -9 11.1237 1.32467   3
   2   3  -9 87.6247 2.93698   3
   2   3  -9 86.7232 2.78368   4
   1   3  -9 23.3583 1.03201   1
   1   3  -9 24.0795 1.55314   3
   1   3  -9 23.8778 1.49307   4
   0   3  -9 2.06930 0.62886   4
   0   3  -9 2.64169 0.54509   1
  -1   3  -9 180.331 4.49880   4
  -1   3  -9 181.083 3.92150   1
  -2   3  -9 6.27327 0.99759   4
  -2   3  -9 6.93921 0.93290   1
  -3   3  -9 152.228 4.33143   4
  -3   3  -9 157.308 4.06581   1
  -4   3  -9 6.20943 1.08280   1
  -4   3  -9 6.62162 1.09739   4
  -5   3  -9 5.76238 1.10058   1
  -5   3  -9 6.72913 1.15502   4
  -6   3  -9 100.882 3.83966   1
  -6   3  -9 98.9585 3.75750   4
  -7   3  -9 40.9433 2.64588   1
  -7   3  -9 40.2039 2.55041   4
   8   2  -9 5.37969 1.24676   3
   7   2  -9 0.75242 0.69786   6
   7   2  -9 1.35685 0.75935   3
   6   2  -9 15.0062 1.59430   6
   6   2  -9 18.6245 1.92661   3
   5   2  -9 23.2970 1.33526   4
   5   2  -9 21.2424 1.85921   3
   5   2  -9 20.1443 1.75834   6
   4   2  -9 57.3761 2.44843   3
   4   2  -9 61.4427 2.14973   4
   3   2  -9 6.60398 0.87652   4
   3   2  -9 5.17970 0.88910   3
   2   2  -9 20.7079 0.85077   1
   2   2  -9 19.2495 1.39114   3
   2   2  -9 17.2366 1.22518   4
   1   2  -9 31.1531 1.62125   4
   1   2  -9 29.2417 1.63952   3
   1   2  -9 31.0739 1.21865   1
   0   2  -9 55.8296 2.24693   4
   0   2  -9 55.9217 1.85255   1
  -1   2  -9 19.5262 1.43602   4
  -1   2  -9 19.1702 1.22151   1
  -2   2  -9 5.00637 0.80017   1
  -2   2  -9 3.07751 0.79302   4
  -3   2  -9 1.16460 0.54261   1
  -3   2  -9 1.07403 0.56817   4
  -4   2  -9 32.2234 1.93659   1
  -4   2  -9 31.4218 1.98396   4
  -5   2  -9 1.43719 0.72421   1
  -5   2  -9 1.30892 0.73160   4
  -6   2  -9 19.7721 2.10517   4
  -6   2  -9 16.7524 1.93478   1
  -7   2  -9 1.32133 0.87822   4
   8   1  -9 8.09398 1.53900   3
   7   1  -9 4.45007 1.01157   3
   7   1  -9 4.82007 1.05976   6
   6   1  -9 17.7133 1.74471   3
   6   1  -9 16.7307 1.63724   6
   5   1  -9 13.8693 1.42601   6
   5   1  -9 16.5658 1.07594   4
   5   1  -9 15.9879 1.51012   3
   4   1  -9 71.1848 2.21793   4
   4   1  -9 72.8083 2.67466   6
   4   1  -9 78.0277 2.73548   3
   3   1  -9 70.6415 2.27095   4
   3   1  -9 72.2959 2.56918   3
   2   1  -9 215.557 4.49965   4
   2   1  -9 208.271 3.65814   1
   2   1  -9 209.246 4.66319   3
   1   1  -9 22.1878 1.36962   4
   1   1  -9 20.7174 1.06762   1
   1   1  -9 18.9239 1.33394   3
   0   1  -9 0.78130 0.37522   1
   0   1  -9 0.23995 0.39307   4
  -1   1  -9 14.7782 1.44106   4
  -1   1  -9 13.6237 1.22162   1
  -2   1  -9 81.4760 2.96319   4
  -2   1  -9 86.7162 2.79369   1
  -3   1  -9 1.54270 0.64727   1
  -3   1  -9 2.95066 0.80892   4
  -4   1  -9 29.8305 1.91385   1
  -4   1  -9 28.6559 1.94947   4
  -5   1  -9 -0.0087 0.55595   4
  -5   1  -9 -0.0221 0.54805   1
  -6   1  -9 41.8211 2.56210   1
  -6   1  -9 37.4760 2.41715   4
   8   0  -9 1.84216 0.88792   3
   7   0  -9 1.35874 0.73224   6
   7   0  -9 0.72668 0.65238   3
   6   0  -9 27.8239 1.80657   3
   6   0  -9 28.9052 1.86705   6
   5   0  -9 10.5119 1.19784   3
   5   0  -9 10.5821 0.90014   4
   5   0  -9 9.81971 1.22559   6
   4   0  -9 9.96689 1.12714   3
   4   0  -9 11.2744 0.99890   4
   4   0  -9 10.0281 1.24652   6
   3   0  -9 37.9639 1.60773   4
   3   0  -9 41.1230 1.85458   3
   3   0  -9 41.2175 1.30184   1
   2   0  -9 10.5037 0.86346   1
   2   0  -9 9.26108 1.05151   3
   2   0  -9 8.64426 0.96889   4
   1   0  -9 25.9129 1.47332   4
   1   0  -9 25.7587 1.25619   1
   0   0  -9 424.612 7.65742   4
   0   0  -9 421.801 7.07381   1
  -1   0  -9 20.0322 1.42522   4
  -1   0  -9 18.4977 1.27994   1
  -2   0  -9 73.7636 2.63849   1
  -3   0  -9 51.7668 2.37628   1
  -4   0  -9 49.4173 2.46215   1
  -5   0  -9 35.3389 2.23642   1
  -6   0  -9 28.3523 2.40505   1
  -6   0  -9 21.6377 2.23668   4
   8  -1  -9 19.4715 2.02231   3
   7  -1  -9 6.89018 1.13813   3
   6  -1  -9 17.6506 1.69847   6
   6  -1  -9 20.6603 1.52238   3
  -6   1   9 19.7331 1.13896   2
   5  -1  -9 0.93183 0.34882   4
   5  -1  -9 0.82963 0.60602   6
   5  -1  -9 0.53539 0.46802   3
  -5   1   9 1.13393 0.45218   2
   4  -1  -9 138.910 3.56955   3
   4  -1  -9 130.249 3.57824   6
   4  -1  -9 129.276 2.91676   4
  -4   1   9 129.721 3.15528   2
   3  -1  -9 0.31452 0.39446   6
   3  -1  -9 0.15371 0.37897   3
   3  -1  -9 0.82866 0.37902   4
   3  -1  -9 0.63654 0.31932   1
  -3   1   9 1.11076 0.46223   2
   2  -1  -9 155.778 3.35897   1
   2  -1  -9 159.589 3.77566   3
   2  -1  -9 156.210 3.66441   4
   1  -1  -9 37.1876 1.57293   1
   1  -1  -9 36.9157 1.75136   4
   0  -1  -9 1.00015 0.46782   1
   0   1   9 1.28691 0.50207   5
  -1  -1  -9 37.5211 1.85194   1
   1   1   9 34.9793 1.88938   5
  -2  -1  -9 48.7450 2.23668   1
   2   1   9 51.4081 2.32943   5
  -3  -1  -9 19.1113 1.72422   1
   3   1   9 23.3037 1.98481   5
  -4  -1  -9 -0.1611 0.50682   1
   4   1   9 -0.0643 0.57559   5
  -5  -1  -9 0.46360 0.60307   1
   5   1   9 1.28179 0.79577   5
  -6  -1  -9 22.9435 2.43298   1
   6   1   9 26.2774 2.35584   5
   9  -2  -9 -0.7004 0.57686   3
   8  -2  -9 7.86211 1.30891   3
   7  -2  -9 0.85525 0.60288   3
   6  -2  -9 0.12959 0.43134   3
   6  -2  -9 0.54529 0.53004   6
  -6   2   9 0.14019 0.34187   2
   5  -2  -9 19.1363 0.93850   4
   5  -2  -9 20.2661 1.37301   3
   5  -2  -9 18.5014 1.60113   6
  -5   2   9 21.0883 1.30637   2
   4  -2  -9 7.39140 0.78430   4
   4  -2  -9 8.87653 1.01802   3
   4  -2  -9 6.45434 0.92684   6
  -4   2   9 8.34523 1.00779   2
   3  -2  -9 28.5299 1.39846   4
   3  -2  -9 30.6781 1.58184   6
   3  -2  -9 32.2970 1.55325   3
  -3   2   9 30.1657 1.58935   2
   2  -2  -9 1.59462 0.51826   3
   2  -2  -9 2.90167 0.62259   6
   2  -2  -9 3.91109 0.69708   4
  -2   2   9 3.04421 0.70924   2
   1  -2  -9 56.9572 2.09468   1
  -1   2   9 54.0947 2.19518   5
   0  -2  -9 60.4948 2.26111   1
   0   2   9 58.9319 2.35916   5
  -1  -2  -9 20.5807 1.44090   1
   1   2   9 19.9306 1.65149   5
  -2  -2  -9 1.53316 0.65232   1
   2   2   9 1.32917 0.65056   5
  -3  -2  -9 7.50267 1.23376   1
   3   2   9 9.88771 1.34140   5
  -4  -2  -9 14.4831 1.69684   1
   4   2   9 16.8201 1.78578   5
  -5  -2  -9 42.7760 2.62663   1
   5   2   9 42.2822 2.48538   5
   9  -3  -9 23.7235 2.17493   3
   8  -3  -9 0.38331 0.59483   3
   7  -3  -9 62.6475 2.52726   3
  -7   3   9 59.6386 2.35554   2
   6  -3  -9 -0.4798 0.38946   3
  -6   3   9 0.44614 0.47939   2
   5  -3  -9 16.3379 1.34816   3
   5  -3  -9 17.6760 1.57626   6
  -5   3   9 17.8525 1.53846   2
   4  -3  -9 104.848 2.58202   4
   4  -3  -9 104.768 3.08260   6
   4  -3  -9 102.556 2.82908   3
  -4   3   9 99.1871 3.06298   2
   3  -3  -9 44.7839 1.77210   3
   3  -3  -9 43.4279 1.83814   6
   3  -3  -9 47.2218 1.79985   4
  -3   3   9 45.1137 2.06153   2
   2  -3  -9 0.29452 0.36672   3
   2  -3  -9 0.21624 0.37063   6
  -2   3   9 -0.0030 0.40713   2
  -2   3   9 0.47223 0.40240   5
   1  -3  -9 103.271 2.60365   6
   1  -3  -9 103.151 3.07273   1
  -1   3   9 112.802 3.27971   5
   0  -3  -9 26.8553 1.65177   1
   0  -3  -9 29.9156 1.24463   6
   0   3   9 30.1467 1.78289   5
  -1  -3  -9 0.57907 0.52011   1
  -1  -3  -9 0.01620 0.25213   6
   1   3   9 -0.1313 0.46692   5
  -2  -3  -9 8.86670 1.22879   1
   2   3   9 7.37009 1.18488   5
  -3  -3  -9 47.3671 2.52235   1
   3   3   9 45.8403 2.50510   5
  -4  -3  -9 -0.0488 0.52571   1
   4   3   9 0.22585 0.66219   5
  -5  -3  -9 -0.5742 0.64271   1
   5   3   9 2.17662 0.88599   5
   7  -4  -9 0.23212 0.49130   3
  -7   4   9 0.65385 0.58696   2
   6  -4  -9 10.4396 1.13226   3
  -6   4   9 12.1149 1.35045   2
   5  -4  -9 175.497 3.90540   3
  -5   4   9 186.445 4.63893   2
   4  -4  -9 27.4831 1.35337   3
   4  -4  -9 27.8021 1.33314   4
  -4   4   9 25.5574 1.69899   2
   3  -4  -9 85.5429 2.38968   3
   3  -4  -9 88.5642 2.62988   6
  -3   4   9 81.4953 2.63714   5
  -3   4   9 83.2602 2.99243   2
   2  -4  -9 112.378 2.87064   3
   2  -4  -9 110.977 2.83151   6
  -2   4   9 117.467 3.62256   2
  -2   4   9 116.551 3.31257   5
   1  -4  -9 36.4617 1.41339   6
  -1   4   9 37.2860 1.97061   5
  -1   4   9 36.7883 2.05250   2
   0  -4  -9 -0.1714 0.37207   1
   0  -4  -9 -0.1802 0.24924   6
   0   4   9 -0.1508 0.48193   5
  -1  -4  -9 33.9565 1.98397   1
   1   4   9 29.7511 1.93286   5
  -2  -4  -9 0.64510 0.55920   1
   2   4   9 -0.5647 0.44912   5
  -3  -4  -9 37.2038 2.30383   1
   3   4   9 33.7330 2.29701   5
  -4  -4  -9 6.87152 1.32486   1
   4   4   9 7.61792 1.39928   5
  -8   5   9 -0.1184 0.55528   2
  -7   5   9 36.9658 2.15694   2
  -6   5   9 12.1381 1.45800   2
   5  -5  -9 13.5840 1.11569   3
  -5   5   9 11.4542 1.41251   2
   4  -5  -9 0.10999 0.34226   3
  -4   5   9 0.09760 0.51576   2
  -4   5   9 0.21511 0.39998   5
   3  -5  -9 78.7128 2.17768   3
  -3   5   9 77.9520 3.05589   2
  -3   5   9 77.7230 2.68496   5
   2  -5  -9 29.7985 1.37116   3
  -2   5   9 31.1435 1.98268   2
  -2   5   9 29.8633 1.80744   5
  -1   5   9 67.2404 2.87946   2
  -1   5   9 67.5423 2.71694   5
   0  -5  -9 -0.3157 0.41095   1
   0   5   9 0.34324 0.55146   5
  -1  -5  -9 16.8710 1.83321   1
   1   5   9 16.9927 1.82863   5
  -2  -5  -9 17.3214 1.71884   1
   2   5   9 15.0931 1.77730   5
  -3  -5  -9 43.9321 2.61038   1
   3   5   9 42.1731 2.62525   5
  -8   6   9 11.5695 1.58876   2
  -7   6   9 6.98810 1.20456   2
  -6   6   9 68.5727 2.99163   2
  -5   6   9 203.280 4.41842   5
  -5   6   9 205.341 5.40596   2
  -4   6   9 9.43251 1.40286   2
  -4   6   9 10.6282 1.19072   5
  -3   6   9 10.2970 1.26838   5
  -3   6   9 15.6251 1.75919   2
  -2   6   9 2.56683 0.83702   5
  -2   6   9 1.62179 0.74636   2
  -1   6   9 0.65659 0.66067   2
  -1   6   9 0.93230 0.63829   5
   0  -6  -9 2.40919 0.77089   1
   0   6   9 3.59730 0.98814   5
  -1  -6  -9 0.88884 0.67672   1
   1   6   9 0.63190 0.63893   5
  -2  -6  -9 2.45408 0.84069   1
   2   6   9 2.59338 0.97892   5
  -3  -6  -9 -0.2869 0.69157   1
   3   6   9 -0.1554 0.74504   5
  -8   7   9 7.10784 1.33371   2
  -7   7   9 -0.2833 0.62456   2
  -6   7   9 42.5822 2.54286   2
  -5   7   9 31.0979 2.21218   2
  -5   7   9 29.4846 1.66329   5
  -4   7   9 4.43434 0.92166   5
  -4   7   9 2.46539 0.86793   2
  -3   7   9 22.9538 1.92296   5
  -3   7   9 23.1768 2.18078   2
  -2   7   9 34.4932 2.11537   5
  -2   7   9 35.4432 2.34059   2
  -1   7   9 27.8295 2.47935   2
  -1   7   9 25.8981 2.20658   5
   0  -7  -9 0.87655 0.64577   1
   0   7   9 -0.7452 0.54514   5
  -1  -7  -9 -0.6292 0.43407   1
   1   7   9 -0.6510 0.56727   5
  -2  -7  -9 82.7255 3.87213   1
  -7   8   9 27.7678 2.54485   2
  -6   8   9 33.2791 2.39764   2
  -5   8   9 5.62189 1.00100   5
  -5   8   9 4.86939 1.19009   2
  -4   8   9 61.4097 3.18432   2
  -4   8   9 63.4571 2.68960   5
  -3   8   9 -0.3239 0.60787   2
  -3   8   9 0.29628 0.57044   5
  -2   8   9 0.91343 0.76763   2
  -2   8   9 1.29833 0.73840   5
  -1   8   9 1.95666 0.87347   5
  -1   8   9 0.30058 0.79360   2
   0  -8  -9 44.9511 2.62574   1
   0   8   9 47.9073 2.79807   5
  -6   9   9 122.119 4.67779   2
  -5   9   9 0.12956 0.75382   2
  -4   9   9 0.06525 0.52376   5
  -4   9   9 0.22076 0.72393   2
  -3   9   9 6.43670 1.41759   2
  -3   9   9 5.57889 1.19606   5
  -2   9   9 8.85207 1.46662   5
  -2   9   9 6.97703 1.46794   2
  -1   9   9 0.50485 0.73951   2
  -1   9   9 0.40063 0.76642   5
   0  10 -10 0.23156 0.68047   3
   0  10 -10 -0.1495 0.66164   4
  -1  10 -10 7.25290 1.31130   3
  -1  10 -10 6.57790 1.40716   4
  -2  10 -10 1.32029 0.84497   4
  -2  10 -10 1.53711 0.74709   3
  -3  10 -10 9.53266 1.41187   3
  -3  10 -10 8.13689 1.42638   4
   2   9 -10 0.42593 0.77083   4
   2   9 -10 -0.7868 0.58308   3
   1   9 -10 2.35267 0.89635   3
   1   9 -10 2.60995 1.00765   4
   0   9 -10 89.3785 3.50460   3
   0   9 -10 85.2244 3.72750   4
  -1   9 -10 34.9478 2.43694   4
  -1   9 -10 34.8368 2.18629   3
  -2   9 -10 6.85227 1.26493   4
  -2   9 -10 7.36980 1.22866   3
  -3   9 -10 0.35170 0.58249   3
  -3   9 -10 0.19334 0.63357   4
  -3   9 -10 -0.4991 0.56904   1
  -4   9 -10 5.33080 1.21402   4
  -4   9 -10 4.66824 1.07101   3
  -4   9 -10 6.18257 1.13940   1
   3   8 -10 0.44773 0.71794   4
   3   8 -10 0.34629 0.66916   3
   2   8 -10 64.9522 3.03808   3
   2   8 -10 64.9051 3.12599   4
   1   8 -10 0.49325 0.64134   3
   1   8 -10 0.66790 0.69322   4
   0   8 -10 82.9285 3.49456   4
   0   8 -10 81.3476 3.22339   3
  -1   8 -10 5.63989 1.07054   3
  -1   8 -10 3.62846 1.04113   4
  -2   8 -10 7.64374 1.09148   1
  -2   8 -10 8.37091 1.27986   3
  -2   8 -10 6.37449 1.26763   4
  -3   8 -10 5.05852 1.01795   1
  -3   8 -10 8.93979 1.42715   4
  -3   8 -10 5.12661 1.06669   3
  -4   8 -10 0.12889 0.68572   4
  -4   8 -10 0.91013 0.69449   1
  -5   8 -10 3.67747 1.13711   4
  -5   8 -10 4.55961 1.10183   1
   4   7 -10 36.9046 2.39012   4
   4   7 -10 44.4452 2.71609   3
   3   7 -10 12.5191 1.64393   4
   3   7 -10 15.0496 1.76178   3
   2   7 -10 4.21740 1.02616   4
   2   7 -10 3.31500 0.93394   3
   1   7 -10 -0.2032 0.49707   3
   1   7 -10 0.48710 0.63604   4
   0   7 -10 21.5678 1.94309   3
   0   7 -10 28.1488 2.00822   4
  -1   7 -10 5.60266 0.87691   1
  -1   7 -10 6.73765 1.10924   3
  -1   7 -10 9.48978 1.45927   4
  -2   7 -10 0.20134 0.52295   4
  -2   7 -10 0.72871 0.53332   1
  -2   7 -10 0.19913 0.51520   3
  -3   7 -10 1.61494 0.77602   4
  -3   7 -10 0.67224 0.55385   1
  -4   7 -10 40.1034 2.23592   1
  -4   7 -10 32.4680 2.27786   4
  -5   7 -10 0.05383 0.58235   4
  -5   7 -10 1.14067 0.70497   1
  -6   7 -10 27.7786 2.45597   4
  -6   7 -10 29.2872 2.48087   1
   5   6 -10 0.64649 0.66762   6
   5   6 -10 -0.3777 0.59882   3
   5   6 -10 -0.5630 0.67230   4
   4   6 -10 -0.5399 0.51288   4
   4   6 -10 -0.2486 0.60558   3
   3   6 -10 5.94675 1.15845   3
   3   6 -10 5.78751 1.10001   4
   2   6 -10 32.8527 2.04137   4
   2   6 -10 29.2607 2.02113   3
   1   6 -10 61.2435 2.71225   4
   1   6 -10 56.0776 2.59986   3
   0   6 -10 41.2558 2.19388   3
   0   6 -10 42.7559 2.31187   4
   0   6 -10 40.3784 1.58434   1
  -1   6 -10 4.07646 0.72868   1
  -1   6 -10 3.12635 0.85290   3
  -1   6 -10 2.52740 0.86434   4
  -2   6 -10 55.3335 2.69580   4
  -2   6 -10 53.6774 2.21609   1
  -3   6 -10 4.83154 1.07207   4
  -3   6 -10 2.47550 0.76902   1
  -4   6 -10 4.16770 0.98861   1
  -4   6 -10 2.23376 0.83329   4
  -5   6 -10 2.19952 0.85513   4
  -5   6 -10 2.35756 0.84723   1
  -6   6 -10 12.4664 1.71758   4
  -6   6 -10 13.3089 1.70039   1
   6   5 -10 17.1753 2.05597   3
   6   5 -10 21.7855 2.13893   6
   5   5 -10 24.0871 1.77831   4
   5   5 -10 20.3440 1.98690   6
   5   5 -10 20.1725 2.01552   3
   4   5 -10 43.3259 2.22739   4
   4   5 -10 40.6436 2.38729   3
   3   5 -10 38.8845 2.21674   3
   3   5 -10 36.9741 2.05781   4
   2   5 -10 4.28326 0.89430   4
   2   5 -10 5.15439 0.96964   3
   1   5 -10 59.7048 2.58492   4
   1   5 -10 62.2666 2.67149   3
   0   5 -10 7.58939 1.13994   3
   0   5 -10 9.43019 0.89685   1
   0   5 -10 8.39959 1.19942   4
  -1   5 -10 5.96334 1.06170   4
  -1   5 -10 6.33319 0.85132   1
  -2   5 -10 7.31979 1.14934   4
  -2   5 -10 5.20523 0.87651   1
  -3   5 -10 6.93583 1.10351   1
  -3   5 -10 9.64061 1.35620   4
  -4   5 -10 0.42247 0.59465   1
  -4   5 -10 0.46052 0.62504   4
  -5   5 -10 51.6461 2.77740   4
  -5   5 -10 50.4336 2.64914   1
  -6   5 -10 7.52961 1.29833   4
  -6   5 -10 6.35198 1.25055   1
   6   4 -10 4.91003 1.11552   3
   6   4 -10 4.61868 1.03351   6
   5   4 -10 27.5669 1.95188   6
   5   4 -10 25.1799 1.69579   4
   5   4 -10 23.0476 2.17044   3
   4   4 -10 15.9664 1.68628   3
   4   4 -10 15.3136 1.53428   4
   3   4 -10 14.1768 1.62395   3
   3   4 -10 9.86850 1.24981   4
   2   4 -10 15.1930 1.57341   3
   2   4 -10 17.1336 1.59235   4
   1   4 -10 8.40420 1.20621   4
   1   4 -10 9.09365 0.80193   1
   1   4 -10 9.44881 1.18803   3
   0   4 -10 51.6463 2.36312   4
   0   4 -10 51.3652 1.80339   1
   0   4 -10 47.2583 2.28047   3
  -1   4 -10 98.4588 2.80360   1
  -1   4 -10 92.4766 3.31453   4
  -2   4 -10 36.0392 1.83302   1
  -2   4 -10 31.3432 1.99847   4
  -3   4 -10 70.1179 2.73631   1
  -3   4 -10 74.6536 3.09455   4
  -4   4 -10 30.5054 1.98373   1
  -4   4 -10 30.5953 2.10045   4
  -5   4 -10 8.42156 1.36530   1
  -5   4 -10 10.3311 1.51377   4
  -6   4 -10 2.86197 0.96715   1
  -6   4 -10 2.76262 0.90560   4
   7   3 -10 4.26262 1.11891   6
   7   3 -10 5.65858 1.25323   3
   6   3 -10 3.84005 1.05751   3
   6   3 -10 4.41707 1.02621   6
   5   3 -10 9.98300 1.38579   3
   5   3 -10 12.3690 1.47317   6
   5   3 -10 13.2852 1.37763   4
   4   3 -10 7.15372 1.03557   4
   4   3 -10 4.58126 0.97682   3
   3   3 -10 6.02673 0.99495   3
   3   3 -10 8.89581 1.12715   4
   2   3 -10 40.9279 1.99975   4
   2   3 -10 42.1713 2.13496   3
   1   3 -10 0.34732 0.42061   4
   1   3 -10 0.88052 0.36032   1
   1   3 -10 0.46553 0.45928   3
   0   3 -10 68.3587 2.65681   4
   0   3 -10 65.6767 2.10455   1
  -1   3 -10 145.988 3.57513   1
  -1   3 -10 143.877 4.15300   4
  -2   3 -10 61.1586 2.37733   1
  -2   3 -10 61.5127 2.69614   4
  -3   3 -10 15.0307 1.51574   1
  -3   3 -10 15.7341 1.66501   4
  -4   3 -10 6.93876 1.17078   1
  -4   3 -10 8.53930 1.29208   4
  -5   3 -10 113.474 4.08864   4
  -5   3 -10 114.382 4.01629   1
  -6   3 -10 8.67616 1.47700   4
  -6   3 -10 12.6061 1.74781   1
   7   2 -10 71.4641 3.20599   6
   7   2 -10 72.2724 3.33075   3
   6   2 -10 8.55536 1.33784   3
   6   2 -10 8.31985 1.25742   6
   5   2 -10 71.8940 2.95419   6
   5   2 -10 72.9020 2.43862   4
   5   2 -10 74.8048 3.04447   3
   4   2 -10 14.6058 1.31309   4
   4   2 -10 15.9043 1.58735   3
   3   2 -10 79.7877 2.93994   3
   3   2 -10 83.5852 2.71411   4
   2   2 -10 119.869 2.48824   1
   2   2 -10 122.770 3.40969   4
   2   2 -10 118.985 3.58669   3
   1   2 -10 22.9886 1.57254   3
   1   2 -10 22.4352 1.13761   1
   1   2 -10 19.9942 1.43845   4
   0   2 -10 5.82927 0.80788   1
   0   2 -10 3.26759 0.79293   4
  -1   2 -10 59.0818 2.54672   4
  -1   2 -10 58.5064 2.18138   1
  -2   2 -10 4.08941 0.79986   1
  -2   2 -10 4.32826 0.90872   4
  -3   2 -10 36.2413 2.00259   1
  -3   2 -10 40.4447 2.24775   4
  -4   2 -10 3.23699 0.87684   1
  -4   2 -10 2.56118 0.87010   4
  -5   2 -10 -0.9250 0.47407   1
  -5   2 -10 -0.9377 0.48196   4
  -6   2 -10 -0.8833 0.55437   4
  -6   2 -10 -0.8706 0.55039   1
   8   1 -10 13.1449 1.75211   3
   7   1 -10 1.96160 0.89501   3
   7   1 -10 1.91860 0.85788   6
   6   1 -10 -0.1234 0.49587   6
   6   1 -10 0.20572 0.56752   3
   5   1 -10 1.02718 0.58452   3
   5   1 -10 0.85200 0.57095   6
   5   1 -10 1.08742 0.48825   4
   4   1 -10 7.29836 0.89766   4
   4   1 -10 5.45130 0.95223   6
   4   1 -10 8.38630 1.20579   3
   3   1 -10 17.5125 1.53576   3
   3   1 -10 20.6148 1.34917   4
   3   1 -10 20.1545 0.89461   1
   2   1 -10 3.19779 0.53445   1
   2   1 -10 3.23547 0.71013   4
   2   1 -10 2.97272 0.69883   3
   1   1 -10 19.0625 1.11334   1
   1   1 -10 20.4973 1.46337   3
   1   1 -10 20.1388 1.42466   4
   0   1 -10 130.033 3.73245   4
   0   1 -10 133.275 3.29251   1
  -1   1 -10 99.7805 2.97546   1
  -1   1 -10 98.6174 3.32433   4
  -2   1 -10 10.2879 1.26658   1
  -2   1 -10 12.5026 1.55695   4
  -3   1 -10 11.7173 1.43875   4
  -3   1 -10 12.9362 1.43717   1
  -4   1 -10 0.08346 0.48892   1
  -4   1 -10 0.33308 0.59456   4
  -5   1 -10 83.3859 3.56744   4
  -5   1 -10 84.0570 3.48695   1
  -6   1 -10 0.10946 0.68757   4
  -6   1 -10 -0.0831 0.61614   1
   8   0 -10 24.8346 2.26901   3
   7   0 -10 0.93071 0.65064   6
   7   0 -10 -0.7924 0.51122   3
   6   0 -10 9.54426 1.34786   6
   6   0 -10 9.35549 1.31603   3
   5   0 -10 47.5286 2.34865   6
   5   0 -10 50.8549 1.79619   4
   5   0 -10 53.7123 2.40596   3
   4   0 -10 15.2416 0.79088   1
   4   0 -10 16.2531 1.51135   3
   4   0 -10 16.4837 1.50622   6
   4   0 -10 17.3013 1.14063   4
   3   0 -10 78.5294 2.49359   4
   3   0 -10 82.7000 2.05940   1
   3   0 -10 71.9899 2.67932   3
   2   0 -10 12.8582 0.92631   1
   2   0 -10 12.2012 1.21160   4
   2   0 -10 11.4021 1.20951   3
   1   0 -10 228.294 4.52406   1
   1   0 -10 227.058 5.02896   4
   0   0 -10 62.2686 2.26678   1
   0   0 -10 60.4215 2.48701   4
  -1   0 -10 23.4957 1.65735   4
  -1   0 -10 25.8640 1.56546   1
  -2   0 -10 56.0501 2.38698   1
  -2   0 -10 53.6792 2.52784   4
  -3   0 -10 53.5153 2.63284   4
  -3   0 -10 57.7498 2.61515   1
  -4   0 -10 89.6770 3.57748   4
  -4   0 -10 91.2122 3.50776   1
  -5   0 -10 14.0340 1.80917   4
  -5   0 -10 16.0308 1.84934   1
   8  -1 -10 54.3441 2.78801   3
   7  -1 -10 1.19492 0.65807   3
   6  -1 -10 7.20291 1.15916   6
   6  -1 -10 5.11567 0.99502   3
   5  -1 -10 54.4834 2.46787   6
   5  -1 -10 54.1239 2.34504   3
  -5   1  10 57.4464 2.02234   2
   4  -1 -10 134.956 3.20038   4
   4  -1 -10 136.432 3.73262   3
   4  -1 -10 132.600 2.85821   1
   4  -1 -10 128.988 3.71523   6
   3  -1 -10 214.415 4.77865   3
   3  -1 -10 210.261 4.48893   4
   3  -1 -10 214.032 4.78632   6
   3  -1 -10 209.606 4.09357   1
   2  -1 -10 1.73172 0.56843   3
   2  -1 -10 1.29990 0.43752   1
   2  -1 -10 1.97874 0.56680   4
   1  -1 -10 12.5517 1.30715   4
   1  -1 -10 12.1458 1.17393   1
   0  -1 -10 243.386 5.12269   1
   0  -1 -10 244.661 5.49638   4
  -1  -1 -10 10.1210 1.20087   1
   1   1  10 9.92125 1.27672   5
  -2  -1 -10 30.4570 1.89763   1
   2   1  10 32.2796 2.02120   5
  -3  -1 -10 2.49092 0.83460   1
   3   1  10 3.44505 0.89579   5
  -4  -1 -10 30.8335 2.18988   1
   4   1  10 30.4778 2.43409   5
  -5  -1 -10 2.18507 0.90637   1
   8  -2 -10 4.32075 1.02326   3
   7  -2 -10 0.58578 0.54430   3
   6  -2 -10 8.19890 1.24121   6
   6  -2 -10 9.40282 1.20739   3
  -6   2  10 8.90390 1.05244   2
   5  -2 -10 5.95951 0.93349   3
   5  -2 -10 4.97254 0.92621   6
  -5   2  10 7.21935 0.98703   2
   4  -2 -10 6.70629 0.96692   3
   4  -2 -10 5.22398 0.76026   4
   4  -2 -10 6.28364 0.97148   6
  -4   2  10 5.97119 0.89521   2
   3  -2 -10 2.00970 0.57829   6
   3  -2 -10 2.51723 0.62824   3
   3  -2 -10 2.06949 0.58557   4
  -3   2  10 1.47817 0.56158   2
   2  -2 -10 4.07436 0.80153   4
   2  -2 -10 3.31882 0.67261   1
   2  -2 -10 4.14918 0.75039   3
   2  -2 -10 3.16138 0.69633   6
   1  -2 -10 7.06825 0.99637   1
  -1   2  10 7.14686 1.11719   5
   0  -2 -10 37.6878 1.90904   1
   0   2  10 43.3694 2.16459   5
  -1  -2 -10 0.71779 0.52748   1
   1   2  10 0.88650 0.59211   5
  -2  -2 -10 7.48542 1.25150   1
   2   2  10 6.64821 1.14886   5
  -3  -2 -10 0.31042 0.50227   1
   3   2  10 -0.2517 0.53710   5
  -4  -2 -10 142.416 4.72601   1
   4   2  10 150.656 4.70228   5
  -5  -2 -10 6.44100 1.44499   1
   5   2  10 7.09608 1.35343   5
   8  -3 -10 5.10498 1.09018   3
   7  -3 -10 0.02935 0.54696   3
  -7   3  10 0.53080 0.49384   2
   6  -3 -10 13.4327 1.36371   3
  -6   3  10 12.9228 1.32015   2
   5  -3 -10 17.7991 1.65211   6
   5  -3 -10 12.6992 1.25011   3
  -5   3  10 12.5681 1.33410   2
   4  -3 -10 103.731 2.74615   4
   4  -3 -10 101.813 2.96626   3
   4  -3 -10 99.6944 3.14295   6
  -4   3  10 95.7853 3.15327   2
   3  -3 -10 -0.0998 0.34070   3
   3  -3 -10 -0.1384 0.36321   6
   3  -3 -10 0.19007 0.39333   4
  -3   3  10 -0.0311 0.39272   2
   2  -3 -10 117.410 3.09196   6
   2  -3 -10 109.127 3.08690   3
  -2   3  10 118.487 3.45931   5
  -2   3  10 119.959 3.63175   2
   1  -3 -10 5.29192 0.90749   1
   1  -3 -10 5.19064 0.74336   6
  -1   3  10 6.44852 0.98930   5
   0  -3 -10 17.0307 1.04029   6
   0  -3 -10 18.9295 1.69133   1
   0   3  10 21.3844 1.85679   5
  -1  -3 -10 15.2847 1.53717   1
   1   3  10 15.0606 1.58816   5
  -2  -3 -10 97.0167 3.57806   1
   2   3  10 95.5459 3.56822   5
  -3  -3 -10 6.36040 1.24417   1
   3   3  10 6.53391 1.24186   5
  -4  -3 -10 -0.4435 0.55557   1
   4   3  10 0.87424 0.80576   5
  -7   4  10 5.34516 1.05340   2
   6  -4 -10 104.807 3.11094   3
  -6   4  10 103.286 3.48936   2
   5  -4 -10 35.0143 1.69405   3
  -5   4  10 40.9205 2.12783   2
   4  -4 -10 104.255 2.89984   3
   4  -4 -10 98.2339 2.79155   4
  -4   4  10 106.263 3.48516   2
   3  -4 -10 25.6126 1.42763   3
   3  -4 -10 24.2527 1.46859   6
  -3   4  10 27.6663 1.83491   2
  -3   4  10 25.8282 1.62345   5
   2  -4 -10 4.69746 0.72962   6
   2  -4 -10 5.06220 0.79982   3
  -2   4  10 3.37343 0.84411   2
  -2   4  10 3.30489 0.81541   5
   1  -4 -10 105.586 3.39460   1
   1  -4 -10 106.417 2.67913   6
  -1   4  10 108.759 3.50961   5
   0  -4 -10 11.2453 1.46696   1
   0   4  10 12.1804 1.50757   5
  -1  -4 -10 0.94259 0.56813   1
   1   4  10 0.00970 0.50145   5
  -2  -4 -10 3.98001 1.05388   1
   2   4  10 2.92614 0.97339   5
  -3  -4 -10 36.3985 2.41101   1
   3   4  10 37.6768 2.50620   5
  -8   5  10 11.3564 1.51714   2
  -7   5  10 0.30850 0.64716   2
  -6   5  10 7.92201 1.28145   2
  -5   5  10 45.1483 2.40471   2
  -4   5  10 8.49539 1.13625   5
  -4   5  10 6.19644 1.10431   2
   3  -5 -10 4.19873 0.71305   3
  -3   5  10 3.44508 0.90350   2
  -3   5  10 4.18784 0.87385   5
   2  -5 -10 3.72028 0.68428   3
  -2   5  10 3.85297 0.97881   2
  -2   5  10 4.03055 0.86902   5
  -1   5  10 0.09634 0.57762   5
   0  -5 -10 6.85977 1.17061   1
   0   5  10 9.05497 1.38298   5
  -1  -5 -10 17.5450 1.92228   1
   1   5  10 16.7070 1.85431   5
  -2  -5 -10 8.22745 1.47829   1
   2   5  10 8.76375 1.45118   5
  -3  -5 -10 43.1270 2.71649   1
   3   5  10 46.7103 2.87330   5
  -8   6  10 0.59344 0.70251   2
  -7   6  10 4.26155 1.04760   2
  -6   6  10 4.09480 1.04159   2
  -5   6  10 28.6899 1.67948   5
  -5   6  10 28.8442 2.11568   2
  -4   6  10 9.71318 1.21578   5
  -4   6  10 9.21018 1.40338   2
  -3   6  10 1.67290 0.70859   5
  -3   6  10 0.29796 0.60233   2
  -2   6  10 9.06318 1.42435   2
  -2   6  10 10.0706 1.32313   5
  -1   6  10 43.6849 2.46259   5
   0  -6 -10 -0.0921 0.50951   1
   0   6  10 1.44554 0.77016   5
  -1  -6 -10 23.8823 2.13315   1
   1   6  10 31.5612 2.28402   5
  -2  -6 -10 -0.0976 0.53925   1
   2   6  10 -0.2506 0.65462   5
  -7   7  10 38.7010 2.53439   2
  -6   7  10 0.83794 0.75622   2
  -5   7  10 3.87419 0.85226   5
  -5   7  10 3.55820 1.05431   2
  -4   7  10 8.03920 1.17877   5
  -4   7  10 7.46601 1.35200   2
  -3   7  10 24.5149 2.33212   2
  -3   7  10 26.3328 1.89456   5
  -2   7  10 1.57542 0.84932   2
  -2   7  10 1.05471 0.69045   5
  -1   7  10 1.72835 0.84127   5
  -1   7  10 3.73525 1.08349   2
   0  -7 -10 0.60551 0.73506   1
   0   7  10 -0.5917 0.63205   5
  -1  -7 -10 31.0514 3.00860   1
   1   7  10 34.7888 3.07048   5
  -6   8  10 11.0038 1.74133   2
  -5   8  10 13.9845 1.96314   2
  -4   8  10 2.20227 0.97636   2
  -4   8  10 2.68116 0.86455   5
  -3   8  10 1.42879 0.73566   5
  -3   8  10 2.97327 1.04870   2
  -2   8  10 3.77298 1.06828   5
  -2   8  10 4.22226 1.21745   2
  -1   8  10 42.8448 2.67161   5
   1   9 -11 19.3947 2.00611   3
   1   9 -11 18.3892 2.21816   4
   0   9 -11 4.03545 1.00289   3
   0   9 -11 4.81082 1.25649   4
  -1   9 -11 4.21464 1.12359   4
  -1   9 -11 3.57884 1.00834   3
  -2   9 -11 8.04159 1.32800   3
  -2   9 -11 9.46393 1.55561   4
  -3   9 -11 29.9902 2.47222   3
  -3   9 -11 26.5563 2.56773   4
  -3   9 -11 28.3114 2.05696   1
   3   8 -11 47.4390 2.85293   3
   3   8 -11 55.7183 3.00685   4
   2   8 -11 0.17102 0.69760   3
   2   8 -11 0.61143 0.84524   4
   1   8 -11 8.67782 1.42746   3
   1   8 -11 9.02352 1.44650   4
   0   8 -11 -0.1001 0.63355   4
   0   8 -11 -0.1021 0.53436   3
  -1   8 -11 2.62731 0.94705   4
  -1   8 -11 2.85435 0.92799   3
  -2   8 -11 0.18320 0.63768   3
  -2   8 -11 0.54139 0.58718   1
  -2   8 -11 0.13334 0.58147   4
  -3   8 -11 26.2666 2.24726   3
  -3   8 -11 27.4793 2.49337   4
  -3   8 -11 26.1487 1.86618   1
  -4   8 -11 0.93093 0.62792   1
  -4   8 -11 -0.1901 0.64553   4
   4   7 -11 15.0310 1.87584   3
   4   7 -11 12.3488 1.65473   4
   3   7 -11 8.79917 1.40357   4
   3   7 -11 8.62801 1.46087   3
   2   7 -11 14.8988 1.82371   4
   2   7 -11 16.7720 1.84468   3
   1   7 -11 52.5588 2.77979   4
   1   7 -11 53.4440 2.73020   3
   0   7 -11 7.69633 1.31015   4
   0   7 -11 7.47127 1.23930   3
  -1   7 -11 8.16208 1.24457   3
  -1   7 -11 5.81999 1.16807   4
  -2   7 -11 29.1959 1.78554   1
  -2   7 -11 30.2751 2.07595   3
  -2   7 -11 26.0149 2.29579   4
  -3   7 -11 70.4525 3.28667   4
  -3   7 -11 60.7916 2.68329   1
  -4   7 -11 7.68428 1.40415   4
  -4   7 -11 5.80917 1.14010   1
  -5   7 -11 19.9344 2.25769   4
   5   6 -11 4.31445 1.28887   3
   5   6 -11 8.46969 1.43845   6
   5   6 -11 3.45766 1.07437   4
   4   6 -11 14.8672 1.74971   4
   4   6 -11 17.6282 1.96890   3
   3   6 -11 2.96712 0.96237   3
   3   6 -11 6.20167 1.13305   4
   2   6 -11 10.4650 1.52761   4
   2   6 -11 7.31531 1.30117   3
   1   6 -11 2.89710 0.91534   4
   1   6 -11 1.98875 0.76621   3
   0   6 -11 3.04874 0.85638   4
   0   6 -11 4.86075 1.05458   3
  -1   6 -11 0.54142 0.48836   1
  -1   6 -11 -0.2293 0.53246   4
  -1   6 -11 -0.1224 0.46623   3
  -2   6 -11 24.3320 1.63203   1
  -2   6 -11 29.8659 2.55457   4
  -3   6 -11 19.9825 2.00968   4
  -3   6 -11 24.3221 1.74844   1
  -4   6 -11 -0.2609 0.59622   4
  -4   6 -11 -0.1594 0.52711   1
  -5   6 -11 2.46286 0.94049   1
  -5   6 -11 1.60953 0.84167   4
   5   5 -11 1.82982 0.78797   4
   5   5 -11 0.84388 0.68874   6
   5   5 -11 1.47582 0.83317   3
   4   5 -11 31.4162 2.01687   4
   4   5 -11 31.1354 2.16941   3
   3   5 -11 0.16180 0.51273   3
   3   5 -11 0.68857 0.58285   4
   2   5 -11 5.54190 1.07424   3
   2   5 -11 3.20681 0.88657   4
   1   5 -11 8.35526 1.24749   3
   1   5 -11 9.37167 1.35730   4
   0   5 -11 16.8679 1.67271   3
   0   5 -11 19.2174 1.20221   1
   0   5 -11 18.8413 1.80036   4
  -1   5 -11 4.79132 1.00577   3
  -1   5 -11 6.36607 1.17184   4
  -1   5 -11 4.38699 0.78919   1
  -2   5 -11 2.72044 0.88907   4
  -2   5 -11 1.81284 0.63724   1
  -3   5 -11 0.54628 0.61196   4
  -3   5 -11 2.18853 0.78237   1
  -4   5 -11 62.9779 2.86619   1
  -4   5 -11 61.6279 3.07921   4
  -5   5 -11 9.19186 1.46260   1
  -5   5 -11 8.93227 1.46374   4
   6   4 -11 76.7442 3.40628   6
   6   4 -11 77.6861 3.58455   3
   5   4 -11 5.06786 1.07379   6
   5   4 -11 4.18329 0.92931   4
   5   4 -11 3.05334 0.99587   3
   4   4 -11 10.3392 1.36688   4
   4   4 -11 10.9703 1.46485   3
   3   4 -11 2.39293 0.78276   4
   3   4 -11 2.81618 0.90554   3
   2   4 -11 74.9612 2.88478   4
   2   4 -11 63.2506 2.83377   3
   1   4 -11 0.02181 0.47669   4
   1   4 -11 0.34130 0.49514   3
   1   4 -11 -0.0637 0.32004   1
   0   4 -11 9.36483 0.99255   1
   0   4 -11 9.57445 1.33760   3
   0   4 -11 5.42248 1.02604   4
  -1   4 -11 25.6362 1.51960   1
  -1   4 -11 28.9778 1.97755   4
  -2   4 -11 144.886 3.94170   1
  -2   4 -11 142.051 4.47466   4
  -3   4 -11 -0.2516 0.49869   4
  -3   4 -11 -0.6613 0.42889   1
  -4   4 -11 14.3861 1.75167   4
  -4   4 -11 13.4881 1.59594   1
  -5   4 -11 11.7822 1.64668   4
  -5   4 -11 14.8124 1.76037   1
   6   3 -11 35.4736 2.34696   6
   6   3 -11 35.5486 2.40170   3
   5   3 -11 10.6597 1.49039   3
   5   3 -11 13.8100 1.42568   4
   5   3 -11 13.0216 1.58310   6
   4   3 -11 15.6391 1.50370   4
   4   3 -11 9.89243 1.43565   3
   3   3 -11 0.92514 0.57432   4
   3   3 -11 1.34791 0.68699   3
   2   3 -11 35.9623 2.09916   3
   2   3 -11 35.8773 1.97228   4
   1   3 -11 4.18832 0.62439   1
   1   3 -11 2.18930 0.77167   3
   1   3 -11 3.86656 0.83630   4
   0   3 -11 14.1956 1.24450   1
   0   3 -11 12.4719 1.41588   3
   0   3 -11 11.7465 1.37922   4
  -1   3 -11 1.11173 0.50325   1
  -1   3 -11 2.21085 0.77186   4
  -2   3 -11 -0.1158 0.49809   4
  -2   3 -11 0.00292 0.45599   1
  -3   3 -11 1.74655 0.72778   4
  -3   3 -11 2.61106 0.81817   1
  -4   3 -11 36.7968 2.27484   1
  -4   3 -11 35.4232 2.35708   4
  -5   3 -11 -0.0904 0.59927   4
  -5   3 -11 0.00673 0.66301   1
   7   2 -11 19.6264 2.06066   6
   7   2 -11 23.8081 2.29503   3
   6   2 -11 19.9562 2.12896   3
   6   2 -11 15.1788 1.74970   6
   5   2 -11 0.54998 0.48781   4
   5   2 -11 0.35200 0.53352   6
   5   2 -11 -0.2708 0.48164   3
   4   2 -11 16.1461 1.74226   3
   4   2 -11 13.5386 1.37298   4
   3   2 -11 4.28598 0.91309   3
   3   2 -11 6.45807 1.00339   4
   2   2 -11 18.9968 1.42211   4
   2   2 -11 19.3971 1.01928   1
   2   2 -11 18.3428 1.69172   3
   1   2 -11 1.92652 0.69029   4
   1   2 -11 2.26510 0.76256   3
   1   2 -11 2.28892 0.52283   1
   0   2 -11 5.05351 0.78759   1
   0   2 -11 6.45234 1.01167   4
  -1   2 -11 0.30640 0.42588   1
  -1   2 -11 -0.0286 0.46708   4
  -2   2 -11 32.1739 1.86611   1
  -2   2 -11 29.3887 1.99503   4
  -3   2 -11 25.7030 2.13358   1
  -3   2 -11 28.9053 2.00535   4
  -4   2 -11 10.1133 1.52858   4
  -4   2 -11 9.87888 1.43855   1
  -5   2 -11 1.98999 0.89177   1
  -5   2 -11 1.64608 0.83668   4
   7   1 -11 14.6413 1.78979   6
   7   1 -11 14.2425 1.76376   3
   6   1 -11 12.6708 1.58381   6
   6   1 -11 13.2761 1.68247   3
   5   1 -11 56.2489 2.66350   3
   5   1 -11 51.6946 2.56764   6
   4   1 -11 1.33905 0.69303   6
   4   1 -11 3.64903 0.75808   4
   4   1 -11 2.87945 0.81977   3
   3   1 -11 13.1845 1.45874   3
   3   1 -11 12.8640 1.30059   4
   2   1 -11 1.80811 0.66432   3
   2   1 -11 1.86630 0.63639   4
   2   1 -11 1.52484 0.47675   1
   1   1 -11 53.6632 2.41753   3
   1   1 -11 55.9870 1.99839   1
   1   1 -11 60.0135 2.50151   4
   0   1 -11 1.14017 0.56729   4
   0   1 -11 -0.2612 0.36297   1
  -1   1 -11 43.2071 2.27608   4
  -1   1 -11 43.2438 2.04013   1
  -2   1 -11 3.33644 0.82343   1
  -2   1 -11 3.13193 0.87148   4
  -3   1 -11 1.15802 0.67269   4
  -3   1 -11 0.23963 0.52688   1
  -4   1 -11 0.78327 0.65533   1
  -4   1 -11 0.33286 0.63271   4
  -5   1 -11 23.1596 2.34797   4
  -5   1 -11 23.2864 2.19848   1
   7   0 -11 51.7300 2.71445   3
   7   0 -11 49.6001 2.70824   6
   6   0 -11 0.97176 0.68094   6
   6   0 -11 1.79801 0.73660   3
   5   0 -11 3.44536 0.93401   6
   5   0 -11 3.74528 0.90112   3
   4   0 -11 -0.4187 0.37027   6
   4   0 -11 1.31695 0.62120   3
   4   0 -11 0.23465 0.41765   4
   3   0 -11 96.2959 2.93885   4
   3   0 -11 91.5064 3.13518   3
   3   0 -11 92.7263 2.38111   1
   2   0 -11 9.09219 1.18755   3
   2   0 -11 8.74322 0.93140   1
   2   0 -11 9.50757 1.17247   4
   1   0 -11 7.29325 1.08261   4
   1   0 -11 7.09097 0.91917   1
   0   0 -11 10.8908 1.22142   1
   0   0 -11 13.2361 1.44500   4
  -1   0 -11 21.1100 1.72709   1
  -1   0 -11 23.7272 2.10811   4
  -2   0 -11 6.80564 1.13376   1
  -2   0 -11 4.71592 1.07344   4
  -3   0 -11 30.5604 2.15115   4
  -3   0 -11 30.1750 2.03574   1
  -4   0 -11 5.24996 1.13444   4
  -4   0 -11 3.72445 0.99640   1
  -5   0 -11 0.63099 0.73298   1
  -5   0 -11 0.76541 0.68887   4
   8  -1 -11 0.49858 0.72920   3
   7  -1 -11 1.98084 0.73298   3
   7  -1 -11 3.31729 0.99329   6
   6  -1 -11 0.63477 0.64502   6
   6  -1 -11 0.97703 0.63094   3
   5  -1 -11 77.8195 3.05459   6
   5  -1 -11 80.9925 3.00008   3
   4  -1 -11 8.83937 1.03125   4
   4  -1 -11 5.98459 0.71251   1
   4  -1 -11 5.33344 0.97174   6
   4  -1 -11 8.16268 1.12062   3
   3  -1 -11 0.33676 0.36014   1
   3  -1 -11 -0.3631 0.35291   4
   3  -1 -11 -0.3524 0.39729   6
   3  -1 -11 0.41904 0.43829   3
   2  -1 -11 5.61451 0.93990   4
   2  -1 -11 7.10927 1.05484   3
   2  -1 -11 6.35988 0.86485   1
   1  -1 -11 119.062 3.62717   4
   1  -1 -11 116.600 3.24599   1
   0  -1 -11 5.61498 0.95966   1
   0  -1 -11 6.38899 1.09223   4
  -1  -1 -11 17.4562 1.80099   4
  -1  -1 -11 16.8704 1.62386   1
  -2  -1 -11 2.00798 0.75969   1
  -3  -1 -11 1.93281 0.77995   1
  -4  -1 -11 2.52693 0.94910   1
   8  -2 -11 3.59985 1.01679   3
   7  -2 -11 26.0051 1.86298   3
   6  -2 -11 16.4828 1.62504   3
   6  -2 -11 16.6746 1.77691   6
  -6   2  11 18.3796 1.34122   2
   5  -2 -11 5.27129 0.94683   3
   5  -2 -11 4.80601 0.98015   6
  -5   2  11 4.55983 0.86347   2
   4  -2 -11 -0.7412 0.26742   1
   4  -2 -11 0.16885 0.46888   3
   4  -2 -11 0.76227 0.51394   6
   4  -2 -11 -0.0184 0.36357   4
  -4   2  11 0.38302 0.46706   2
   3  -2 -11 36.1746 1.79032   4
   3  -2 -11 35.8437 1.87003   6
   3  -2 -11 33.7645 1.80824   3
   3  -2 -11 36.6402 1.67428   1
   2  -2 -11 15.6252 1.58716   4
   2  -2 -11 13.4541 1.30745   6
   2  -2 -11 16.6929 1.53080   3
   2  -2 -11 14.0032 1.36994   1
   1  -2 -11 2.24034 0.75449   4
   1  -2 -11 2.74938 0.63510   6
   1  -2 -11 2.06821 0.61947   1
   0  -2 -11 1.23945 0.57835   1
   0   2  11 1.75677 0.71323   5
  -1  -2 -11 46.1492 2.35925   1
   1   2  11 50.0806 2.51579   5
  -2  -2 -11 0.95912 0.67088   1
   2   2  11 0.95744 0.73648   5
  -3  -2 -11 35.2754 2.31100   1
   3   2  11 31.2403 2.28117   5
  -4  -2 -11 -0.0669 0.58303   1
   4   2  11 -1.1946 0.57021   5
   7  -3 -11 5.51094 1.03283   3
   6  -3 -11 22.1128 1.81406   3
  -6   3  11 24.0824 1.65337   2
   5  -3 -11 16.7598 1.52846   3
   5  -3 -11 14.4354 1.53741   6
  -5   3  11 17.4607 1.60931   2
   4  -3 -11 27.8071 1.64361   3
   4  -3 -11 29.6048 1.81037   6
   4  -3 -11 28.9549 1.54435   4
  -4   3  11 27.2691 1.77065   2
   3  -3 -11 11.6759 1.27162   4
   3  -3 -11 12.7124 1.32559   6
   3  -3 -11 13.1967 1.29178   3
  -3   3  11 11.3218 1.33751   2
   2  -3 -11 7.30067 1.03848   3
   2  -3 -11 7.74672 1.01291   6
   2  -3 -11 7.29933 1.05081   1
   2  -3 -11 8.64804 1.15060   4
   1  -3 -11 12.2076 1.43890   1
   1  -3 -11 12.2788 1.14447   6
  -1   3  11 12.7872 1.49851   5
   0  -3 -11 13.9936 1.50919   1
   0   3  11 14.5910 1.58609   5
  -1  -3 -11 30.8051 2.00978   1
   1   3  11 34.8729 2.16953   5
  -2  -3 -11 -0.0075 0.52463   1
   2   3  11 1.38529 0.75814   5
  -3  -3 -11 -0.2307 0.59143   1
   3   3  11 -0.0493 0.67925   5
  -7   4  11 2.45766 0.78338   2
  -6   4  11 57.3365 2.65376   2
   5  -4 -11 11.5457 1.20957   3
  -5   4  11 11.4047 1.43047   2
   4  -4 -11 19.6528 1.70094   6
   4  -4 -11 20.2235 1.37966   3
   4  -4 -11 21.4478 1.38363   4
  -4   4  11 19.6950 1.83285   2
   3  -4 -11 1.12330 0.51492   3
   3  -4 -11 0.75748 0.50329   6
   3  -4 -11 1.82377 0.61396   4
  -3   4  11 1.24948 0.66424   2
   2  -4 -11 115.900 3.29936   3
   2  -4 -11 121.985 3.69211   1
   2  -4 -11 118.332 3.15687   6
  -2   4  11 122.319 3.81738   5
   1  -4 -11 23.5706 1.95820   1
  -1   4  11 25.9638 2.14928   5
   0  -4 -11 8.12028 1.19802   1
   0   4  11 11.6540 1.49619   5
  -1  -4 -11 8.28781 1.30130   1
   1   4  11 12.0930 1.57580   5
  -2  -4 -11 19.6103 1.99432   1
   2   4  11 19.1976 1.99963   5
   3   4  11 10.1194 1.63051   5
  -7   5  11 -0.2962 0.56521   2
  -6   5  11 53.6121 2.70277   2
  -5   5  11 0.69198 0.65667   2
  -4   5  11 37.6399 2.30320   2
  -3   5  11 0.46830 0.64493   2
  -3   5  11 0.79997 0.60326   5
  -2   5  11 2.10452 0.77787   5
  -2   5  11 3.99213 1.02927   2
   1  -5 -11 3.05620 0.88384   1
  -1   5  11 2.30881 0.83174   5
   0  -5 -11 58.5321 2.84533   1
   0   5  11 63.8972 3.02607   5
  -1  -5 -11 16.1184 1.90189   1
   1   5  11 13.1389 1.72919   5
  -2  -5 -11 15.1653 1.83311   1
   2   5  11 14.1502 1.82659   5
  -7   6  11 5.34508 1.25943   2
  -6   6  11 24.6780 2.24164   2
  -5   6  11 0.14659 0.57535   2
  -4   6  11 0.21364 0.65024   2
  -4   6  11 0.51521 0.57454   5
  -3   6  11 12.8771 1.77435   2
  -3   6  11 14.0695 1.59043   5
  -2   6  11 61.7025 3.08137   2
  -2   6  11 64.2045 2.89784   5
   1  -6 -11 2.86874 0.90860   1
  -1   6  11 0.81652 0.74897   5
   0  -6 -11 9.43676 1.52856   1
   0   6  11 9.34723 1.53703   5
  -1  -6 -11 9.93904 1.54300   1
   1   6  11 16.6958 2.02201   5
  -6   7  11 2.07291 0.89388   2
  -5   7  11 17.4156 2.04150   2
  -4   7  11 2.33216 0.85395   5
  -4   7  11 1.41667 0.92515   2
  -3   7  11 14.1304 1.64678   5
  -3   7  11 16.5277 2.03826   2
  -2   7  11 2.89957 1.04477   2
  -2   7  11 1.31054 0.82014   5
   1  -7 -11 41.9108 2.57067   1
  -1   7  11 47.8643 2.78041   5
  -4   8  11 0.54230 0.83252   2
  -4   8  11 0.29194 0.67315   5
  -3   8  11 15.9330 2.25284   2
  -3   8  11 13.0625 1.76033   5
   1   8 -12 0.79538 0.75192   3
   1   8 -12 0.20908 0.73711   4
   0   8 -12 6.03986 1.37660   4
   0   8 -12 5.66630 1.19489   3
  -1   8 -12 27.8266 2.56214   4
  -1   8 -12 25.4758 2.32502   3
  -2   8 -12 0.00133 0.70813   4
  -2   8 -12 1.28304 0.78219   3
  -3   8 -12 0.22252 0.74655   4
  -3   8 -12 0.07501 0.66560   1
  -3   8 -12 0.12503 0.68794   3
   3   7 -12 32.7740 2.75125   3
   3   7 -12 33.4057 2.34608   4
   2   7 -12 34.6784 2.38018   4
   2   7 -12 40.3962 2.56677   3
   1   7 -12 57.6262 2.97342   3
   1   7 -12 59.6906 3.07256   4
   0   7 -12 0.54941 0.73097   4
   0   7 -12 1.11329 0.73566   3
  -1   7 -12 1.70429 0.87004   4
  -1   7 -12 0.25278 0.67119   3
  -2   7 -12 11.6304 1.74890   4
  -2   7 -12 10.1155 1.47428   3
  -2   7 -12 9.00762 1.26952   1
  -3   7 -12 31.6835 2.36257   4
  -3   7 -12 33.9548 2.14587   1
  -4   7 -12 0.45660 0.82738   4
  -4   7 -12 1.12628 0.74273   1
   4   6 -12 20.7190 2.21889   3
   4   6 -12 18.3119 1.97877   4
   3   6 -12 54.4254 2.82411   4
   3   6 -12 59.7170 3.07317   3
   2   6 -12 0.12461 0.62019   3
   2   6 -12 -0.0558 0.62176   4
   1   6 -12 11.6837 1.56651   3
   1   6 -12 11.6823 1.57882   4
   0   6 -12 2.88532 0.92643   3
   0   6 -12 4.55907 1.09041   4
  -1   6 -12 48.9188 2.77455   4
  -1   6 -12 49.1330 2.70091   3
  -2   6 -12 1.50134 0.83393   4
  -2   6 -12 2.04293 0.75562   1
  -3   6 -12 2.12081 0.85095   4
  -3   6 -12 1.22412 0.70712   1
  -4   6 -12 1.53731 0.77713   1
  -4   6 -12 2.01650 0.94251   4
   5   5 -12 40.7505 2.81174   3
   5   5 -12 46.8575 2.73537   6
   4   5 -12 3.79485 1.05454   3
   4   5 -12 3.92391 1.00651   4
   3   5 -12 14.3056 1.64409   4
   3   5 -12 18.1274 1.88032   3
   2   5 -12 1.37471 0.66790   4
   2   5 -12 0.28688 0.53263   3
   1   5 -12 43.6943 2.46832   3
   1   5 -12 39.7901 2.37379   4
   0   5 -12 0.17233 0.53497   4
   0   5 -12 0.06281 0.52318   3
  -1   5 -12 4.07118 0.81585   1
  -1   5 -12 4.96933 1.15197   4
  -1   5 -12 3.93136 0.96785   3
  -2   5 -12 1.35204 0.62275   1
  -2   5 -12 1.07942 0.69564   4
  -3   5 -12 14.6728 1.63171   1
  -3   5 -12 17.7527 1.96624   4
  -4   5 -12 10.4964 1.51045   1
  -4   5 -12 7.00519 1.38908   4
   5   4 -12 0.88708 0.81604   3
   5   4 -12 0.77566 0.73458   6
   4   4 -12 36.2986 2.37489   3
   4   4 -12 32.3085 2.04011   4
   3   4 -12 102.198 3.86568   3
   3   4 -12 96.5202 3.44889   4
   2   4 -12 10.6881 1.47919   3
   2   4 -12 13.0614 1.53667   4
   1   4 -12 9.09533 1.33805   3
   1   4 -12 11.2596 1.47004   4
   0   4 -12 31.3622 2.11786   3
   0   4 -12 32.0759 2.09787   4
   0   4 -12 31.4223 1.59912   1
  -1   4 -12 93.0013 3.00274   1
  -1   4 -12 96.2350 3.66885   4
  -2   4 -12 12.1608 1.40384   1
  -2   4 -12 10.7705 1.53968   4
  -3   4 -12 6.39165 1.24759   4
  -3   4 -12 8.41102 1.28113   1
  -4   4 -12 -0.6639 0.54811   4
  -4   4 -12 -0.6869 0.51733   1
  -5   4 -12 5.76908 1.25719   1
  -5   4 -12 7.68594 1.44852   4
   6   3 -12 29.6803 2.50346   6
   6   3 -12 29.9473 2.59192   3
   5   3 -12 44.5272 2.66141   3
   5   3 -12 46.2246 2.61271   6
   4   3 -12 14.7133 1.74505   3
   4   3 -12 16.7678 1.65674   4
   3   3 -12 18.5482 1.73425   4
   3   3 -12 14.2531 1.66744   3
   2   3 -12 46.1563 2.31797   4
   2   3 -12 44.4454 2.45887   3
   1   3 -12 41.1384 1.65978   1
   1   3 -12 38.6920 2.27052   3
   1   3 -12 41.1208 2.21234   4
   0   3 -12 10.2915 1.11990   1
   0   3 -12 9.29045 1.33462   4
   0   3 -12 12.5259 1.48424   3
  -1   3 -12 2.29278 0.83091   4
  -1   3 -12 3.74583 0.81392   1
  -2   3 -12 31.3211 1.90357   1
  -2   3 -12 28.0380 2.08573   4
  -3   3 -12 17.6466 1.94425   4
  -3   3 -12 23.8984 2.08102   1
  -4   3 -12 0.43798 0.68119   4
  -4   3 -12 0.75280 0.71847   1
  -5   3 -12 1.99848 0.97204   4
  -5   3 -12 3.96233 1.08505   1
   6   2 -12 12.5185 1.64252   6
   6   2 -12 11.2497 1.63896   3
   5   2 -12 3.74055 0.97395   6
   5   2 -12 4.81081 1.06807   3
   4   2 -12 55.1798 2.38988   4
   4   2 -12 53.4273 2.69782   3
   4   2 -12 55.0065 2.65680   6
   3   2 -12 21.2845 1.59074   4
   3   2 -12 20.1589 1.84818   3
   2   2 -12 22.7849 1.62862   4
   2   2 -12 21.1094 1.90126   3
   1   2 -12 0.93532 0.44951   1
   1   2 -12 0.28083 0.51711   3
   1   2 -12 0.03351 0.49916   4
   0   2 -12 52.3609 2.54553   4
   0   2 -12 51.8490 2.13313   1
  -1   2 -12 8.50688 1.16027   1
  -1   2 -12 10.8594 1.45860   4
  -2   2 -12 7.78415 1.15043   1
  -2   2 -12 8.14490 1.36593   4
  -3   2 -12 3.48087 1.03211   4
  -3   2 -12 4.15017 0.97263   1
  -4   2 -12 18.5560 2.02122   4
  -4   2 -12 19.3717 1.99639   1
   7   1 -12 0.79603 0.80046   3
   7   1 -12 0.76132 0.75226   6
   6   1 -12 8.67480 1.38284   3
   6   1 -12 8.40310 1.39005   6
   5   1 -12 1.77500 0.75454   3
   5   1 -12 1.95533 0.79238   6
   4   1 -12 47.0939 2.17446   4
   4   1 -12 54.0550 2.68066   3
   4   1 -12 48.1464 2.46978   6
   3   1 -12 5.13676 0.96530   4
   3   1 -12 3.21530 0.90449   3
   2   1 -12 64.7180 2.77437   3
   2   1 -12 61.9185 2.59667   4
   2   1 -12 62.6768 2.06680   1
   1   1 -12 22.9867 1.41000   1
   1   1 -12 24.3160 1.77119   3
   1   1 -12 22.8327 1.69648   4
   0   1 -12 81.9515 3.23213   4
   0   1 -12 87.3756 2.85320   1
  -1   1 -12 2.02488 0.75992   4
  -1   1 -12 2.65733 0.77055   1
  -2   1 -12 55.5037 2.84476   4
  -2   1 -12 58.7701 2.65834   1
  -3   1 -12 2.73454 0.93615   4
  -3   1 -12 3.80771 0.93674   1
  -4   1 -12 17.1958 1.99436   4
  -4   1 -12 12.4255 1.70344   1
   7   0 -12 7.28557 1.37641   3
   7   0 -12 4.88306 1.19458   6
   6   0 -12 11.3631 1.52337   3
   6   0 -12 11.2945 1.51535   6
   5   0 -12 -0.0308 0.56845   3
   5   0 -12 -0.1071 0.54109   6
   4   0 -12 91.2632 3.38638   6
   4   0 -12 92.1602 3.37886   3
   4   0 -12 89.5201 2.92699   4
   3   0 -12 15.2782 1.31521   1
   3   0 -12 17.1041 1.68037   3
   3   0 -12 18.3402 1.63355   4
   3   0 -12 16.5113 1.60328   6
   2   0 -12 48.2072 2.35464   3
   2   0 -12 46.5152 1.88039   1
   2   0 -12 40.7239 2.10553   4
   1   0 -12 4.00370 0.79307   1
   1   0 -12 3.88762 0.90503   4
   1   0 -12 2.76176 0.76402   3
   0   0 -12 33.2881 2.07863   4
   0   0 -12 35.0098 1.86843   1
  -1   0 -12 12.7878 1.58352   4
  -1   0 -12 12.8189 1.46420   1
  -2   0 -12 19.1196 1.89909   1
  -2   0 -12 21.5715 2.08100   4
  -3   0 -12 8.10915 1.31794   1
  -3   0 -12 11.2271 1.68194   4
  -4   0 -12 4.11975 1.10400   4
  -4   0 -12 0.93569 0.78943   1
   7  -1 -12 3.87384 0.97871   3
   7  -1 -12 4.36459 1.11682   6
   6  -1 -12 5.16011 1.11741   6
   6  -1 -12 9.29714 1.38142   3
   5  -1 -12 7.20036 1.19461   6
   5  -1 -12 7.87190 1.21315   3
   4  -1 -12 15.3185 1.40866   4
   4  -1 -12 15.4024 1.61694   6
   4  -1 -12 12.6946 1.42251   3
   3  -1 -12 0.73927 0.55593   3
   3  -1 -12 0.64372 0.47133   4
   3  -1 -12 0.60786 0.42831   1
   3  -1 -12 -0.2004 0.41905   6
   2  -1 -12 11.6937 1.37701   3
   2  -1 -12 11.2507 1.18082   1
   2  -1 -12 10.7174 1.30636   4
   1  -1 -12 55.5608 2.31638   1
   1  -1 -12 58.0411 2.63960   4
   0  -1 -12 27.2536 1.91902   4
   0  -1 -12 24.1167 1.68804   1
  -1  -1 -12 1.63489 0.70599   1
  -1  -1 -12 1.64488 0.76685   4
  -2  -1 -12 16.0908 1.84700   4
  -2  -1 -12 15.9360 1.70911   1
  -3  -1 -12 40.9664 2.62154   4
  -3  -1 -12 42.6649 2.56163   1
   7  -2 -12 3.15888 0.97100   3
   6  -2 -12 0.58573 0.58846   6
   6  -2 -12 0.82243 0.59644   3
   5  -2 -12 2.59312 0.82622   6
   5  -2 -12 1.68006 0.70315   3
   4  -2 -12 30.1580 1.89724   6
   4  -2 -12 30.0359 1.54541   1
   4  -2 -12 29.6625 1.65380   4
   4  -2 -12 28.6098 1.81730   3
   3  -2 -12 48.6434 2.25985   3
   3  -2 -12 48.2392 2.20304   4
   3  -2 -12 48.1595 2.02372   1
   3  -2 -12 47.3006 2.22284   6
   2  -2 -12 4.78834 0.99572   4
   2  -2 -12 5.30431 0.94405   6
   2  -2 -12 5.25368 0.94554   3
   2  -2 -12 4.44415 0.83166   1
   1  -2 -12 1.47792 0.62048   1
   1  -2 -12 0.71885 0.50492   6
   1  -2 -12 2.62066 0.81794   4
   0  -2 -12 24.7980 1.78077   1
   0  -2 -12 25.7243 1.89731   4
  -1  -2 -12 86.1884 3.39725   1
  -2  -2 -12 26.5481 2.24748   1
  -3  -2 -12 0.36350 0.69600   1
   6  -3 -12 4.30450 0.95573   3
  -6   3  12 4.90570 0.98036   2
   5  -3 -12 57.3604 2.67664   6
   5  -3 -12 55.0257 2.42299   3
  -5   3  12 56.3771 2.55828   2
   4  -3 -12 3.39121 0.80844   3
   4  -3 -12 1.59428 0.61265   1
   4  -3 -12 0.51568 0.55714   6
   3  -3 -12 5.45997 0.95929   3
   3  -3 -12 6.71159 1.09402   4
   3  -3 -12 2.91408 0.74070   1
   3  -3 -12 4.20393 0.82472   6
   2  -3 -12 1.51103 0.61467   6
   2  -3 -12 -0.1880 0.50202   4
   2  -3 -12 0.11733 0.42356   3
   2  -3 -12 0.77740 0.54672   1
   1  -3 -12 44.5731 2.39072   4
   1  -3 -12 47.4616 1.96899   6
   1  -3 -12 48.7310 2.36198   1
   0  -3 -12 2.05923 0.75630   1
   0   3  12 1.85646 0.82350   5
  -1  -3 -12 -0.3199 0.58914   1
   1   3  12 -1.0217 0.46167   5
  -2  -3 -12 10.1990 1.50722   1
   2   3  12 9.06056 1.55275   5
  -6   4  12 2.74887 0.85645   2
  -5   4  12 2.31505 0.84633   2
   4  -4 -12 1.80176 0.73737   6
   4  -4 -12 1.45856 0.63235   3
  -4   4  12 1.26433 0.71325   2
   3  -4 -12 21.9413 1.64327   4
   3  -4 -12 24.7339 1.62060   6
   3  -4 -12 23.2612 1.56256   3
   3  -4 -12 24.4044 1.68812   1
   2  -4 -12 13.8961 1.32009   6
   2  -4 -12 13.5564 1.39074   3
   2  -4 -12 13.2145 1.51837   1
  -2   4  12 8.96061 1.39566   5
   1  -4 -12 0.50453 0.64231   1
  -1   4  12 -0.4561 0.50174   5
   0  -4 -12 -0.2849 0.54289   1
   0   4  12 -1.1542 0.51138   5
  -1  -4 -12 41.7322 2.53610   1
   1   4  12 39.9687 2.55137   5
  -2  -4 -12 4.61804 1.28149   1
  -6   5  12 0.11189 0.65159   2
  -5   5  12 37.1441 2.36908   2
  -4   5  12 3.41288 0.96666   2
  -3   5  12 11.1509 1.46465   5
  -3   5  12 12.5053 1.69383   2
   2  -5 -12 8.97039 1.38048   1
  -2   5  12 5.33286 1.14686   5
   1  -5 -12 52.7662 2.71049   1
  -1   5  12 45.2479 2.64099   5
   0  -5 -12 19.1055 1.98983   1
   0   5  12 24.7824 2.30249   5
  -1  -5 -12 8.21323 1.39675   1
   1   5  12 7.72487 1.56863   5
  -6   6  12 -0.0228 0.68031   2
  -5   6  12 4.98365 1.15123   2
  -4   6  12 2.31178 0.96091   2
  -4   6  12 0.90517 0.67634   5
  -3   6  12 11.7527 1.52095   5
  -3   6  12 11.7154 1.66931   2
   2  -6 -12 9.17855 1.45355   1
  -2   6  12 10.7301 1.57547   5
   1  -6 -12 2.77221 0.99066   1
  -1   6  12 1.36889 0.83182   5
  -4   7  12 0.85738 0.81337   2
  -4   7  12 2.35754 0.84730   5
  -3   7  12 3.08308 1.04043   5
  -3   7  12 4.02259 1.23396   2
   2   7 -13 52.2375 3.25790   3
   2   7 -13 56.7806 3.07193   4
   1   7 -13 11.2636 1.67420   3
   1   7 -13 9.66786 1.58143   4
   0   7 -13 3.48802 1.09859   4
   0   7 -13 1.93568 0.89817   3
  -1   7 -13 9.63094 1.58990   4
  -1   7 -13 9.27782 1.49252   3
  -2   7 -13 67.1530 3.52193   4
  -2   7 -13 65.5155 3.30586   3
   3   6 -13 2.77812 0.99881   3
   3   6 -13 1.04030 0.83583   4
   2   6 -13 0.16376 0.64695   3
   2   6 -13 0.60581 0.70252   4
   1   6 -13 8.28106 1.49804   3
   1   6 -13 11.1427 1.63613   4
   0   6 -13 72.3217 3.35515   3
   0   6 -13 70.8343 3.35343   4
  -1   6 -13 9.51527 1.52098   3
  -1   6 -13 9.76801 1.51879   4
  -2   6 -13 2.31194 0.82094   1
  -2   6 -13 5.03842 1.25681   4
  -2   6 -13 1.40340 0.85625   3
  -3   6 -13 0.08233 0.65532   1
  -3   6 -13 0.20001 0.67314   4
   4   5 -13 -0.1971 0.70447   3
   4   5 -13 0.86430 0.83170   4
   3   5 -13 1.20468 0.75934   3
   3   5 -13 1.42400 0.81203   4
   2   5 -13 16.9299 1.92214   3
   2   5 -13 21.7787 2.12841   4
   1   5 -13 9.65679 1.49139   4
   1   5 -13 12.1390 1.61155   3
   0   5 -13 6.78801 1.26759   3
   0   5 -13 5.52164 1.23651   4
  -1   5 -13 22.1016 2.15150   3
  -1   5 -13 19.8344 2.11020   4
  -2   5 -13 29.7751 1.94301   1
  -2   5 -13 30.4972 2.64587   4
  -3   5 -13 26.7591 2.53488   4
  -3   5 -13 29.6198 2.05294   1
   5   4 -13 0.86442 0.85619   6
   4   4 -13 4.50522 1.22690   3
   4   4 -13 5.02715 1.07049   4
   3   4 -13 6.06620 1.10866   4
   3   4 -13 5.91860 1.20233   3
   2   4 -13 0.03867 0.57046   4
   2   4 -13 -0.0062 0.57267   3
   1   4 -13 10.4282 1.49775   3
   1   4 -13 5.71768 1.24776   4
   0   4 -13 4.43559 1.06537   4
   0   4 -13 3.17729 0.98616   3
  -1   4 -13 48.8575 2.26528   1
  -1   4 -13 54.4848 2.91029   4
  -2   4 -13 1.31982 0.78770   4
  -2   4 -13 1.00722 0.68840   1
  -3   4 -13 0.97023 0.70605   1
  -3   4 -13 1.57503 0.76117   4
   5   3 -13 0.79463 0.80518   6
   5   3 -13 3.14807 0.98487   3
   4   3 -13 -0.2471 0.55403   4
   4   3 -13 0.28790 0.69143   3
   3   3 -13 11.9885 1.47266   4
   3   3 -13 15.1443 1.80389   3
   2   3 -13 1.00210 0.64170   4
   2   3 -13 0.13129 0.53494   3
   1   3 -13 36.8204 2.35773   3
   1   3 -13 41.8180 2.35397   4
   0   3 -13 0.31222 0.51130   1
   0   3 -13 1.17263 0.77098   4
   0   3 -13 -0.1183 0.54930   3
  -1   3 -13 27.2025 2.43949   4
  -1   3 -13 26.6223 1.77276   1
  -2   3 -13 4.69186 1.19451   4
  -2   3 -13 4.72810 1.02637   1
  -3   3 -13 41.8783 2.42208   1
  -3   3 -13 36.0809 2.55509   4
  -4   3 -13 -0.1813 0.62271   1
   6   2 -13 0.98063 0.83474   3
   5   2 -13 21.6916 2.26656   6
   5   2 -13 28.6443 2.45958   3
   4   2 -13 6.64616 1.11580   4
   4   2 -13 7.14903 1.35157   3
   4   2 -13 7.62306 1.24703   6
   3   2 -13 3.24190 0.84846   4
   3   2 -13 3.72791 0.98631   3
   2   2 -13 0.26195 0.55266   4
   2   2 -13 1.01914 0.66973   3
   1   2 -13 4.70679 1.02440   3
   1   2 -13 3.22825 0.91250   4
   1   2 -13 4.19870 0.77730   1
   0   2 -13 13.7355 1.67853   3
   0   2 -13 14.0964 1.74035   4
   0   2 -13 10.0696 1.22387   1
  -1   2 -13 40.3703 2.13293   1
  -1   2 -13 41.1832 2.52413   4
  -2   2 -13 8.39632 1.24605   1
  -2   2 -13 7.03522 1.29571   4
  -3   2 -13 1.87373 0.91139   4
  -3   2 -13 1.66171 0.76298   1
   6   1 -13 4.49346 1.11454   6
   6   1 -13 4.33273 1.20517   3
   5   1 -13 7.33988 1.29491   6
   5   1 -13 5.91801 1.20374   3
   4   1 -13 5.81409 1.19854   3
   4   1 -13 6.65922 1.09518   4
   4   1 -13 6.83223 1.28930   6
   3   1 -13 29.3920 2.07190   3
   3   1 -13 28.1296 1.84403   4
   2   1 -13 8.40783 1.22031   4
   2   1 -13 8.24079 1.29574   3
   1   1 -13 25.9360 1.91190   4
   1   1 -13 29.1574 1.64434   1
   1   1 -13 29.4356 2.06432   3
   0   1 -13 9.46311 1.22922   1
   0   1 -13 8.87956 1.42173   4
  -1   1 -13 37.2216 2.40232   4
  -1   1 -13 36.0329 2.05113   1
  -2   1 -13 0.62373 0.65569   4
  -2   1 -13 1.40025 0.75642   1
  -3   1 -13 12.7263 1.70036   1
  -3   1 -13 10.7682 1.59368   4
   6   0 -13 11.1688 1.58548   6
   6   0 -13 9.54755 1.51511   3
   5   0 -13 33.6094 2.26458   6
   5   0 -13 31.8924 2.18510   3
   4   0 -13 4.85791 1.06708   6
   4   0 -13 5.42252 1.11275   3
   4   0 -13 5.67199 1.02147   4
   3   0 -13 2.60658 0.75997   4
   3   0 -13 2.10994 0.75402   6
   3   0 -13 2.18080 0.81153   3
   2   0 -13 0.04383 0.45492   1
   2   0 -13 -0.4294 0.48403   3
   2   0 -13 0.55027 0.47909   4
   1   0 -13 7.73128 1.25595   3
   1   0 -13 5.90054 1.15600   4
   1   0 -13 4.97293 0.88772   1
   0   0 -13 54.9126 2.77588   4
   0   0 -13 53.3276 2.41686   1
  -1   0 -13 12.8865 1.70678   4
  -1   0 -13 17.8831 1.77098   1
  -2   0 -13 6.25982 1.20229   1
  -2   0 -13 5.01345 1.22677   4
  -3   0 -13 0.40416 0.69618   1
  -3   0 -13 1.96092 0.90024   4
   6  -1 -13 6.48168 1.25167   3
   6  -1 -13 8.64624 1.45188   6
   5  -1 -13 26.1083 2.20595   3
   5  -1 -13 32.1643 2.18524   6
   4  -1 -13 26.5825 1.90384   6
   4  -1 -13 26.9525 1.90773   3
   3  -1 -13 6.50899 1.13082   3
   3  -1 -13 6.28797 1.13216   6
   3  -1 -13 5.76502 1.05834   4
   2  -1 -13 24.2358 1.76763   3
   2  -1 -13 22.5440 2.01116   4
   2  -1 -13 23.1668 1.93659   6
   2  -1 -13 21.0446 1.48823   1
   1  -1 -13 3.27518 0.85068   1
   1  -1 -13 3.55371 0.88661   3
   1  -1 -13 2.34686 0.82827   4
   0  -1 -13 6.89788 1.13601   1
   0  -1 -13 10.1847 1.49516   4
  -1  -1 -13 10.9695 1.67921   4
  -1  -1 -13 12.3912 1.53451   1
  -2  -1 -13 14.7094 1.98552   4
  -2  -1 -13 14.9787 1.80246   1
   6  -2 -13 1.05491 0.80471   6
   6  -2 -13 -0.2616 0.57552   3
   5  -2 -13 -0.4977 0.56102   6
   5  -2 -13 -0.7711 0.49734   3
   4  -2 -13 52.8389 2.56058   6
   4  -2 -13 51.9343 2.47775   3
   3  -2 -13 -0.6828 0.40962   1
   3  -2 -13 0.13387 0.47649   6
   3  -2 -13 -0.3872 0.47022   3
   3  -2 -13 0.51712 0.57546   4
   2  -2 -13 3.19143 0.86614   3
   2  -2 -13 2.31160 0.73151   6
   2  -2 -13 2.43963 0.80627   4
   2  -2 -13 2.56898 0.74435   1
   1  -2 -13 2.06325 0.67317   6
   1  -2 -13 4.42070 1.10165   4
   1  -2 -13 2.88922 0.79801   1
   0  -2 -13 94.9338 3.79071   4
   0  -2 -13 103.212 3.65755   1
  -1  -2 -13 5.85297 1.23928   4
  -1  -2 -13 5.16428 1.15120   1
  -2  -2 -13 1.39805 0.78282   4
  -2  -2 -13 1.05389 0.84961   1
   5  -3 -13 1.78286 0.82462   6
   5  -3 -13 2.32469 0.83209   3
   4  -3 -13 4.86826 1.05019   6
   4  -3 -13 2.88896 0.84159   3
   3  -3 -13 4.45701 0.90373   1
   3  -3 -13 1.67899 0.66398   6
   3  -3 -13 4.32498 0.93262   3
   3  -3 -13 2.51003 0.77612   4
   2  -3 -13 23.8079 1.74945   3
   2  -3 -13 22.6817 1.57764   6
   2  -3 -13 19.0998 1.90565   4
   2  -3 -13 22.1998 1.91149   1
   1  -3 -13 11.5476 1.48746   1
   1  -3 -13 6.94229 1.25435   4
   0  -3 -13 -0.0369 0.60959   4
   0  -3 -13 0.71560 0.63769   1
  -1  -3 -13 -0.4899 0.60110   1
  -6   4  13 9.40876 1.37458   2
  -5   4  13 42.3191 2.44492   2
   4  -4 -13 21.3932 1.83316   1
   3  -4 -13 6.04824 1.08072   1
   3  -4 -13 7.19491 1.23328   4
   3  -4 -13 6.17296 1.07488   6
   2  -4 -13 2.11114 0.77388   4
   2  -4 -13 0.02380 0.51831   1
   1  -4 -13 1.57546 0.77315   1
  -1   4  13 0.00306 0.69736   5
   0  -4 -13 44.4569 2.62361   1
   0   4  13 47.1987 2.81445   5
  -5   5  13 14.7671 1.86089   2
   4  -5 -13 -0.0172 0.53395   1
   3  -5 -13 4.53884 1.03745   1
   2  -5 -13 13.3889 1.68942   1
  -2   5  13 10.5874 1.58619   5
   1  -5 -13 47.6147 2.65417   1
  -1   5  13 47.2863 2.81757   5
   1   6 -14 43.8480 3.03843   3
   1   6 -14 53.0665 3.04238   4
   0   6 -14 18.8050 2.12178   3
   0   6 -14 20.1037 2.20606   4
  -1   6 -14 14.0524 2.07327   3
  -1   6 -14 15.8748 2.02802   4
   2   5 -14 3.24388 1.09967   3
   2   5 -14 2.00094 0.91716   4
   1   5 -14 4.80300 1.19991   3
   1   5 -14 3.62767 1.13333   4
   0   5 -14 65.0000 3.22829   3
   0   5 -14 58.2723 3.15122   4
  -1   5 -14 0.16880 0.67466   3
  -1   5 -14 -0.3562 0.66588   4
  -2   5 -14 68.7951 3.76935   4
   3   4 -14 6.93771 1.41468   3
   3   4 -14 8.74294 1.44855   4
   2   4 -14 88.9354 3.81962   3
   2   4 -14 81.9732 3.49678   4
   1   4 -14 2.75377 0.94592   3
   1   4 -14 2.89924 0.97510   4
   0   4 -14 58.4389 3.09670   3
   0   4 -14 51.8058 2.94637   4
  -1   4 -14 3.66228 1.09516   4
  -1   4 -14 5.52063 1.29167   3
  -2   4 -14 0.40202 0.62667   1
  -2   4 -14 0.88610 0.82789   4
   4   3 -14 31.9561 2.76372   3
   3   3 -14 1.37067 0.78692   4
   3   3 -14 -0.0538 0.75661   3
   2   3 -14 56.8856 2.80353   4
   2   3 -14 48.0122 2.81215   3
   1   3 -14 1.56285 0.82451   3
   1   3 -14 2.03839 0.86909   4
   0   3 -14 0.96656 0.79321   3
   0   3 -14 1.42242 0.81492   4
  -1   3 -14 28.4030 2.55930   4
  -1   3 -14 27.9270 1.92936   1
  -2   3 -14 38.6719 2.66777   4
  -2   3 -14 39.9449 2.36058   1
   5   2 -14 18.2318 2.12890   3
   4   2 -14 13.1025 1.76982   3
   4   2 -14 17.2751 1.94502   6
   3   2 -14 21.9525 2.16357   3
   3   2 -14 27.6635 2.01659   4
   2   2 -14 32.6150 2.16277   4
   2   2 -14 33.8508 2.31489   3
   1   2 -14 82.1304 3.48482   4
   1   2 -14 89.0157 3.67511   3
   0   2 -14 6.59483 1.06002   1
   0   2 -14 7.32334 1.37589   3
   0   2 -14 7.08044 1.34905   4
  -1   2 -14 23.8846 2.36700   4
  -1   2 -14 25.1013 2.07886   1
  -2   2 -14 -0.2845 0.60312   4
  -2   2 -14 0.42917 0.60644   1
   5   1 -14 38.4049 2.57440   3
   5   1 -14 35.0510 2.43966   6
   4   1 -14 1.26669 0.87700   3
   4   1 -14 0.81884 0.69991   6
   3   1 -14 114.948 3.88258   4
   3   1 -14 114.930 4.14830   3
   2   1 -14 25.5247 2.30326   3
   2   1 -14 23.9115 2.16302   4
   1   1 -14 16.0643 1.83025   3
   1   1 -14 13.5137 1.69266   4
   0   1 -14 0.38608 0.67645   4
   0   1 -14 0.89579 0.65148   1
  -1   1 -14 2.97645 0.89168   1
  -1   1 -14 2.42576 0.90057   4
  -2   1 -14 9.60410 1.41382   1
  -2   1 -14 9.61649 1.58072   4
   5   0 -14 33.1231 2.32971   6
   5   0 -14 31.0480 2.24853   3
   4   0 -14 5.51110 1.17418   6
   4   0 -14 7.41861 1.34615   3
   3   0 -14 6.63999 1.22968   6
   3   0 -14 6.73939 1.19022   4
   3   0 -14 6.79301 1.28442   3
   2   0 -14 1.97725 0.80717   3
   2   0 -14 1.04965 0.71848   4
   1   0 -14 18.5917 1.71918   1
   1   0 -14 19.4682 2.04154   4
   1   0 -14 20.4201 2.02594   3
   0   0 -14 3.58489 0.91197   1
   0   0 -14 2.01536 0.85936   4
  -1   0 -14 8.40695 1.32047   1
  -1   0 -14 7.72458 1.40705   4
  -2   0 -14 2.20740 0.90084   1
  -2   0 -14 2.69193 0.97418   4
   5  -1 -14 3.85923 1.00306   3
   5  -1 -14 3.11966 1.04869   6
   4  -1 -14 10.7212 1.51057   3
   4  -1 -14 11.0926 1.48732   6
   3  -1 -14 66.9105 2.93404   6
   3  -1 -14 68.4608 3.01225   3
   3  -1 -14 67.0978 2.89249   4
   2  -1 -14 21.4099 1.98209   3
   2  -1 -14 17.3439 1.85771   4
   2  -1 -14 21.2711 1.87391   6
   2  -1 -14 18.0382 1.66011   1
   1  -1 -14 -0.3702 0.50250   1
   1  -1 -14 0.25143 0.60807   4
   1  -1 -14 -0.4565 0.48463   3
   0  -1 -14 4.82404 1.04677   1
   0  -1 -14 3.86814 1.09010   4
  -1  -1 -14 13.0153 1.85430   4
  -1  -1 -14 12.3754 1.61000   1
   5  -2 -14 15.8471 1.75997   3
   5  -2 -14 19.2006 2.02767   6
   4  -2 -14 35.9590 2.24832   6
   4  -2 -14 33.2921 2.18128   3
   3  -2 -14 4.12485 1.01991   4
   3  -2 -14 5.30950 1.06902   6
   3  -2 -14 6.33347 1.16986   3
   2  -2 -14 0.66874 0.65184   4
   2  -2 -14 0.87692 0.65438   3
   2  -2 -14 0.25035 0.55966   6
   2  -2 -14 0.71023 0.63088   1
   1  -2 -14 21.4202 2.11444   4
   1  -2 -14 18.6229 1.85644   3
   1  -2 -14 23.9944 2.11199   1
   0  -2 -14 4.25368 1.05794   1
   0  -2 -14 2.93152 1.00069   4
   5  -3 -14 0.16668 0.66384   6
   4  -3 -14 0.56806 0.62467   6
   3  -3 -14 18.0797 1.76443   1
   3  -3 -14 16.6888 1.96471   4
   3  -3 -14 16.8855 1.71004   6
   3  -3 -14 14.1578 1.61099   3
   2  -3 -14 1.30910 0.74854   1
   2  -3 -14 1.80711 0.81060   3
   2  -3 -14 2.65569 0.93929   4
   1  -3 -14 1.81201 0.81923   3
   1  -3 -14 2.01009 0.83847   1
   1  -3 -14 2.73685 0.99457   4
   0  -3 -14 5.86215 1.30200   4
   3  -4 -14 2.78344 0.81534   1
   2  -4 -14 15.2162 1.89827   4
   2  -4 -14 15.2103 1.68792   1
   1   4 -15 49.7850 2.91318   4
   2   3 -15 9.47011 1.60666   3
   2   3 -15 11.0643 1.58100   4
   1   3 -15 -0.1961 0.67942   3
   1   3 -15 1.03022 0.88291   4
   0   3 -15 6.32198 1.36419   3
   0   3 -15 8.73449 1.56205   4
   3   2 -15 1.33255 0.90132   4
   3   2 -15 0.86036 0.86726   3
   2   2 -15 20.1800 2.19568   3
   2   2 -15 22.6247 2.26429   4
   1   2 -15 17.8783 2.01923   4
   1   2 -15 19.2722 2.14359   3
   0   2 -15 0.64945 0.81627   4
   0   2 -15 0.13631 0.70385   3
   3   1 -15 10.4414 1.53825   6
   3   1 -15 12.3127 1.64449   4
   3   1 -15 7.44291 1.40670   3
   2   1 -15 23.0256 2.19031   4
   2   1 -15 16.5693 1.96241   3
   1   1 -15 6.47076 1.28911   4
   1   1 -15 6.20247 1.36947   3
   0   1 -15 76.5112 3.55467   3
   0   1 -15 82.5027 3.66207   4
   3   0 -15 4.59566 1.11489   3
   3   0 -15 6.05828 1.18415   4
   3   0 -15 5.69240 1.21547   6
   2   0 -15 14.6453 1.82056   4
   2   0 -15 16.9710 1.97502   3
   2   0 -15 14.2562 1.70208   6
   1   0 -15 0.43362 0.63400   4
   1   0 -15 0.25622 0.64935   3
   0   0 -15 5.57237 1.15167   1
   0   0 -15 6.84767 1.38140   4
   0   0 -15 4.80814 1.16800   3
   3  -1 -15 -0.9782 0.47989   6
   3  -1 -15 0.63745 0.73138   3
   2  -1 -15 13.0552 1.62521   6
   2  -1 -15 19.4516 1.99936   3
   2  -1 -15 16.8748 1.95867   4
   1  -1 -15 36.5797 2.19805   1
   1  -1 -15 33.0146 2.35003   3
   1  -1 -15 34.8894 2.44026   4
   0   0   0    0.00    0.00   0
;
_shelx_hkl_checksum              27267
_shelx_shelxl_version_number     2014/7
_olex2_date_sample_data_collection 2015-03-11
_olex2_date_sample_submission    2015-03-11
_olex2_submission_original_sample_id jjw0327
_olex2_submission_special_instructions 'No special instructions were received'
loop_
_space_group_symop_operation_xyz
'x, y, z'
'-x, -y, -z'
loop_
_atom_site_label
_atom_site_type_symbol
_atom_site_fract_x
_atom_site_fract_y
_atom_site_fract_z
_atom_site_U_iso_or_equiv
_atom_site_adp_type
_atom_site_occupancy
_atom_site_site_symmetry_order
_atom_site_calc_flag
_atom_site_refinement_flags_posn
_atom_site_refinement_flags_adp
_atom_site_refinement_flags_occupancy
_atom_site_disorder_assembly
_atom_site_disorder_group
S1 S 0.64664(5) 0.81512(4) 0.22408(3) 0.01636(9) Uani 1 1 d . . . . .
P1 P 0.13914(6) 0.70132(4) 0.54878(3) 0.02044(10) Uani 1 1 d . . . . .
F1 F 0.90224(14) 0.66513(12) 0.23563(10) 0.0313(2) Uani 1 1 d . . . . .
F2 F 0.65694(16) 0.56795(12) 0.32841(11) 0.0378(3) Uani 1 1 d . . . . .
F3 F 0.60861(16) 0.52888(12) 0.12711(11) 0.0401(3) Uani 1 1 d . . . . .
O3 O 0.77513(16) 0.91822(13) 0.33514(10) 0.0250(2) Uani 1 1 d . . . . .
O2 O 0.69844(18) 0.86458(14) 0.10808(10) 0.0296(3) Uani 1 1 d . . . . .
O1 O 0.43584(16) 0.75991(13) 0.22544(11) 0.0256(2) Uani 1 1 d . . . . .
N1 N 0.25962(17) 0.75729(13) 0.79309(11) 0.0172(2) Uani 1 1 d . . . . .
N2 N 0.39033(18) 0.79755(13) 0.61951(11) 0.0179(2) Uani 1 1 d . . . . .
C7 C 0.43180(19) 0.81954(14) 0.74730(11) 0.0134(2) Uani 1 1 d . . . . .
C6 C 0.2519(2) 0.76068(16) 0.91981(13) 0.0191(3) Uani 1 1 d . . . . .
H6 H 0.3676 0.8091 0.9810 0.023 Uiso 1 1 calc R . . . .
C8 C 0.6263(2) 0.89257(16) 0.81689(12) 0.0170(3) Uani 1 1 d . . . . .
H8 H 0.6519 0.9053 0.9041 0.020 Uiso 1 1 calc R . . . .
C1 C 0.0908(2) 0.68789(15) 0.69875(13) 0.0173(3) Uani 1 1 d . . . . .
C12 C 0.7076(2) 0.63572(17) 0.22902(14) 0.0216(3) Uani 1 1 d . . . . .
C9 C 0.7786(2) 0.94513(17) 0.75300(13) 0.0197(3) Uani 1 1 d . . . . .
H9 H 0.9098 0.9951 0.7970 0.024 Uiso 1 1 calc R . . . .
C5 C 0.0733(2) 0.69229(18) 0.95234(15) 0.0239(3) Uani 1 1 d . . . . .
H5 H 0.0654 0.6945 1.0367 0.029 Uiso 1 1 calc R . . . .
C11 C 0.5457(2) 0.85074(16) 0.55584(13) 0.0195(3) Uani 1 1 d . . . . .
H11 H 0.5188 0.8365 0.4686 0.023 Uiso 1 1 calc R . . . .
C3 C -0.0941(2) 0.61477(18) 0.73501(16) 0.0247(3) Uani 1 1 d . . . . .
H3 H -0.2100 0.5650 0.6742 0.030 Uiso 1 1 calc R . . . .
C10 C 0.7369(2) 0.92352(17) 0.62042(14) 0.0205(3) Uani 1 1 d . . . . .
H10 H 0.8406 0.9592 0.5773 0.025 Uiso 1 1 calc R . . . .
C4 C -0.1022(2) 0.61725(18) 0.85846(16) 0.0266(3) Uani 1 1 d . . . . .
H4 H -0.2241 0.5692 0.8817 0.032 Uiso 1 1 calc R . . . .
loop_
_atom_site_aniso_label
_atom_site_aniso_U_11
_atom_site_aniso_U_22
_atom_site_aniso_U_33
_atom_site_aniso_U_23
_atom_site_aniso_U_13
_atom_site_aniso_U_12
S1 0.01866(17) 0.01527(16) 0.01520(15) 0.00340(11) 0.00305(12) 0.00594(12)
P1 0.02042(18) 0.01883(18) 0.01770(17) 0.00146(13) -0.00093(13) 0.00377(14)
F1 0.0231(5) 0.0412(6) 0.0371(5) 0.0078(4) 0.0084(4) 0.0197(4)
F2 0.0417(6) 0.0356(6) 0.0480(6) 0.0283(5) 0.0182(5) 0.0194(5)
F3 0.0395(6) 0.0284(5) 0.0468(6) -0.0156(5) -0.0027(5) 0.0151(5)
O3 0.0272(6) 0.0218(5) 0.0198(5) -0.0042(4) 0.0041(4) 0.0028(4)
O2 0.0335(6) 0.0355(6) 0.0183(5) 0.0132(5) 0.0044(4) 0.0084(5)
O1 0.0187(5) 0.0261(5) 0.0341(6) 0.0050(5) 0.0055(4) 0.0103(4)
N1 0.0177(5) 0.0153(5) 0.0193(5) 0.0040(4) 0.0050(4) 0.0058(4)
N2 0.0211(6) 0.0157(5) 0.0165(5) 0.0027(4) 0.0034(4) 0.0061(4)
C7 0.0162(6) 0.0118(5) 0.0132(5) 0.0030(4) 0.0043(4) 0.0052(4)
C6 0.0232(7) 0.0176(6) 0.0187(6) 0.0044(5) 0.0076(5) 0.0082(5)
C8 0.0180(6) 0.0175(6) 0.0151(6) 0.0032(5) 0.0019(5) 0.0061(5)
C1 0.0154(6) 0.0139(6) 0.0222(6) 0.0035(5) 0.0027(5) 0.0048(5)
C12 0.0202(7) 0.0208(7) 0.0250(7) 0.0036(5) 0.0042(5) 0.0088(5)
C9 0.0168(6) 0.0199(6) 0.0217(6) 0.0047(5) 0.0034(5) 0.0052(5)
C5 0.0284(8) 0.0231(7) 0.0262(7) 0.0095(6) 0.0148(6) 0.0110(6)
C11 0.0250(7) 0.0200(6) 0.0164(6) 0.0051(5) 0.0077(5) 0.0094(5)
C3 0.0173(6) 0.0197(7) 0.0359(8) 0.0046(6) 0.0049(6) 0.0052(5)
C10 0.0219(7) 0.0210(6) 0.0214(6) 0.0072(5) 0.0092(5) 0.0080(5)
C4 0.0220(7) 0.0223(7) 0.0394(9) 0.0101(6) 0.0146(6) 0.0074(6)
loop_
_atom_type_symbol
_atom_type_description
_atom_type_scat_dispersion_real
_atom_type_scat_dispersion_imag
_atom_type_scat_source
C C 0.0033 0.0016 'International Tables Vol C Tables 4.2.6.8 and 6.1.1.4'
H H 0.0000 0.0000 'International Tables Vol C Tables 4.2.6.8 and 6.1.1.4'
F F 0.0171 0.0103 'International Tables Vol C Tables 4.2.6.8 and 6.1.1.4'
N N 0.0061 0.0033 'International Tables Vol C Tables 4.2.6.8 and 6.1.1.4'
O O 0.0106 0.0060 'International Tables Vol C Tables 4.2.6.8 and 6.1.1.4'
P P 0.1023 0.0942 'International Tables Vol C Tables 4.2.6.8 and 6.1.1.4'
S S 0.1246 0.1234 'International Tables Vol C Tables 4.2.6.8 and 6.1.1.4'
loop_
_geom_angle_atom_site_label_1
_geom_angle_atom_site_label_2
_geom_angle_atom_site_label_3
_geom_angle
_geom_angle_site_symmetry_1
_geom_angle_site_symmetry_3
_geom_angle_publ_flag
O3 S1 O2 114.27(7) . . ?
O3 S1 O1 115.51(7) . . ?
O3 S1 C12 103.27(7) . . ?
O2 S1 C12 103.03(7) . . ?
O1 S1 O2 115.26(7) . . ?
O1 S1 C12 103.03(7) . . ?
C1 P1 N2 87.08(6) . . ?
C7 N1 C6 124.70(12) . . ?
C7 N1 C1 112.73(11) . . ?
C1 N1 C6 122.56(12) . . ?
C7 N2 P1 115.69(9) . . ?
C7 N2 C11 119.25(12) . . ?
C11 N2 P1 125.05(10) . . ?
N1 C7 C8 127.05(12) . . ?
N2 C7 N1 110.72(11) . . ?
N2 C7 C8 122.21(12) . . ?
N1 C6 H6 120.6 . . ?
C5 C6 N1 118.82(14) . . ?
C5 C6 H6 120.6 . . ?
C7 C8 H8 121.0 . . ?
C9 C8 C7 118.04(12) . . ?
C9 C8 H8 121.0 . . ?
N1 C1 P1 113.75(10) . . ?
N1 C1 C3 117.61(13) . . ?
C3 C1 P1 128.63(11) . . ?
F1 C12 S1 111.90(10) . . ?
F1 C12 F2 107.67(12) . . ?
F1 C12 F3 107.64(12) . . ?
F2 C12 S1 111.03(10) . . ?
F2 C12 F3 107.12(12) . . ?
F3 C12 S1 111.26(10) . . ?
C8 C9 H9 119.9 . . ?
C8 C9 C10 120.13(13) . . ?
C10 C9 H9 119.9 . . ?
C6 C5 H5 119.9 . . ?
C6 C5 C4 120.28(14) . . ?
C4 C5 H5 119.9 . . ?
N2 C11 H11 119.9 . . ?
C10 C11 N2 120.23(13) . . ?
C10 C11 H11 119.9 . . ?
C1 C3 H3 120.0 . . ?
C4 C3 C1 120.02(14) . . ?
C4 C3 H3 120.0 . . ?
C9 C10 H10 119.9 . . ?
C11 C10 C9 120.13(13) . . ?
C11 C10 H10 119.9 . . ?
C5 C4 H4 119.7 . . ?
C3 C4 C5 120.68(14) . . ?
C3 C4 H4 119.7 . . ?
loop_
_geom_bond_atom_site_label_1
_geom_bond_atom_site_label_2
_geom_bond_distance
_geom_bond_site_symmetry_2
_geom_bond_publ_flag
S1 O3 1.4387(11) . ?
S1 O2 1.4433(11) . ?
S1 O1 1.4389(11) . ?
S1 C12 1.8224(15) . ?
P1 N2 1.7413(13) . ?
P1 C1 1.7333(14) . ?
F1 C12 1.3300(17) . ?
F2 C12 1.3348(17) . ?
F3 C12 1.3351(17) . ?
N1 C7 1.3765(16) . ?
N1 C6 1.3912(17) . ?
N1 C1 1.3855(18) . ?
N2 C7 1.3617(16) . ?
N2 C11 1.3859(18) . ?
C7 C8 1.3936(18) . ?
C6 H6 0.9300 . ?
C6 C5 1.352(2) . ?
C8 H8 0.9300 . ?
C8 C9 1.3704(19) . ?
C1 C3 1.4160(19) . ?
C9 H9 0.9300 . ?
C9 C10 1.413(2) . ?
C5 H5 0.9300 . ?
C5 C4 1.418(2) . ?
C11 H11 0.9300 . ?
C11 C10 1.357(2) . ?
C3 H3 0.9300 . ?
C3 C4 1.357(2) . ?
C10 H10 0.9300 . ?
C4 H4 0.9300 . ?
loop_
_geom_torsion_atom_site_label_1
_geom_torsion_atom_site_label_2
_geom_torsion_atom_site_label_3
_geom_torsion_atom_site_label_4
_geom_torsion
_geom_torsion_site_symmetry_1
_geom_torsion_site_symmetry_2
_geom_torsion_site_symmetry_3
_geom_torsion_site_symmetry_4
_geom_torsion_publ_flag
P1 N2 C7 N1 0.50(14) . . . . ?
P1 N2 C7 C8 179.02(10) . . . . ?
P1 N2 C11 C10 -179.51(11) . . . . ?
P1 C1 C3 C4 -179.66(12) . . . . ?
O3 S1 C12 F1 -55.84(12) . . . . ?
O3 S1 C12 F2 64.50(12) . . . . ?
O3 S1 C12 F3 -176.30(10) . . . . ?
O2 S1 C12 F1 63.37(12) . . . . ?
O2 S1 C12 F2 -176.29(10) . . . . ?
O2 S1 C12 F3 -57.08(12) . . . . ?
O1 S1 C12 F1 -176.42(10) . . . . ?
O1 S1 C12 F2 -56.08(12) . . . . ?
O1 S1 C12 F3 63.13(12) . . . . ?
N1 C7 C8 C9 179.14(13) . . . . ?
N1 C6 C5 C4 0.6(2) . . . . ?
N1 C1 C3 C4 1.4(2) . . . . ?
N2 P1 C1 N1 1.33(10) . . . . ?
N2 P1 C1 C3 -177.67(14) . . . . ?
N2 C7 C8 C9 0.9(2) . . . . ?
N2 C11 C10 C9 0.1(2) . . . . ?
C7 N1 C6 C5 -178.68(13) . . . . ?
C7 N1 C1 P1 -1.36(15) . . . . ?
C7 N1 C1 C3 177.76(12) . . . . ?
C7 N2 C11 C10 0.2(2) . . . . ?
C7 C8 C9 C10 -0.5(2) . . . . ?
C6 N1 C7 N2 179.96(12) . . . . ?
C6 N1 C7 C8 1.5(2) . . . . ?
C6 N1 C1 P1 179.21(10) . . . . ?
C6 N1 C1 C3 -1.67(19) . . . . ?
C6 C5 C4 C3 -0.9(2) . . . . ?
C8 C9 C10 C11 0.1(2) . . . . ?
C1 P1 N2 C7 -1.05(10) . . . . ?
C1 P1 N2 C11 178.65(12) . . . . ?
C1 N1 C7 N2 0.54(16) . . . . ?
C1 N1 C7 C8 -177.89(13) . . . . ?
C1 N1 C6 C5 0.7(2) . . . . ?
C1 C3 C4 C5 -0.1(2) . . . . ?
C11 N2 C7 N1 -179.21(11) . . . . ?
C11 N2 C7 C8 -0.69(19) . . . . ?
