#------------------------------------------------------------------------------
#$Date: 2020-03-25 02:30:29 +0200 (Wed, 25 Mar 2020) $
#$Revision: 249682 $
#$URL: file:///home/coder/svn-repositories/cod/cif/4/03/81/4038104.cif $
#------------------------------------------------------------------------------
#
# This file is available in the Crystallography Open Database (COD),
# http://www.crystallography.net/
#
# All data on this site have been placed in the public domain by the
# contributors.
#
data_4038104
loop_
_publ_author_name
'Blahun, Oleksandr P.'
'Rozhenko, Alexander B.'
'Rusanov, Eduard'
'Zhersh, Serhii'
'Tolmachev, Andrey A.'
'Volochnyuk, Dmitriy M.'
'Grygorenko, Oleksandr O.'
_publ_section_title
;
 Twisting and turning the sulfonamide bond: synthetic, quantum chemical
 and crystallographic study.
;
_journal_name_full               'The Journal of organic chemistry'
_journal_paper_doi               10.1021/acs.joc.9b03394
_journal_year                    2020
_chemical_formula_moiety         'C5 H9 N O2 S'
_chemical_formula_sum            'C5 H9 N O2 S'
_chemical_formula_weight         147.19
_space_group_crystal_system      monoclinic
_space_group_IT_number           14
_space_group_name_Hall           '-P 2ybc'
_space_group_name_H-M_alt        'P 1 21/c 1'
_atom_sites_solution_hydrogens   geom
_audit_creation_method           SHELXL-2016/4
_cell_angle_alpha                90
_cell_angle_beta                 98.817(2)
_cell_angle_gamma                90
_cell_formula_units_Z            4
_cell_length_a                   8.0536(3)
_cell_length_b                   6.8910(3)
_cell_length_c                   11.5341(4)
_cell_measurement_reflns_used    1218
_cell_measurement_temperature    123(2)
_cell_measurement_theta_max      24.87
_cell_measurement_theta_min      2.56
_cell_volume                     632.55(4)
_computing_cell_refinement       'Bruker SAINT'
_computing_data_collection       'Bruker APEX2'
_computing_data_reduction        'Bruker SAINT'
_computing_molecular_graphics    'Bruker SHELXTL'
_computing_publication_material  'Bruker SHELXTL'
_computing_structure_refinement  'SHELXL-2016/4 (Sheldrick, 2016)'
_computing_structure_solution    'SHELXS-97 (Sheldrick 2008)'
_diffrn_ambient_temperature      123(2)
_diffrn_measured_fraction_theta_full 1.000
_diffrn_measured_fraction_theta_max 0.999
_diffrn_measurement_device_type  'Bruker APEX-II CCD'
_diffrn_measurement_method       '\f and \w scans'
_diffrn_radiation_type           MoK\a
_diffrn_radiation_wavelength     0.71073
_diffrn_reflns_av_R_equivalents  0.0386
_diffrn_reflns_av_unetI/netI     0.0384
_diffrn_reflns_Laue_measured_fraction_full 1.000
_diffrn_reflns_Laue_measured_fraction_max 0.999
_diffrn_reflns_limit_h_max       10
_diffrn_reflns_limit_h_min       -10
_diffrn_reflns_limit_k_max       8
_diffrn_reflns_limit_k_min       -8
_diffrn_reflns_limit_l_max       14
_diffrn_reflns_limit_l_min       -13
_diffrn_reflns_number            5650
_diffrn_reflns_point_group_measured_fraction_full 1.000
_diffrn_reflns_point_group_measured_fraction_max 0.999
_diffrn_reflns_theta_full        25.242
_diffrn_reflns_theta_max         26.385
_diffrn_reflns_theta_min         2.559
_diffrn_source                   'sealed tube'
_exptl_absorpt_coefficient_mu    0.430
_exptl_absorpt_correction_T_max  0.7454
_exptl_absorpt_correction_T_min  0.6664
_exptl_absorpt_correction_type   multi-scan
_exptl_absorpt_process_details   SADABS
_exptl_crystal_colour            colourless
_exptl_crystal_density_diffrn    1.546
_exptl_crystal_description       plate
_exptl_crystal_F_000             312
_exptl_crystal_size_max          0.500
_exptl_crystal_size_mid          0.140
_exptl_crystal_size_min          0.050
_refine_diff_density_max         0.377
_refine_diff_density_min         -0.305
_refine_diff_density_rms         0.068
_refine_ls_extinction_method     none
_refine_ls_goodness_of_fit_ref   1.042
_refine_ls_hydrogen_treatment    constr
_refine_ls_matrix_type           full
_refine_ls_number_parameters     82
_refine_ls_number_reflns         1301
_refine_ls_number_restraints     0
_refine_ls_restrained_S_all      1.042
_refine_ls_R_factor_all          0.0512
_refine_ls_R_factor_gt           0.0408
_refine_ls_shift/su_max          0.001
_refine_ls_shift/su_mean         0.000
_refine_ls_structure_factor_coef Fsqd
_refine_ls_weighting_details
'w=1/[\s^2^(Fo^2^)+(0.0452P)^2^+0.3789P] where P=(Fo^2^+2Fc^2^)/3'
_refine_ls_weighting_scheme      calc
_refine_ls_wR_factor_gt          0.0942
_refine_ls_wR_factor_ref         0.0994
_reflns_Friedel_coverage         0.000
_reflns_number_gt                1077
_reflns_number_total             1301
_reflns_threshold_expression     'I > 2\s(I)'
_cod_data_source_file            jo9b03394_si_005.cif
_cod_data_source_block           sam5n
_cod_original_sg_symbol_H-M      'P 21/c'
_cod_database_code               4038104
_shelx_shelxl_version_number     2016/4
_shelx_space_group_comment
;
The symmetry employed for this shelxl refinement is uniquely defined
by the following loop, which should always be used as a source of
symmetry information in preference to the above space-group names.
They are only intended as comments.
;
_shelx_estimated_absorpt_t_min   0.814
_shelx_estimated_absorpt_t_max   0.979
_shelx_res_file
;
TITL sam5n in P2(1)/c
 sam5n.res created by SHELXL-2016/4 at 16:02:27 on 23-Jul-2019
CELL 0.71073   8.05360   6.89100  11.53410  90.0000  98.8166  90.0000
ZERR    4.00   0.00030   0.00030   0.00040   0.0000   0.0022   0.0000
LATT 1
SYMM -X, 0.5+Y, 0.5-Z
SFAC C  H  N  O  S
UNIT 20  36  4  8  4
L.S. 4
BOND
FMAP 2
acta
conf
PLAN 20
SIZE 0.050 0.140 0.500
TEMP -150
WGHT    0.045200    0.378900
FVAR       0.25341
MOLE 1
C1    1    0.573228    0.279207    0.092963    11.00000    0.02037    0.01976 =
         0.02562    0.00073    0.00079    0.00138
AFIX  23
H1A   2    0.545425    0.302554    0.007498    11.00000   -1.20000
H1B   2    0.468130    0.273044    0.127486    11.00000   -1.20000
AFIX   0
C2    1    0.693138    0.434893    0.152986    11.00000    0.02483    0.01387 =
         0.02675    0.00110    0.00375    0.00231
AFIX  13
H2    2    0.635832    0.557115    0.171777    11.00000   -1.20000
AFIX   0
C3    1    0.786266    0.329058    0.261303    11.00000    0.02671    0.02110 =
         0.01921   -0.00286    0.00515   -0.00187
AFIX  23
H3A   2    0.870394    0.413318    0.308562    11.00000   -1.20000
H3B   2    0.708010    0.275887    0.311600    11.00000   -1.20000
AFIX   0
C4    1    0.950650    0.289743    0.114848    11.00000    0.02185    0.02415 =
         0.02461   -0.00142    0.00815   -0.00535
AFIX  23
H4A   2    0.962597    0.212273    0.044314    11.00000   -1.20000
H4B   2    1.063607    0.332214    0.152408    11.00000   -1.20000
AFIX   0
C5    1    0.836043    0.466533    0.081434    11.00000    0.02853    0.02035 =
         0.02460    0.00176    0.00497   -0.00502
AFIX  23
H5A   2    0.896207    0.589496    0.103589    11.00000   -1.20000
H5B   2    0.793362    0.468288   -0.003749    11.00000   -1.20000
AFIX   0
N1    3    0.866888    0.172442    0.198910    11.00000    0.01795    0.01842 =
         0.01877    0.00081    0.00180   -0.00020
O1    4    0.625844   -0.058308    0.205012    11.00000    0.03002    0.02115 =
         0.03488    0.00841    0.01128   -0.00451
O2    4    0.741140   -0.027363    0.020274    11.00000    0.03309    0.02094 =
         0.03128   -0.01129    0.00940   -0.00363
S1    5    0.697300    0.061884    0.123992    11.00000    0.02057    0.01368 =
         0.02290    0.00039    0.00458   -0.00138
HKLF 4




REM  sam5n in P2(1)/c
REM R1 =  0.0408 for    1077 Fo > 4sig(Fo)  and  0.0512 for all    1301 data
REM     82 parameters refined using      0 restraints

END

WGHT      0.0443      0.4008

REM Highest difference peak  0.377,  deepest hole -0.305,  1-sigma level  0.068
Q1    1   0.7524  0.4457  0.0999  11.00000  0.05    0.38
Q2    1   0.6151  0.1583  0.1041  11.00000  0.05    0.32
Q3    1   0.7936  0.1159  0.1748  11.00000  0.05    0.31
Q4    1   0.7512  0.4080  0.2134  11.00000  0.05    0.30
Q5    1   0.9101  0.2423  0.1541  11.00000  0.05    0.29
Q6    1   0.8873  0.3748  0.0867  11.00000  0.05    0.27
Q7    1   0.5757 -0.0979  0.2049  11.00000  0.05    0.27
Q8    1   0.8379  0.2350  0.2343  11.00000  0.05    0.26
Q9    1   0.7792 -0.0793  0.0585  11.00000  0.05    0.26
Q10   1   0.6556  0.0236  0.2164  11.00000  0.05    0.25
Q11   1   0.6022  0.2254  0.0240  11.00000  0.05    0.25
Q12   1   0.6839  0.0087  0.0447  11.00000  0.05    0.23
Q13   1   0.5035  0.2429  0.1140  11.00000  0.05    0.21
Q14   1   0.6617 -0.0798  0.2602  11.00000  0.05    0.21
Q15   1   1.0603  0.2553  0.1596  11.00000  0.05    0.20
Q16   1   1.0182  0.1982  0.0691  11.00000  0.05    0.19
Q17   1   1.0140  0.3036  0.1434  11.00000  0.05    0.19
Q18   1   0.9111  0.0699  0.2511  11.00000  0.05    0.18
Q19   1   0.7604  0.5378 -0.0056  11.00000  0.05    0.18
Q20   1   0.7910  0.2299  0.3427  11.00000  0.05    0.18
;
_shelx_res_checksum              30896
_shelx_hkl_file
;
  -1   0   0    8.65    0.41
   1   0   0    9.34    0.40
   1   0   0    8.67    0.44
   1   0   0    9.26    0.41
  -1   0   0    9.09    0.44
  -2   0   0  410.92   11.25
  -2   0   0  413.82   11.40
   2   0   0  404.88   11.30
   2   0   0  419.35   11.25
   2   0   0  403.39   11.37
  -2   0   0  409.14   11.29
  -3   0   0   79.46    2.77
   3   0   0   80.47    2.67
   3   0   0   79.67    2.74
   3   0   0   80.14    2.57
  -3   0   0   78.68    2.56
  -4   0   0    0.38    0.25
   4   0   0    0.57    0.25
   4   0   0    0.49    0.30
   4   0   0    0.93    0.34
  -4   0   0    0.46    0.24
  -4   0   0    0.51    0.25
  -5   0   0   35.08    1.84
   5   0   0   38.96    1.90
   5   0   0   35.61    1.73
  -5   0   0   36.94    1.63
  -6   0   0    0.83    0.47
  -6   0   0    1.89    0.46
   6   0   0    1.06    0.46
  -7   0   0   34.68    1.76
   7   0   0   31.01    1.84
  -7   0   0   35.34    2.15
   8   0   0   16.90    1.67
  -8   0   0   15.33    1.76
  -8   0   0   14.89    1.39
   9   0   0    2.70    0.79
   0  -1   0   -0.35    0.08
   0  -1   0   -0.27    0.08
   0   1   0   -0.34    0.08
   0   1   0   -0.19    0.09
   1  -1   0  331.79    8.84
   1  -1   0  331.21    9.02
  -1  -1   0  324.39    9.09
   1  -1   0  322.92    9.05
  -1  -1   0  331.82    9.08
  -1  -1   0  327.08    8.95
  -1   1   0  328.77    8.84
  -1   1   0  328.30    9.06
  -1   1   0  323.78    9.01
   1   1   0  321.65    9.07
   1   1   0  324.70    8.96
  -2  -1   0   19.27    0.92
   2  -1   0   19.72    0.68
  -2  -1   0   19.89    0.92
   2  -1   0   18.57    0.93
  -2  -1   0   19.88    0.84
  -2  -1   0   20.72    0.95
   2  -1   0   19.26    0.90
   2   1   0   18.11    0.83
  -2   1   0   19.45    0.90
  -2   1   0   19.44    0.68
  -2   1   0   19.55    0.96
  -3  -1   0    4.34    0.58
   3  -1   0    4.74    0.62
   3  -1   0    5.09    0.36
  -3  -1   0    5.16    0.63
  -3  -1   0    4.98    0.58
   3  -1   0    3.88    0.51
  -3   1   0    4.79    0.63
  -3   1   0    4.72    0.34
  -3   1   0    5.19    0.30
   3   1   0    5.35    0.55
   4  -1   0    0.72    0.36
  -4  -1   0    1.14    0.38
  -4  -1   0    1.09    0.37
   4  -1   0    0.88    0.24
   4  -1   0    1.14    0.42
  -4   1   0    1.81    0.49
   4   1   0    0.41    0.29
  -4   1   0    1.60    0.24
  -4   1   0    1.26    0.26
   5  -1   0    2.94    0.62
  -5  -1   0    2.16    0.58
  -5  -1   0    2.13    0.50
   5  -1   0    2.48    0.41
  -5   1   0    1.88    0.37
   5   1   0    2.81    0.56
  -5   1   0    2.54    0.34
  -5   1   0    2.79    0.64
  -6  -1   0   10.77    1.29
   6  -1   0    9.36    1.14
  -6  -1   0    9.53    1.09
  -6   1   0   10.11    0.75
  -6   1   0   11.63    1.35
  -6   1   0   10.35    0.64
   6   1   0    9.48    1.06
  -7  -1   0    8.42    1.10
   7  -1   0   10.77    1.27
  -7  -1   0    9.06    1.25
  -7   1   0    8.93    1.34
   7   1   0   11.51    1.26
  -7   1   0    7.70    0.81
   8  -1   0    4.31    0.91
  -8  -1   0    4.94    1.08
  -8  -1   0    2.88    0.74
  -8   1   0    4.05    1.02
   8   1   0    4.76    0.97
   9  -1   0    4.19    0.95
  -9  -1   0    4.13    0.92
   9   1   0    3.24    0.89
   0  -2   0  164.20    4.84
   0  -2   0  166.00    4.88
   0   2   0  169.15    4.87
   0   2   0  170.39    4.90
   1  -2   0   54.23    1.84
   1  -2   0   53.11    1.82
  -1  -2   0   52.44    1.94
   1  -2   0   49.92    1.86
  -1  -2   0   55.17    1.77
   1  -2   0   53.25    1.69
  -1  -2   0   51.74    1.90
   1   2   0   51.28    1.76
   1   2   0   52.50    1.92
  -2  -2   0  372.39   10.81
   2  -2   0  371.69   10.72
  -2  -2   0  382.15   10.53
   2  -2   0  376.49   10.30
  -2  -2   0  379.71   10.78
   2  -2   0  382.33   10.67
   2   2   0  381.43   10.56
  -2   2   0  384.00   10.30
  -2   2   0  373.24   10.76
   3  -2   0   89.31    3.15
   3  -2   0   93.64    2.69
   3  -2   0   93.85    2.62
   3  -2   0   92.90    3.24
  -3  -2   0   91.46    3.30
  -3   2   0   92.66    2.69
  -3   2   0   94.79    3.30
   3   2   0   93.06    3.05
   4  -2   0    1.10    0.41
  -4  -2   0    1.19    0.39
   4  -2   0    1.65    0.49
  -4  -2   0    1.84    0.49
   4  -2   0    1.67    0.24
  -4   2   0    1.50    0.23
  -4   2   0    1.04    0.41
   4   2   0    1.21    0.37
  -5  -2   0   37.07    1.92
   5  -2   0   35.58    1.82
  -5  -2   0   33.60    1.84
   5  -2   0   39.08    1.34
   5   2   0   33.89    1.69
  -5   2   0   31.26    1.86
  -5   2   0   36.25    1.32
  -6  -2   0    7.68    1.07
   6  -2   0   10.70    1.21
  -6  -2   0    8.27    1.13
   6   2   0    9.06    1.06
  -6   2   0    8.76    0.61
  -6   2   0   12.33    1.35
  -6   2   0    9.54    0.64
   7  -2   0    6.47    1.03
  -7  -2   0    8.80    1.21
  -7  -2   0    9.12    1.31
  -7   2   0    8.38    1.28
   7   2   0    7.40    1.06
  -8  -2   0    1.43    0.63
   8  -2   0    0.04    0.53
  -8  -2   0    0.92    0.72
  -8   2   0    0.91    0.57
   8   2   0    0.78    0.46
  -9  -2   0    3.81    0.95
   9  -2   0    4.97    1.17
   9   2   0    4.75    1.02
   0  -3   0   -0.10    0.19
   0  -3   0    0.10    0.21
   0   3   0    0.12    0.21
   0   3   0    0.00    0.19
   1  -3   0   22.38    1.00
  -1  -3   0   21.08    1.00
  -1  -3   0   21.22    1.16
   1   3   0   21.24    1.02
  -1   3   0   20.84    1.00
   1   3   0   20.93    1.14
  -2  -3   0    0.15    0.33
   2  -3   0    0.52    0.19
   2  -3   0    0.26    0.28
   2  -3   0    0.40    0.25
   2   3   0    0.36    0.24
  -2   3   0    0.23    0.18
   3  -3   0   94.87    3.41
   3  -3   0   96.17    3.32
   3  -3   0   93.60    2.79
  -3  -3   0   89.27    3.49
  -3   3   0   92.95    2.79
   3   3   0   92.13    3.16
   4  -3   0   55.65    2.38
   4  -3   0   55.28    1.71
  -4  -3   0   52.88    2.52
  -4  -3   0   53.27    2.36
   4   3   0   54.80    2.22
  -4   3   0   59.26    2.55
  -4   3   0   55.91    1.72
   5  -3   0    9.81    1.11
  -5  -3   0   10.30    1.25
  -5  -3   0    9.77    1.11
   5  -3   0   10.19    0.47
  -5   3   0   10.40    1.23
  -5   3   0   10.29    0.46
   5   3   0   10.99    1.10
  -6  -3   0   62.53    2.96
   6  -3   0   62.97    2.91
  -6  -3   0   65.94    3.11
   6   3   0   64.86    2.75
  -6   3   0   67.65    3.15
  -7  -3   0   28.02    1.99
   7  -3   0   26.57    1.86
  -7  -3   0   25.52    1.93
  -7   3   0   30.33    2.11
   7   3   0   30.40    1.79
   8  -3   0    2.82    0.82
  -8  -3   0    2.00    0.84
  -8  -3   0    2.18    0.81
  -8   3   0    1.76    0.78
   8   3   0    3.70    0.82
   9  -3   0   16.84    1.96
  -9  -3   0   18.19    2.07
   9   3   0   22.29    2.09
   0  -4   0   40.54    1.81
   0   4   0   37.95    1.70
   0   4   0   41.77    1.82
  -1  -4   0    3.71    0.65
   1   4   0    1.60    0.41
  -1   4   0    3.03    0.50
   1   4   0    1.27    0.44
   2  -4   0    0.12    0.30
  -2  -4   0    0.07    0.26
   2  -4   0    0.47    0.25
   2  -4   0   -0.20    0.24
  -2   4   0    0.24    0.21
   2   4   0    0.05    0.22
   3  -4   0    0.75    0.24
  -3  -4   0    1.50    0.56
   3  -4   0    0.06    0.32
   3  -4   0    1.05    0.54
  -3   4   0    0.62    0.22
   3   4   0    0.57    0.34
   4  -4   0    2.98    0.65
   4  -4   0    3.76    0.37
  -4  -4   0    3.90    0.82
   4  -4   0    3.45    0.34
  -4   4   0    3.86    0.37
   4   4   0    4.04    0.68
  -5  -4   0    0.24    0.43
  -5  -4   0    0.66    0.47
   5  -4   0    0.91    0.55
   5   4   0    0.67    0.41
  -6  -4   0    2.54    0.81
  -6  -4   0    2.01    0.68
   6  -4   0    1.78    0.61
   6   4   0    2.10    0.60
  -7  -4   0    1.84    0.82
   7  -4   0    1.31    0.76
  -7  -4   0    1.80    0.76
   7   4   0    2.13    0.66
  -7   4   0    1.98    0.79
  -8  -4   0    0.95    0.60
   8  -4   0    1.36    0.76
  -8  -4   0    1.05    0.78
   8   4   0    1.00    0.62
   0  -5   0    0.05    0.33
   0   5   0    0.01    0.26
   0   5   0   -0.25    0.26
  -1  -5   0   12.54    1.27
   1  -5   0   11.79    1.11
  -1   5   0   11.73    1.09
   1   5   0    9.74    1.02
   2  -5   0   11.28    0.85
   2  -5   0   10.16    1.10
  -2  -5   0   11.65    1.32
   2   5   0   11.31    1.09
   3  -5   0    6.82    0.70
  -3  -5   0    6.19    1.05
   3  -5   0    7.97    0.73
   3  -5   0    8.46    1.02
   3   5   0    6.59    0.85
  -3   5   0    7.73    0.74
  -4  -5   0   36.24    2.30
   4  -5   0   39.25    2.10
   4  -5   0   39.18    1.47
   4   5   0   38.89    1.94
   5  -5   0    0.36    0.51
  -5  -5   0    0.05    0.39
   5   5   0    0.32    0.46
  -6  -5   0   27.51    2.60
  -6  -5   0   37.10    2.21
   6  -5   0   30.91    2.11
   6   5   0   38.46    2.08
  -7  -5   0   38.36    2.42
   7  -5   0   35.84    2.31
  -7  -5   0   39.13    2.63
   7   5   0   35.42    2.13
   8  -5   0   10.75    1.65
  -8  -5   0    9.60    1.66
   8   5   0    9.49    1.30
   0  -6   0    7.11    1.02
  -1  -6   0   20.61    1.56
   1  -6   0   19.14    1.33
   1  -6   0   18.90    1.32
   1   6   0   18.38    1.27
   2  -6   0    1.03    0.54
  -2  -6   0    1.87    0.64
   2  -6   0    1.72    0.50
   2   6   0    1.00    0.44
   3  -6   0   51.39    2.47
  -3  -6   0   44.17    2.63
   3  -6   0   46.45    2.02
   3   6   0   50.15    2.32
   4  -6   0   -0.21    0.44
  -4  -6   0   -0.29    0.57
   4   6   0    0.16    0.34
  -5  -6   0   13.18    1.78
   5  -6   0   15.94    1.67
   5   6   0   13.04    1.42
   6  -6   0    2.21    0.82
  -6  -6   0    4.06    1.07
  -6  -6   0    2.34    0.81
   6   6   0    3.43    0.85
   7  -6   0    4.10    1.00
  -7  -6   0    2.72    0.94
  -7  -6   0    3.39    1.08
   0  -7   0   -0.38    0.43
   1  -7   0   12.03    1.37
  -1  -7   0   12.93    1.59
   1  -7   0    8.83    1.16
   2  -7   0    6.49    0.97
   2  -7   0    2.18    0.72
  -2  -7   0    6.60    1.22
   2   7   0    4.64    0.82
   3  -7   0    1.88    0.73
  -3  -7   0    0.56    0.69
   3   7   0    0.63    0.50
   4  -7   0    1.46    0.71
  -4  -7   0    0.85    0.61
   4   7   0    0.44    0.46
   5  -7   0    4.83    1.13
  -5  -7   0    3.95    1.14
   0  -8   0   65.35    3.27
   1  -8   0    2.58    0.86
  -1  -8   0    1.96    0.85
   1  -8   0    2.31    0.77
  -2  -8   0   21.60    2.33
   2  -8   0   18.67    1.90
   3  -8   0   17.63    1.88
  -3  -8   0   18.32    2.17
  10   0  -1   -0.72    0.56
  -9   0   1   -0.31    0.40
  -9   0   1    0.24    0.49
   9   0  -1    0.53    0.45
  -8   0   1    0.71    0.43
   8   0  -1   -0.06    0.42
  -8   0   1    0.49    0.60
  -7   0   1   -0.16    0.27
   7   0  -1    0.25    0.41
  -7   0   1   -0.18    0.32
  -6   0   1   -0.02    0.26
  -6   0   1    0.28    0.39
   6   0  -1   -0.40    0.27
   5   0  -1    0.07    0.24
   5   0  -1    0.45    0.34
  -5   0   1    0.36    0.27
  -5   0   1    0.39    0.36
   4   0  -1   -0.21    0.19
   4   0  -1   -0.48    0.20
  -4   0   1    0.09    0.29
   4   0  -1   -0.12    0.15
  -4   0   1    0.00    0.21
   3   0  -1   -0.02    0.22
  -3   0   1    0.09    0.14
   3   0  -1   -0.15    0.15
  -3   0   1    0.00    0.17
   3   0  -1   -0.05    0.18
  -3   0   1   -0.08    0.21
   2   0  -1    0.15    0.18
  -2   0   1   -0.16    0.09
  -2   0   1   -0.01    0.13
  -2   0   1    0.34    0.18
   2   0  -1    0.02    0.14
   2   0  -1    0.08    0.15
   1   0  -1   -0.15    0.08
  -1   0   1   -0.17    0.09
  -1   0   1   -0.18    0.08
   1   0  -1   -0.13    0.08
  -1   0   1   -0.14    0.07
   1   0  -1    0.05    0.11
   0   0   1   -0.04    0.04
   0   0  -1   -0.04    0.03
   0   0  -1   -0.10    0.04
   0   0   1   -0.05    0.05
   0   0  -1    0.00    0.04
   0   0   1   -0.01    0.03
   1   0   1   -0.04    0.10
   1   0   1    0.04    0.11
  -1   0  -1   -0.11    0.09
  -1   0  -1   -0.14    0.08
  -1   0  -1    0.13    0.10
  -1   0  -1   -0.08    0.11
   1   0   1    0.03    0.10
  -2   0  -1   -0.31    0.15
   2   0   1   -0.36    0.14
   2   0   1   -0.58    0.17
  -2   0  -1   -0.43    0.10
   2   0   1   -0.35    0.15
  -2   0  -1   -0.65    0.17
  -2   0  -1   -0.46    0.18
  -3   0  -1   -0.19    0.23
   3   0   1   -0.06    0.25
   3   0   1   -0.11    0.22
  -3   0  -1    0.17    0.17
  -3   0  -1    0.01    0.15
  -4   0  -1    0.18    0.30
   4   0   1   -0.10    0.16
   4   0   1    0.28    0.29
  -4   0  -1    0.09    0.21
  -4   0  -1   -0.29    0.13
  -5   0  -1   -0.04    0.22
   5   0   1    0.24    0.33
  -5   0  -1    0.19    0.35
  -6   0  -1   -0.19    0.24
   6   0   1    0.03    0.26
  -6   0  -1   -0.17    0.27
  -7   0  -1    0.75    0.56
   7   0   1    0.57    0.47
  -7   0  -1   -0.09    0.30
   8   0   1   -0.34    0.24
  -8   0  -1    0.32    0.40
  -8   0  -1    0.45    0.55
   9   0   1   -0.08    0.53
   9  -1  -1   -0.06    0.33
  -9  -1   1   -0.04    0.50
  -9  -1   1    0.89    0.75
   9   1  -1   -0.26    0.33
   8  -1  -1    1.95    0.70
  -8  -1   1    1.27    0.69
  -8  -1   1    1.74    0.64
   8   1  -1    3.45    0.81
  -8   1   1    2.38    0.85
  -8   1   1   -0.04    0.29
   7  -1  -1    5.50    0.94
  -7  -1   1    5.55    0.99
  -7  -1   1    5.60    0.89
  -7   1   1    4.71    0.96
   7   1  -1    6.32    0.95
   6  -1  -1    1.08    0.47
  -6  -1   1    1.26    0.47
  -6  -1   1    0.56    0.45
   6   1  -1    1.30    0.47
  -6   1   1    1.17    0.25
  -6   1   1    1.18    0.48
  -6   1   1    0.15    0.18
   5  -1  -1    8.46    0.78
  -5  -1   1    9.06    0.99
  -5  -1   1    6.26    0.84
   5  -1  -1    8.90    1.19
   5  -1  -1    8.16    0.90
   5   1  -1   10.07    1.06
  -5   1   1    6.79    0.90
   5   1  -1    6.66    0.79
   4  -1  -1    0.12    0.27
   4  -1  -1    0.69    0.25
   4  -1  -1    0.66    0.33
  -4  -1   1    0.05    0.26
  -4  -1   1    0.43    0.25
   4   1  -1    0.30    0.29
   4   1  -1    0.54    0.26
  -4   1   1    0.38    0.27
  -4   1   1   -0.07    0.10
   3  -1  -1   52.02    1.90
  -3  -1   1   49.70    1.94
  -3  -1   1   51.29    1.77
   3  -1  -1   51.21    1.98
   3  -1  -1   49.68    1.71
  -3  -1   1   48.84    1.88
  -3   1   1   52.91    2.01
   3   1  -1   50.24    1.77
   3   1  -1   50.49    1.88
   3   1  -1   47.54    1.93
   2  -1  -1    1.30    0.22
   2  -1  -1    0.69    0.22
   2  -1  -1    0.63    0.25
  -2  -1   1    1.00    0.23
  -2  -1   1    1.01    0.21
  -2  -1   1    0.96    0.30
  -2   1   1    0.94    0.25
  -2   1   1    0.73    0.28
   2   1  -1    1.16    0.21
  -2   1   1    0.32    0.13
   2   1  -1    0.84    0.28
  -1  -1   1  148.67    4.36
   1  -1  -1  147.78    4.31
  -1  -1   1  150.25    4.12
   1  -1  -1  148.37    4.24
   1   1  -1  148.38    4.36
   1   1  -1  152.47    4.12
  -1   1   1  152.07    4.25
   0  -1   1   88.21    2.45
   0  -1  -1   88.61    2.60
   0  -1   1   86.48    2.45
   0  -1  -1   85.63    2.59
   0  -1   1   89.70    2.54
   0   1   1   88.08    2.61
   0   1   1   84.91    2.60
   0   1  -1   84.59    2.53
   1  -1   1    0.80    0.09
  -1  -1  -1    1.03    0.25
   1  -1   1    0.81    0.22
  -1  -1  -1    1.11    0.27
   1  -1   1    1.13    0.24
   1   1   1    0.85    0.23
   1   1   1    0.86    0.25
  -1   1  -1    0.80    0.09
  -1   1  -1    1.09    0.23
  -1   1  -1    0.67    0.21
   2  -1   1  364.57   10.20
   2  -1   1  370.98    9.92
  -2  -1  -1  359.45   10.16
   2  -1   1  362.91   10.13
  -2  -1  -1  365.18   10.12
  -2   1  -1  353.69   10.19
   2   1   1  362.63   10.13
  -2   1  -1  364.55    9.72
  -2   1  -1  364.56   10.12
   2   1   1  352.99   10.17
  -2   1  -1  362.93    9.72
   3  -1   1   89.99    3.01
   3  -1   1   91.73    3.11
  -3  -1  -1   88.62    3.02
  -3  -1  -1   90.47    2.99
  -3  -1  -1   91.23    3.12
  -3   1  -1   90.09    2.69
   3   1   1   90.88    2.98
  -3   1  -1   86.33    2.59
  -3   1  -1   88.79    2.60
  -3   1  -1   84.86    3.07
   4  -1   1   99.13    3.52
   4  -1   1   98.82    3.42
  -4  -1  -1   93.12    3.48
  -4  -1  -1   99.57    3.41
  -4   1  -1  102.20    3.56
  -4   1  -1   94.98    2.99
  -4   1  -1   99.31    2.97
   4   1   1   98.45    3.37
  -4   1  -1   94.61    2.95
  -5  -1  -1   60.11    2.43
   5  -1   1   56.58    2.45
  -5  -1  -1   57.58    2.58
  -5   1  -1   56.64    2.56
  -5   1  -1   57.87    2.00
  -5   1  -1   57.60    2.00
   5   1   1   54.70    2.38
  -5   1  -1   58.58    2.02
   6  -1   1   14.34    1.40
  -6  -1  -1   13.77    1.28
  -6  -1  -1   11.79    1.38
  -6   1  -1   12.32    1.39
  -6   1  -1   14.20    0.86
  -6   1  -1   14.54    0.86
   6   1   1   13.45    1.34
  -7  -1  -1    3.56    0.90
   7  -1   1    3.32    0.78
  -7  -1  -1    3.77    0.80
   7   1   1    2.60    0.66
  -7   1  -1    3.34    0.79
  -7   1  -1    3.44    0.54
  -8  -1  -1    1.17    0.77
  -8  -1  -1    1.53    0.60
   8  -1   1    0.29    0.54
   8   1   1    1.50    0.57
  -8   1  -1    0.46    0.58
  -9  -1  -1    1.68    0.64
   9  -1   1    1.04    0.59
   9   1   1    0.84    0.68
  -9  -2   1    2.76    0.89
  -9  -2   1    3.18    1.00
   9  -2  -1    4.86    1.10
   9   2  -1    2.27    0.79
   8  -2  -1    0.54    0.57
  -8  -2   1   -0.55    0.38
  -8  -2   1   -0.30    0.33
  -8   2   1    0.31    0.44
   8   2  -1    0.25    0.48
  -7  -2   1   28.94    1.87
   7  -2  -1   28.49    1.84
  -7  -2   1   31.36    2.01
  -7   2   1   31.35    1.46
  -7   2   1   30.97    2.07
   7   2  -1   32.25    1.80
   6  -2  -1    1.60    0.50
  -6  -2   1    1.33    0.54
  -6  -2   1    1.94    0.61
   6  -2  -1    1.58    0.39
  -6   2   1    1.41    0.60
  -6   2   1    1.90    0.41
   6   2  -1    2.33    0.57
  -5  -2   1   59.77    2.61
   5  -2  -1   60.52    2.58
   5  -2  -1   65.28    2.20
  -5  -2   1   63.72    2.71
  -5   2   1   64.31    2.20
   5   2  -1   61.50    2.43
  -5   2   1   63.48    2.80
   4  -2  -1    8.73    0.88
  -4  -2   1    9.28    0.90
   4  -2  -1    9.84    1.03
  -4  -2   1    9.70    1.01
   4  -2  -1    9.43    0.57
  -4   2   1    9.21    0.58
  -4   2   1    7.10    0.89
   4   2  -1    9.89    0.85
   3  -2  -1    3.34    0.56
   3  -2  -1    4.49    0.59
  -3  -2   1    4.76    0.64
  -3  -2   1    4.82    0.59
   3  -2  -1    4.42    0.42
  -3  -2   1    4.51    0.48
  -3   2   1    3.34    0.55
  -3   2   1    3.88    0.40
   3   2  -1    5.07    0.53
  -2  -2   1    2.16    0.30
   2  -2  -1    1.80    0.39
  -2  -2   1    1.48    0.38
  -2  -2   1    1.02    0.31
   2  -2  -1    1.76    0.39
   2  -2  -1    0.89    0.23
   2   2  -1    0.95    0.34
   2   2  -1    1.21    0.24
  -1  -2   1    8.34    0.60
   1  -2  -1    8.21    0.51
  -1  -2   1    8.01    0.44
  -1  -2   1    8.65    0.61
   1  -2  -1    8.16    0.57
   1   2  -1    8.99    0.46
  -1   2   1    7.71    0.55
  -1   2   1    8.45    0.53
   1   2  -1    8.09    0.61
   0  -2   1   13.64    0.63
   0  -2   1   13.48    0.67
   0  -2  -1   14.46    0.73
   0  -2  -1   12.73    0.70
   0  -2   1   12.29    0.67
   0   2   1   13.34    0.73
   0   2   1   12.48    0.70
   1  -2   1    2.37    0.26
   1  -2   1    2.40    0.35
  -1  -2  -1    2.64    0.43
  -1  -2  -1    2.01    0.35
   1  -2   1    2.21    0.25
   1  -2   1    2.08    0.33
   1   2   1    1.69    0.38
   1   2   1    2.21    0.36
   2  -2   1    0.47    0.08
   2  -2   1    0.65    0.08
   2  -2   1    0.53    0.26
   2  -2   1    0.48    0.26
  -2   2  -1    0.32    0.19
   2   2   1    0.50    0.24
   2   2   1    0.24    0.28
   3  -2   1    2.04    0.41
   3  -2   1    1.99    0.47
  -3  -2  -1    1.45    0.44
   3  -2   1    2.16    0.28
   3   2   1    1.80    0.42
  -3   2  -1    2.10    0.44
   3   2   1    2.19    0.47
  -4  -2  -1   16.82    1.14
   4  -2   1   15.76    1.12
  -4  -2  -1   16.09    1.13
   4  -2   1   17.83    1.11
  -4   2  -1   17.26    0.52
  -4   2  -1   17.12    0.52
   4   2   1   15.51    1.03
  -4   2  -1   15.71    1.11
   5  -2   1   18.22    1.22
  -5  -2  -1   14.77    1.17
  -5  -2  -1   16.53    1.24
  -5   2  -1   16.44    0.66
  -5   2  -1   18.25    1.34
   5   2   1   15.32    1.12
  -5   2  -1   18.25    0.67
  -6  -2  -1   21.10    1.60
  -6  -2  -1   23.34    1.58
   6  -2   1   20.53    1.46
  -6   2  -1   22.90    0.91
  -6   2  -1   24.39    1.70
   6   2   1   19.82    1.39
   7  -2   1    7.30    1.17
  -7  -2  -1    6.11    1.01
  -7  -2  -1    8.13    1.27
  -7   2  -1    6.24    1.11
   7   2   1    6.25    1.00
  -8  -2  -1    1.84    0.75
   8  -2   1    1.69    0.74
  -8  -2  -1    0.88    0.56
  -8   2  -1    0.66    0.53
   8   2   1    0.59    0.58
  -9  -2  -1    3.25    0.94
   9  -2   1    2.92    0.93
   9   2   1    1.57    0.74
   9  -3  -1    3.72    0.99
  -9  -3   1    2.93    0.98
   9   3  -1    1.91    0.72
   8  -3  -1   -0.26    0.47
  -8  -3   1    0.38    0.60
  -8  -3   1    0.94    0.66
   8   3  -1   -0.36    0.35
  -8   3   1    1.44    0.76
  -7  -3   1    0.55    0.59
  -7  -3   1    0.05    0.48
   7  -3  -1   -0.28    0.42
   7   3  -1    0.26    0.41
  -7   3   1    0.23    0.52
  -6  -3   1   30.87    1.86
   6  -3  -1   28.93    1.81
  -6  -3   1   32.38    1.98
   6   3  -1   28.07    1.60
  -6   3   1   30.68    1.25
  -6   3   1   32.55    2.03
  -5  -3   1   30.20    1.86
   5  -3  -1   27.86    1.68
  -5  -3   1   28.14    1.64
   5  -3  -1   32.57    1.24
   5   3  -1   26.16    1.45
  -5   3   1   28.68    1.82
  -5   3   1   31.46    1.22
  -4  -3   1    6.46    0.92
  -4  -3   1    6.65    0.82
   4  -3  -1    7.11    0.51
   4  -3  -1    6.72    0.86
  -4   3   1    6.66    0.49
   4   3  -1    6.64    0.74
  -3  -3   1   64.51    2.62
   3  -3  -1   61.60    2.51
   3  -3  -1   61.06    2.07
   3  -3  -1   59.48    2.42
   3   3  -1   65.32    2.22
  -3   3   1   56.72    2.04
   2  -3  -1   18.35    1.08
   2  -3  -1   20.33    0.95
   2  -3  -1   22.02    1.22
  -2  -3   1   19.55    0.91
  -2  -3   1   22.39    1.28
   2   3  -1   19.99    0.95
  -1  -3   1   52.39    2.04
  -1  -3   1   47.66    1.72
   1  -3  -1   51.19    1.85
   1   3  -1   52.66    1.77
  -1   3   1   48.08    1.93
  -1   3   1   46.10    1.84
   0  -3   1   37.98    1.52
   0  -3   1   37.77    1.55
   0  -3   1   38.75    1.45
   0  -3  -1   36.04    1.57
   0   3   1   37.51    1.59
   0   3   1   37.06    1.60
   1  -3   1   -0.17    0.18
   1  -3   1    0.18    0.18
   1  -3   1    0.05    0.19
   1  -3   1   -0.04    0.16
   1   3   1    0.00    0.19
   1   3   1   -0.19    0.24
   2  -3   1   59.98    1.88
   2  -3   1   61.31    2.29
   2  -3   1   55.75    2.19
   2  -3   1   59.67    1.85
   2   3   1   56.57    2.23
   2   3   1   60.44    2.43
   3  -3   1    7.48    0.86
   3  -3   1    6.68    0.26
   3  -3   1    6.83    0.26
   3  -3   1    5.31    0.68
  -3  -3  -1    6.09    0.86
   3   3   1    6.59    0.77
   3   3   1    5.36    0.81
  -3   3  -1    4.15    0.66
   4  -3   1   27.29    1.01
   4  -3   1   24.71    1.45
  -4  -3  -1   23.18    1.56
  -4   3  -1   26.33    1.55
   4   3   1   25.42    1.41
   5  -3   1    1.44    0.58
  -5  -3  -1    1.53    0.56
  -5  -3  -1    1.16    0.50
  -5   3  -1    0.82    0.46
   5   3   1    1.48    0.51
  -6  -3  -1    0.19    0.46
   6  -3   1    0.39    0.51
  -6  -3  -1    0.09    0.47
   6   3   1    0.10    0.38
  -6   3  -1   -0.22    0.37
  -7  -3  -1    2.27    0.81
   7  -3   1    1.86    0.76
  -7  -3  -1    2.68    0.85
   7   3   1    2.55    0.74
  -7   3  -1    1.86    0.75
  -8  -3  -1    1.59    0.79
   8  -3   1    2.50    0.89
  -8  -3  -1    2.55    0.83
  -8   3  -1    2.83    0.86
   8   3   1    2.83    0.79
  -9  -3  -1    5.85    1.24
   9  -3   1    4.41    1.06
   9   3   1    5.21    1.09
  -8  -4   1   13.38    1.81
   8  -4  -1   10.80    1.58
  -8  -4   1   12.09    1.64
   8   4  -1   14.06    1.53
  -7  -4   1   12.03    1.59
   7  -4  -1    9.51    1.32
  -7  -4   1   12.34    1.54
   7   4  -1   13.45    1.37
  -6  -4   1    9.39    1.38
  -6  -4   1    8.31    1.16
   6  -4  -1    7.91    1.18
   6   4  -1   10.15    1.14
   5  -4  -1    1.42    0.53
  -5  -4   1    0.55    0.54
  -5  -4   1    1.02    0.48
   5   4  -1    0.83    0.39
  -5   4   1    0.42    0.22
   4  -4  -1  117.53    3.19
  -4  -4   1  122.19    4.54
   4  -4  -1  120.25    4.29
   4  -4  -1  116.21    3.62
  -4   4   1  116.24    3.63
   4   4  -1  106.99    3.88
  -3  -4   1   13.61    1.35
   3  -4  -1   12.78    0.78
   3  -4  -1   12.35    1.17
  -3   4   1   12.86    0.80
   3   4  -1   13.30    0.88
  -2  -4   1   39.41    2.00
   2  -4  -1   39.54    1.93
   2  -4  -1   44.41    1.94
  -2   4   1   38.87    1.66
   2   4  -1   39.92    1.65
  -1  -4   1    0.01    0.29
  -1   4   1    0.27    0.26
   1   4  -1    0.01    0.20
   0  -4   1    1.96    0.45
   0   4   1    1.47    0.39
   0   4   1    1.80    0.45
   1  -4   1    0.19    0.26
   1  -4   1    0.32    0.24
   1  -4   1    0.47    0.28
   1  -4   1    0.19    0.27
   1   4   1    0.53    0.32
   1   4   1    0.34    0.29
  -2  -4  -1    2.17    0.61
   2  -4   1    1.53    0.44
   2  -4   1    2.20    0.38
   2  -4   1    2.49    0.54
   2  -4   1    1.86    0.34
   2   4   1    2.98    0.65
   2   4   1    1.57    0.45
  -3  -4  -1    5.40    0.91
   3  -4   1    5.63    0.39
   3  -4   1    5.65    0.80
   3  -4   1    5.35    0.77
   3  -4   1    5.73    0.39
   3   4   1    5.32    0.75
   4  -4   1    2.69    0.65
  -4  -4  -1    2.98    0.81
   4  -4   1    1.67    0.31
   4   4   1    1.71    0.52
  -5  -4  -1   12.78    1.41
  -5  -4  -1   13.43    1.57
   5  -4   1   14.24    1.42
  -5   4  -1   14.56    1.57
   5   4   1   16.30    1.47
  -6  -4  -1    3.34    0.85
   6  -4   1    1.67    0.59
  -6  -4  -1    2.32    0.81
  -6   4  -1    2.80    0.82
   6   4   1    3.23    0.75
   7  -4   1    5.43    1.03
  -7  -4  -1    2.92    0.92
  -7  -4  -1    4.63    1.13
  -7   4  -1    2.81    0.85
   7   4   1    7.19    1.13
  -8  -4  -1   29.52    2.96
  -8  -4  -1   27.88    2.61
   8  -4   1   30.38    2.18
   8   4   1   32.82    2.12
  -8  -5   1    7.15    1.35
  -8  -5   1    9.04    1.64
   8  -5  -1    7.91    1.38
  -7  -5   1    2.09    0.92
  -7  -5   1    1.08    0.67
   7  -5  -1    0.67    0.69
   7   5  -1    1.66    0.66
  -6  -5   1   -0.38    0.62
   6  -5  -1    0.83    0.64
  -6  -5   1    0.08    0.46
   6   5  -1    0.53    0.42
  -5  -5   1    1.55    0.65
  -5  -5   1    2.11    0.64
   5  -5  -1    2.25    0.74
   5   5  -1    1.35    0.49
  -4  -5   1    2.94    0.73
   4  -5  -1    2.11    0.69
   4   5  -1    1.52    0.47
  -4   5   1    1.50    0.38
   3  -5  -1    1.37    0.58
  -3  -5   1    2.53    0.73
   3   5  -1    1.12    0.35
  -3   5   1    1.49    0.40
   2  -5  -1   16.11    1.40
  -2  -5   1   18.15    1.63
   2   5  -1   15.88    1.03
  -2   5   1   13.17    0.98
  -1  -5   1    8.49    1.05
  -1   5   1    9.38    1.00
   1   5  -1    9.05    0.90
   0  -5   1    6.14    0.84
   0   5   1    5.28    0.77
   0   5   1    7.82    0.98
  -1  -5  -1    2.09    0.56
   1  -5   1    3.24    0.55
   1  -5   1    2.51    0.55
   1  -5   1    2.00    0.50
   1   5   1    2.75    0.58
   1   5   1    1.81    0.54
  -2  -5  -1   -0.37    0.33
   2  -5   1   -0.04    0.21
   2  -5   1   -0.01    0.32
   2  -5   1    0.18    0.38
   2   5   1    0.56    0.36
   2   5   1    0.56    0.47
  -3  -5  -1   -0.25    0.30
   3  -5   1    0.02    0.21
   3  -5   1   -0.11    0.36
   3   5   1    0.19    0.35
  -4  -5  -1    0.13    0.53
   4  -5   1    0.20    0.44
   4   5   1    0.49    0.40
  -5  -5  -1    3.13    0.85
   5  -5   1    2.14    0.63
   5   5   1    2.90    0.73
  -6  -5  -1    3.29    0.97
  -6  -5  -1    4.79    1.01
   6  -5   1    4.24    0.99
   6   5   1    3.97    0.85
  -7  -5  -1    4.23    1.16
  -7  -5  -1    1.72    0.82
   7  -5   1    4.66    1.15
   7   5   1    3.87    0.89
   7  -6  -1    6.21    1.29
  -7  -6   1    5.89    1.42
   6  -6  -1    1.13    0.75
  -6  -6   1    1.73    0.73
  -6  -6   1    1.79    0.92
  -5  -6   1   21.60    1.64
  -5  -6   1   24.53    2.44
   5  -6  -1   26.92    1.94
   5   6  -1   26.83    1.62
  -4  -6   1   20.66    2.11
   4  -6  -1   19.88    1.86
   4   6  -1   18.53    1.27
   3  -6  -1    0.41    0.55
  -3  -6   1    0.36    0.46
   3   6  -1    1.68    0.52
  -3   6   1    0.16    0.29
   2  -6  -1   15.56    1.48
  -2  -6   1   14.16    1.61
  -2   6   1   15.52    1.16
   2   6  -1   16.22    1.14
  -1  -6   1    1.53    0.62
  -1   6   1    0.86    0.48
   0  -6  -1    1.73    0.63
   0  -6   1    1.79    0.61
   0   6   1    1.67    0.54
   0   6   1    1.29    0.54
   1  -6   1    0.68    0.50
  -1  -6  -1    0.63    0.54
   1  -6   1    1.03    0.48
   1   6   1    1.02    0.54
   1   6   1    0.60    0.45
   2  -6   1    0.49    0.37
   2  -6   1    0.61    0.47
  -2  -6  -1    0.40    0.56
   2   6   1    0.78    0.47
  -3  -6  -1    7.71    1.29
   3  -6   1    7.65    1.07
   3   6   1    8.67    1.11
   4  -6   1    2.98    0.76
  -4  -6  -1    3.37    1.00
   4   6   1    2.94    0.72
  -5  -6  -1    2.77    0.92
   5  -6   1    4.14    0.88
   5   6   1    3.20    0.82
  -6  -6  -1    8.93    1.40
  -6  -6  -1    6.59    1.39
   6  -6   1   11.99    1.57
   6   6   1    8.43    1.25
  -7  -6  -1    1.39    0.77
   5  -7  -1    1.77    0.89
  -5  -7   1    0.15    0.76
  -4  -7   1    4.12    1.15
   4  -7  -1    3.51    0.96
  -3  -7   1   16.54    1.93
   3  -7  -1   16.82    1.74
   3   7  -1   16.64    1.47
   2  -7  -1   -0.57    0.43
   2  -7  -1    0.60    0.51
  -2  -7   1    0.29    0.56
   2   7  -1    0.31    0.41
  -1  -7   1   17.36    1.81
   1  -7  -1   17.74    1.69
   0  -7   1    0.81    0.52
   0  -7  -1    1.13    0.65
   0  -7   1    1.19    0.60
  -1  -7  -1    3.77    0.96
   1  -7   1    2.98    0.74
   1  -7   1    4.16    0.82
   1   7   1    4.33    0.86
  -2  -7  -1   33.63    2.29
   2  -7   1   32.95    1.90
   2  -7   1   26.00    1.84
   2   7   1   28.97    1.87
   3  -7   1    0.31    0.56
  -3  -7  -1   -0.49    0.54
   3   7   1    0.20    0.49
  -4  -7  -1    3.57    1.13
   4  -7   1    4.30    0.99
   4   7   1    2.04    0.71
   5  -7   1   12.46    1.57
  -5  -7  -1    9.65    1.70
   5   7   1   10.81    1.40
  -3  -8   1    7.61    1.40
   3  -8  -1    6.00    1.20
   2  -8  -1    1.53    0.76
  -2  -8   1    0.01    0.62
   1  -8  -1    1.36    0.73
  -1  -8   1    0.83    0.70
   1  -8  -1    0.63    0.70
   0  -8  -1   -0.47    0.59
   0  -8   1    0.10    0.50
   0  -8   1    0.71    0.58
  -1  -8  -1    2.21    0.91
   1  -8   1    0.25    0.55
   2  -8   1    4.79    1.00
  -2  -8  -1    4.58    1.20
   2   8   1    5.35    1.01
   3  -8   1    2.52    0.80
  -3  -8  -1    1.88    1.04
   3   8   1    1.35    0.66
  10   0  -2    6.04    1.19
  -9   0   2    6.84    1.30
   9   0  -2    8.22    1.27
  -9   0   2    6.40    1.05
  -8   0   2   42.43    2.18
   8   0  -2   39.80    2.23
  -8   0   2   40.92    2.44
   7   0  -2    6.97    1.01
  -7   0   2    8.50    1.20
  -7   0   2    7.44    0.96
  -6   0   2   15.65    1.24
   6   0  -2   16.07    1.17
  -6   0   2   16.20    1.13
  -5   0   2   -0.04    0.22
   5   0  -2    0.01    0.27
   5   0  -2    0.34    0.26
  -5   0   2    0.33    0.32
  -4   0   2    1.45    0.37
  -4   0   2    1.65    0.41
   4   0  -2    1.86    0.40
   4   0  -2    1.60    0.44
   3   0  -2    5.67    0.56
  -3   0   2    5.52    0.55
  -3   0   2    4.63    0.56
   3   0  -2    5.39    0.59
  -3   0   2    4.62    0.53
   3   0  -2    4.19    0.54
  -2   0   2   89.30    2.72
   2   0  -2   83.62    2.56
   2   0  -2   85.88    2.70
   2   0  -2   81.28    2.64
  -2   0   2   83.94    2.57
  -2   0   2   82.90    2.66
  -1   0   2  949.98   26.00
  -1   0   2 1000.00   25.86
   1   0  -2  939.46   25.99
   0   0   2   25.97    0.96
   0   0  -2   26.19    0.96
   0   0  -2   25.83    0.90
   0   0   2   26.04    0.91
   0   0  -2   27.13    0.98
   0   0   2   28.22    0.98
   1   0   2  928.59   25.15
   1   0   2  942.26   25.21
   1   0   2  938.52   25.21
  -1   0  -2  922.81   25.19
  -1   0  -2  940.70   25.21
  -1   0  -2  930.76   25.14
  -2   0  -2   62.98    2.16
  -2   0  -2   64.54    2.05
   2   0   2   64.39    2.05
  -2   0  -2   61.33    2.06
   2   0   2   64.87    2.18
  -2   0  -2   64.58    2.25
  -3   0  -2    0.27    0.20
  -3   0  -2    0.61    0.33
   3   0   2    0.34    0.21
   3   0   2    0.91    0.29
  -3   0  -2    0.41    0.19
   4   0   2  263.79    7.86
  -4   0  -2  267.05    7.59
  -4   0  -2  241.38    7.58
  -4   0  -2  279.44    8.09
  -5   0  -2    5.67    0.87
  -5   0  -2    5.69    0.67
   5   0   2    4.88    0.73
  -6   0  -2   64.91    2.60
   6   0   2   71.12    2.95
  -6   0  -2   70.04    3.13
   7   0   2   46.57    2.40
  -7   0  -2   45.43    2.61
  -8   0  -2   11.40    1.57
   8   0   2   10.28    1.38
   9   0   2   22.66    2.28
 -10  -1   2    0.57    0.62
  -9  -1   2    1.04    0.71
   9  -1  -2    0.50    0.48
  -9  -1   2    1.79    0.75
  -9   1   2    1.96    0.82
   9   1  -2    0.60    0.58
  -8  -1   2    6.64    1.15
   8  -1  -2    6.40    1.06
  -8  -1   2    6.78    1.09
  -8   1   2    5.70    1.06
   8   1  -2    8.03    1.13
  -8   1   2    5.56    0.87
  -7  -1   2   13.35    1.40
  -7  -1   2   17.95    1.72
   7  -1  -2   18.91    1.35
   7   1  -2   18.36    1.28
  -7   1   2   16.52    1.69
  -7   1   2   15.29    1.13
  -6  -1   2    1.81    0.59
   6  -1  -2    1.19    0.49
  -6  -1   2    2.14    0.56
  -6   1   2    2.39    0.66
   6   1  -2    3.33    0.62
  -6   1   2    2.03    0.49
  -5  -1   2    6.07    0.80
  -5  -1   2    4.55    0.72
   5  -1  -2    5.62    0.76
   5  -1  -2    6.84    0.91
   5   1  -2    6.31    0.84
   5   1  -2    6.39    0.73
  -5   1   2    6.60    0.88
  -5   1   2    5.71    0.68
   4  -1  -2    0.69    0.28
   4  -1  -2    0.93    0.34
  -4  -1   2    0.38    0.29
   4  -1  -2    0.74    0.27
  -4  -1   2    0.52    0.28
  -4   1   2    0.52    0.34
   4   1  -2    0.40    0.27
  -4   1   2    0.64    0.26
   4   1  -2    0.44    0.27
  -3  -1   2   59.79    2.23
   3  -1  -2   60.11    2.03
   3  -1  -2   55.70    2.10
  -3  -1   2   58.04    1.93
  -3  -1   2   57.00    2.06
   3  -1  -2   59.61    2.22
  -3   1   2   56.96    2.04
   3   1  -2   59.04    1.94
   3   1  -2   55.82    2.03
  -3   1   2   57.42    2.22
  -2  -1   2   23.41    0.84
  -2  -1   2   24.44    0.95
   2  -1  -2   24.41    1.11
   2  -1  -2   24.99    1.05
  -2  -1   2   24.94    1.14
   2  -1  -2   23.97    1.01
  -2   1   2   22.12    1.00
  -2   1   2   22.64    0.77
   2   1  -2   24.88    0.94
   2   1  -2   23.01    0.83
   2   1  -2   23.75    1.11
   1  -1  -2   19.13    0.71
  -1  -1   2   20.02    0.88
   1  -1  -2   18.76    0.85
  -1  -1   2   19.21    0.62
   1  -1  -2   17.88    0.84
  -1   1   2   18.36    0.83
   1   1  -2   18.94    0.87
  -1   1   2   20.58    0.89
   0  -1  -2  327.66    9.22
   0  -1  -2  329.59    9.13
   0  -1   2  333.22    8.97
   0  -1   2  329.09    8.94
   0  -1   2  329.83    9.13
   0  -1  -2  331.51    9.22
   0   1  -2  334.92    8.95
   0   1  -2  330.00    8.97
   0   1   2  337.70    9.24
   0   1  -2  334.73    9.13
   0   1   2  330.64    9.24
   1  -1   2   53.84    1.55
   1  -1   2   47.99    1.66
   1  -1   2   51.34    1.68
  -1  -1  -2   51.07    1.76
  -1  -1  -2   50.26    1.77
  -1   1  -2   49.85    1.53
   1   1   2   49.27    1.77
   1   1   2   50.02    1.79
  -1   1  -2   51.84    1.66
  -1   1  -2   48.85    1.67
   2  -1   2   89.53    2.52
   2  -1   2   91.35    2.76
   2  -1   2   86.18    2.88
   2  -1   2   87.24    2.86
  -2  -1  -2   90.07    2.91
  -2   1  -2   90.21    2.85
  -2   1  -2   89.35    2.92
   2   1   2   89.38    2.91
  -2   1  -2   87.70    2.51
   2   1   2   86.81    2.89
   3  -1   2    2.89    0.53
  -3  -1  -2    2.97    0.48
   3  -1   2    2.45    0.38
  -3  -1  -2    4.04    0.63
   3  -1   2    4.25    0.57
   3   1   2    3.05    0.47
  -3   1  -2    3.46    0.31
  -3   1  -2    3.15    0.51
  -3   1  -2    4.03    0.47
  -3   1  -2    3.50    0.30
   3   1   2    3.35    0.54
  -4  -1  -2    0.29    0.27
  -4  -1  -2    0.31    0.28
   4  -1   2   -0.11    0.29
   4  -1   2    0.62    0.39
  -4   1  -2    0.45    0.18
   4   1   2    0.84    0.33
  -4   1  -2    0.24    0.17
  -4   1  -2    0.49    0.23
  -4   1  -2    0.29    0.34
  -5  -1  -2   15.34    1.20
  -5  -1  -2   14.56    1.07
   5  -1   2   15.84    1.13
  -5   1  -2   14.11    0.76
   5   1   2   15.13    1.10
  -5   1  -2   15.96    0.80
  -5   1  -2   14.99    1.17
  -6  -1  -2    0.61    0.41
  -6  -1  -2    1.20    0.58
   6  -1   2    0.36    0.44
   6   1   2    0.23    0.32
  -6   1  -2    0.98    0.31
  -6   1  -2    0.77    0.54
  -6   1  -2    0.87    0.28
  -7  -1  -2    5.73    0.92
  -7  -1  -2    6.20    1.12
   7  -1   2    6.38    1.05
   7   1   2    7.00    1.06
  -7   1  -2    6.98    0.74
  -7   1  -2    9.27    1.37
  -8  -1  -2   15.61    1.55
   8  -1   2   14.24    1.66
  -8  -1  -2   14.30    1.83
   8   1   2   16.71    1.73
  -8   1  -2   17.40    1.99
   9  -1   2   -0.30    0.37
   9   1   2   -0.05    0.44
  -9  -2   2    9.57    1.43
   9  -2  -2    8.03    1.35
  -9  -2   2    8.72    1.44
   9   2  -2    9.62    1.34
   8  -2  -2    0.09    0.47
  -8  -2   2   -0.09    0.51
  -8  -2   2   -0.05    0.52
  -8   2   2   -0.02    0.48
   8   2  -2    0.19    0.40
  -7  -2   2    1.54    0.63
  -7  -2   2    2.38    0.72
   7  -2  -2    1.07    0.58
  -7   2   2    2.06    0.72
  -7   2   2    3.01    0.58
   7   2  -2    2.43    0.61
   6  -2  -2   13.66    1.34
  -6  -2   2   15.30    1.51
  -6  -2   2   16.27    1.27
   6   2  -2   14.27    1.04
  -6   2   2   13.88    1.51
  -6   2   2   13.48    0.93
  -5  -2   2    5.31    0.85
   5  -2  -2    5.67    0.81
  -5  -2   2    6.19    0.84
   5  -2  -2    5.36    0.71
  -5   2   2    5.44    0.90
   5   2  -2    6.38    0.74
   4  -2  -2    2.51    0.40
  -4  -2   2    2.28    0.47
   4  -2  -2    1.73    0.43
   4  -2  -2    2.36    0.55
  -4  -2   2    1.78    0.47
   4   2  -2    1.89    0.38
  -4   2   2    1.36    0.46
  -4   2   2    0.67    0.22
   3  -2  -2   10.76    0.88
  -3  -2   2   13.32    0.67
  -3  -2   2   13.48    0.79
   3  -2  -2   11.60    0.71
   3  -2  -2   13.01    0.86
  -3  -2   2   11.75    0.92
   3   2  -2   12.99    0.67
  -3   2   2   14.83    0.79
  -2  -2   2    4.50    0.58
  -2  -2   2    3.79    0.28
   2  -2  -2    5.12    0.28
   2  -2  -2    4.48    0.50
  -2  -2   2    3.86    0.40
   2  -2  -2    4.85    0.63
   2   2  -2    4.36    0.31
  -2   2   2    5.15    0.53
  -1  -2   2   41.38    1.28
   1  -2  -2   41.34    1.57
  -1  -2   2   41.12    1.64
  -1   2   2   42.68    1.60
  -1   2   2   40.68    1.66
   1   2  -2   41.25    1.28
   1   2  -2   46.12    1.69
   0  -2   2   23.99    0.99
   0  -2  -2   24.00    1.07
   0  -2   2   21.11    0.82
   0  -2   2   22.85    0.84
   0  -2  -2   24.53    1.09
   0   2   2   21.47    1.07
   0   2  -2   21.31    0.96
   0   2   2   23.69    1.08
   1  -2   2  388.23   10.64
   1  -2   2  387.45   10.50
   1  -2   2  384.56   10.66
  -1  -2  -2  381.94   10.89
   1   2   2  381.19   10.92
   1   2   2  379.55   10.85
  -1   2  -2  377.03   10.50
  -1   2  -2  393.07   10.65
  -1   2  -2  382.18   10.66
   2  -2   2  245.31    7.11
   2  -2   2  241.74    7.16
   2   2   2  248.74    7.24
   2   2   2  244.55    7.33
  -2   2  -2  244.86    7.17
   3  -2   2  196.48    6.16
   3  -2   2  201.00    5.86
   3  -2   2  197.91    6.24
  -3   2  -2  211.12    6.30
   3   2   2  205.84    6.34
   3   2   2  206.36    6.23
   4  -2   2   98.89    3.65
  -4  -2  -2  102.61    3.70
  -4  -2  -2   98.53    3.72
   4  -2   2   95.56    3.54
  -4   2  -2   98.47    3.66
   4   2   2  101.13    3.65
   4   2   2  102.38    3.57
  -5  -2  -2   21.03    1.46
   5  -2   2   23.91    1.45
  -5  -2  -2   22.20    1.43
  -5   2  -2   18.77    1.38
   5   2   2   19.30    1.31
  -6  -2  -2   18.18    1.45
  -6  -2  -2   20.98    1.62
   6  -2   2   22.00    1.57
   6   2   2   21.76    1.49
  -6   2  -2   20.25    1.60
  -6   2  -2   21.61    0.94
  -7  -2  -2   10.69    1.36
   7  -2   2   12.48    1.45
  -7  -2  -2   14.45    1.68
  -7   2  -2   11.44    1.51
   7   2   2    9.30    1.23
  -8  -2  -2    3.63    1.07
   8  -2   2    4.32    1.03
  -8  -2  -2    4.62    1.01
  -8   2  -2    5.08    1.15
   8   2   2    6.78    1.15
  -9  -2  -2    6.77    1.21
   9  -2   2    7.69    1.36
   9   2   2    6.01    1.18
   9  -3  -2    1.49    0.80
  -9  -3   2    0.47    0.67
  -9  -3   2    0.26    0.66
   9   3  -2    0.72    0.54
   8  -3  -2   19.57    1.92
  -8  -3   2   18.72    2.00
  -8  -3   2   15.11    1.73
  -8   3   2   21.34    2.25
   8   3  -2   16.79    1.60
  -7  -3   2   17.42    1.82
   7  -3  -2   16.51    1.69
  -7  -3   2   18.86    1.75
  -7   3   2   17.69    1.91
   7   3  -2   17.26    1.25
   6  -3  -2   46.45    2.36
  -6  -3   2   43.35    2.26
  -6  -3   2   42.82    2.44
  -6   3   2   48.94    2.58
   6   3  -2   45.50    2.04
  -6   3   2   47.59    1.86
   5  -3  -2  156.38    5.29
   5  -3  -2  156.65    4.75
  -5  -3   2  148.04    5.43
  -5  -3   2  153.86    5.14
  -5   3   2  153.99    4.73
   5   3  -2  151.40    4.87
  -4  -3   2    4.37    0.64
  -4  -3   2    4.92    0.81
   4  -3  -2    5.56    0.61
   4  -3  -2    5.24    0.79
  -4   3   2    5.00    0.58
   4   3  -2    3.71    0.51
   3  -3  -2   62.76    2.28
  -3  -3   2   64.43    2.34
   3  -3  -2   64.35    1.88
   3  -3  -2   64.56    2.58
  -3  -3   2   64.51    2.15
   3  -3  -2   66.05    2.68
  -3  -3   2   67.27    2.73
   3   3  -2   66.80    2.20
  -3   3   2   64.39    2.29
   2  -3  -2  186.72    5.59
  -2  -3   2  186.10    5.90
  -2  -3   2  187.31    5.33
   2   3  -2  182.26    5.35
  -2   3   2  192.90    5.64
  -1  -3   2    1.34    0.25
  -1  -3   2    1.11    0.36
   1  -3  -2    1.79    0.44
  -1   3   2    1.30    0.42
  -1   3   2    1.12    0.32
   1   3  -2    1.08    0.22
   0  -3   2   17.20    0.90
   0  -3   2   18.62    0.83
   0  -3   2   16.54    0.78
   0  -3   2   13.98    0.85
   0   3   2   14.67    0.96
   0   3   2   15.55    1.00
   1  -3   2    4.62    0.46
   1  -3   2    4.14    0.44
   1  -3   2    3.48    0.46
   1  -3   2    4.37    0.52
   1   3   2    3.48    0.53
   1   3   2    3.11    0.54
   2  -3   2  113.06    3.66
   2  -3   2  113.18    3.24
   2  -3   2  112.77    3.71
   2  -3   2  111.97    3.24
  -2   3  -2  112.05    3.74
   2   3   2  111.71    3.96
   2   3   2  111.36    3.81
   3  -3   2    9.38    0.96
   3  -3   2   12.78    0.91
   3  -3   2   11.07    0.67
   3   3   2   10.28    1.01
   3   3   2   11.39    1.16
  -3   3  -2    9.71    1.00
  -4  -3  -2    9.84    1.16
   4  -3   2   12.01    0.70
   4  -3   2   13.62    1.20
   4   3   2   10.56    1.12
   4   3   2   12.36    1.29
  -4   3  -2   10.99    1.15
  -5  -3  -2   23.66    1.68
   5  -3   2   20.49    1.42
  -5  -3  -2   26.23    1.67
   5   3   2   22.74    1.49
  -5   3  -2   25.16    1.62
   6  -3   2    8.03    1.16
  -6  -3  -2    4.73    1.01
  -6  -3  -2    9.12    1.27
   6   3   2    6.27    1.01
  -6   3  -2    7.32    1.12
  -7  -3  -2   18.40    1.94
   7  -3   2   16.19    1.77
  -7  -3  -2   15.11    1.71
  -7   3  -2   19.96    1.99
   7   3   2   15.44    1.62
   8  -3   2   15.05    1.76
  -8  -3  -2   11.74    1.62
  -8  -3  -2   12.43    1.75
   8   3   2   12.76    1.57
  -9  -3  -2    1.17    0.79
   9  -3   2    2.05    0.92
   9   3   2    0.22    0.59
   8  -4  -2    0.70    0.67
  -8  -4   2    1.06    0.72
  -8  -4   2    0.79    0.64
   8   4  -2    1.17    0.59
   7  -4  -2   -0.31    0.49
  -7  -4   2   -0.14    0.41
  -7  -4   2   -0.29    0.46
   7   4  -2    0.25    0.39
  -6  -4   2    2.25    0.66
  -6  -4   2    2.04    0.69
   6  -4  -2    1.50    0.67
   6   4  -2    2.30    0.58
  -5  -4   2    1.97    0.63
  -5  -4   2    1.99    0.56
   5  -4  -2    2.08    0.60
  -5   4   2    1.74    0.40
   5   4  -2    1.12    0.38
   4  -4  -2    3.24    0.68
  -4  -4   2    4.51    0.69
  -4  -4   2    6.70    1.05
   4   4  -2    5.19    0.64
  -4   4   2    6.89    0.71
   3  -4  -2    7.20    0.97
  -3  -4   2    6.43    0.95
  -3   4   2    6.23    0.69
   3   4  -2    6.41    0.65
  -2  -4   2    8.38    0.99
  -2  -4   2    8.54    0.58
   2   4  -2    8.60    0.60
  -2   4   2   10.32    0.92
  -1  -4   2    0.95    0.26
  -1  -4   2    0.97    0.35
  -1   4   2    0.70    0.39
  -1   4   2    1.00    0.33
   0  -4   2   35.37    1.64
   0  -4   2   37.55    1.51
   0   4   2   37.44    1.80
   0   4   2   37.92    1.81
   1  -4   2    8.24    0.76
   1  -4   2    8.31    0.79
   1  -4   2    9.44    0.74
   1  -4   2   10.34    0.70
   1   4   2    9.53    1.06
   1   4   2   11.27    1.06
   2  -4   2    9.04    0.88
   2  -4   2    8.34    0.54
   2  -4   2    7.86    0.54
   2  -4   2    7.67    0.84
   2   4   2    8.39    0.97
   2   4   2    7.63    0.99
   3  -4   2    0.19    0.10
   3  -4   2   -0.32    0.28
   3  -4   2   -0.04    0.09
   3  -4   2    0.47    0.30
  -3  -4  -2   -0.16    0.24
   3   4   2   -0.01    0.31
   3   4   2    0.14    0.43
   4  -4   2    0.79    0.45
   4  -4   2    0.49    0.28
  -4  -4  -2   -0.16    0.31
  -4   4  -2    0.81    0.47
   4   4   2   -0.04    0.31
   4   4   2    0.53    0.40
   5  -4   2    2.78    0.67
  -5  -4  -2    2.95    0.85
   5  -4   2    2.46    0.40
  -5   4  -2    2.93    0.73
   5   4   2    1.89    0.60
   6  -4   2   -0.06    0.35
  -6  -4  -2   -0.06    0.36
  -6  -4  -2   -0.01    0.41
   6   4   2    0.19    0.44
  -6   4  -2    0.37    0.55
  -7  -4  -2    3.06    0.94
   7  -4   2    2.05    0.72
  -7  -4  -2    1.59    0.81
  -7   4  -2    2.80    0.84
   7   4   2    2.06    0.67
   8  -4   2    4.34    1.16
  -8  -4  -2    1.81    0.94
   8   4   2    2.51    0.81
   8  -5  -2   35.20    2.48
  -8  -5   2   33.40    2.62
  -7  -5   2   19.41    1.87
   7  -5  -2   16.31    1.82
  -7  -5   2   14.69    1.90
  -6  -5   2   14.38    1.53
  -6  -5   2   19.36    2.08
   6  -5  -2   20.12    1.91
   6   5  -2   17.19    1.23
   5  -5  -2   65.81    3.03
  -5  -5   2   59.87    2.72
  -5  -5   2   64.61    3.25
  -5   5   2   60.45    2.66
   5   5  -2   62.49    2.52
  -4  -5   2    0.07    0.37
   4  -5  -2   -0.25    0.41
  -4   5   2    0.30    0.28
   4   5  -2    0.23    0.27
   3  -5  -2   65.22    2.91
  -3  -5   2   67.87    3.09
  -3   5   2   65.43    2.58
   3   5  -2   65.22    2.44
  -2  -5   2   17.55    1.38
   2   5  -2   20.66    1.10
  -2   5   2   21.30    1.30
  -1  -5   2   -0.37    0.29
  -1   5   2   -0.23    0.30
  -1   5   2    0.17    0.30
   0  -5   2   65.30    2.69
   0  -5   2   70.79    2.54
   0   5   2   66.24    2.84
   0   5   2   69.29    2.91
   1  -5   2   17.30    1.09
   1  -5   2   18.75    1.17
   1  -5   2   17.83    1.10
   1   5   2   19.52    1.31
   1   5   2   18.25    1.35
   2  -5   2   28.31    1.54
   2  -5   2   30.48    1.35
   2  -5   2   29.50    1.61
   2  -5   2   29.99    1.36
   2   5   2   32.50    1.94
   2   5   2   30.46    1.72
   3  -5   2    3.08    0.37
   3  -5   2    2.55    0.63
  -3  -5  -2    2.01    0.71
   3   5   2    2.29    0.74
   3   5   2    4.40    0.81
   4  -5   2   25.02    1.22
  -4  -5  -2   25.16    1.89
   4  -5   2   24.37    1.58
   4   5   2   22.36    1.57
   5  -5   2    7.23    1.14
  -5  -5  -2    9.64    1.45
   5   5   2    9.35    1.27
  -6  -5  -2    1.66    0.67
   6  -5   2    0.95    0.64
  -6  -5  -2    0.75    0.77
   6   5   2    0.92    0.63
  -7  -5  -2   15.85    2.01
  -7  -5  -2   12.43    1.70
   7  -5   2   17.07    1.90
   7   5   2   13.99    1.69
   7  -6  -2    6.40    1.28
  -7  -6   2    5.33    1.26
  -6  -6   2    4.44    1.09
   6  -6  -2    5.10    1.15
  -5  -6   2    0.15    0.69
   5  -6  -2    0.12    0.61
  -5  -6   2   -0.08    0.46
   4  -6  -2   22.95    2.01
  -4  -6   2   26.69    1.96
   4   6  -2   22.84    1.35
  -4   6   2   23.43    1.38
  -3  -6   2   -0.35    0.30
   3  -6  -2    0.21    0.42
   3   6  -2   -0.02    0.27
  -3   6   2    0.05    0.29
  -2  -6   2   31.21    1.94
  -2   6   2   28.43    1.70
   2   6  -2   30.58    1.50
  -1  -6   2   10.44    1.26
  -1   6   2    7.90    1.10
   0  -6   2   -0.35    0.31
   0  -6   2    0.58    0.36
   0  -6   2    0.33    0.39
   0   6   2    0.16    0.39
   0   6   2   -0.08    0.27
   1  -6   2   38.79    1.88
   1  -6   2   41.67    1.95
   1   6   2   38.66    2.13
   1   6   2   37.14    2.18
  -2  -6  -2   23.02    1.78
   2  -6   2   22.70    1.44
   2  -6   2   19.92    1.20
   2   6   2   23.75    1.60
   2   6   2   24.36    1.81
   3  -6   2   17.65    1.58
  -3  -6  -2   20.64    2.11
   3   6   2   18.40    1.71
   4  -6   2   13.50    1.44
  -4  -6  -2   18.36    2.03
   4   6   2   12.02    1.46
  -5  -6  -2   -0.10    0.65
   5  -6   2    1.95    0.74
   5   6   2    0.46    0.55
  -6  -6  -2    3.63    1.07
   6  -6   2    3.81    1.06
  -6  -6  -2    4.00    1.09
   6   6   2    2.14    0.78
   5  -7  -2   11.20    1.59
  -5  -7   2   15.09    1.99
  -4  -7   2   -0.43    0.60
   4  -7  -2   -0.09    0.57
   3  -7  -2    3.24    0.90
  -3  -7   2    5.35    1.19
  -3   7   2    5.00    0.89
  -2  -7   2   11.35    1.51
   2  -7  -2   10.08    1.34
  -2   7   2   11.88    1.36
  -1  -7   2    0.79    0.41
  -1  -7   2    0.86    0.56
  -1   7   2    1.58    0.65
   0  -7  -2    7.41    1.25
   0  -7   2    9.98    1.10
   0  -7   2   11.97    1.43
   0   7   2   11.10    1.41
   0   7   2    9.02    1.23
  -1  -7  -2    8.65    1.41
   1  -7   2    8.27    1.10
   1  -7   2    9.08    1.11
   1   7   2    6.69    1.20
   1   7   2    9.42    1.30
  -2  -7  -2    0.92    0.57
   2  -7   2    1.10    0.55
   2   7   2    1.31    0.62
   3  -7   2    1.22    0.59
  -3  -7  -2    0.72    0.76
   3   7   2    1.36    0.64
  -4  -7  -2    0.31    0.62
   4  -7   2    0.31    0.52
   4   7   2    0.30    0.56
  -5  -7  -2    1.46    0.78
   5  -7   2    1.94    0.82
   5   7   2    1.77    0.76
  -3  -8   2    3.63    1.14
   3  -8  -2    2.62    0.94
   2  -8  -2   21.12    2.08
  -2  -8   2   15.68    1.94
   1  -8  -2   34.59    2.23
  -1  -8   2   28.03    2.11
   0  -8   2    5.31    1.13
   0  -8  -2    6.99    1.29
  -1  -8  -2   37.68    2.57
   1  -8   2   39.46    2.15
   1   8   2   37.63    2.33
   2  -8   2    3.90    0.97
  -2  -8  -2    5.10    1.29
   2   8   2    4.29    1.03
  -3  -8  -2    4.21    1.17
   3  -8   2    3.77    0.97
   3   8   2    4.24    1.07
  10   0  -3   -0.70    0.47
  -9   0   3   -0.60    0.51
  -9   0   3   -0.03    0.42
   9   0  -3    0.43    0.55
  -8   0   3    0.04    0.49
  -8   0   3    0.26    0.41
   8   0  -3    0.68    0.53
  -7   0   3   -0.02    0.34
  -7   0   3    0.44    0.42
   7   0  -3    0.07    0.37
  -6   0   3   -0.15    0.18
  -6   0   3   -0.14    0.34
   6   0  -3    0.24    0.33
   5   0  -3    0.49    0.32
  -5   0   3   -0.01    0.24
   5   0  -3    0.05    0.28
  -5   0   3    0.57    0.39
   4   0  -3   -0.06    0.24
  -4   0   3    0.05    0.25
  -4   0   3   -0.25    0.21
   4   0  -3    0.06    0.21
  -3   0   3   -0.03    0.19
   3   0  -3   -0.20    0.15
   3   0  -3    0.13    0.19
  -3   0   3   -0.07    0.20
   3   0  -3   -0.04    0.16
   2   0  -3    0.02    0.17
   2   0  -3   -0.36    0.14
  -2   0   3    0.03    0.18
   2   0  -3   -0.21    0.20
   2   0  -3    0.00    0.16
  -1   0   3   -0.01    0.12
   1   0  -3   -0.03    0.10
   1   0  -3   -0.16    0.13
  -1   0   3   -0.06    0.21
   0   0   3    0.06    0.18
   0   0   3    0.15    0.14
   0   0  -3    0.12    0.19
   0   0   3   -0.03    0.17
   0   0  -3   -0.03    0.13
   1   0   3    0.22    0.19
  -1   0  -3    0.01    0.13
  -1   0  -3   -0.01    0.16
  -1   0  -3    0.17    0.19
   1   0   3    0.05    0.16
   1   0   3    0.16    0.21
  -2   0  -3   -0.16    0.20
  -2   0  -3   -0.22    0.14
  -2   0  -3   -0.34    0.16
   2   0   3    0.01    0.22
   2   0   3   -0.08    0.21
   2   0   3    0.04    0.16
   3   0   3    0.28    0.30
  -3   0  -3    0.10    0.20
   3   0   3   -0.10    0.15
  -3   0  -3   -0.26    0.24
   4   0   3    0.26    0.32
  -4   0  -3   -0.21    0.20
   4   0   3    0.34    0.26
  -4   0  -3    0.07    0.32
  -5   0  -3    0.07    0.23
   5   0   3    0.41    0.39
  -5   0  -3   -0.04    0.26
   6   0   3   -0.21    0.37
  -6   0  -3    0.06    0.33
  -6   0  -3    0.21    0.22
   7   0   3    0.57    0.51
  -7   0  -3   -0.14    0.49
  -7   0  -3    0.02    0.24
  -8   0  -3   -0.75    0.47
   8   0   3   -0.11    0.52
   9   0   3   -0.05    0.62
  -9  -1   3   10.23    1.44
  -9  -1   3   10.37    1.52
   9  -1  -3   13.36    1.63
   9   1  -3   13.19    1.50
  -9   1   3   13.81    1.79
  -8  -1   3    1.91    0.70
   8  -1  -3    2.89    0.74
  -8  -1   3    2.26    0.72
  -8   1   3    1.74    0.57
  -8   1   3    3.03    0.88
   8   1  -3    2.10    0.62
  -7  -1   3    7.93    1.12
   7  -1  -3    8.34    1.11
  -7  -1   3    8.08    1.16
  -7   1   3    6.34    1.08
   7   1  -3    8.80    1.03
  -7   1   3    8.66    1.03
   6  -1  -3    0.27    0.37
  -6  -1   3    0.52    0.41
  -6  -1   3    0.57    0.42
   6   1  -3    0.93    0.38
  -6   1   3    0.77    0.42
  -6   1   3    0.68    0.36
   5  -1  -3   10.05    1.08
  -5  -1   3    8.11    0.91
  -5  -1   3    7.79    0.94
   5  -1  -3    7.47    0.86
   5   1  -3    7.26    0.78
   5   1  -3    8.15    0.91
  -5   1   3    8.87    0.89
  -5   1   3    8.06    0.98
   4  -1  -3    0.37    0.31
  -4  -1   3   -0.03    0.28
  -4  -1   3   -0.09    0.23
   4  -1  -3    0.60    0.31
   4   1  -3    0.00    0.21
  -4   1   3    0.18    0.24
   4   1  -3   -0.16    0.16
  -4   1   3    0.35    0.31
   3  -1  -3   77.41    2.63
  -3  -1   3   76.06    2.39
  -3  -1   3   77.05    2.55
   3  -1  -3   77.66    2.63
  -3  -1   3   76.19    2.77
   3  -1  -3   72.62    2.70
   3   1  -3   74.66    2.51
   3   1  -3   76.47    2.38
  -3   1   3   75.36    2.65
   2  -1  -3   15.77    0.92
   2  -1  -3   16.51    0.88
  -2  -1   3   17.64    0.73
  -2  -1   3   16.98    0.94
   2  -1  -3   16.66    0.91
   2   1  -3   15.71    0.90
   2   1  -3   16.73    0.71
   2   1  -3   17.45    0.63
  -2   1   3   17.64    0.93
   1  -1  -3    0.13    0.22
   1  -1  -3    0.02    0.19
  -1  -1   3    0.05    0.21
   1  -1  -3    0.25    0.18
   1   1  -3   -0.09    0.18
  -1   1   3   -0.23    0.19
   1   1  -3    0.09    0.06
   1   1  -3    0.12    0.07
  -1   1   3    0.01    0.19
  -1   1   3    0.13    0.14
   0  -1   3   20.37    0.90
   0  -1  -3   20.74    0.95
   0  -1  -3   19.69    0.97
   0  -1   3   22.21    0.77
   0  -1  -3   19.80    0.90
   0   1   3   22.12    1.00
   0   1   3   22.79    1.00
   0   1   3   19.36    0.90
   0   1  -3   20.66    0.75
   0   1  -3   20.32    0.90
   0   1  -3   21.13    0.73
   1  -1   3   27.50    1.10
  -1  -1  -3   28.72    1.19
   1  -1   3   30.36    1.08
  -1  -1  -3   28.03    1.21
  -1  -1  -3   28.13    1.24
   1  -1   3   27.99    1.18
  -1   1  -3   30.99    1.14
   1   1   3   29.22    1.26
   1   1   3   26.92    1.24
  -1   1  -3   29.64    1.13
  -1   1  -3   30.75    1.08
   2  -1   3   18.96    0.95
   2  -1   3   17.10    0.72
   2  -1   3   17.88    0.95
   2  -1   3   17.34    0.90
  -2  -1  -3   18.38    0.97
  -2   1  -3   18.17    0.97
  -2   1  -3   18.08    0.73
   2   1   3   18.78    0.99
   2   1   3   17.28    0.98
   3  -1   3  119.38    3.95
   3  -1   3  118.48    3.89
   3  -1   3  122.10    3.75
   3  -1   3  121.65    3.48
  -3   1  -3  116.23    3.45
  -3   1  -3  113.64    3.70
  -3   1  -3  115.13    3.96
   3   1   3  120.32    3.95
   3   1   3  118.49    3.88
  -4  -1  -3  118.44    4.21
   4  -1   3  112.51    3.99
   4  -1   3  113.96    4.08
  -4   1  -3  120.04    3.53
  -4   1  -3  115.56    4.13
   4   1   3  117.81    3.95
  -4   1  -3  118.12    3.47
   4   1   3  111.29    3.98
  -5  -1  -3   19.17    1.27
  -5  -1  -3   19.85    1.48
   5  -1   3   19.55    1.36
  -5   1  -3   23.41    1.54
   5   1   3   19.74    1.35
  -5   1  -3   21.37    0.96
  -5   1  -3   21.88    1.00
   6  -1   3   39.61    2.14
  -6  -1  -3   44.39    2.11
  -6  -1  -3   35.90    2.19
  -6   1  -3   37.98    1.57
  -6   1  -3   41.77    2.31
   6   1   3   38.09    2.10
   7  -1   3   -0.08    0.37
  -7  -1  -3    0.06    0.53
  -7  -1  -3    0.11    0.40
   7   1   3    1.05    0.58
  -7   1  -3    0.02    0.50
   8  -1   3    0.63    0.68
  -8  -1  -3    1.68    0.82
  -8  -1  -3    1.17    0.60
  -8   1  -3    1.72    0.91
   8   1   3    1.80    0.66
   9  -1   3    6.73    1.32
   9   1   3    5.76    1.18
  -9  -2   3    0.49    0.66
  -9  -2   3    2.93    0.96
   9  -2  -3    2.18    0.83
   9   2  -3    2.23    0.75
  -8  -2   3    5.49    1.10
  -8  -2   3    8.06    1.25
   8  -2  -3    6.02    1.03
  -8   2   3    5.41    1.11
   8   2  -3    7.05    1.03
  -7  -2   3    0.48    0.55
  -7  -2   3    2.38    0.68
   7  -2  -3    1.82    0.62
   7   2  -3    0.87    0.46
  -7   2   3    1.21    0.46
  -7   2   3    1.77    0.63
   6  -2  -3   36.09    1.89
  -6  -2   3   34.30    1.98
  -6  -2   3   35.43    1.88
   6   2  -3   34.02    1.66
  -6   2   3   36.03    1.70
  -6   2   3   30.64    1.97
  -5  -2   3    1.68    0.54
  -5  -2   3    1.11    0.43
   5  -2  -3    2.40    0.53
  -5   2   3    1.72    0.55
   5   2  -3    1.91    0.42
  -5   2   3    0.83    0.34
   4  -2  -3   -0.01    0.21
  -4  -2   3    0.49    0.22
  -4  -2   3   -0.05    0.24
   4  -2  -3    0.67    0.32
  -4  -2   3   -0.01    0.22
  -4   2   3    0.07    0.22
   4   2  -3    0.22    0.20
   3  -2  -3   79.44    2.79
  -3  -2   3   74.98    2.30
   3  -2  -3   75.49    2.64
  -3  -2   3   75.07    2.48
   3  -2  -3   73.55    2.83
  -3  -2   3   70.22    2.82
   3   2  -3   76.82    2.32
  -3   2   3   74.05    2.64
  -2  -2   3  104.60    2.90
   2  -2  -3  105.53    3.09
   2  -2  -3  106.18    3.41
  -2  -2   3  106.50    3.06
  -2  -2   3  102.26    3.53
  -2   2   3  103.98    3.42
   2   2  -3  103.16    2.91
   1  -2  -3  110.53    3.51
  -1  -2   3  111.83    2.94
   1  -2  -3  105.78    3.26
  -1  -2   3  106.97    3.50
  -1   2   3  105.62    3.51
   1   2  -3  106.09    3.49
  -1   2   3  109.99    3.58
   0  -2   3   13.65    0.74
   0  -2  -3   12.03    0.78
   0  -2   3   13.54    0.57
   0  -2   3   12.83    0.53
   0   2  -3   13.06    0.56
   0   2  -3   12.73    0.71
   0   2   3   12.78    0.83
   0   2   3   12.84    0.82
   1  -2   3    3.01    0.40
   1  -2   3    4.60    0.41
   1  -2   3    3.29    0.39
  -1   2  -3    3.95    0.39
   1   2   3    3.18    0.53
   1   2   3    2.97    0.50
  -1   2  -3    3.49    0.41
   2  -2   3    2.90    0.46
   2  -2   3    3.46    0.25
   2  -2   3    3.38    0.45
   2  -2   3    3.50    0.48
  -2   2  -3    4.67    0.55
   2   2   3    3.36    0.52
   2   2   3    2.61    0.51
  -2   2  -3    3.97    0.26
   3  -2   3    3.27    0.56
   3  -2   3    3.14    0.55
   3  -2   3    3.81    0.51
   3   2   3    4.41    0.68
  -3   2  -3    4.34    0.64
   3   2   3    2.90    0.57
   4  -2   3    8.46    0.77
   4  -2   3    8.31    0.99
   4  -2   3    8.78    0.97
   4   2   3    9.45    1.04
  -4   2  -3    7.60    0.96
   4   2   3    6.27    0.83
  -5  -2  -3    2.02    0.60
  -5  -2  -3    1.60    0.64
   5  -2   3    2.36    0.64
  -5   2  -3    1.86    0.59
   5   2   3    3.03    0.67
  -6  -2  -3    9.79    1.19
   6  -2   3    7.45    1.12
  -6  -2  -3    7.47    1.16
   6   2   3    8.46    1.11
  -6   2  -3    7.46    1.15
  -7  -2  -3   -0.04    0.56
  -7  -2  -3    0.20    0.47
   7  -2   3    0.29    0.56
   7   2   3    0.11    0.46
  -7   2  -3   -0.15    0.47
   8  -2   3    0.30    0.50
  -8  -2  -3    0.58    0.54
  -8  -2  -3    0.15    0.52
  -8   2  -3   -0.04    0.47
   8   2   3    0.91    0.63
   9  -2   3    0.07    0.50
  -9  -2  -3    0.71    0.71
   9   2   3   -0.09    0.56
   9  -3  -3    1.95    0.85
  -9  -3   3    2.94    0.91
  -9  -3   3    1.53    0.93
   9   3  -3    1.94    0.68
  -8  -3   3   -0.68    0.55
  -8  -3   3    0.85    0.60
   8  -3  -3    0.43    0.64
   8   3  -3    0.85    0.48
  -7  -3   3    1.24    0.61
   7  -3  -3    0.04    0.44
  -7  -3   3    0.73    0.63
  -7   3   3   -0.02    0.30
   7   3  -3    0.39    0.38
   6  -3  -3    7.04    1.01
  -6  -3   3    7.12    0.98
  -6  -3   3    8.00    1.17
   6   3  -3    8.31    0.88
  -6   3   3    5.65    0.76
   5  -3  -3    5.23    0.83
  -5  -3   3    6.42    1.01
  -5  -3   3    6.30    0.83
   5   3  -3    8.22    0.80
  -5   3   3    8.14    0.84
  -4  -3   3   12.09    1.27
  -4  -3   3   12.06    0.85
   4  -3  -3   14.87    1.31
  -4  -3   3   13.26    0.74
  -4   3   3   11.97    0.85
   4   3  -3   12.82    0.73
   3  -3  -3   30.80    1.02
  -3  -3   3   29.20    1.25
  -3  -3   3   27.90    1.61
   3  -3  -3   33.27    1.70
  -3  -3   3   28.75    1.09
   3  -3  -3   27.86    1.52
   3   3  -3   31.13    1.13
  -3   3   3   27.47    1.38
   2  -3  -3    6.18    0.52
  -2  -3   3    5.62    0.76
  -2  -3   3    6.29    0.36
  -2   3   3    4.87    0.63
   2   3  -3    7.01    0.38
  -1  -3   3    0.84    0.17
  -1  -3   3    0.57    0.32
  -1  -3   3    0.85    0.18
  -1   3   3    1.10    0.37
  -1   3   3    0.42    0.33
   0  -3   3    7.89    0.47
   0  -3   3    6.40    0.44
   0  -3   3    6.44    0.45
   0  -3   3    5.73    0.62
   0   3   3    6.52    0.76
   0   3   3    5.55    0.73
   0   3  -3    5.93    0.65
   1  -3   3    5.85    0.55
   1  -3   3    5.23    0.54
   1  -3   3    4.61    0.50
   1   3   3    5.54    0.72
  -1   3  -3    4.80    0.50
   1   3   3    5.37    0.78
   2  -3   3   21.31    0.81
   2  -3   3   22.62    1.13
   2  -3   3   20.03    1.11
   2  -3   3   19.89    0.80
   2   3   3   23.77    1.40
  -2   3  -3   19.46    1.10
   2   3   3   22.60    1.31
   3  -3   3    4.72    0.66
   3  -3   3    5.38    0.73
   3  -3   3    4.45    0.54
   3   3   3    4.40    0.72
   3   3   3    4.60    0.81
  -3   3  -3    3.63    0.61
   4  -3   3   18.38    1.02
   4  -3   3   21.97    1.35
  -4   3  -3   20.37    1.35
   4   3   3   18.67    1.31
   4   3   3   16.78    1.30
   5  -3   3    1.54    0.40
  -5  -3  -3    1.31    0.62
  -5  -3  -3    1.47    0.60
   5  -3   3    2.51    0.69
   5   3   3    1.27    0.58
  -5   3  -3    0.85    0.50
  -6  -3  -3   14.39    1.68
  -6  -3  -3   20.69    1.93
   6  -3   3   20.06    1.83
  -6   3  -3   20.52    1.63
   6   3   3   19.98    1.77
   7  -3   3    1.12    0.69
  -7  -3  -3    1.07    0.70
  -7  -3  -3    0.76    0.68
   7   3   3    0.99    0.61
  -7   3  -3    1.54    0.70
  -8  -3  -3   15.42    1.84
   8  -3   3   11.56    1.62
   8   3   3   11.39    1.55
  -8  -4   3   14.57    1.76
  -8  -4   3   11.17    1.69
   8  -4  -3   14.17    1.72
  -7  -4   3    1.29    0.67
   7  -4  -3    0.42    0.57
  -7  -4   3    0.31    0.57
   7   4  -3    1.17    0.46
  -6  -4   3    9.83    1.16
   6  -4  -3    7.29    1.11
  -6  -4   3    7.13    1.18
   6   4  -3    9.72    0.99
  -6   4   3    9.73    0.95
   5  -4  -3   62.04    2.89
  -5  -4   3   62.84    3.07
  -5  -4   3   63.24    2.59
   5   4  -3   63.22    2.36
  -4  -4   3   41.46    2.29
  -4  -4   3   43.65    1.86
   4  -4  -3   39.09    2.11
  -4   4   3   44.73    1.90
   4   4  -3   43.65    1.67
  -3  -4   3  132.17    3.99
   3  -4  -3  134.10    3.95
   3  -4  -3  139.34    4.76
  -3  -4   3  134.56    4.83
  -3   4   3  139.94    4.48
   3   4  -3  128.56    4.01
  -2  -4   3    4.11    0.41
  -2  -4   3    4.08    0.73
  -2   4   3    4.99    0.71
   2   4  -3    5.03    0.46
  -1  -4   3   27.55    1.11
  -1  -4   3   26.64    1.47
  -1  -4   3   26.52    1.08
  -1   4   3   27.40    1.56
  -1   4   3   28.64    1.52
   0  -4   3   51.94    1.95
   0  -4   3   59.66    2.23
   0  -4   3   52.51    1.93
   0   4   3   56.42    2.41
   0   4   3   56.79    2.43
   1  -4   3    0.82    0.29
   1  -4   3    1.40    0.35
   1  -4   3    0.67    0.32
   1  -4   3    1.10    0.30
   1   4   3    0.92    0.43
   1   4   3    0.75    0.43
   2  -4   3    0.45    0.20
   2  -4   3    0.66    0.23
   2  -4   3    0.33    0.30
   2  -4   3    0.69    0.33
   2   4   3    0.76    0.43
   2   4   3    1.45    0.47
   3  -4   3    4.56    0.76
   3  -4   3    4.22    0.68
   3   4   3    4.80    0.81
   3   4   3    1.50    0.61
   4  -4   3    3.16    0.65
   4  -4   3    2.48    0.48
  -4  -4  -3    3.54    0.78
  -4   4  -3    2.80    0.67
   4   4   3    2.94    0.71
   4   4   3    2.66    0.63
   5  -4   3    0.97    0.36
  -5  -4  -3    0.94    0.52
   5  -4   3    1.70    0.62
   5   4   3    1.80    0.63
  -5   4  -3    2.24    0.67
  -6  -4  -3    2.96    0.91
  -6  -4  -3    2.74    0.81
   6  -4   3    2.22    0.78
   6   4   3    3.21    0.82
  -6   4  -3    3.71    0.93
  -7  -4  -3   24.25    2.39
  -7  -4  -3   21.00    2.22
   7  -4   3   24.61    2.26
   7   4   3   22.31    2.12
  -7   4  -3   30.03    2.17
  -8  -4  -3    0.45    0.73
   8  -4   3    0.44    0.76
   8   4   3    0.88    0.65
   8  -5  -3    1.61    0.74
  -8  -5   3    1.34    0.92
  -7  -5   3    1.78    0.90
   7  -5  -3    4.09    0.98
   6  -5  -3    4.97    0.98
  -6  -5   3    4.07    1.02
  -6  -5   3    5.39    0.94
   5  -5  -3    0.51    0.59
  -5  -5   3    1.15    0.72
  -5  -5   3   -0.16    0.38
   5   5  -3    0.72    0.33
  -5   5   3    0.53    0.34
  -4  -5   3    5.79    1.08
   4  -5  -3    9.46    1.22
  -4  -5   3    6.89    0.84
  -4   5   3    8.62    0.96
  -3  -5   3   27.89    1.84
   3  -5  -3   26.03    1.73
  -3   5   3   28.05    1.54
   3   5  -3   27.21    1.23
  -2  -5   3    0.92    0.52
  -2   5   3    0.97    0.42
  -1  -5   3    1.36    0.50
  -1  -5   3    0.71    0.30
  -1   5   3    1.73    0.51
  -1   5   3    1.52    0.51
   0  -5   3    6.52    0.70
   0  -5   3    6.36    0.82
   0  -5   3    6.57    0.69
   0   5   3    7.82    1.01
   0   5   3    8.84    1.10
   1  -5   3    6.33    0.75
   1  -5   3    6.15    0.74
   1  -5   3    6.80    0.77
   1   5   3    5.37    0.92
   1   5   3    6.00    0.95
   2  -5   3    1.25    0.38
   2  -5   3    0.85    0.43
   2  -5   3    0.70    0.30
   2  -5   3    0.96    0.45
   2   5   3    0.84    0.58
   2   5   3    0.47    0.43
   3  -5   3    0.28    0.40
   3   5   3    0.12    0.33
   3   5   3    0.06    0.46
   4  -5   3    1.00    0.54
  -4  -5  -3   -0.08    0.39
   4  -5   3    0.91    0.37
   4   5   3    0.59    0.62
   4   5   3    0.56    0.47
   5  -5   3    0.43    0.50
  -5  -5  -3    0.24    0.51
   5   5   3    0.46    0.46
  -6  -5  -3    1.60    0.73
   6  -5   3    0.31    0.62
  -6  -5  -3    0.32    0.48
   6   5   3    1.15    0.57
  -7  -5  -3    2.40    1.09
   7  -5   3    3.44    0.92
   7   5   3    3.34    0.92
  -7  -6   3   -0.32    0.73
   7  -6  -3   -0.41    0.65
   6  -6  -3   19.89    2.12
  -6  -6   3   17.20    2.08
   5  -6  -3    8.95    1.39
  -5  -6   3    6.65    1.30
  -4  -6   3    1.91    0.79
   4  -6  -3    2.15    0.81
  -4   6   3    1.35    0.53
   3  -6  -3   53.29    2.78
  -3  -6   3   60.16    2.99
  -3   6   3   55.86    2.55
  -2  -6   3    4.67    0.94
  -2   6   3    4.95    0.86
  -1  -6   3   25.23    1.64
  -1  -6   3   22.90    1.22
  -1   6   3   24.50    1.65
  -1   6   3   20.49    1.83
   0  -6   3    0.09    0.37
   0  -6   3    0.16    0.34
   0  -6   3   -0.27    0.23
   0   6   3    0.48    0.50
   0   6   3    0.11    0.44
   1  -6   3    0.26    0.38
   1  -6   3    0.71    0.38
   1  -6   3    1.17    0.50
   1   6   3    0.05    0.37
   1   6   3    1.16    0.58
   2  -6   3    9.05    1.06
   2  -6   3    9.81    0.93
   2   6   3   10.64    1.35
   2   6   3   12.07    1.54
  -3  -6  -3    0.36    0.48
   3  -6   3   -0.20    0.37
   3   6   3   -0.14    0.40
   3   6   3   -0.18    0.42
  -4  -6  -3    2.19    0.90
   4  -6   3    1.94    0.67
   4   6   3    1.95    0.72
   5  -6   3    3.09    0.90
  -5  -6  -3    5.17    1.24
   5   6   3    3.10    0.89
  -6  -6  -3    1.54    0.81
   6  -6   3    3.34    0.96
   6   6   3    1.37    0.74
  -5  -7   3    7.55    1.42
   5  -7  -3   10.99    1.52
  -4  -7   3   10.68    1.63
   4  -7  -3   10.29    1.46
   3  -7  -3    0.79    0.55
  -3  -7   3    0.62    0.68
  -3   7   3    1.20    0.62
  -2  -7   3   11.15    1.49
  -2   7   3   11.19    1.38
  -1  -7   3   -0.78    0.39
  -1   7   3    0.11    0.37
   0  -7   3    4.74    0.75
   0  -7   3    6.89    1.08
   0   7   3    7.03    1.23
   0   7   3    4.62    0.98
   1  -7   3   10.80    1.21
   1  -7   3   12.08    1.20
   1   7   3    9.25    1.35
   1   7   3    9.77    1.47
  -2  -7  -3    1.78    0.82
   2  -7   3    2.95    0.74
   2   7   3    4.67    1.10
   2   7   3    3.88    0.97
  -3  -7  -3   29.87    2.32
   3  -7   3   30.32    1.85
   3   7   3   27.52    2.01
  -4  -7  -3    4.58    1.25
   4  -7   3    5.72    1.00
   4   7   3    5.00    1.10
   5  -7   3   -0.70    0.55
  -5  -7  -3    0.09    0.62
   5   7   3    0.02    0.60
  -3  -8   3    2.90    1.02
   3  -8  -3    1.92    0.89
  -2  -8   3    0.23    0.63
   2  -8  -3    1.03    0.75
  -2   8   3    1.12    0.71
   1  -8  -3    8.53    1.40
  -1  -8   3    8.49    1.33
  -1   8   3    6.26    1.24
   0  -8  -3   -0.01    0.64
   0  -8   3    0.91    0.73
   0   8   3    0.64    0.74
  -1  -8  -3    0.18    0.65
   1   8   3    1.20    0.70
   1   8   3    0.04    0.65
  -2  -8  -3    3.02    1.04
   2   8   3    4.05    1.02
   9   0  -4    9.65    1.35
  -9   0   4    8.80    1.45
  -9   0   4    8.20    1.31
  -8   0   4   61.61    2.88
  -8   0   4   55.75    3.00
   8   0  -4   61.44    2.81
  -7   0   4   53.48    2.71
   7   0  -4   52.64    2.44
  -7   0   4   56.47    2.60
   6   0  -4   18.71    1.20
  -6   0   4   18.66    1.33
  -6   0   4   16.12    1.24
  -5   0   4   10.21    1.06
   5   0  -4   10.15    0.95
   5   0  -4    9.84    1.05
  -5   0   4    9.33    1.01
  -4   0   4   10.43    0.99
  -4   0   4    9.61    0.77
   4   0  -4    9.65    0.71
   4   0  -4    9.51    0.90
   3   0  -4   47.06    1.71
  -3   0   4   44.12    1.91
   3   0  -4   47.30    1.70
   3   0  -4   46.01    1.80
   2   0  -4   41.31    1.47
   2   0  -4   40.79    1.53
  -2   0   4   38.89    1.69
   1   0  -4    4.88    0.45
  -1   0   4    4.34    0.44
   1   0  -4    5.35    0.62
  -1   0   4    3.66    0.51
   0   0  -4   95.43    3.08
   0   0   4   93.81    3.07
   0   0   4   93.39    3.05
   0   0  -4   95.18    2.93
   0   0   4   95.05    2.95
   1   0   4    4.06    0.50
   1   0   4    6.05    0.59
  -1   0  -4    5.74    0.58
  -1   0  -4    4.09    0.53
  -1   0  -4    4.72    0.54
   1   0   4    4.00    0.53
   2   0   4    6.59    0.68
   2   0   4    6.95    0.73
   2   0   4    7.03    0.66
  -2   0  -4    7.08    0.55
  -3   0  -4  155.28    5.19
   3   0   4  162.12    4.90
   3   0   4  163.16    5.11
  -3   0  -4  158.52    4.84
   4   0   4    3.64    0.66
   4   0   4    5.40    0.65
  -4   0  -4    5.30    0.82
   5   0   4  167.04    5.73
  -5   0  -4  172.56    5.95
   6   0   4    9.62    1.27
  -6   0  -4    6.87    1.12
   7   0   4   15.18    1.64
  -7   0  -4   17.39    1.95
  -8   0  -4   59.91    3.76
   8   0   4   61.17    3.20
   9   0   4   -0.35    0.54
  -9  -1   4    2.21    0.79
   9  -1  -4    2.04    0.81
  -9  -1   4    2.05    0.86
  -9   1   4    2.55    0.75
  -9   1   4    1.64    0.80
   9   1  -4    1.10    0.60
  -8  -1   4   14.39    1.63
   8  -1  -4   18.05    1.69
  -8  -1   4   17.36    1.74
  -8   1   4   18.47    1.41
   8   1  -4   17.16    1.58
  -8   1   4   13.05    1.64
  -7  -1   4   11.62    1.33
   7  -1  -4   13.83    1.38
  -7  -1   4   12.65    1.40
  -7   1   4   13.11    1.36
   7   1  -4   11.65    1.17
  -7   1   4   15.12    1.62
  -6  -1   4    0.76    0.43
  -6  -1   4    0.89    0.49
   6  -1  -4    0.71    0.45
   6   1  -4    0.65    0.38
  -6   1   4    0.52    0.39
  -6   1   4    1.01    0.52
   5  -1  -4    2.98    0.68
  -5  -1   4    3.29    0.61
  -5  -1   4    3.12    0.63
   5  -1  -4    2.66    0.55
  -5   1   4    1.91    0.57
  -5   1   4    2.66    0.58
   5   1  -4    3.08    0.57
   5   1  -4    4.10    0.59
  -4  -1   4   29.56    1.57
   4  -1  -4   28.66    1.48
  -4  -1   4   25.96    1.17
  -4  -1   4   29.15    1.35
   4  -1  -4   28.11    1.39
   4   1  -4   26.28    1.29
  -4   1   4   27.40    1.44
   4   1  -4   28.62    1.19
  -3  -1   4    0.22    0.20
  -3  -1   4    1.25    0.41
   3  -1  -4    0.68    0.29
   3  -1  -4    0.70    0.28
   3   1  -4    1.04    0.22
  -3   1   4    0.47    0.17
  -3   1   4    0.77    0.34
   3   1  -4    0.76    0.25
  -2  -1   4   66.85    2.48
  -2   1   4   69.95    2.22
   2   1  -4   67.14    2.01
  -2   1   4   63.71    2.45
   2   1  -4   67.60    2.09
  -2   1   4   66.66    2.35
   2   1  -4   67.81    1.99
  -1  -1   4   76.25    2.63
  -1  -1   4   77.08    2.23
   1  -1  -4   77.56    2.58
   1  -1  -4   81.25    2.70
   1  -1  -4   74.50    2.48
  -1   1   4   74.11    2.58
  -1   1   4   76.30    2.69
  -1   1   4   71.76    2.48
   1   1  -4   79.11    2.22
   1   1  -4   74.61    2.61
   0  -1  -4    6.35    0.68
   0  -1   4    5.98    0.60
   0  -1   4    6.28    0.41
   0  -1  -4    6.81    0.63
   0   1   4    6.44    0.65
   0   1   4    5.89    0.59
   0   1  -4    7.28    0.64
   0   1   4    6.37    0.67
   1  -1   4    0.04    0.18
   1  -1   4    0.02    0.18
   1  -1   4    0.30    0.25
  -1  -1  -4    0.39    0.23
  -1   1  -4    0.01    0.17
   1   1   4    0.12    0.20
  -1   1  -4    0.29    0.21
  -1   1  -4   -0.17    0.16
   1   1   4    0.14    0.20
   2  -1   4    8.90    0.82
   2  -1   4   12.02    0.77
   2  -1   4   10.68    0.60
   2   1   4    9.81    0.74
  -2   1  -4   10.98    0.62
   2   1   4    9.04    0.86
  -2   1  -4   10.23    0.74
   3  -1   4   11.91    0.86
   3  -1   4   12.74    0.85
   3  -1   4   13.20    0.69
  -3   1  -4   13.52    0.68
  -3   1  -4   11.46    0.91
   3   1   4   12.98    0.92
   3   1   4   11.60    0.87
   4  -1   4   30.30    1.27
  -4  -1  -4   28.90    1.76
   4  -1   4   33.64    1.70
  -4   1  -4   34.98    1.82
  -4   1  -4   34.07    1.28
   4   1   4   35.58    1.67
   4   1   4   29.02    1.64
  -5  -1  -4   17.46    1.21
  -5  -1  -4   18.31    1.40
   5  -1   4   15.59    1.44
  -5   1  -4   16.77    0.87
   5   1   4   16.98    1.19
   5   1   4   19.46    1.32
  -5   1  -4   17.06    0.91
  -5   1  -4   15.29    1.51
  -6  -1  -4    6.39    0.93
  -6  -1  -4    7.75    1.22
   6  -1   4   11.49    1.36
  -6   1  -4   10.63    1.37
  -6   1  -4    8.46    0.76
   6   1   4    7.54    1.14
  -7  -1  -4    1.85    0.80
   7  -1   4    1.24    0.70
  -7  -1  -4    2.13    0.68
   7   1   4    1.59    0.69
  -7   1  -4    1.53    0.76
   8  -1   4    1.16    0.64
  -8  -1  -4    0.74    0.57
   8   1   4    1.78    0.66
  -8   1  -4    1.18    0.83
   9  -1   4    3.22    1.05
   9   1   4    3.80    1.07
  -9  -2   4    5.26    1.15
  -9  -2   4    3.45    0.89
   9  -2  -4    3.93    0.97
   9   2  -4    3.77    0.89
  -8  -2   4    7.10    1.23
   8  -2  -4    8.07    1.22
  -8  -2   4    8.76    1.26
  -8   2   4    4.74    0.89
  -8   2   4    8.09    1.31
   8   2  -4    6.97    0.98
  -7  -2   4    7.05    1.14
  -7  -2   4    8.63    1.14
   7  -2  -4    7.50    1.08
   7   2  -4    9.08    1.01
  -7   2   4    7.88    1.20
  -7   2   4    7.29    0.99
   6  -2  -4    7.33    1.00
  -6  -2   4    6.73    0.91
  -6  -2   4    5.99    1.02
  -6   2   4    7.35    0.91
   6   2  -4    7.81    0.84
  -5  -2   4   51.58    2.12
   5  -2  -4   43.76    2.14
  -5  -2   4   48.12    2.36
   5   2  -4   48.57    1.85
  -5   2   4   49.11    2.14
  -4  -2   4    4.22    0.44
  -4  -2   4    4.65    0.78
   4  -2  -4    4.58    0.73
   4  -2  -4    2.23    0.53
  -4  -2   4    3.45    0.51
  -4   2   4    4.47    0.66
   4   2  -4    3.82    0.44
  -3  -2   4    3.55    0.30
  -3  -2   4    5.03    0.47
  -3  -2   4    3.35    0.61
   3  -2  -4    4.17    0.66
  -3   2   4    4.30    0.63
   3   2  -4    3.99    0.32
   2  -2  -4    2.71    0.37
  -2  -2   4    2.15    0.48
  -2  -2   4    2.48    0.20
  -2   2   4    2.55    0.52
  -2   2   4    1.80    0.41
   1  -2  -4    0.24    0.22
  -1  -2   4    0.09    0.18
  -1   2   4    0.07    0.19
  -1   2   4    0.07    0.27
   0  -2   4    1.35    0.32
   0  -2   4    2.62    0.29
   0   2   4    2.79    0.52
   0   2   4    2.06    0.43
   0   2  -4    2.32    0.23
   0   2  -4    2.42    0.40
   0   2  -4    2.71    0.29
   1  -2   4    0.70    0.24
   1  -2   4    1.12    0.27
   1  -2   4    0.75    0.24
  -1   2  -4    0.94    0.24
   1   2   4    1.08    0.39
   1   2   4    0.59    0.33
  -1   2  -4    0.84    0.24
  -1   2  -4    0.62    0.21
   2  -2   4  223.27    6.60
   2  -2   4  222.81    6.57
   2  -2   4  221.14    6.56
   2  -2   4  219.96    6.22
  -2   2  -4  225.29    6.59
   2   2   4  222.96    6.87
  -2   2  -4  219.55    6.23
   2   2   4  212.63    6.78
   3  -2   4   25.96    1.38
   3  -2   4   27.43    1.43
   3  -2   4   26.08    1.30
   3  -2   4   28.36    0.94
  -3   2  -4   26.69    0.93
   3   2   4   26.77    1.51
  -3   2  -4   25.78    1.41
   3   2   4   27.16    1.50
   4  -2   4    0.41    0.38
   4  -2   4    1.05    0.52
   4  -2   4    0.24    0.26
  -4   2  -4    0.45    0.09
  -4   2  -4    0.21    0.34
   4   2   4    0.00    0.35
   4   2   4    0.36    0.30
  -4   2  -4    0.43    0.09
   5  -2   4   12.79    1.31
  -5  -2  -4   10.29    1.18
  -5  -2  -4   12.47    1.42
  -5   2  -4   13.67    1.41
   5   2   4   10.79    1.22
   5   2   4   11.70    1.27
  -6  -2  -4   41.12    2.26
  -6  -2  -4   41.04    2.41
   6  -2   4   43.77    2.32
   6   2   4   40.82    2.23
  -6   2  -4   38.68    2.30
  -7  -2  -4    6.81    1.29
  -7  -2  -4    6.22    1.07
   7  -2   4    7.94    1.23
  -7   2  -4    7.67    1.33
   7   2   4    5.80    1.08
  -8  -2  -4   11.45    1.51
   8  -2   4    9.93    1.48
   8   2   4    8.52    1.38
  -9  -3   4    4.16    1.07
  -9  -3   4    5.20    1.26
   9  -3  -4    3.43    0.90
   8  -3  -4   -0.07    0.50
  -8  -3   4    0.06    0.67
  -8  -3   4    0.02    0.59
   8   3  -4   -0.26    0.35
  -7  -3   4   16.91    1.61
  -7  -3   4   14.76    1.74
   7  -3  -4   14.04    1.55
  -7   3   4   15.49    1.17
   7   3  -4   15.11    1.09
  -6  -3   4   60.30    2.98
  -6  -3   4   60.24    2.58
   6  -3  -4   60.16    2.78
  -6   3   4   60.14    2.49
   6   3  -4   52.99    2.21
   5  -3  -4   14.16    1.40
  -5  -3   4   18.27    1.13
  -5  -3   4   14.39    1.52
   5   3  -4   16.00    0.88
  -5   3   4   14.56    1.06
  -4  -3   4  135.05    3.91
  -4  -3   4  134.96    4.19
   4  -3  -4  130.49    4.64
  -4  -3   4  132.39    4.80
   4   3  -4  129.87    3.92
  -4   3   4  132.01    4.44
   3  -3  -4   47.62    1.57
  -3  -3   4   44.82    1.62
  -3  -3   4   44.29    2.15
  -3  -3   4   45.08    1.39
   3   3  -4   46.65    1.40
  -3   3   4   45.86    2.00
   2  -3  -4   50.88    1.80
  -2  -3   4   50.52    2.21
  -2  -3   4   49.61    1.54
  -2   3   4   51.24    2.23
  -2   3   4   50.95    2.15
  -1  -3   4  128.42    4.28
  -1  -3   4  130.23    3.55
  -1  -3   4  130.16    3.62
  -1  -3   4  131.93    3.61
  -1   3   4  125.81    4.35
  -1   3   4  132.75    4.45
   0  -3   4    0.18    0.23
   0  -3   4    0.03    0.13
   0  -3   4    0.07    0.15
   0   3  -4   -0.21    0.15
   0   3   4    0.21    0.25
   0   3   4    0.52    0.30
   1  -3   4  116.85    3.64
   1  -3   4  118.31    3.64
   1  -3   4  119.83    3.63
   1   3   4  113.94    4.11
  -1   3  -4  116.91    3.66
   1   3   4  114.12    4.07
   2  -3   4   38.61    1.62
   2  -3   4   34.02    1.57
   2  -3   4   36.94    1.31
  -2   3  -4   35.48    1.31
   2   3   4   38.41    1.87
  -2   3  -4   36.18    1.61
   2   3   4   38.06    1.91
   3  -3   4   48.89    2.17
   3  -3   4   50.68    2.06
   3  -3   4   53.43    2.23
   3   3   4   51.28    2.42
   3   3   4   52.05    2.37
  -3   3  -4   54.66    2.25
   4  -3   4    9.02    0.91
   4  -3   4    9.12    1.06
   4   3   4    6.67    0.99
  -4   3  -4   10.36    1.14
   4   3   4    9.26    1.17
  -5  -3  -4    1.75    0.62
   5  -3   4    1.58    0.45
   5  -3   4    0.68    0.51
  -5  -3  -4    0.81    0.57
  -5   3  -4    0.56    0.35
   5   3   4    0.85    0.60
   5   3   4    1.47    0.53
  -6  -3  -4   10.52    1.47
   6  -3   4   12.76    1.49
  -6  -3  -4   14.81    1.65
  -6   3  -4   15.55    1.67
   6   3   4   12.32    1.48
   7  -3   4    1.00    0.59
  -7  -3  -4    2.34    0.92
  -7  -3  -4    2.73    0.80
   7   3   4    3.24    0.89
  -7   3  -4    2.00    0.80
   8  -3   4    8.75    1.42
  -8  -3  -4    7.58    1.35
   8   3   4    8.63    1.41
  -8  -4   4   -0.92    0.57
   8  -4  -4   -0.07    0.61
  -7  -4   4    0.37    0.63
   7  -4  -4   -0.12    0.49
  -7  -4   4    0.33    0.53
   6  -4  -4    0.86    0.50
  -6  -4   4   -0.24    0.38
  -6  -4   4    0.50    0.61
   6   4  -4    0.46    0.29
  -6   4   4    0.09    0.30
   5  -4  -4    1.06    0.48
  -5  -4   4    1.63    0.49
  -5  -4   4    2.45    0.76
  -5   4   4    1.78    0.50
   5   4  -4    1.59    0.35
  -4  -4   4    2.13    0.70
  -4  -4   4    3.12    0.51
   4  -4  -4    3.53    0.78
  -4   4   4    2.77    0.57
   4   4  -4    3.31    0.38
   3  -4  -4    1.00    0.30
  -3  -4   4    1.16    0.21
  -3  -4   4    1.06    0.52
  -3  -4   4    1.26    0.29
  -3   4   4    1.54    0.46
   3   4  -4    0.69    0.17
  -2  -4   4   10.04    0.45
  -2  -4   4    9.78    0.46
  -2  -4   4   11.30    1.17
  -2   4   4    9.89    1.06
  -2   4   4   10.81    1.16
  -1  -4   4   14.25    0.65
  -1  -4   4   14.27    1.05
  -1  -4   4   13.68    0.64
  -1  -4   4   13.50    0.64
  -1   4   4   13.28    1.29
  -1   4   4   14.62    1.33
   0  -4   4    0.57    0.25
   0  -4   4    0.66    0.22
   0  -4   4    0.58    0.22
   0  -4   4    0.44    0.29
   0   4   4    0.80    0.44
   0   4   4    0.34    0.39
   1  -4   4    3.93    0.57
   1  -4   4    4.29    0.54
   1  -4   4    3.58    0.51
   1  -4   4    3.96    0.54
   1   4   4    3.48    0.71
   1   4   4    3.68    0.74
   2  -4   4    2.69    0.53
   2  -4   4    2.15    0.36
   2  -4   4    2.03    0.34
   2  -4   4    2.40    0.49
   2   4   4    2.14    0.56
   2   4   4    1.62    0.58
   3  -4   4    2.09    0.57
   3  -4   4    2.04    0.53
   3   4   4    1.68    0.64
   3   4   4    0.70    0.46
  -3   4  -4    1.63    0.46
   4  -4   4    0.15    0.34
   4  -4   4    0.12    0.37
   4   4   4   -0.37    0.42
   4   4   4    0.23    0.42
  -4   4  -4    0.23    0.38
  -5  -4  -4    0.38    0.57
   5  -4   4    1.02    0.59
   5  -4   4    0.54    0.37
  -5   4  -4    0.94    0.49
   5   4   4    0.91    0.47
   5   4   4    0.72    0.63
  -6  -4  -4    1.44    0.64
  -6  -4  -4    1.71    0.68
   6  -4   4    0.92    0.68
  -6   4  -4    2.04    0.77
   6   4   4    1.61    0.60
   7  -4   4   -0.64    0.57
  -7  -4  -4    0.79    0.72
   7   4   4    0.19    0.55
  -7   4  -4    0.93    0.61
   8  -5  -4    0.85    0.57
  -8  -5   4    1.57    0.83
   7  -5  -4    3.85    1.03
  -7  -5   4    4.57    1.17
   6  -5  -4   22.87    2.11
  -6  -5   4   23.60    2.32
  -5  -5   4    2.38    0.75
   5  -5  -4    1.55    0.72
  -5  -5   4    1.13    0.50
  -5   5   4    1.39    0.49
  -4  -5   4   90.57    3.11
  -4  -5   4   86.97    3.86
   4  -5  -4   84.24    3.72
  -4   5   4   88.99    3.41
  -3  -5   4    9.09    0.69
  -3  -5   4    7.72    1.10
  -3   5   4    8.43    1.05
  -2  -5   4   35.66    1.93
  -2  -5   4   31.88    1.22
  -2   5   4   31.56    1.81
  -1  -5   4  124.93    4.44
  -1  -5   4  126.69    3.85
  -1  -5   4  120.57    3.78
  -1   5   4  120.79    4.57
  -1   5   4  133.15    4.72
   0  -5   4   10.62    0.73
   0  -5   4   10.36    0.75
   0  -5   4   12.98    1.17
   0   5   4   13.25    1.40
   0   5   4   14.29    1.47
   1  -5   4  114.16    3.73
   1  -5   4  106.41    3.70
   1  -5   4  111.87    3.78
   1   5   4  115.82    4.43
   1   5   4  115.25    4.33
   2  -5   4    6.99    0.86
   2  -5   4    6.95    0.68
   2  -5   4    7.53    0.88
   2   5   4    6.48    1.00
   2   5   4    4.82    0.95
   3  -5   4   26.55    1.54
   3   5   4   23.64    1.72
   3   5   4   25.68    1.86
   4  -5   4    0.96    0.44
   4  -5   4    1.36    0.56
   4   5   4    0.51    0.62
   4   5   4    2.79    0.78
  -5  -5  -4    3.94    1.03
   5  -5   4    1.79    0.70
   5   5   4    3.54    0.92
   5   5   4    2.43    0.90
  -6  -5  -4    6.06    1.24
   6  -5   4    7.83    1.29
  -6  -5  -4    6.04    1.26
  -6   5  -4    6.47    1.18
   6   5   4    9.87    1.49
   7  -5   4   12.12    1.59
  -7  -5  -4    7.93    1.52
   7   5   4    8.91    1.40
  -7  -6   4    2.76    0.98
   7  -6  -4    1.53    0.92
   6  -6  -4    0.18    0.70
  -6  -6   4    0.97    0.83
  -5  -6   4   15.00    1.89
   5  -6  -4   14.66    1.76
   4  -6  -4    2.61    0.78
  -4  -6   4    2.85    0.85
  -4   6   4    2.74    0.67
  -3  -6   4   18.17    1.89
  -3   6   4   17.26    1.63
  -2  -6   4    8.72    1.24
  -2   6   4    7.18    1.05
  -1  -6   4    4.11    0.55
  -1  -6   4    4.49    0.83
  -1   6   4    3.36    0.81
  -1   6   4    5.91    1.02
   0  -6   4   54.17    2.46
   0  -6   4   53.12    2.12
   0   6   4   52.90    2.76
   0   6   4   57.38    2.85
   1  -6   4    0.27    0.35
   1  -6   4    0.30    0.39
   1   6   4    0.62    0.58
   1   6   4    0.03    0.34
   2  -6   4   45.19    2.09
   2   6   4   46.63    2.67
   2   6   4   44.80    2.52
   3  -6   4    2.68    0.71
   3   6   4    2.17    0.87
   3   6   4    2.29    0.76
   4  -6   4    6.19    1.02
  -4  -6  -4    6.27    1.30
   4   6   4    5.70    1.25
   4   6   4    8.49    1.36
  -5  -6  -4   10.25    1.72
   5  -6   4   10.17    1.38
   5   6   4    6.03    1.22
   6  -6   4    4.30    1.08
  -6  -6  -4    3.32    1.19
   6   6   4    3.24    0.98
   5  -7  -4    0.35    0.78
  -5  -7   4    2.16    1.01
  -4  -7   4    9.33    1.49
   4  -7  -4    7.52    1.38
  -3  -7   4    1.77    0.86
   3  -7  -4    2.62    0.81
  -3   7   4    2.61    0.75
  -2  -7   4    3.19    0.90
  -2   7   4    4.18    0.91
  -1  -7   4    8.07    1.20
  -1   7   4    9.94    1.42
   0  -7   4   -0.10    0.44
   0   7   4    0.17    0.43
   0   7   4   -0.03    0.54
   1  -7   4    4.82    0.90
   1   7   4    6.04    1.16
   1   7   4    6.49    1.17
   2  -7   4    1.77    0.66
   2   7   4    2.81    0.89
   2   7   4    2.58    0.89
   3  -7   4    3.06    0.79
  -3  -7  -4    2.49    0.98
   3   7   4    2.15    0.85
   3   7   4    2.55    1.01
   4  -7   4    5.53    1.11
  -4  -7  -4    5.31    1.29
   4   7   4    5.03    1.13
  -2  -8   4    6.29    1.28
  -2   8   4    5.04    1.14
  -1  -8   4    7.87    1.29
  -1   8   4    7.86    1.41
   0   8   4   23.62    2.36
   0   8   4   15.94    1.90
  -1  -8  -4    0.29    0.68
   1   8   4   -0.58    0.64
   1   8   4    0.25    0.66
  -2  -8  -4   23.40    2.48
   2   8   4   15.96    2.11
   9   0  -5   -0.65    0.38
  -9   0   5   -0.15    0.58
  -9   0   5   -0.28    0.48
  -8   0   5   -0.46    0.41
  -8   0   5   -0.59    0.44
   8   0  -5   -0.43    0.36
   7   0  -5    0.15    0.36
  -7   0   5    0.01    0.42
  -7   0   5    0.07    0.43
  -6   0   5    0.28    0.40
   6   0  -5    0.13    0.31
  -6   0   5   -0.03    0.37
   5   0  -5    0.17    0.31
  -5   0   5    0.13    0.26
   5   0  -5   -0.05    0.22
  -5   0   5    0.04    0.29
  -4   0   5   -0.12    0.30
   4   0  -5   -0.18    0.18
   4   0  -5    0.03    0.25
   3   0  -5   -0.09    0.18
   3   0  -5    0.01    0.20
  -3   0   5    0.11    0.23
   3   0  -5   -0.07    0.15
   2   0  -5   -0.33    0.15
  -2   0   5   -0.30    0.18
  -2   0   5   -0.13    0.27
   1   0  -5    0.03    0.15
  -1   0   5   -0.21    0.15
  -1   0   5   -0.22    0.18
  -1   0   5   -0.12    0.15
   0   0   5    0.23    0.22
   0   0   5    0.21    0.21
   0   0   5   -0.18    0.16
   0   0  -5   -0.08    0.14
   1   0   5    0.28    0.21
   1   0   5    0.13    0.18
   1   0   5    0.20    0.23
  -1   0  -5    0.03    0.22
  -2   0  -5    0.14    0.27
   2   0   5    0.04    0.24
   2   0   5   -0.26    0.17
   2   0   5   -0.17    0.15
   3   0   5    0.00    0.26
  -3   0  -5   -0.20    0.19
   3   0   5    0.10    0.22
   4   0   5   -0.05    0.23
  -4   0  -5   -0.08    0.31
   4   0   5    0.35    0.32
   5   0   5   -0.04    0.40
  -5   0  -5    0.62    0.49
   5   0   5   -0.39    0.24
  -6   0  -5    0.03    0.28
   6   0   5    0.20    0.37
  -6   0  -5   -0.06    0.47
   7   0   5   -0.21    0.53
  -7   0  -5   -0.80    0.46
   8   0   5    0.25    0.50
  -9  -1   5   11.89    1.61
  -9  -1   5   11.41    1.60
   9  -1  -5   14.19    1.65
   9   1  -5   14.27    1.50
  -9   1   5   12.11    1.52
  -9   1   5   12.30    1.72
  -8  -1   5   33.63    2.15
   8  -1  -5   36.83    2.10
  -8  -1   5   32.01    2.10
   8   1  -5   32.32    1.85
  -8   1   5   36.16    2.11
  -8   1   5   34.26    2.32
  -7  -1   5   -0.18    0.29
   7  -1  -5    0.78    0.50
  -7  -1   5    0.28    0.42
  -7   1   5    0.87    0.57
  -7   1   5    0.52    0.46
   7   1  -5    0.76    0.40
  -6  -1   5   20.13    1.49
   6  -1  -5   19.89    1.32
  -6  -1   5   20.39    1.37
   6   1  -5   20.33    1.19
  -6   1   5   18.43    1.36
  -5  -1   5   17.92    1.15
  -5  -1   5   18.79    1.36
   5  -1  -5   18.01    1.17
   5   1  -5   17.66    1.15
  -5   1   5   19.21    1.26
   5   1  -5   17.13    0.98
   4  -1  -5   14.12    1.00
  -4  -1   5   11.65    1.19
   4  -1  -5   13.36    0.93
  -4  -1   5   14.47    0.91
  -4   1   5   11.78    1.14
   4   1  -5   13.81    0.88
   4   1  -5   13.27    0.75
  -3  -1   5   40.82    1.91
   3  -1  -5   41.73    1.82
   3   1  -5   40.48    1.43
  -3   1   5   39.58    1.86
   3   1  -5   43.17    1.43
   3   1  -5   40.38    1.54
  -3   1   5   38.37    1.54
  -2  -1   5    3.43    0.60
  -2   1   5    3.96    0.55
  -2   1   5    3.21    0.54
   2   1  -5    2.96    0.33
  -2   1   5    3.11    0.46
   2   1  -5    3.07    0.30
  -1  -1   5   21.46    0.85
  -1  -1   5   18.50    1.12
  -1   1   5   21.15    1.19
   1   1  -5   23.10    0.85
  -1   1   5   24.36    1.13
  -1   1   5   23.09    1.14
   0  -1   5   51.50    1.99
   0  -1   5   52.57    1.76
   0   1   5   51.10    2.00
   0   1   5   51.99    1.98
   0   1   5   51.55    2.08
   0   1  -5   49.50    1.94
   1  -1   5    0.15    0.23
   1  -1   5   -0.31    0.13
   1  -1   5    0.25    0.22
  -1   1  -5    0.00    0.19
   1   1   5    0.13    0.23
   1   1   5    0.23    0.27
  -1   1  -5    0.13    0.19
   1   1   5    0.11    0.27
   2  -1   5    1.08    0.30
   2  -1   5    0.58    0.26
   2  -1   5    0.38    0.29
   2   1   5    0.72    0.30
   2   1   5    0.17    0.21
  -2   1  -5    0.61    0.29
  -2   1  -5    0.29    0.24
   3  -1   5   13.23    1.15
   3  -1   5   15.36    0.82
   3  -1   5   14.75    1.00
  -3   1  -5   13.84    0.79
  -3   1  -5   14.01    1.04
   3   1   5   13.87    1.00
   3   1   5   12.49    1.19
   4  -1   5   12.90    1.26
   4  -1   5   15.83    1.09
  -4  -1  -5   15.74    1.52
   4  -1   5   16.16    0.88
   4   1   5   15.36    1.38
  -4   1  -5   14.93    0.84
  -4   1  -5   16.55    1.25
   4   1   5   14.13    1.07
   5  -1   5   38.06    2.08
  -5  -1  -5   38.02    2.19
  -5   1  -5   37.32    2.17
   5   1   5   40.90    2.14
  -5   1  -5   39.51    1.61
   5   1   5   36.05    1.92
  -6  -1  -5    0.35    0.43
  -6  -1  -5   -0.34    0.33
   6  -1   5    0.09    0.54
  -6   1  -5   -0.10    0.34
   6   1   5    0.11    0.41
   7  -1   5   11.15    1.50
  -7  -1  -5   14.25    1.49
  -7  -1  -5   13.87    1.81
  -7   1  -5   14.67    1.81
   7   1   5   13.93    1.65
   8  -1   5    5.68    1.22
   8   1   5    4.54    1.01
   9  -2  -5    2.77    0.85
  -9  -2   5    3.26    0.96
  -9  -2   5    2.75    1.03
  -8  -2   5    0.57    0.51
  -8  -2   5    1.07    0.59
   8  -2  -5   -0.17    0.45
   8   2  -5    0.66    0.43
  -8   2   5    0.80    0.58
  -7  -2   5    3.75    0.86
  -7  -2   5    3.10    0.77
   7  -2  -5    2.87    0.68
   7   2  -5    3.62    0.66
  -7   2   5    1.93    0.59
  -6  -2   5    0.59    0.41
  -6  -2   5    0.68    0.44
   6  -2  -5    0.57    0.36
   6   2  -5    0.88    0.34
  -6   2   5    0.67    0.43
   5  -2  -5    0.71    0.43
  -5  -2   5    1.32    0.48
  -5  -2   5    1.23    0.39
  -5   2   5    0.92    0.21
   5   2  -5    1.30    0.38
   5   2  -5    1.08    0.30
  -5   2   5    1.58    0.52
  -4  -2   5   38.06    2.00
   4  -2  -5   34.97    1.82
  -4  -2   5   39.50    1.58
   4   2  -5   40.61    1.38
   4   2  -5   40.17    1.58
  -4   2   5   37.65    1.39
  -4   2   5   40.23    1.91
  -3  -2   5   17.13    1.16
   3  -2  -5   16.64    1.16
   3   2  -5   15.49    0.55
  -3   2   5   15.99    0.80
  -3   2   5   15.84    1.07
   3   2  -5   15.39    0.55
  -2  -2   5  230.65    7.20
   2  -2  -5  239.65    6.82
  -2   2   5  229.39    7.20
  -2   2   5  237.07    7.17
  -2   2   5  235.61    6.81
  -1  -2   5    1.27    0.35
  -1  -2   5    2.00    0.16
   1   2  -5    2.18    0.15
  -1   2   5    1.25    0.39
  -1   2   5    1.47    0.38
   0  -2   5   34.24    1.22
   0  -2   5   33.74    1.48
   0   2   5   31.78    1.62
   0   2  -5   33.48    1.19
   0   2  -5   35.09    1.64
   0   2   5   32.82    1.62
   0   2  -5   33.65    1.13
   1  -2   5   15.59    0.88
   1  -2   5   16.04    0.85
  -1   2  -5   16.01    0.88
  -1   2  -5   15.45    0.81
  -1   2  -5   19.30    0.97
   1   2   5   14.46    1.08
   1   2   5   17.16    1.10
   2  -2   5   10.08    0.87
   2  -2   5    8.47    0.57
   2  -2   5    7.75    0.84
   2   2   5   10.51    1.07
   2   2   5    9.64    1.04
  -2   2  -5   10.17    0.74
  -2   2  -5    8.77    0.58
   3  -2   5   13.41    0.97
   3  -2   5   14.85    0.72
   3  -2   5   14.69    1.03
   3   2   5   13.59    1.29
  -3   2  -5   15.11    1.05
  -3   2  -5   14.55    0.71
   3   2   5   16.46    1.19
   4  -2   5    8.97    1.06
   4  -2   5    9.31    0.98
   4  -2   5    9.77    0.52
  -4   2  -5   10.91    1.17
   4   2   5   10.90    1.20
  -4   2  -5    9.45    0.50
   4   2   5    9.43    1.13
   5  -2   5    0.55    0.39
  -5  -2  -5    1.01    0.57
   5   2   5    0.33    0.36
   5   2   5   -0.01    0.38
  -5   2  -5    0.21    0.43
  -6  -2  -5    1.23    0.58
   6  -2   5    1.59    0.62
  -6  -2  -5    2.00    0.68
  -6   2  -5    1.79    0.66
   6   2   5    1.23    0.61
   6   2   5    0.73    0.56
  -7  -2  -5    0.31    0.56
   7  -2   5   -0.20    0.38
  -7  -2  -5    0.12    0.50
  -7   2  -5   -0.10    0.53
   7   2   5    0.56    0.57
   8  -2   5    0.85    0.81
  -8  -2  -5    0.75    0.66
   8   2   5    0.76    0.59
  -9  -3   5    3.23    1.05
   9  -3  -5    3.92    1.06
   8  -3  -5   11.96    1.52
  -8  -3   5    9.13    1.43
  -8  -3   5   12.60    1.48
   7  -3  -5    0.58    0.52
  -7  -3   5   -0.33    0.34
  -7  -3   5   -0.29    0.31
  -7   3   5    0.81    0.50
   7   3  -5    0.12    0.33
   6  -3  -5    4.31    0.86
  -6  -3   5    4.87    0.79
  -6  -3   5    2.30    0.71
   6   3  -5    4.44    0.57
  -6   3   5    3.46    0.71
   5  -3  -5    0.56    0.37
  -5  -3   5    1.40    0.42
  -5  -3   5    0.34    0.51
  -5   3   5    0.59    0.39
   5   3  -5    0.60    0.24
  -4  -3   5    9.03    1.17
  -4  -3   5   10.20    0.69
   4  -3  -5   11.23    1.18
   4   3  -5   10.83    0.48
  -4   3   5   12.34    1.20
  -3  -3   5    2.69    0.67
  -3  -3   5    3.94    0.30
  -3   3   5    2.96    0.59
  -2  -3   5    1.46    0.44
  -2   3   5    0.76    0.34
  -2   3   5    1.28    0.45
  -1  -3   5   17.79    1.12
  -1   3   5   14.56    1.29
  -1   3   5   16.61    1.17
   0  -3   5   10.70    0.79
   0  -3   5   11.54    0.58
   0   3   5    7.68    0.97
   0   3   5    9.06    1.00
   1  -3   5    0.32    0.25
   1  -3   5   -0.05    0.21
   1  -3   5    0.06    0.20
  -1   3  -5    0.21    0.19
  -1   3  -5    0.07    0.22
   1   3   5    0.01    0.34
   1   3   5    0.09    0.24
   2  -3   5    1.03    0.27
   2  -3   5    0.97    0.39
   2  -3   5    0.96    0.36
   2   3   5    0.40    0.41
  -2   3  -5    1.02    0.27
  -2   3  -5    0.81    0.33
   2   3   5    1.70    0.52
   3  -3   5    1.87    0.23
   3  -3   5    2.34    0.54
   3  -3   5    1.82    0.53
   3  -3   5    1.40    0.47
   3   3   5    1.59    0.49
  -3   3  -5    2.78    0.57
   3   3   5    1.99    0.64
  -3   3  -5    1.92    0.24
   4  -3   5    1.53    0.48
   4  -3   5    0.49    0.46
  -4   3  -5    1.15    0.47
   4   3   5    0.72    0.50
   4   3   5    1.71    0.63
   5  -3   5   11.48    1.31
   5  -3   5   13.26    1.18
   5   3   5    8.37    1.21
  -5   3  -5   11.11    1.35
   5   3   5   11.48    1.41
  -6  -3  -5    2.10    0.76
   6  -3   5    3.01    0.82
  -6  -3  -5    1.42    0.65
  -6   3  -5    1.04    0.60
   6   3   5    1.47    0.76
   6   3   5    2.82    0.76
  -7  -3  -5    8.27    1.38
   7  -3   5    9.06    1.35
   7   3   5    7.57    1.28
  -7   3  -5    6.93    1.26
   8  -3   5   -0.25    0.62
  -8  -3  -5    0.47    0.71
   8   3   5    0.55    0.66
   8  -4  -5    0.52    0.63
  -8  -4   5    0.93    0.66
   7  -4  -5    9.36    1.39
  -7  -4   5    8.06    1.43
  -7   4   5   10.40    1.37
  -6  -4   5    2.14    0.57
  -6  -4   5    2.17    0.83
   6  -4  -5    1.99    0.62
  -6   4   5    1.59    0.57
  -5  -4   5    5.68    1.03
   5  -4  -5    7.31    1.09
  -5  -4   5    9.19    0.87
  -5   4   5   10.86    1.18
  -4  -4   5   28.96    1.94
  -4  -4   5   33.13    1.35
   4  -4  -5   32.20    1.93
  -4   4   5   32.51    1.78
   3  -4  -5   14.51    0.84
  -3  -4   5   14.49    1.50
  -3  -4   5   15.27    0.66
  -3   4   5   15.62    1.19
  -2  -4   5   40.38    2.08
  -2   4   5   40.95    2.15
  -2   4   5   42.43    2.10
  -1  -4   5   99.28    2.90
  -1  -4   5  101.44    3.69
  -1  -4   5  104.36    2.90
  -1   4   5   97.39    3.86
  -1   4   5  100.03    3.85
   0  -4   5   20.98    1.22
   0  -4   5   20.79    0.96
   0  -4   5   20.45    0.94
   0  -4   5   22.56    0.89
   0   4   5   19.29    1.42
   0   4   5   20.90    1.43
   1  -4   5  101.98    3.39
   1  -4   5  102.48    3.27
   1  -4   5  101.85    3.33
   1   4   5   96.89    3.95
   1   4   5  101.93    3.93
   2  -4   5    3.47    0.48
   2  -4   5    2.93    0.43
   2  -4   5    3.43    0.58
   2  -4   5    2.87    0.58
   2   4   5    3.55    0.76
   2   4   5    4.36    0.79
   3  -4   5    9.66    1.03
   3  -4   5    9.07    0.43
   3  -4   5   10.82    1.08
   3  -4   5   11.36    1.11
  -3   4  -5   10.35    1.09
   3   4   5   11.47    1.41
   3   4   5    8.94    1.24
   4  -4   5   14.79    1.41
   4  -4   5   13.73    1.25
   4   4   5   11.55    1.51
   4   4   5   16.32    1.69
  -4   4  -5   12.88    1.35
   5  -4   5    9.80    1.02
   5  -4   5    6.80    1.06
  -5   4  -5   11.04    1.38
   5   4   5   13.46    1.56
   5   4   5    9.29    1.43
  -6  -4  -5   11.27    1.59
  -6  -4  -5   11.94    1.65
   6  -4   5   10.05    1.32
   6   4   5    6.26    1.21
   6   4   5    7.88    1.26
  -6   4  -5   12.01    1.53
   7  -4   5    2.14    0.84
  -7  -4  -5    1.74    0.76
   7   4   5    1.24    0.71
  -7   4  -5    0.93    0.76
  -7  -5   5    3.46    1.15
   7  -5  -5    4.07    1.04
   6  -5  -5   -0.32    0.36
  -6  -5   5   -0.62    0.53
  -6   5   5    0.16    0.40
   5  -5  -5    3.42    0.90
  -5  -5   5    4.15    1.05
  -5   5   5    4.12    0.82
   4  -5  -5    2.33    0.75
  -4  -5   5    2.59    0.72
  -4   5   5    2.45    0.66
  -3  -5   5    0.06    0.34
  -3   5   5   -0.08    0.37
  -2  -5   5    0.57    0.19
  -2  -5   5    0.12    0.40
  -2  -5   5    0.26    0.25
  -2   5   5    0.99    0.45
  -2   5   5    0.44    0.41
  -1  -5   5   -0.33    0.18
  -1  -5   5   -0.09    0.34
  -1  -5   5   -0.13    0.15
  -1   5   5    0.24    0.45
  -1   5   5    0.01    0.32
   0  -5   5   41.10    1.96
   0  -5   5   40.38    1.54
   0  -5   5   37.95    1.56
   0   5   5   41.30    2.28
   0   5   5   44.43    2.33
   1  -5   5    1.54    0.43
   1  -5   5    1.33    0.40
   1  -5   5    1.49    0.47
   1   5   5    1.44    0.68
   1   5   5    2.72    0.74
   2  -5   5    6.11    0.82
   2  -5   5    5.26    0.75
   2  -5   5    5.63    0.64
   2   5   5    4.15    0.94
   2   5   5    5.48    1.02
   3  -5   5   -0.46    0.33
   3   5   5    0.47    0.49
   3   5   5   -0.04    0.38
   4  -5   5    7.92    0.97
   4  -5   5    7.68    1.10
   4   5   5    5.00    1.13
   4   5   5    7.42    1.21
  -5  -5  -5    0.25    0.69
   5  -5   5    0.61    0.59
   5   5   5    0.25    0.46
   5   5   5    0.23    0.67
  -5   5  -5    0.30    0.42
   6  -5   5    1.09    0.63
  -6  -5  -5    2.06    0.96
  -6   5  -5    1.47    0.69
   6   5   5    1.98    0.77
   6  -6  -5    2.72    0.86
  -6  -6   5    1.65    0.88
  -5  -6   5    3.01    0.89
   5  -6  -5    2.67    0.84
  -5   6   5    3.52    0.78
  -4  -6   5   14.70    1.78
   4  -6  -5   15.96    1.87
  -4   6   5   17.65    1.68
  -3  -6   5    6.06    1.15
  -3   6   5    7.75    1.15
  -2  -6   5   53.52    2.66
  -2   6   5   49.37    2.63
  -1  -6   5    1.90    0.65
  -1   6   5    2.44    0.69
  -1   6   5    2.17    0.76
   0  -6   5   12.07    1.24
   0   6   5   10.54    1.42
   0   6   5   12.57    1.56
   1  -6   5   14.89    1.10
   1  -6   5   14.37    1.02
   1   6   5   16.09    1.79
   1   6   5   15.13    1.73
   2  -6   5    0.12    0.43
   2   6   5    0.33    0.49
   2   6   5    0.07    0.34
   3  -6   5   13.74    1.40
   3   6   5   16.44    1.84
   3   6   5   14.25    1.86
   4  -6   5    7.24    1.12
   4   6   5    7.98    1.49
   4   6   5    9.89    1.54
   5  -6   5    0.39    0.64
  -5  -6  -5    0.11    0.72
   5   6   5    0.43    0.72
   5   6   5    0.56    0.51
  -5  -7   5   12.67    1.87
   5  -7  -5   14.10    1.89
   4  -7  -5    0.02    0.69
  -4  -7   5    0.20    0.65
  -4   7   5    0.16    0.50
  -3  -7   5    7.35    1.35
  -3   7   5    6.65    1.12
  -2  -7   5    9.45    1.38
  -2   7   5    9.42    1.38
  -1  -7   5    2.55    0.81
  -1   7   5    1.96    0.79
  -1   7   5    1.27    0.62
   0  -7   5    1.37    0.66
   0   7   5    2.83    0.90
   0   7   5    1.19    0.72
   1   7   5    2.54    0.82
   1   7   5    3.38    1.01
   2   7   5   35.52    2.44
   2   7   5   37.39    2.56
   3  -7   5    0.25    0.61
   3   7   5   -0.13    0.40
   3   7   5   -0.56    0.65
  -4  -7  -5    5.77    1.34
   4  -7   5    6.06    1.18
   4   7   5    7.14    1.44
   4   7   5    9.22    1.53
  -1  -8   5    0.50    0.66
  -1   8   5    1.44    0.83
   0   8   5    4.75    1.16
   0   8   5    3.87    1.17
  -9   0   6   44.94    2.74
  -9   0   6   56.09    3.07
   9   0  -6   46.80    2.58
  -8   0   6   13.98    1.63
   8   0  -6   13.50    1.42
  -8   0   6   19.13    1.92
   7   0  -6   59.10    2.64
  -7   0   6   65.73    3.07
  -7   0   6   64.87    3.03
   6   0  -6   20.23    1.25
  -6   0   6   20.58    1.54
  -5   0   6    1.94    0.56
   5   0  -6    2.30    0.55
   5   0  -6    2.28    0.48
   4   0  -6  103.02    3.43
  -4   0   6  109.25    3.93
   4   0  -6  101.04    3.59
  -3   0   6    0.53    0.37
   3   0  -6   -0.12    0.16
   2   0  -6   47.03    1.85
  -2   0   6   44.67    1.73
  -2   0   6   47.24    1.90
  -2   0   6   44.99    2.06
  -1   0   6    5.61    0.58
  -1   0   6    5.33    0.67
  -1   0   6    4.90    0.70
   0   0   6    0.20    0.27
   0   0   6    0.32    0.26
   0   0   6    0.30    0.30
   1   0   6   27.55    1.34
   1   0   6   26.52    1.42
   1   0   6   27.74    1.39
   2   0   6    0.65    0.37
   2   0   6    0.49    0.25
   2   0   6    1.00    0.33
   3   0   6   61.75    2.64
  -3   0  -6   70.22    2.82
   3   0   6   62.63    2.47
   3   0   6   64.18    2.63
  -4   0  -6   41.56    2.21
   4   0   6   43.17    1.91
   4   0   6   41.67    2.11
  -5   0  -6   37.78    2.21
   5   0   6   33.13    1.94
   5   0   6   33.88    1.73
   6   0   6   11.44    1.43
  -6   0  -6   10.33    1.49
   6   0   6   11.33    1.13
   7   0   6   23.16    2.18
  -7   0  -6   27.88    2.60
   8   0   6   -0.16    0.51
   9  -1  -6    2.69    0.79
  -9  -1   6    4.39    1.03
  -9  -1   6    2.49    0.91
   9   1  -6    3.21    0.81
  -9   1   6    2.41    0.88
  -8  -1   6    9.26    1.29
  -8  -1   6    8.10    1.33
   8  -1  -6   10.24    1.30
  -8   1   6    8.75    1.27
   8   1  -6   11.24    1.25
   7  -1  -6    0.03    0.41
  -7  -1   6    0.75    0.52
  -7  -1   6   -0.35    0.32
   7   1  -6    0.49    0.40
  -7   1   6    0.22    0.43
  -6  -1   6    3.96    0.82
  -6  -1   6    3.30    0.67
   6  -1  -6    3.17    0.65
   6   1  -6    2.37    0.68
  -6   1   6    3.03    0.66
   6   1  -6    2.94    0.55
   5  -1  -6    2.20    0.54
  -5  -1   6    3.12    0.70
   5   1  -6    2.27    0.50
   5   1  -6    2.92    0.50
  -5   1   6    2.46    0.66
   4  -1  -6   -0.12    0.26
   4  -1  -6   -0.05    0.28
  -4  -1   6    0.24    0.37
   4   1  -6    0.20    0.22
  -4   1   6   -0.05    0.33
   4   1  -6    0.13    0.18
  -4   1   6    0.12    0.21
   4   1  -6    0.29    0.21
   3  -1  -6   48.15    2.10
  -3  -1   6   49.81    2.27
  -3   1   6   50.69    1.92
  -3   1   6   47.51    2.22
   3   1  -6   49.67    1.67
   3   1  -6   50.87    1.81
   3   1  -6   47.60    1.68
  -2  -1   6    5.31    0.78
  -2   1   6    4.44    0.71
  -2   1   6    4.91    0.63
  -2   1   6    6.95    0.76
   2   1  -6    6.27    0.44
   2   1  -6    5.65    0.39
  -1  -1   6    0.33    0.18
  -1  -1   6    0.00    0.28
  -1   1   6    0.54    0.29
   1   1  -6    0.63    0.21
  -1   1   6    0.36    0.26
  -1   1   6    0.33    0.28
   0  -1   6   52.41    2.09
   0  -1   6   50.52    1.84
   0  -1   6   49.27    2.09
   0   1   6   49.51    2.08
   0   1   6   52.66    2.11
   0   1   6   54.51    2.22
   1  -1   6   23.90    1.34
   1  -1   6   25.50    1.20
   1  -1   6   24.15    1.25
   1   1   6   24.46    1.36
   1   1   6   24.73    1.35
   1   1   6   22.74    1.33
  -1   1  -6   26.79    1.23
   2  -1   6    0.91    0.34
   2  -1   6    1.33    0.38
   2  -1   6    1.07    0.43
  -2   1  -6    1.48    0.39
   2   1   6    1.00    0.41
   2   1   6    0.79    0.37
   3  -1   6   18.11    1.16
   3  -1   6   14.13    1.24
   3  -1   6   14.07    0.89
   3   1   6   15.90    1.40
  -3   1  -6   14.84    1.13
   3   1   6   14.79    1.10
   4  -1   6   20.73    1.34
  -4  -1  -6   19.82    1.47
   4  -1   6   19.93    1.33
   4  -1   6   18.53    1.03
  -4   1  -6   20.20    1.44
   4   1   6   18.75    1.64
   4   1   6   16.54    1.22
   5  -1   6    7.70    0.77
   5  -1   6    7.07    1.08
  -5  -1  -6    7.79    1.21
   5   1   6    7.76    1.01
  -5   1  -6    9.10    1.26
   5   1   6    7.66    1.11
  -6  -1  -6    2.86    0.71
  -6  -1  -6    4.37    1.01
   6  -1   6    4.48    0.99
   6   1   6    4.06    0.81
   6   1   6    2.60    0.70
  -6   1  -6    3.42    0.87
  -7  -1  -6    0.21    0.45
  -7  -1  -6    0.73    0.71
   7  -1   6    0.39    0.51
  -7   1  -6   -0.20    0.61
   7   1   6    0.38    0.59
   8  -1   6    7.04    1.38
   8   1   6    6.05    1.23
  -9  -2   6    5.75    1.20
   9  -2  -6    4.73    1.08
  -9   2   6    6.50    1.43
  -8  -2   6   -0.35    0.57
   8  -2  -6    0.22    0.51
  -8  -2   6   -0.57    0.46
  -8   2   6   -0.32    0.41
  -7  -2   6    9.11    1.13
   7  -2  -6    9.12    1.20
  -7  -2   6    7.54    1.19
   7   2  -6    8.34    0.90
  -7   2   6    7.56    1.12
   6  -2  -6  102.25    3.89
  -6  -2   6  101.39    4.20
  -6  -2   6   99.40    3.66
   6   2  -6   99.69    3.63
   6   2  -6  101.75    3.34
  -6   2   6   97.70    3.92
   5  -2  -6    4.57    0.81
  -5  -2   6    4.91    0.66
  -5  -2   6    4.46    0.88
  -5   2   6    6.52    0.58
  -5   2   6    4.86    0.80
   5   2  -6    5.89    0.70
   5   2  -6    5.72    0.56
  -4  -2   6   50.26    2.43
   4  -2  -6   49.06    2.24
  -4   2   6   50.54    2.34
  -4   2   6   51.67    1.84
   4   2  -6   52.23    1.64
   4   2  -6   49.65    1.61
   4   2  -6   46.54    1.81
  -3  -2   6    0.18    0.38
  -3   2   6    0.22    0.35
   3   2  -6    0.12    0.13
  -3   2   6    0.13    0.21
  -2  -2   6    2.95    0.60
  -2   2   6    3.23    0.68
  -2   2   6    2.82    0.58
  -2   2   6    3.02    0.49
  -1  -2   6    0.82    0.33
  -1  -2   6    1.11    0.18
  -1   2   6    0.75    0.41
   1   2  -6    1.06    0.17
  -1   2   6    1.05    0.43
   0  -2   6   21.01    1.18
   0  -2   6   20.56    0.92
   0   2  -6   21.08    0.91
   0   2   6   22.22    1.35
   0   2  -6   20.70    0.84
   0   2   6   20.37    1.29
   1  -2   6   20.55    1.03
   1  -2   6   19.24    1.07
   1  -2   6   18.02    1.17
   1   2   6   18.01    1.28
   1   2   6   21.42    1.34
  -1   2  -6   20.73    0.99
   2  -2   6    0.31    0.32
   2  -2   6    0.77    0.30
   2  -2   6    0.33    0.34
  -2   2  -6    0.96    0.31
  -2   2  -6    0.40    0.30
   2   2   6    1.34    0.48
   2   2   6    0.51    0.35
   3  -2   6   25.94    1.13
   3  -2   6   25.71    1.45
   3  -2   6   26.81    1.49
  -3   2  -6   24.33    1.45
   3   2   6   22.79    1.50
   3   2   6   26.36    1.62
  -3   2  -6   23.63    1.11
   4  -2   6    2.96    0.67
   4  -2   6    2.26    0.59
   4  -2   6    1.90    0.34
  -4   2  -6    1.79    0.57
   4   2   6    2.53    0.68
   4   2   6    1.51    0.51
   5  -2   6    5.93    1.00
   5  -2   6   10.11    1.12
  -5  -2  -6    8.44    1.28
   5   2   6    6.01    0.98
   5   2   6    4.93    0.94
  -5   2  -6    8.11    1.16
  -6  -2  -6   11.14    1.56
   6  -2   6    9.21    1.29
  -6  -2  -6    8.15    1.24
   6   2   6    8.36    1.21
  -6   2  -6   10.81    1.50
   6   2   6    9.06    1.32
   7  -2   6    3.38    0.99
  -7  -2  -6    4.89    1.07
   7   2   6    5.64    1.11
  -7   2  -6    4.97    1.11
   8  -2   6    1.60    0.92
   8   2   6    1.61    0.81
  -9  -3   6    0.74    0.66
  -8  -3   6    3.81    1.15
   8  -3  -6    3.48    0.91
  -8   3   6    2.96    0.82
  -7  -3   6    2.71    0.81
  -7  -3   6    3.70    0.88
   7  -3  -6    2.81    0.83
  -7   3   6    4.54    0.90
  -6  -3   6    4.30    0.94
   6  -3  -6    6.77    1.09
  -6  -3   6    7.19    0.86
  -6   3   6    6.42    0.99
  -5  -3   6   43.66    1.79
   5  -3  -6   44.66    2.26
  -5  -3   6   39.63    2.33
  -5   3   6   45.15    2.24
   4  -3  -6    0.68    0.41
  -4  -3   6    0.97    0.57
  -4  -3   6    0.58    0.23
  -4   3   6    0.36    0.40
  -3  -3   6   36.08    1.98
  -3   3   6   34.07    1.87
  -2  -3   6   44.13    2.13
  -2   3   6   44.14    2.18
  -2   3   6   46.53    2.23
  -1  -3   6   19.94    1.26
  -1   3   6   18.99    1.37
  -1   3   6   23.51    1.45
   0  -3   6   92.37    3.29
   0  -3   6   93.46    2.85
   0   3   6   92.39    3.62
   0   3  -6   93.47    2.85
   0   3   6   90.53    3.55
   1  -3   6   17.14    0.95
   1  -3   6   20.33    1.10
  -1   3  -6   18.39    0.91
   1   3   6   17.99    1.63
   1   3   6   16.35    1.50
   2  -3   6   80.17    2.69
   2  -3   6   81.19    3.10
   2  -3   6   81.61    2.90
   2   3   6   73.87    3.26
   2   3   6   77.44    3.35
  -2   3  -6   82.51    2.72
   3  -3   6   54.97    2.35
   3  -3   6   58.28    2.44
   3  -3   6   56.52    1.86
  -3   3  -6   52.06    2.34
   3   3   6   54.72    2.69
   3   3   6   54.59    2.63
   4  -3   6    0.60    0.46
   4  -3   6    0.34    0.43
  -4   3  -6    0.39    0.42
   4   3   6    0.67    0.50
   4   3   6    0.65    0.41
   5  -3   6   12.80    1.41
   5  -3   6   10.99    1.18
  -5   3  -6   13.17    1.51
   5   3   6   10.93    1.39
   5   3   6   13.91    1.61
  -6  -3  -6    2.30    0.83
   6  -3   6    2.99    0.86
  -6  -3  -6    2.25    0.88
   6   3   6    1.66    0.71
  -6   3  -6    2.70    0.83
   6   3   6    3.57    0.96
  -7  -3  -6    8.33    1.39
   7  -3   6    9.27    1.40
   7   3   6    7.71    1.34
  -7   3  -6    9.64    1.55
  -8  -4   6    3.25    1.10
   8  -4  -6    1.92    0.77
   7  -4  -6    0.27    0.58
  -7  -4   6    0.15    0.66
  -7   4   6   -0.25    0.40
  -6  -4   6    2.04    0.77
   6  -4  -6    1.11    0.64
  -6   4   6    1.20    0.57
  -5  -4   6    0.77    0.64
   5  -4  -6    0.67    0.45
  -5   4   6    0.12    0.38
  -4  -4   6    7.19    0.51
  -4  -4   6    3.99    0.95
  -4   4   6    7.29    1.06
  -3  -4   6    7.55    1.12
  -3   4   6    6.60    0.99
  -2  -4   6    1.26    0.54
  -2   4   6    1.61    0.51
  -2   4   6    1.27    0.52
  -1  -4   6    1.59    0.51
  -1   4   6    0.90    0.50
  -1   4   6    0.13    0.33
   0  -4   6    0.16    0.31
   0  -4   6    0.46    0.24
   0  -4   6    0.49    0.24
   0   4   6    0.44    0.49
   0   4   6    0.11    0.32
   1  -4   6    0.87    0.33
   1  -4   6    0.78    0.37
   1   4   6    0.82    0.51
   1   4   6    0.67    0.51
   2  -4   6    7.31    0.81
   2  -4   6    7.62    0.85
   2  -4   6    8.20    0.75
  -2   4  -6    8.04    0.84
   2   4   6    7.51    1.18
   2   4   6    7.57    1.13
   3  -4   6    0.26    0.39
   3  -4   6    0.34    0.39
   3  -4   6    0.28    0.38
   3   4   6    0.57    0.52
  -3   4  -6    0.64    0.40
   3   4   6    0.76    0.59
   4  -4   6    1.97    0.62
   4  -4   6    1.72    0.62
   4   4   6    2.48    0.71
   4   4   6    1.42    0.73
  -4   4  -6    2.19    0.62
   5  -4   6    0.36    0.50
   5  -4   6    0.05    0.44
   5   4   6    0.91    0.65
  -5   4  -6    0.79    0.52
   5   4   6    0.65    0.56
   6  -4   6   -0.11    0.54
  -6  -4  -6    0.96    0.80
  -6   4  -6    0.74    0.56
   6   4   6    0.61    0.49
   6   4   6    0.31    0.68
   7  -4   6    0.06    0.67
  -7  -4  -6    4.18    1.19
   7   4   6    2.52    0.83
   7  -5  -6    9.22    1.43
  -7  -5   6    5.30    1.20
  -6  -5   6    0.76    0.81
   6  -5  -6   -0.84    0.50
  -6   5   6    0.18    0.46
  -5  -5   6   26.63    2.02
   5  -5  -6   27.31    1.94
  -5   5   6   27.74    1.82
   4  -5  -6    2.20    0.68
  -4  -5   6    2.27    0.73
  -4   5   6    2.00    0.68
  -3  -5   6   48.59    2.64
  -3   5   6   54.16    2.65
  -2  -5   6   17.20    1.65
  -2   5   6   18.88    1.76
  -2   5   6   18.78    1.81
  -1  -5   6    2.94    0.68
  -1   5   6    4.65    0.95
  -1   5   6    2.15    0.64
   0  -5   6  106.02    3.31
   0  -5   6  107.46    3.87
   0   5   6  105.97    4.32
   0   5   6  101.56    4.29
   1  -5   6   10.90    1.03
   1  -5   6   10.86    0.95
   1   5   6   12.33    1.55
   1   5   6   11.13    1.42
   2  -5   6   31.17    1.59
   2   5   6   25.74    1.91
   2   5   6   32.37    2.15
   3  -5   6   15.87    1.48
   3  -5   6   13.31    1.29
   3   5   6   12.14    1.64
   3   5   6   13.11    1.62
   4  -5   6    1.17    0.61
   4  -5   6    1.19    0.61
   4   5   6    1.80    0.68
   4   5   6    1.83    0.87
   5  -5   6   19.83    1.87
  -5   5  -6   18.89    1.88
   5   5   6   17.82    2.07
   5   5   6   17.80    2.02
  -6  -5  -6    3.44    1.13
   6  -5   6    1.66    0.81
  -6   5  -6    2.28    0.86
   6   5   6    3.03    1.01
   6   5   6    2.64    1.10
   6  -6  -6   13.87    1.83
  -6  -6   6   11.29    1.80
  -5  -6   6    0.54    0.59
   5  -6  -6   -0.18    0.58
  -5   6   6    0.32    0.52
   4  -6  -6   17.56    1.89
  -4  -6   6   15.75    1.85
  -4   6   6   15.70    1.68
  -3  -6   6    1.75    0.78
  -3   6   6    1.68    0.66
  -2  -6   6    3.08    0.82
  -2   6   6    4.27    0.98
  -2   6   6    3.55    0.87
  -1  -6   6   19.38    1.77
  -1   6   6   21.54    2.06
  -1   6   6   16.21    1.83
   0  -6   6    0.42    0.51
   0   6   6   -0.04    0.50
   0   6   6    0.68    0.60
   1  -6   6   17.60    1.59
   1   6   6   15.34    1.81
   1   6   6   14.45    1.77
   2  -6   6   -0.23    0.38
   2   6   6    0.63    0.64
   2   6   6    0.14    0.44
   3  -6   6    2.93    0.75
   3   6   6    2.08    0.82
   3   6   6    1.64    0.81
   4  -6   6    9.25    1.29
   4   6   6    9.64    1.56
   4   6   6   12.14    1.78
   5  -6   6    1.28    0.71
  -5  -6  -6    0.69    0.70
   5   6   6    1.86    0.89
   5   6   6    3.13    1.02
  -4  -7   6   -0.28    0.66
   4  -7  -6    0.86    0.81
  -4   7   6    1.66    0.69
  -3  -7   6    1.68    0.74
  -3   7   6    0.77    0.58
  -2  -7   6    0.83    0.68
  -2   7   6    2.57    0.81
  -1  -7   6    0.12    0.54
  -1   7   6   -0.33    0.37
  -1   7   6    0.19    0.65
   0   7   6    6.31    1.21
   0   7   6    5.77    1.23
   1   7   6    9.68    1.57
   1   7   6   11.56    1.66
   2   7   6    9.56    1.70
   2   7   6   14.72    1.91
   3   7   6   14.31    2.03
   3   7   6   12.82    1.81
  -9   0   7   -0.34    0.57
   9   0  -7    0.22    0.57
  -8   0   7    0.21    0.54
   8   0  -7    0.47    0.50
  -7   0   7    0.03    0.51
   7   0  -7   -0.32    0.32
   6   0  -7   -0.17    0.24
  -6   0   7   -0.13    0.32
  -5   0   7   -0.10    0.27
   5   0  -7    0.03    0.29
   5   0  -7   -0.15    0.27
  -4   0   7   -0.04    0.41
   4   0  -7    0.08    0.27
   4   0  -7   -0.01    0.25
   3   0  -7    0.00    0.23
  -3   0   7    0.28    0.39
  -2   0   7   -0.27    0.18
  -2   0   7   -0.07    0.22
  -2   0   7    0.18    0.24
  -1   0   7    0.35    0.35
  -1   0   7    0.05    0.20
  -1   0   7    0.19    0.24
   0   0   7   -0.31    0.17
   0   0   7   -0.08    0.28
   0   0   7   -0.07    0.28
   1   0   7   -0.12    0.23
   1   0   7    0.47    0.29
   1   0   7   -0.09    0.29
   2   0   7   -0.22    0.29
   2   0   7    0.25    0.25
   2   0   7   -0.28    0.25
   3   0   7   -0.22    0.24
   3   0   7    0.19    0.36
   3   0   7   -0.07    0.25
  -3   0  -7    0.05    0.32
   4   0   7   -0.03    0.28
  -4   0  -7   -0.17    0.34
   4   0   7   -0.04    0.34
   5   0   7    0.51    0.40
   5   0   7    0.67    0.52
  -5   0  -7    0.26    0.39
   6   0   7   -0.08    0.37
  -6   0  -7    0.33    0.62
   6   0   7   -0.36    0.38
   7   0   7   -0.13    0.36
  -9  -1   7   22.07    2.31
  -9  -1   7   24.36    1.92
   9  -1  -7   24.61    2.17
  -9   1   7   23.97    2.26
  -8  -1   7    4.34    1.01
   8  -1  -7    2.08    0.72
   8   1  -7    2.74    0.69
  -8   1   7    2.12    0.82
   7  -1  -7   54.86    2.59
  -7  -1   7   55.20    2.96
  -7   1   7   58.23    2.92
   7   1  -7   57.54    2.42
  -6  -1   7   15.95    1.67
   6  -1  -7   12.93    1.29
  -6   1   7   13.82    0.92
  -6   1   7   14.77    1.54
   6   1  -7   15.18    1.51
   6   1  -7   15.43    1.00
  -5  -1   7   24.51    1.74
   5  -1  -7   28.54    1.54
  -5   1   7   24.60    1.70
   5   1  -7   26.56    1.26
   5   1  -7   28.18    1.47
   4  -1  -7   95.85    3.62
  -4  -1   7   95.59    3.84
   4  -1  -7   98.33    3.51
   4   1  -7   97.48    3.12
   4   1  -7  108.13    3.34
   4   1  -7   95.48    3.29
  -4   1   7   95.30    3.80
  -4   1   7   99.18    3.36
   3  -1  -7    1.97    0.50
  -3  -1   7    1.70    0.52
   3   1  -7    2.44    0.40
  -3   1   7    1.78    0.54
   3   1  -7    2.51    0.36
   3   1  -7    2.60    0.37
  -3   1   7    2.27    0.48
  -2  -1   7   88.68    2.79
  -2  -1   7   94.00    3.46
   2   1  -7   82.04    2.80
  -2   1   7   91.67    3.19
  -2   1   7   89.02    3.43
  -2   1   7   92.14    3.23
   2   1  -7   89.17    2.78
  -1  -1   7    0.15    0.21
  -1  -1   7    0.19    0.33
  -1   1   7    0.42    0.30
   1   1  -7    0.12    0.17
  -1   1   7   -0.10    0.27
  -1   1   7    0.05    0.25
   0  -1   7    4.02    0.52
   0  -1   7    4.75    0.74
   0  -1   7    4.00    0.66
   0   1   7    4.77    0.74
   0   1   7    2.84    0.54
   0   1   7    5.97    0.80
   1  -1   7   -0.07    0.29
   1  -1   7    0.04    0.24
   1  -1   7   -0.08    0.26
   1   1   7   -0.18    0.27
   1   1   7    0.17    0.37
   1   1   7    0.30    0.33
  -1   1  -7    0.30    0.25
   2  -1   7    0.00    0.29
   2  -1   7   -0.12    0.27
   2  -1   7    0.35    0.39
   2   1   7    0.10    0.35
   2   1   7    0.09    0.27
  -2   1  -7   -0.01    0.23
   3  -1   7    5.97    0.85
   3  -1   7    5.59    0.86
   3  -1   7    6.77    0.79
  -3   1  -7    7.08    0.97
   3   1   7    5.77    0.90
   3   1   7    5.78    0.85
   4  -1   7    2.46    0.66
  -4  -1  -7    3.50    0.79
   4  -1   7    2.92    0.72
   4  -1   7    3.43    0.57
  -4   1  -7    2.82    0.74
   4   1   7    3.43    0.70
   4   1   7    3.67    0.76
   5  -1   7    3.53    0.85
  -5  -1  -7    2.36    0.72
   5  -1   7    2.47    0.53
  -5   1  -7    2.41    0.76
   5   1   7    2.55    0.76
   5   1   7    3.67    0.77
   6  -1   7   16.56    1.78
  -6  -1  -7   14.23    1.78
   6   1   7   14.52    1.67
  -6   1  -7   16.15    1.85
   6   1   7   16.26    1.59
   7  -1   7    1.12    0.77
  -7   1  -7   -0.39    0.60
   7   1   7    0.60    0.65
  -9  -2   7   -0.40    0.69
   9  -2  -7    0.70    0.70
  -9   2   7    0.81    0.68
  -8  -2   7    4.22    1.10
   8  -2  -7    4.83    0.98
  -8   2   7    5.28    1.09
  -7  -2   7    1.31    0.54
  -7  -2   7    1.25    0.73
   7  -2  -7    0.94    0.58
  -7   2   7    0.45    0.54
   6  -2  -7    2.25    0.69
  -6  -2   7    3.44    0.95
  -6   2   7    2.62    0.73
   6   2  -7    2.66    0.46
  -5  -2   7   10.36    1.32
   5  -2  -7   10.30    1.16
   5   2  -7   10.81    0.80
  -5   2   7   13.71    1.43
  -5   2   7   11.77    0.77
   5   2  -7   11.57    0.66
  -4  -2   7    0.40    0.36
   4   2  -7    0.81    0.17
   4   2  -7    0.42    0.23
   4   2  -7    0.63    0.17
  -4   2   7    0.51    0.44
  -4   2   7   -0.01    0.15
  -3  -2   7   31.97    1.86
   3   2  -7   32.11    1.13
  -3   2   7   32.61    1.51
  -3   2   7   35.13    1.91
  -3   2   7   33.22    1.72
  -2  -2   7    0.57    0.42
  -2   2   7    1.41    0.49
   2   2  -7    1.03    0.12
  -2   2   7    1.28    0.39
  -2   2   7    1.07    0.45
   2   2  -7    1.19    0.13
  -1  -2   7   26.20    1.52
  -1  -2   7   27.27    1.01
  -1   2   7   26.13    1.40
   1   2  -7   26.38    0.99
  -1   2   7   26.60    1.63
   1   2  -7   26.43    0.85
  -1   2   7   28.55    1.57
   0  -2   7    2.22    0.52
   0  -2   7    3.26    0.43
   0   2  -7    2.51    0.34
   0   2   7    3.04    0.70
   0   2  -7    3.49    0.44
   0   2   7    3.22    0.63
   1  -2   7    2.69    0.48
   1  -2   7    3.59    0.60
   1  -2   7    2.10    0.58
  -1   2  -7    3.25    0.47
   1   2   7    2.14    0.64
   1   2   7    2.38    0.62
   2  -2   7   53.76    2.20
   2  -2   7   52.29    2.08
   2  -2   7   50.59    2.34
   2   2   7   56.93    2.56
   2   2   7   54.39    2.53
  -2   2  -7   51.21    2.17
   3  -2   7   18.95    1.04
   3  -2   7   17.93    1.31
   3  -2   7   18.43    1.27
   3   2   7   18.70    1.42
   3   2   7   17.02    1.60
  -3   2  -7   23.35    1.40
   4  -2   7    6.19    0.98
   4  -2   7    4.30    0.80
   4  -2   7    5.91    0.62
   4   2   7    5.80    1.00
   4   2   7    6.21    1.03
  -4   2  -7    6.10    0.97
   5  -2   7   14.18    1.53
   5  -2   7   11.22    1.27
  -5  -2  -7   14.37    1.72
   5   2   7   13.74    1.54
  -5   2  -7   14.40    1.58
   5   2   7   18.14    1.85
  -6  -2  -7   -0.28    0.52
   6  -2   7    0.58    0.53
  -6   2  -7   -0.27    0.30
   6   2   7    0.50    0.57
   6   2   7   -0.03    0.54
   7  -2   7    4.32    1.07
  -7  -2  -7    5.26    1.08
  -7   2  -7    4.60    1.26
   7   2   7    4.60    1.07
   8  -3  -7    0.64    0.63
  -8  -3   7    0.04    0.72
  -8   3   7   -0.71    0.40
   7  -3  -7   12.08    1.51
  -7  -3   7   10.74    1.61
  -7   3   7   12.81    1.53
  -6  -3   7    0.55    0.59
   6  -3  -7   -0.35    0.41
  -6   3   7    0.61    0.47
   5  -3  -7    1.63    0.61
  -5  -3   7    2.50    0.81
  -5   3   7    2.62    0.74
  -4  -3   7    5.34    0.96
  -4   3   7    6.24    1.02
  -3  -3   7    0.09    0.43
  -3   3   7    0.20    0.41
  -3   3   7    0.07    0.31
  -2  -3   7    6.64    0.97
  -2   3   7    5.58    0.90
  -2   3   7    6.99    1.00
  -1  -3   7   34.13    1.75
  -1  -3   7   32.78    0.95
  -1   3   7   29.21    1.84
  -1   3   7   32.42    1.86
   0  -3   7   27.50    1.12
   0  -3   7   30.87    1.58
   0   3  -7   27.02    1.11
   0   3   7   28.88    1.76
   0   3   7   23.57    1.62
   1  -3   7    0.35    0.30
   1  -3   7    0.12    0.25
   1   3   7   -0.04    0.38
   1   3   7    0.21    0.34
  -1   3  -7    0.10    0.19
   2  -3   7   13.15    0.89
   2  -3   7   13.25    1.15
   2  -3   7   15.58    1.43
   2   3   7   12.10    1.41
   2   3   7   14.44    1.48
  -2   3  -7   11.83    0.89
   3  -3   7    4.86    0.54
   3  -3   7    6.56    0.88
   3  -3   7    4.66    0.84
   3   3   7    3.43    0.86
  -3   3  -7    6.20    0.88
   3   3   7    7.43    1.12
   4  -3   7   -0.20    0.41
   4  -3   7    0.20    0.41
   4   3   7   -0.07    0.47
  -4   3  -7    0.09    0.36
   4   3   7    0.03    0.45
   5  -3   7    3.31    0.85
   5  -3   7    2.56    0.70
   5   3   7    2.73    0.88
  -5   3  -7    2.06    0.70
   5   3   7    2.83    0.86
   6  -3   7    1.81    0.65
   6   3   7    2.17    0.87
   6   3   7    2.60    0.80
  -6   3  -7    0.88    0.70
  -7  -3  -7    0.35    0.68
   7  -3   7   -0.66    0.57
   7   3   7    1.28    0.70
   8  -4  -7   12.52    1.70
  -8  -4   7   11.37    1.83
  -7  -4   7    0.66    0.78
   7  -4  -7    1.68    0.78
  -7   4   7    0.22    0.51
   6  -4  -7    2.37    0.78
  -6  -4   7    1.75    0.72
  -6   4   7    0.56    0.60
  -5  -4   7    0.34    0.51
   5  -4  -7    0.94    0.57
  -5   4   7    0.61    0.51
  -4  -4   7    0.19    0.48
  -4   4   7    0.27    0.49
  -3  -4   7   16.81    1.67
  -3   4   7   14.21    1.54
  -2  -4   7   13.29    1.40
  -2   4   7   14.88    1.54
  -2   4   7   18.16    1.75
  -1  -4   7   46.67    2.21
  -1   4   7   43.37    2.40
  -1   4   7   41.98    2.32
   0  -4   7  116.95    3.50
   0  -4   7  115.25    4.10
   0   4   7  116.49    4.53
   0   4   7  112.79    4.53
   1  -4   7   19.56    1.08
   1  -4   7   18.58    1.21
   1   4   7   20.91    1.60
   1   4   7   22.32    1.60
   2  -4   7   20.34    1.21
   2  -4   7   20.35    1.10
   2  -4   7   18.43    1.63
  -2   4  -7   19.58    1.16
   2   4   7   17.11    1.83
   2   4   7   16.71    1.72
   3  -4   7   12.84    1.21
   3  -4   7   10.00    1.21
  -3   4  -7   11.30    1.14
   3   4   7   10.93    1.47
   3   4   7    9.60    1.35
   4  -4   7    6.92    1.02
   4  -4   7    5.77    0.99
   4   4   7    6.91    1.17
  -4   4  -7    8.52    1.10
   4   4   7    5.00    1.06
   5  -4   7   23.48    1.57
   5  -4   7   24.34    1.75
  -5   4  -7   22.03    1.70
   5   4   7   22.43    2.29
   5   4   7   26.57    2.42
  -6  -4  -7    1.35    0.73
   6  -4   7    1.18    0.72
  -6   4  -7    1.44    0.66
   6   4   7    2.02    0.84
   6   4   7    0.65    0.67
   7  -5  -7    3.99    1.10
  -7  -5   7    1.53    0.80
  -6  -5   7    0.12    0.69
   6  -5  -7   -0.09    0.56
  -6   5   7    0.15    0.56
  -5  -5   7   -0.06    0.55
   5  -5  -7    0.59    0.62
  -5   5   7    0.67    0.51
  -4  -5   7    2.26    0.85
  -4   5   7    1.47    0.68
  -3  -5   7    0.32    0.55
  -3   5   7   -0.06    0.48
  -2  -5   7    0.17    0.48
  -2   5   7    0.16    0.38
  -2   5   7   -0.05    0.46
  -1  -5   7   26.58    1.68
  -1   5   7   26.43    1.91
  -1   5   7   25.82    1.90
   0  -5   7    0.51    0.45
   0   5   7   -0.22    0.50
   0   5   7    0.52    0.41
   1  -5   7    6.51    0.73
   1  -5   7    7.42    0.92
   1   5   7    3.96    0.96
   1   5   7    6.14    1.13
   2  -5   7    0.30    0.39
   2   5   7    0.90    0.61
   2   5   7    0.30    0.59
   3  -5   7    0.77    0.49
   3  -5   7    0.51    0.52
   3   5   7    0.52    0.70
   3   5   7    0.36    0.61
   4  -5   7    0.90    0.60
   4  -5   7    1.55    0.66
   4   5   7    1.67    0.78
   4   5   7    0.77    0.69
   5  -5   7    5.82    1.10
   5   5   7    2.76    1.04
   5   5   7    4.90    1.26
  -6  -6   7    1.98    0.95
   5  -6  -7    2.24    0.81
  -5  -6   7    3.45    1.07
  -5   6   7    2.45    0.82
  -4  -6   7    1.39    0.80
  -4   6   7    2.38    0.82
  -3  -6   7    4.18    0.94
  -3   6   7    3.71    0.95
  -2  -6   7    7.18    1.18
  -2   6   7    4.40    1.05
  -2   6   7    5.58    1.14
  -1  -6   7   15.97    1.63
  -1   6   7   17.16    1.92
  -1   6   7   14.54    1.78
   0  -6   7    3.16    0.80
   0   6   7    3.98    0.97
   0   6   7    1.81    0.72
   1   6   7    0.18    0.61
   1   6   7    0.20    0.59
   2   6   7   33.59    2.48
   2   6   7   34.00    2.41
   3  -6   7    7.51    1.13
   3   6   7    7.30    1.40
   3   6   7    8.95    1.63
   4  -6   7    2.11    0.73
   4   6   7    1.97    1.07
   4   6   7    3.00    0.96
  -3  -7   7    9.46    1.52
  -3   7   7    8.04    1.40
  -2  -7   7    3.51    0.95
  -2   7   7    4.25    1.10
  -1  -7   7    5.09    1.01
  -1   7   7    5.13    1.21
  -1   7   7    5.05    1.13
   0   7   7    1.17    0.83
   0   7   7    0.30    0.76
   1   7   7   14.02    1.91
   1   7   7   13.36    1.90
   2   7   7    0.29    0.68
   2   7   7   -0.61    0.51
  -9   0   8    0.40    0.78
  -8   0   8   15.98    1.87
   8   0  -8   16.88    1.55
  -7   0   8    2.11    0.74
   7   0  -8    3.12    0.68
   6   0  -8    0.91    0.41
  -6   0   8    0.96    0.66
   5   0  -8   65.22    2.51
   5   0  -8   62.22    2.65
  -5   0   8   62.22    3.03
   4   0  -8   25.11    1.39
   4   0  -8   25.61    1.30
  -4   0   8   22.89    1.67
  -3   0   8  218.10    6.74
   3   0  -8  210.59    6.56
  -3   0   8  214.53    7.08
  -2   0   8   29.53    1.42
  -2   0   8   28.39    1.57
  -2   0   8   30.28    1.74
  -1   0   8    2.78    0.59
  -1   0   8    1.61    0.54
  -1   0   8    2.01    0.46
   0   0   8   49.41    2.26
   0   0   8   47.19    2.24
   0   0   8   49.84    2.08
   1   0   8    2.65    0.58
   1   0   8    4.32    0.69
   1   0   8    1.70    0.53
   2   0   8   40.26    2.07
   2   0   8   38.53    1.94
   2   0   8   38.78    1.94
  -3   0  -8   -0.03    0.39
   3   0   8   -0.15    0.27
   3   0   8   -0.02    0.36
   3   0   8    0.04    0.35
   4   0   8   64.18    2.87
  -4   0  -8   61.26    2.93
   4   0   8   57.06    2.58
   5   0   8    6.10    0.94
   5   0   8    6.11    1.10
  -5   0  -8    9.57    1.37
  -6   0  -8   -0.26    0.37
   6   0   8    0.24    0.59
   7   0   8    0.26    0.67
   9  -1  -8    2.30    0.84
  -9  -1   8    2.33    0.98
  -9   1   8    3.46    1.01
   8  -1  -8    0.48    0.52
  -8  -1   8    0.52    0.72
  -8   1   8    0.01    0.47
   7  -1  -8    0.06    0.42
  -7  -1   8   -0.20    0.58
   7   1  -8    0.08    0.37
  -7   1   8   -0.16    0.54
  -6  -1   8    6.45    1.18
   6  -1  -8    7.62    1.03
  -6   1   8    6.30    1.09
   6   1  -8    7.43    0.82
   5  -1  -8    4.20    0.73
  -5  -1   8    3.77    0.91
  -5   1   8    3.00    0.60
  -5   1   8    2.12    0.73
   5   1  -8    3.43    0.51
   5   1  -8    2.93    0.59
  -4  -1   8   11.89    1.41
   4  -1  -8   11.82    1.14
  -4   1   8   12.50    1.44
   4   1  -8   14.29    0.80
  -4   1   8   13.15    1.16
   4   1  -8   12.40    0.86
  -3  -1   8    0.06    0.32
  -3   1   8    0.51    0.35
  -3   1   8    0.12    0.30
   3   1  -8   -0.09    0.16
   3   1  -8    0.10    0.18
   3   1  -8    0.38    0.23
  -3   1   8   -0.22    0.27
  -2  -1   8   19.55    1.43
  -2  -1   8   20.33    0.99
  -2   1   8   21.32    1.29
  -2   1   8   19.84    1.44
   2   1  -8   21.34    0.97
  -2   1   8   21.69    1.31
  -1  -1   8    6.01    0.89
  -1  -1   8    7.74    0.98
  -1  -1   8    6.21    0.62
  -1   1   8    8.51    1.00
  -1   1   8    4.62    0.84
  -1   1   8    9.56    0.98
   0  -1   8    2.54    0.63
   0  -1   8    3.52    0.65
   0  -1   8    3.80    0.56
   0   1   8    3.27    0.72
   0   1   8    3.16    0.60
   0   1   8    3.14    0.67
   1  -1   8    8.59    0.88
   1  -1   8    9.42    1.10
   1  -1   8    8.00    0.96
   1   1   8    8.74    1.08
   1   1   8    8.58    1.07
   1   1   8   10.74    1.19
  -1   1  -8    8.52    0.87
   2  -1   8    0.73    0.38
   2  -1   8    0.82    0.46
   2  -1   8    0.61    0.38
   2   1   8    1.30    0.51
   2   1   8    0.51    0.42
  -2   1  -8    0.78    0.39
   3  -1   8    6.88    0.94
   3  -1   8    5.58    0.76
   3  -1   8    3.85    0.79
   3   1   8    5.66    0.91
   3   1   8    6.29    1.00
  -3   1  -8    7.22    1.00
  -4  -1  -8    2.89    0.75
   4  -1   8    1.90    0.66
   4  -1   8    2.01    0.54
   4  -1   8    1.28    0.57
   4   1   8    2.04    0.70
   4   1   8    2.87    0.73
  -4   1  -8    1.75    0.65
  -5  -1  -8    2.85    0.79
   5  -1   8    2.71    0.78
  -5   1  -8    2.72    0.85
   5   1   8    1.82    0.65
   5   1   8    3.05    0.92
  -6  -1  -8    0.88    0.70
   6  -1   8   -0.55    0.52
   6   1   8   -0.63    0.42
   6   1   8   -0.50    0.55
  -6   1  -8   -0.44    0.52
   7  -1   8    8.07    1.40
   7   1   8    8.48    1.44
  -8  -2   8    3.81    1.03
   8  -2  -8    3.95    0.93
  -8   2   8    2.96    0.94
  -7  -2   8   17.46    1.98
   7  -2  -8   16.79    1.68
  -7   2   8   16.77    1.76
   6  -2  -8    7.24    1.05
  -6  -2   8    7.01    1.25
  -6   2   8    5.48    0.96
  -5  -2   8   83.92    3.78
   5  -2  -8   86.63    3.48
  -5   2   8   88.11    3.05
  -5   2   8   86.23    3.70
  -4  -2   8    0.34    0.46
  -4   2   8   -0.30    0.37
   4   2  -8   -0.15    0.16
   4   2  -8    0.15    0.17
  -4   2   8   -0.05    0.26
  -3  -2   8   15.11    1.56
  -3   2   8   14.91    1.35
  -3   2   8   16.29    1.58
   3   2  -8   14.20    0.61
   3   2  -8   14.35    0.48
  -3   2   8   14.18    1.03
   3   2  -8   13.87    0.48
  -2  -2   8   16.48    1.29
  -2   2   8   18.52    1.19
   2   2  -8   18.03    0.58
   2   2  -8   18.71    0.69
  -2   2   8   18.34    1.42
  -2   2   8   15.90    1.44
  -1  -2   8    9.11    1.06
  -1  -2   8    9.12    0.57
  -1   2   8    8.75    1.04
   1   2  -8    8.39    0.55
  -1   2   8    8.47    1.14
   1   2  -8    9.72    0.47
  -1   2   8    9.82    1.08
   0  -2   8   11.36    0.74
   0  -2   8    9.32    1.05
   0  -2   8   11.41    1.21
   0   2  -8   10.43    0.64
   0   2   8   10.11    1.21
   0   2   8   10.30    1.16
   1  -2   8    0.28    0.37
   1  -2   8    0.26    0.28
   1  -2   8    0.21    0.31
   1   2   8   -0.15    0.28
  -1   2  -8    0.13    0.23
   1   2   8   -0.29    0.34
   2  -2   8   31.36    1.57
   2  -2   8   31.23    1.60
   2  -2   8   30.94    1.81
   2   2   8   28.09    1.79
   2   2   8   32.92    1.96
  -2   2  -8   32.41    1.62
   3  -2   8    9.53    1.21
   3  -2   8   10.46    0.95
   3  -2   8    9.17    1.07
   3   2   8    9.88    1.27
  -3   2  -8    8.17    1.07
   3   2   8    8.91    1.22
   4  -2   8    4.75    0.88
   4  -2   8    5.17    0.92
   4   2   8    4.47    1.00
  -4   2  -8    4.39    0.85
   4   2   8    6.08    1.03
  -5  -2  -8    5.29    1.14
   5  -2   8    5.47    1.03
   5  -2   8    4.42    0.89
   5   2   8    6.03    1.14
  -5   2  -8    3.25    0.88
   5   2   8    4.04    0.94
   6  -2   8    1.94    0.72
   6   2   8    0.59    0.68
  -6   2  -8    1.53    0.75
   6   2   8    1.09    0.75
   7  -2   8    7.77    1.45
  -7  -2  -8    6.97    1.23
   7   2   8   10.15    1.61
   7   2   8    7.69    1.30
  -8  -3   8    0.05    0.55
   8  -3  -8    0.24    0.58
  -8   3   8   -0.01    0.56
   7  -3  -8    4.00    0.99
  -7  -3   8    3.04    1.01
  -7   3   8    3.48    0.86
  -6  -3   8    9.78    1.47
   6  -3  -8   13.75    1.55
  -6   3   8   15.98    1.72
   5  -3  -8    1.77    0.59
  -5  -3   8    1.47    0.63
  -5   3   8    1.55    0.69
  -4  -3   8    8.78    1.32
  -4   3   8    9.43    1.31
  -3  -3   8    0.21    0.48
  -3   3   8    0.04    0.45
  -3   3   8    0.31    0.37
  -2  -3   8   15.26    1.51
  -2   3   8   18.46    1.43
  -2   3   8   17.69    1.66
  -1  -3   8   12.33    1.32
  -1  -3   8   12.56    0.50
  -1   3   8   11.57    1.41
  -1   3   8   13.48    1.43
   0  -3   8    6.42    0.94
   0  -3   8    3.82    0.47
   0   3   8    5.43    0.99
   0   3   8    3.80    0.83
   1  -3   8   50.74    2.49
   1  -3   8   56.53    2.11
   1  -3   8   52.27    2.30
   1   3   8   55.45    2.71
   1   3   8   56.69    2.80
  -1   3  -8   50.54    1.94
   2  -3   8   44.77    1.95
   2  -3   8   44.53    2.01
   2  -3   8   46.28    2.32
  -2   3  -8   42.92    1.92
   2   3   8   46.01    2.45
   2   3   8   44.99    2.47
   3  -3   8   14.66    1.04
   3  -3   8   18.06    1.61
   3  -3   8   15.22    1.39
   3   3   8   14.46    1.65
  -3   3  -8   14.35    1.14
   3   3   8   12.64    1.57
   4  -3   8   25.27    1.73
   4  -3   8   28.59    1.80
   4   3   8   29.54    2.01
  -4   3  -8   28.44    1.80
   4   3   8   29.65    2.05
   5  -3   8    2.07    0.78
   5  -3   8    1.77    0.71
   5   3   8    1.87    0.72
   5   3   8    2.51    0.79
  -5   3  -8    3.19    0.82
   6  -3   8    9.76    1.47
   6   3   8    7.71    1.38
   6   3   8    6.94    1.29
  -6   3  -8    7.80    1.31
  -7  -4   8    3.52    1.11
   7  -4  -8    1.05    0.78
  -7   4   8    2.59    0.81
  -6  -4   8    0.05    0.46
   6  -4  -8    0.87    0.65
  -6   4   8   -0.20    0.48
  -5  -4   8    1.78    0.83
   5  -4  -8    1.86    0.72
  -5   4   8    1.18    0.66
  -4  -4   8    1.27    0.60
  -4   4   8    1.22    0.65
  -3  -4   8    3.82    0.91
  -3   4   8    4.12    0.92
  -3   4   8    6.67    1.10
  -2  -4   8   -0.08    0.44
  -2   4   8   -0.21    0.51
  -2   4   8    0.07    0.45
  -1  -4   8    1.04    0.53
  -1   4   8    0.30    0.55
  -1   4   8    0.59    0.44
   0  -4   8    2.03    0.63
   0   4   8    1.42    0.60
   0   4   8    1.06    0.67
   1  -4   8   -0.23    0.33
   1  -4   8   -0.30    0.24
   1   4   8   -0.68    0.25
   1   4   8   -0.01    0.41
   2  -4   8   -0.32    0.34
   2  -4   8    0.59    0.48
   2  -4   8   -0.10    0.33
   2   4   8   -0.06    0.45
   2   4   8    0.23    0.44
   3  -4   8    0.23    0.39
   3  -4   8    0.56    0.59
   3   4   8    0.80    0.51
   3   4   8    0.90    0.66
   4  -4   8    3.63    0.84
   4  -4   8    2.54    0.75
  -4   4  -8    2.34    1.06
   4   4   8    1.85    0.88
   4   4   8    3.79    0.93
   5  -4   8    1.47    0.76
   5  -4   8    0.53    0.62
   5   4   8    1.38    0.69
   5   4   8    0.47    0.79
   6  -4   8    2.03    0.94
   6   4   8    2.11    0.92
   6   4   8    1.13    0.91
  -6  -5   8    8.55    1.54
   6  -5  -8    3.86    0.93
  -6   5   8    5.87    1.20
  -5  -5   8    5.83    1.23
   5  -5  -8    6.59    1.21
  -5   5   8    5.53    1.12
  -4  -5   8    9.45    1.42
  -4   5   8   11.29    1.53
  -3  -5   8    2.06    0.72
  -3   5   8    1.73    0.76
  -2  -5   8    9.86    1.34
  -2   5   8    7.16    1.18
  -2   5   8    7.79    1.26
  -1  -5   8   10.41    1.30
  -1   5   8   15.13    1.78
  -1   5   8   12.76    1.63
   0  -5   8    0.62    0.51
   0   5   8    0.34    0.58
   0   5   8    0.38    0.58
   1  -5   8   21.58    1.42
   1   5   8   24.37    2.35
   1   5   8   22.19    2.15
   2  -5   8   12.87    1.50
   2   5   8   14.37    1.74
   2   5   8   13.69    1.75
   3  -5   8    4.29    0.97
   3  -5   8    4.91    0.87
   3   5   8    5.88    1.28
   3   5   8    4.72    1.03
   4  -5   8   38.48    2.18
   4  -5   8   44.69    2.41
   4   5   8   35.87    2.56
   4   5   8   38.50    2.67
   5  -5   8    0.34    0.63
   5   5   8    0.91    0.79
   5   5   8   -0.10    0.78
   5  -6  -8    6.77    1.29
  -5  -6   8    6.26    1.40
  -5   6   8    8.94    1.44
  -4  -6   8    0.94    0.75
  -4   6   8    1.63    0.84
  -3  -6   8    1.98    0.86
  -3   6   8    2.35    0.89
  -2  -6   8    4.83    1.03
  -2   6   8    4.53    1.09
  -2   6   8    4.44    1.01
  -1  -6   8   -0.43    0.54
  -1   6   8    0.66    0.65
  -1   6   8   -0.09    0.37
   0  -6   8    5.33    0.99
   0   6   8    5.50    1.16
   0   6   8    4.68    1.12
   1   6   8   -0.71    0.50
   1   6   8   -0.66    0.34
   2   6   8    0.14    0.74
   2   6   8    0.73    0.66
   3  -6   8    4.04    0.97
   3   6   8    4.19    1.26
   3   6   8    2.97    0.90
  -2  -7   8    1.65    0.81
  -2   7   8    3.02    0.99
  -1   7   8   -0.59    0.63
  -1   7   8    0.05    0.44
   0   7   8    1.00    0.69
   0   7   8    0.35    0.59
  -8   0   9   -0.27    0.37
  -7   0   9   -0.42    0.31
   7   0  -9   -0.08    0.32
   6   0  -9    0.19    0.38
  -6   0   9   -0.28    0.53
  -5   0   9    0.13    0.34
   5   0  -9   -0.12    0.29
  -5   0   9    0.48    0.42
   4   0  -9    0.28    0.30
  -4   0   9    0.25    0.38
  -4   0   9   -0.23    0.44
   4   0  -9    0.23    0.28
  -3   0   9   -0.13    0.28
   3   0  -9    0.22    0.31
  -3   0   9    0.11    0.36
  -2   0   9   -0.06    0.40
  -2   0   9    0.21    0.41
  -2   0   9    0.07    0.27
  -1   0   9    0.42    0.46
  -1   0   9    0.10    0.28
  -1   0   9   -0.31    0.34
   0   0   9   -0.15    0.27
   0   0   9    0.20    0.35
   0   0   9   -0.32    0.33
   1   0   9    0.09    0.37
   1   0   9   -0.27    0.35
   1   0   9   -0.35    0.32
   2   0   9    0.14    0.46
   2   0   9   -0.04    0.32
   2   0   9   -0.32    0.33
   3   0   9   -0.30    0.31
   3   0   9    0.46    0.50
  -3   0  -9   -0.03    0.39
   3   0   9   -0.02    0.29
  -4   0  -9   -0.04    0.39
   4   0   9   -0.51    0.39
   4   0   9   -0.18    0.44
   5   0   9   -0.35    0.32
   5   0   9   -0.25    0.39
  -5   0  -9   -0.45    0.47
   6   0   9   -0.03    0.46
  -6   0  -9   -0.32    0.39
  -8  -1   9   13.57    1.92
   8  -1  -9   16.29    1.63
  -8   1   9   13.75    1.82
   7  -1  -9    0.61    0.47
  -7  -1   9   -0.54    0.51
  -7   1   9   -0.38    0.36
  -6  -1   9   26.51    2.05
   6  -1  -9   27.74    1.68
  -6   1   9   26.89    1.52
  -6   1   9   29.73    2.07
  -5  -1   9   28.20    1.98
   5  -1  -9   31.20    1.71
  -5   1   9   27.42    1.92
  -5   1   9   27.93    1.57
   5   1  -9   28.99    1.34
  -4  -1   9    2.10    0.76
  -4   1   9    2.11    0.64
   4   1  -9    3.20    0.55
  -4   1   9    2.95    0.63
   4   1  -9    2.92    0.45
  -3  -1   9   79.03    3.45
  -3   1   9   75.81    3.02
  -3   1   9   79.55    3.46
  -3   1   9   83.46    3.16
   3   1  -9   77.41    2.72
  -2  -1   9   29.47    1.72
  -2  -1   9   29.51    1.32
  -2  -1   9   28.79    1.78
  -2   1   9   28.77    1.81
  -2   1   9   26.71    1.60
  -2   1   9   27.64    1.58
  -1  -1   9   39.48    2.10
  -1  -1   9   42.05    1.72
  -1  -1   9   42.65    2.13
  -1   1   9   38.53    2.01
  -1   1   9   38.78    1.95
  -1   1   9   40.46    2.19
   0  -1   9   54.78    2.49
   0  -1   9   46.58    2.31
   0  -1   9   48.49    2.08
   0   1   9   50.47    2.34
   0   1   9   49.72    2.50
   0   1   9   52.70    2.44
   1  -1   9    1.23    0.54
   1  -1   9    1.03    0.41
   1  -1   9    0.94    0.49
   1   1   9    2.14    0.63
  -1   1  -9    1.45    0.44
   1   1   9    1.16    0.52
   1   1   9    0.73    0.53
   2  -1   9   27.70    1.76
   2  -1   9   28.45    1.62
   2  -1   9   28.47    1.63
  -2   1  -9   28.98    1.64
   2   1   9   26.28    1.71
   2   1   9   28.34    1.77
   3  -1   9    0.07    0.40
   3  -1   9    0.50    0.56
   3  -1   9    0.73    0.49
   3   1   9    0.16    0.36
   3   1   9    0.77    0.54
  -3   1  -9    0.71    0.51
   4  -1   9    5.87    0.87
   4  -1   9    4.88    0.97
   4  -1   9    3.94    0.84
  -4  -1  -9    6.55    1.18
   4   1   9    3.79    0.89
  -4   1  -9    4.21    0.92
   4   1   9    5.56    1.04
   5  -1   9    2.79    0.84
  -5  -1  -9    3.11    0.96
   5   1   9    3.87    0.96
  -5   1  -9    5.91    1.16
   5   1   9    5.54    1.00
   6  -1   9    1.68    0.80
  -6   1  -9    1.17    0.72
   6   1   9    2.44    0.81
   6   1   9    0.73    0.77
  -8  -2   9    3.61    1.12
   8  -2  -9    2.34    0.79
  -8   2   9    0.97    0.73
  -7  -2   9    8.03    1.45
   7  -2  -9    8.10    1.20
  -7   2   9    6.63    1.21
   6  -2  -9    4.10    0.87
  -6  -2   9    5.75    1.19
  -6   2   9    5.93    1.16
   5  -2  -9    3.34    0.79
  -5  -2   9    5.11    1.04
  -5   2   9    4.65    0.72
  -5   2   9    4.70    0.94
  -4  -2   9    2.94    0.89
  -4   2   9    1.24    0.47
  -4   2   9    2.55    0.67
  -3  -2   9   -0.64    0.36
  -3   2   9   -0.61    0.24
  -3   2   9   -0.05    0.28
  -3   2   9    0.18    0.49
  -2  -2   9    1.39    0.59
  -2   2   9    1.29    0.65
  -2   2   9    1.46    0.53
  -2   2   9    2.09    0.56
   2   2  -9    2.19    0.22
  -1  -2   9    1.14    0.58
  -1  -2   9    0.58    0.43
  -1  -2   9    0.87    0.28
  -1   2   9    0.86    0.51
   1   2  -9    0.49    0.19
  -1   2   9    0.40    0.42
  -1   2   9    0.60    0.48
   0  -2   9    0.56    0.50
   0  -2   9    1.05    0.50
   0  -2   9    1.36    0.40
   0   2   9    0.12    0.49
   0   2  -9    1.06    0.30
   0   2   9    0.62    0.40
   1  -2   9   36.88    1.70
   1  -2   9   35.36    2.01
   1  -2   9   33.56    1.83
   1   2   9   34.84    2.08
  -1   2  -9   35.15    1.61
   1   2   9   36.51    2.07
   2  -2   9    0.98    0.54
   2  -2   9    0.91    0.44
   2  -2   9    0.54    0.44
   2   2   9    0.84    0.58
  -2   2  -9    0.34    0.36
   2   2   9   -0.29    0.39
   3  -2   9   34.35    1.84
   3  -2   9   29.06    1.88
   3  -2   9   29.69    1.58
   3   2   9   29.26    1.98
   3   2   9   29.13    1.93
  -3   2  -9   29.74    1.77
   4  -2   9    6.35    1.05
   4  -2   9    3.12    0.83
   4   2   9    3.68    0.93
   4   2   9    6.58    1.11
  -4   2  -9    5.58    1.00
   5  -2   9   -0.08    0.50
  -5  -2  -9    0.16    0.61
   5  -2   9    0.00    0.60
   5   2   9    0.43    0.61
  -5   2  -9    0.01    0.50
   5   2   9   -0.83    0.47
   6  -2   9    9.87    1.45
   6   2   9    6.49    1.26
  -6   2  -9    6.70    1.29
   6   2   9    7.05    1.31
   7  -3  -9    0.16    0.59
  -7  -3   9    0.45    0.74
  -7   3   9    1.05    0.69
  -6  -3   9    0.91    0.77
   6  -3  -9    1.97    0.75
  -6   3   9    2.20    0.82
  -5  -3   9    0.79    0.59
   5  -3  -9    3.03    0.77
  -5   3   9    2.65    0.85
  -4  -3   9    0.35    0.48
  -4   3   9    0.41    0.56
  -3  -3   9   33.53    2.12
  -3   3   9   33.69    2.03
  -3   3   9   33.69    2.11
  -2  -3   9   11.92    1.41
  -2   3   9   11.41    1.44
  -2   3   9   12.69    1.47
  -1  -3   9   33.16    1.97
  -1   3   9   36.49    2.24
  -1   3   9   34.84    2.08
   0  -3   9   10.73    0.72
   0  -3   9    7.50    1.05
   0   3   9   10.56    1.29
   0   3   9   10.88    1.41
   1  -3   9   14.04    1.33
   1  -3   9   13.03    0.93
   1  -3   9   11.24    1.35
   1   3   9   13.06    1.54
   1   3   9   13.24    1.58
   2  -3   9    4.09    0.72
   2  -3   9    3.42    0.77
   2  -3   9    5.71    0.79
   2   3   9    5.25    1.08
  -2   3  -9    3.92    0.62
   2   3   9    4.02    0.98
   3  -3   9    1.42    0.64
   3  -3   9    0.06    0.47
  -3   3  -9    1.25    0.51
   3   3   9    0.49    0.63
   3   3   9    1.20    0.59
   4  -3   9    0.16    0.56
   4  -3   9    0.23    0.50
  -4   3  -9    0.01    0.38
   4   3   9   -0.57    0.50
   4   3   9    0.41    0.62
   5  -3   9    4.39    1.03
   5  -3   9    4.02    0.94
   5   3   9    3.46    1.05
   5   3   9    4.16    1.06
  -5   3  -9    4.72    0.98
   6   3   9    1.04    0.84
  -6   3  -9    2.76    1.49
   7  -4  -9   21.54    2.18
  -7  -4   9   16.90    2.09
  -7   4   9   20.92    2.09
  -6  -4   9    1.14    0.74
   6  -4  -9    2.16    0.85
  -6   4   9    1.40    0.78
   5  -4  -9    0.53    0.61
  -5  -4   9    0.18    0.69
  -5   4   9    0.18    0.53
  -4  -4   9   10.97    1.52
  -4   4   9   10.42    1.47
  -3  -4   9   -0.08    0.38
  -3   4   9    0.14    0.40
  -3   4   9    0.88    0.52
  -2  -4   9   23.38    1.74
  -2   4   9   24.64    2.17
  -2   4   9   25.04    2.28
  -1  -4   9   15.71    1.59
  -1   4   9   15.40    1.80
  -1   4   9   17.29    1.84
   0  -4   9   32.59    1.90
   0   4   9   27.14    2.09
   0   4   9   32.53    2.11
   1  -4   9    4.96    0.85
   1  -4   9    5.69    1.05
   1   4   9    6.54    1.18
   1   4   9    3.82    0.96
   2  -4   9    0.86    0.60
   2  -4   9    0.67    0.43
   2   4   9    0.27    0.47
   2   4   9   -0.26    0.41
   3  -4   9    1.82    0.67
   3  -4   9    1.35    0.72
   3   4   9    2.43    0.90
   3   4   9    2.99    0.91
   4  -4   9   32.40    1.99
   4  -4   9   33.91    2.14
   4   4   9   30.34    2.72
   4   4   9   34.67    2.48
   5  -4   9    2.34    0.81
   5  -4   9    2.65    0.89
   5   4   9    4.90    1.15
   5   4   9    3.06    1.06
  -6  -5   9    3.01    1.09
   6  -5  -9    1.06    0.79
  -6   5   9    0.77    0.72
  -5  -5   9    1.08    0.84
   5  -5  -9    1.42    0.72
  -5   5   9    0.88    0.74
  -4  -5   9    2.37    0.96
  -4   5   9    2.05    0.82
  -3  -5   9    6.98    1.29
  -3   5   9    8.90    1.42
  -2  -5   9    0.14    0.51
  -2   5   9    0.68    0.63
  -2   5   9    0.20    0.66
  -1  -5   9    0.46    0.54
  -1   5   9    0.33    0.52
  -1   5   9    0.66    0.57
   0  -5   9    2.37    0.74
   0   5   9    2.18    0.80
   0   5   9    3.12    0.90
   1   5   9   -0.18    0.44
   1   5   9   -0.13    0.46
   2  -5   9    3.16    0.92
   2   5   9    3.75    1.11
   2   5   9    3.09    0.97
   3  -5   9    1.75    0.79
   3   5   9    2.10    1.02
   3   5   9    1.00    0.83
   4  -5   9    1.98    0.76
   4   5   9    0.91    0.73
   4   5   9    1.49    0.78
  -4  -6   9   -0.05    0.65
  -4   6   9   -0.09    0.66
  -3  -6   9    6.50    1.26
  -3   6   9    3.85    1.08
  -2  -6   9    1.16    0.75
  -2   6   9    2.89    1.01
  -2   6   9    2.56    1.02
  -1  -6   9    0.29    0.65
  -1   6   9    0.22    0.74
  -1   6   9    0.64    0.75
   0   6   9    5.13    1.21
   0   6   9    4.39    1.11
   1   6   9    9.57    1.66
   1   6   9   13.47    1.84
   2  -6   9    1.17    0.75
   2   6   9    0.42    0.57
   2   6   9   -0.25    0.63
  -8   0  10    0.63    0.67
  -7   0  10    0.32    0.52
  -7   0  10   -0.09    0.68
  -6   0  10    7.39    1.07
   6   0 -10    7.10    0.92
  -6   0  10    5.87    1.17
   5   0 -10    2.10    0.50
  -5   0  10    1.22    0.62
  -5   0  10    1.64    0.62
  -4   0  10  145.17    5.03
  -4   0  10  130.99    5.32
   4   0 -10  144.32    4.66
   3   0 -10    6.59    0.86
  -3   0  10    6.57    1.13
  -3   0  10    5.44    0.93
  -2   0  10   35.63    2.03
  -2   0  10   38.08    1.82
  -2   0  10   41.55    2.30
  -1   0  10   30.42    1.78
  -1   0  10   29.26    1.57
  -1   0  10   26.37    1.78
   0   0  10   17.19    1.66
   0   0  10   19.09    1.29
   0   0  10   17.81    1.69
   1   0  10   24.39    1.56
   1   0  10   18.92    1.79
   1   0  10   26.20    1.71
   2   0  10    3.63    0.87
   2   0  10    5.47    0.91
   2   0  10    5.07    0.94
   3   0  10   11.16    1.39
  -3   0 -10   11.67    1.44
   3   0  10   11.36    1.48
   3   0  10   11.89    1.39
   4   0  10   13.25    1.58
  -4   0 -10   16.94    1.84
   4   0  10   12.76    1.43
   5   0  10    2.14    0.87
  -5   0 -10    2.14    0.87
   6   0  10    8.15    1.49
  -8  -1  10    0.38    0.61
   8  -1 -10    0.81    0.99
  -8   1  10    0.76    0.77
  -7  -1  10    0.05    0.66
   7  -1 -10    0.39    0.47
  -7   1  10    0.10    0.66
  -6  -1  10    0.58    0.69
   6  -1 -10    0.62    0.46
  -6   1  10   -0.04    0.40
  -6   1  10    0.59    0.65
  -5  -1  10    4.37    1.05
   5  -1 -10    4.64    0.84
  -5   1  10    4.17    0.96
  -5   1  10    4.34    0.82
  -4  -1  10   -0.31    0.49
  -4   1  10    0.14    0.37
  -4   1  10    0.09    0.42
  -3  -1  10   34.41    2.17
  -3  -1  10   33.94    1.96
  -3   1  10   35.12    2.18
  -3   1  10   32.76    1.80
  -3   1  10   30.50    1.81
  -2  -1  10    2.02    0.46
  -2  -1  10    1.73    0.68
  -2  -1  10    1.76    0.62
  -2   1  10    1.39    0.65
  -2   1  10    2.74    0.65
  -2   1  10    2.14    0.66
  -1  -1  10   -0.14    0.42
  -1  -1  10    0.31    0.43
  -1  -1  10    0.51    0.34
  -1   1  10    0.60    0.45
  -1   1  10    0.57    0.45
  -1   1  10    0.77    0.52
   0  -1  10    1.53    0.45
   0  -1  10    1.44    0.53
   0  -1  10    1.79    0.59
   0   1  10    1.78    0.60
   0   1  10    0.58    0.55
   0   1  10    1.52    0.62
   1  -1  10   -0.56    0.36
   1  -1  10    0.27    0.36
   1  -1  10   -0.59    0.37
   1   1  10   -0.21    0.29
   1   1  10    0.35    0.53
   1   1  10    0.04    0.43
  -1   1 -10    0.04    0.33
   2  -1  10    0.98    0.57
   2  -1  10    0.57    0.56
   2  -1  10    2.19    0.61
   2   1  10    2.18    0.70
  -2   1 -10    1.24    0.51
   2   1  10    1.38    0.64
   3  -1  10   -0.43    0.46
   3  -1  10   -0.15    0.42
   3  -1  10    0.30    0.43
   3   1  10    0.17    0.47
   3   1  10   -0.13    0.43
  -3   1 -10   -0.38    0.33
   4  -1  10    0.29    0.52
  -4  -1 -10    0.32    0.53
   4  -1  10   -0.04    0.54
   4  -1  10    0.59    0.64
   4   1  10    1.04    0.62
   4   1  10    0.58    0.59
  -4   1 -10    1.58    0.68
   5  -1  10    4.89    1.08
  -5  -1 -10    5.32    1.18
   5   1  10    4.81    1.10
   5   1  10    3.84    0.91
  -5   1 -10    4.34    1.06
  -7  -2  10    0.98    0.83
   7  -2 -10    1.25    0.65
  -7   2  10    1.66    0.84
  -6  -2  10   10.07    1.53
   6  -2 -10   11.27    1.37
  -6   2  10   13.87    1.74
   5  -2 -10   -0.07    0.40
  -5  -2  10    0.10    0.49
  -5   2  10   -0.30    0.35
  -5   2  10   -0.23    0.54
  -4  -2  10    4.32    1.09
  -4   2  10    6.48    1.09
  -4   2  10    6.34    0.92
  -3  -2  10   10.27    1.44
  -3   2  10   10.71    1.47
  -3   2  10   10.57    1.24
  -3   2  10   15.74    1.48
  -2  -2  10    4.83    0.99
  -2   2  10    5.75    0.97
  -2   2  10    4.22    0.99
  -2   2  10    4.51    0.84
  -1  -2  10   23.81    1.68
  -1  -2  10   24.22    1.14
  -1  -2  10   21.25    1.57
  -1   2  10   25.53    1.67
  -1   2  10   23.08    1.64
  -1   2  10   21.04    2.00
   0  -2  10    0.39    0.35
   0  -2  10   -0.26    0.47
   0  -2  10   -0.03    0.39
   0   2 -10    0.26    0.24
   0   2  10   -0.49    0.42
   0   2  10   -0.04    0.34
   1  -2  10   15.27    1.48
   1  -2  10   19.07    1.77
   1  -2  10   18.32    1.18
   1   2  10   15.31    1.63
   1   2  10   19.31    1.87
  -1   2 -10   16.42    1.07
   2  -2  10   29.31    1.63
   2  -2  10   25.59    1.83
   2  -2  10   24.36    1.57
   2   2  10   25.75    1.83
   2   2  10   26.59    1.95
   3  -2  10    8.34    1.15
   3  -2  10    8.27    1.26
   3  -2  10    9.71    1.11
  -3   2 -10   10.81    1.27
   3   2  10    7.11    1.26
   3   2  10    9.09    1.40
   4  -2  10    4.65    0.95
   4  -2  10    6.45    1.16
  -4   2 -10    7.74    1.20
   4   2  10    7.42    1.28
   4   2  10    6.65    1.16
   5  -2  10    2.42    0.85
   5  -2  10    4.35    1.06
  -5   2 -10    2.97    0.92
   5   2  10    3.82    1.05
   5   2  10    1.54    0.80
  -7  -3  10    5.70    1.27
   7  -3 -10    5.72    1.16
  -7   3  10    5.91    1.30
  -6  -3  10    0.98    0.77
   6  -3 -10    1.15    0.67
  -6   3  10    0.46    0.64
   5  -3 -10   16.37    1.72
  -5  -3  10   16.91    1.94
  -5   3  10   16.43    1.88
  -4  -3  10    0.12    0.48
  -4   3  10   -0.39    0.55
  -3  -3  10    3.68    0.88
  -3   3  10    3.66    0.96
  -3   3  10    2.96    0.84
  -2  -3  10    0.11    0.51
  -2   3  10   -0.61    0.41
  -2   3  10    0.84    0.67
  -1  -3  10   18.30    1.75
  -1   3  10   18.25    1.77
  -1   3  10   16.81    1.84
   0  -3  10    7.68    1.13
   0  -3  10    5.25    1.00
   0   3  10    4.37    0.99
   0   3  10    6.29    1.14
   1  -3  10   -0.13    0.46
   1  -3  10    0.53    0.39
   1  -3  10    1.07    0.56
   1   3  10    0.89    0.57
   1   3  10    0.56    0.57
   2  -3  10   18.76    1.84
   2  -3  10   20.77    1.42
   2  -3  10   21.82    1.41
   2   3  10   23.24    2.25
   2   3  10   17.94    1.90
   3  -3  10   20.61    1.77
   3  -3  10   20.16    2.00
   3   3  10   20.78    2.19
   3   3  10   21.03    2.14
   4  -3  10   -0.10    0.58
   4  -3  10    1.61    0.74
   4   3  10    0.95    0.76
   4   3  10    0.87    0.75
   5  -3  10    4.63    1.08
   5  -3  10    6.08    1.21
   5   3  10    5.75    1.23
   5   3  10    7.12    1.41
  -6  -4  10    2.53    0.90
   6  -4 -10    1.43    0.79
  -6   4  10    1.41    0.83
  -5  -4  10    0.28    0.71
   5  -4 -10    0.25    0.54
  -5   4  10    0.98    0.75
  -4  -4  10   -0.19    0.59
  -4   4  10    0.56    0.57
  -3  -4  10    0.79    0.77
  -3   4  10    1.36    0.66
  -3   4  10    1.12    0.71
  -2  -4  10    0.48    0.56
  -2   4  10    0.63    0.59
  -2   4  10    0.20    0.66
  -1  -4  10    1.46    0.64
  -1   4  10    1.77    0.84
  -1   4  10    2.12    0.82
   0  -4  10    2.49    0.75
   0   4  10    3.06    0.97
   0   4  10    2.20    0.87
   1  -4  10    0.62    0.47
   1  -4  10    0.33    0.60
   1   4  10   -0.24    0.56
   1   4  10    0.45    0.67
   2  -4  10    0.01    0.59
   2   4  10    0.84    0.80
   2   4  10   -0.25    0.62
   3  -4  10    1.30    0.72
   3   4  10    1.07    0.67
   3   4  10    1.04    0.67
   4  -4  10    3.57    0.98
   4  -4  10    2.05    0.77
   4   4  10    3.54    1.12
   4   4  10    2.72    0.93
   5  -5 -10    2.91    0.85
  -5  -5  10    2.32    1.06
  -5   5  10    2.93    1.02
  -4  -5  10   -0.32    0.64
  -4   5  10   -0.06    0.64
  -3  -5  10    6.89    1.34
  -3   5  10    5.43    1.18
  -3   5  10    4.84    1.08
  -2  -5  10    2.36    0.86
  -2   5  10    1.75    0.88
  -2   5  10    3.04    1.02
  -1  -5  10    2.12    0.77
  -1   5  10    2.40    0.94
  -1   5  10    2.93    0.90
   0  -5  10    5.59    1.07
   0   5  10    5.73    1.19
   0   5  10    6.56    1.39
   1  -5  10    0.08    0.55
   1   5  10   -1.29    0.55
   1   5  10   -0.85    0.58
   2  -5  10    9.08    1.42
   2   5  10    7.07    1.48
   2   5  10    4.34    1.23
   3  -5  10    7.28    1.33
   3   5  10   11.27    1.76
   3   5  10   11.22    1.79
  -2  -6  10    1.99    0.86
  -2   6  10    1.22    0.97
  -2   6  10    2.62    0.91
  -1  -6  10   11.96    1.78
  -1   6  10    8.98    1.64
  -1   6  10   16.41    2.06
   0   6  10   -0.03    0.74
   0   6  10    0.57    0.69
  -7   0  11   -0.01    0.73
  -6   0  11   -0.52    0.39
  -6   0  11    0.50    0.54
  -5   0  11   -0.48    0.41
  -5   0  11    0.00    0.57
  -4   0  11    0.32    0.50
  -4   0  11   -0.61    0.43
  -3   0  11    0.75    0.53
  -3   0  11   -0.03    0.51
  -2   0  11    0.40    0.57
  -2   0  11    0.42    0.50
  -2   0  11   -0.11    0.37
  -1   0  11   -0.34    0.41
  -1   0  11   -0.02    0.36
  -1   0  11   -0.36    0.43
   0   0  11   -0.13    0.34
   0   0  11    0.67    0.45
   0   0  11   -0.03    0.46
   1   0  11    0.23    0.42
   1   0  11   -0.42    0.42
   1   0  11   -0.35    0.46
  -2   0 -11    0.03    0.37
   2   0  11    0.17    0.47
   2   0  11   -0.05    0.50
   2   0  11    0.71    0.64
   3   0  11   -0.25    0.42
   3   0  11   -0.31    0.44
  -3   0 -11   -0.06    0.45
   3   0  11    0.21    0.57
   4   0  11    0.33    0.57
   4   0  11   -0.87    0.42
  -4   0 -11   -0.36    0.47
   5   0  11   -0.28    0.42
  -7  -1  11    6.43    1.45
  -7   1  11    5.66    1.29
  -6  -1  11    2.61    0.93
   6  -1 -11    2.58    0.72
  -6   1  11    2.30    0.66
  -6   1  11    2.59    0.96
  -5  -1  11    6.00    1.28
   5  -1 -11    8.40    1.10
  -5  -1  11    6.79    1.09
  -5   1  11    7.52    1.36
  -5   1  11    7.29    1.09
  -4  -1  11   10.75    1.52
  -4  -1  11   10.30    1.33
  -4   1  11   10.30    1.27
  -4   1  11   10.44    1.49
  -3  -1  11    3.62    0.87
  -3  -1  11    3.01    0.82
  -3   1  11    2.06    0.65
  -3   1  11    2.74    0.71
  -3   1  11    2.18    0.71
  -2  -1  11   31.22    1.96
  -2  -1  11   29.24    1.95
  -2  -1  11   28.69    1.46
  -2   1  11   32.90    2.15
  -2   1  11   25.12    1.67
  -2   1  11   30.85    1.88
  -1  -1  11   46.64    2.56
  -1  -1  11   52.97    2.18
  -1  -1  11   48.90    2.65
  -1   1  11   49.78    2.70
  -1   1  11   50.60    2.57
  -1   1  11   49.82    2.44
   0  -1  11   12.76    1.50
   0  -1  11   11.61    1.19
   0  -1  11   16.08    1.69
   0   1  11   13.87    1.61
   0   1  11   13.60    1.45
   0   1  11   14.08    1.55
   1  -1  11   62.04    2.68
   1  -1  11   61.79    2.89
   1  -1  11   55.36    2.87
   1   1  11   57.96    2.85
   1   1  11   62.91    3.04
  -1   1 -11   57.52    2.56
   1   1  11   56.64    2.98
   2  -1  11   -0.28    0.54
   2  -1  11    0.32    0.55
   2  -1  11    0.14    0.45
   2   1  11   -0.27    0.49
  -2   1 -11   -0.18    0.40
   2   1  11    0.29    0.54
   3  -1  11   11.38    1.34
   3  -1  11   13.12    1.50
   3  -1  11   12.09    1.58
  -3   1 -11   10.88    1.37
   3   1  11   10.58    1.44
   3   1  11   11.60    1.50
  -4  -1 -11    5.78    1.22
   4  -1  11    4.81    1.01
   4  -1  11    5.07    1.09
   4   1  11    5.19    1.11
  -4   1 -11    4.42    1.01
   4   1  11    4.88    1.09
   5  -1  11    0.48    0.64
   5   1  11   -0.04    0.55
   5   1  11    0.37    0.55
  -5   1 -11   -0.71    0.58
   7  -2 -11    1.31    0.76
  -7  -2  11    1.03    0.93
  -7   2  11    2.21    0.92
  -6  -2  11    8.06    1.51
   6  -2 -11    6.79    1.07
  -6   2  11    8.00    1.44
  -5  -2  11   10.43    1.61
   5  -2 -11   10.67    1.32
  -5   2  11    9.87    1.54
  -5   2  11   12.61    1.33
  -4  -2  11    0.01    0.64
  -4   2  11    0.57    0.47
  -4   2  11    0.58    0.63
  -3  -2  11    3.22    0.98
  -3   2  11    3.27    0.79
  -3   2  11    2.47    0.90
  -3   2  11    2.02    0.67
  -2  -2  11    2.71    0.86
  -2  -2  11    2.80    0.74
  -2   2  11    3.87    0.87
  -2   2  11    3.55    0.95
  -2   2  11    3.72    0.88
  -1  -2  11    5.90    1.08
  -1  -2  11    6.59    1.14
  -1   2  11    6.28    1.13
  -1   2  11    6.33    1.07
  -1   2  11    5.13    1.12
   0  -2  11    9.21    1.30
   0  -2  11    8.60    1.25
   0  -2  11   10.97    1.17
   0   2  11    6.84    1.09
   0   2  11   10.81    1.52
   1  -2  11    5.10    0.97
   1  -2  11    6.08    0.88
   1  -2  11    5.92    1.14
   1   2  11    5.42    1.07
   1   2  11    3.87    1.02
   2  -2  11   18.23    1.90
   2  -2  11   18.23    1.72
   2  -2  11   19.51    1.69
   2   2  11   19.33    1.95
   2   2  11   16.28    1.92
   3  -2  11    0.55    0.65
   3  -2  11    0.58    0.54
   3   2  11    1.24    0.76
   3   2  11    0.23    0.64
   4  -2  11    0.40    0.66
   4  -2  11   -0.08    0.64
   4   2  11    1.20    0.70
   4   2  11    0.17    0.52
   6  -3 -11    2.06    0.82
  -6  -3  11    2.40    0.89
  -6   3  11    1.51    0.90
   5  -3 -11    0.18    0.51
  -5  -3  11   -0.42    0.59
  -5   3  11    0.31    0.69
  -4  -3  11    2.78    0.90
  -4   3  11    2.07    0.88
  -3  -3  11   -0.37    0.37
  -3   3  11    0.01    0.54
  -3   3  11   -0.08    0.57
  -2  -3  11    8.67    1.39
  -2   3  11    9.03    1.35
  -2   3  11    6.77    1.25
  -1  -3  11    5.72    1.08
  -1  -3  11    6.28    1.09
  -1   3  11    5.37    1.10
  -1   3  11    3.99    0.94
   0  -3  11    0.85    0.60
   0  -3  11    0.32    0.62
   0   3  11    0.72    0.65
   0   3  11    0.55    0.65
   1  -3  11    1.66    0.75
   1  -3  11    0.73    0.55
   1   3  11    1.78    0.79
   1   3  11    2.97    0.93
   2  -3  11    2.63    0.90
   2   3  11    3.24    0.94
   2   3  11    3.67    1.00
   3  -3  11    0.70    0.61
   3  -3  11    0.67    0.76
   3   3  11    3.01    0.95
   3   3  11    1.35    0.80
   4  -3  11    7.91    1.23
   4  -3  11    8.43    1.37
   4   3  11    9.89    1.58
   4   3  11    9.36    1.57
   5  -4 -11    6.28    1.23
  -5  -4  11    6.48    1.43
  -5   4  11    6.88    1.40
  -4  -4  11    0.55    0.79
  -4   4  11    1.25    0.82
  -3  -4  11   23.51    2.33
  -3   4  11   22.36    2.35
  -2  -4  11    0.06    0.47
  -2   4  11    1.28    0.76
  -2   4  11    0.42    0.70
  -1  -4  11    5.26    1.11
  -1   4  11    6.67    1.35
  -1   4  11    6.36    1.28
   0  -4  11    3.59    0.98
   0  -4  11    3.87    0.90
   0   4  11    2.90    1.04
   0   4  11    4.21    1.04
   1  -4  11    1.19    0.78
   1   4  11    1.30    0.81
   1   4  11    2.44    0.93
   2  -4  11    3.98    1.06
   2   4  11    2.89    1.00
   2   4  11    3.89    1.09
   3  -4  11    5.63    1.20
   3   4  11    5.74    1.34
   3   4  11    7.75    1.42
  -4  -5  11    8.29    1.54
  -4   5  11   10.55    1.72
  -3  -5  11    3.81    1.15
  -3   5  11    1.94    0.92
  -3   5  11    1.95    0.88
  -2  -5  11    4.70    1.14
  -2   5  11    5.17    1.30
  -2   5  11    5.16    1.30
  -1  -5  11   -0.04    0.59
  -1   5  11    0.21    0.75
  -1   5  11    0.61    0.74
   0  -5  11   -0.28    0.45
   0   5  11    0.32    0.76
   0   5  11    0.10    0.79
   1  -5  11   -0.20    0.68
   1   5  11    0.46    0.61
   1   5  11   -0.55    0.46
  -6   0  12    4.01    0.97
  -6   0  12    4.78    1.17
  -5   0  12    6.92    1.36
  -5   0  12    7.42    1.18
  -4   0  12    1.95    0.74
  -4   0  12    3.17    0.83
  -3   0  12   31.20    2.01
  -3   0  12   28.78    2.17
  -2   0  12    0.80    0.64
  -2   0  12    1.19    0.61
  -2   0  12    0.92    0.48
  -1   0  12    4.62    0.98
  -1   0  12    4.14    1.03
  -1   0  12    4.14    0.83
   0   0  12   16.56    1.56
   0   0  12   17.02    1.87
   0   0  12   15.96    1.74
   1   0  12    9.16    1.37
   1   0  12    8.21    1.29
   1   0  12    9.66    1.30
  -2   0 -12    5.79    1.06
   2   0  12    6.71    1.26
   2   0  12    5.58    1.09
   2   0  12    5.04    1.02
   3   0  12   12.49    1.56
   3   0  12   13.27    1.61
  -3   0 -12    9.48    1.36
  -4   0 -12   -0.12    0.65
   4   0  12    0.58    0.68
  -6  -1  12    1.02    0.92
  -6  -1  12    1.72    0.74
  -6   1  12    2.06    0.81
  -5  -1  12    2.36    0.81
   5  -1 -12    2.15    0.64
  -5  -1  12    1.67    0.89
  -5   1  12    2.16    0.80
  -5   1  12    0.75    0.73
  -4  -1  12   10.93    1.44
  -4  -1  12   11.23    1.68
  -4   1  12   10.98    1.40
  -4   1  12   10.12    1.55
  -3  -1  12    1.49    0.72
  -3  -1  12    1.01    0.75
  -3   1  12    1.57    0.63
  -3   1  12    0.69    0.55
  -3   1  12    0.58    0.65
  -2  -1  12   -0.15    0.50
  -2  -1  12    0.33    0.60
  -2   1  12    0.01    0.46
  -2   1  12    0.27    0.64
  -2   1  12   -0.06    0.50
  -1  -1  12   -0.29    0.48
  -1  -1  12   -0.21    0.52
  -1   1  12   -0.51    0.48
  -1   1  12    0.26    0.62
  -1   1  12    0.07    0.45
   0  -1  12    4.64    1.03
   0  -1  12    3.83    0.81
   0  -1  12    4.32    1.00
   0   1  12    3.20    0.86
   0   1  12    4.26    0.98
   0   1  12    3.83    1.01
   1  -1  12    2.57    0.76
   1  -1  12    1.98    0.81
   1  -1  12    1.40    0.71
   1   1  12    1.94    0.75
   1   1  12    2.21    0.82
   1   1  12    1.68    0.69
   2  -1  12    1.40    0.66
   2  -1  12    1.07    0.75
   2  -1  12    1.60    0.71
   2   1  12    1.78    0.86
   2   1  12    0.03    0.61
  -3  -1 -12    0.70    0.69
   3  -1  12    1.78    0.86
   3  -1  12    1.67    0.70
   3  -1  12    2.07    0.83
   3   1  12    1.87    0.85
   3   1  12    1.53    0.78
   4  -1  12    4.47    1.09
   4   1  12    5.09    1.11
   4   1  12    6.38    1.26
  -6  -2  12    0.08    0.78
   6  -2 -12    0.73    0.53
  -6   2  12   -0.07    0.68
  -5  -2  12    2.34    1.08
   5  -2 -12    1.74    0.67
  -5   2  12    1.53    0.69
  -5   2  12    2.38    0.85
  -4  -2  12   -0.14    0.59
  -4  -2  12    0.31    0.59
  -4   2  12    0.76    0.60
  -4   2  12    1.46    0.84
  -3  -2  12    2.46    0.84
  -3  -2  12    1.49    0.71
  -3   2  12    2.98    0.79
  -3   2  12    2.16    0.77
  -3   2  12    1.55    0.72
  -2  -2  12    7.60    1.24
  -2  -2  12    5.53    1.18
  -2   2  12    5.24    1.08
  -2   2  12    5.56    1.23
  -2   2  12    7.82    1.22
  -1  -2  12   10.20    1.42
  -1  -2  12   13.97    1.69
  -1   2  12   10.06    1.41
  -1   2  12   12.20    1.51
  -1   2  12   11.99    1.64
   0  -2  12    3.69    0.99
   0  -2  12    4.40    0.98
   0   2  12    4.71    1.01
   0   2  12    4.11    1.00
   1  -2  12    7.15    1.27
   1  -2  12    3.57    0.91
   1   2  12    4.21    1.10
   1   2  12    6.28    1.23
   2  -2  12    1.14    0.69
   2  -2  12    1.67    0.69
   2  -2  12    2.65    0.75
   2   2  12    3.12    0.93
   2   2  12    1.42    0.68
   3  -2  12   13.16    1.74
   3  -2  12   15.01    1.58
   3   2  12   15.42    1.95
   3   2  12   17.65    2.02
   5  -3 -12    0.33    0.56
  -5  -3  12    1.12    0.96
  -5   3  12    1.11    0.88
  -4  -3  12    5.85    1.25
  -4   3  12    5.73    1.29
  -3  -3  12    2.44    0.90
  -3   3  12    2.63    0.89
  -3   3  12    3.14    1.03
  -2  -3  12    7.79    1.27
  -2  -3  12    9.32    1.53
  -2   3  12    5.75    1.16
  -2   3  12    9.30    1.55
  -1  -3  12    3.95    1.04
  -1  -3  12    2.83    0.90
  -1   3  12    3.27    0.95
  -1   3  12    3.70    1.10
   0  -3  12    5.18    1.14
   0  -3  12    6.26    1.15
   0   3  12    4.67    1.07
   0   3  12    5.94    1.30
   1  -3  12    6.54    1.09
   1  -3  12    3.67    1.06
   1   3  12    7.59    1.39
   1   3  12    4.64    1.18
   2  -3  12    2.15    0.94
   2   3  12    4.88    1.16
   2   3  12    3.89    1.04
   3  -3  12    4.98    1.11
   3   3  12    5.31    1.24
  -4  -4  12    1.72    0.99
  -4   4  12    1.68    0.77
  -3  -4  12    0.19    0.68
  -3   4  12   -0.21    0.68
  -3   4  12    0.06    0.56
  -2  -4  12   -1.22    0.56
  -2   4  12   -0.05    0.48
  -2   4  12    0.27    0.53
  -1  -4  12    0.44    0.69
  -1  -4  12    0.11    0.59
  -1   4  12   -0.28    0.71
  -1   4  12    0.04    0.72
   0  -4  12    0.18    0.72
   0  -4  12    0.18    0.69
   0   4  12    1.28    0.85
   0   4  12    1.31    0.87
   1  -4  12    0.00    0.60
   1   4  12    0.17    0.56
   1   4  12    0.36    0.70
  -5   0  13    0.20    0.69
  -5   0  13   -0.53    0.56
  -4   0  13   -0.42    0.51
  -4   0  13    0.31    0.56
  -3   0  13    0.32    0.70
  -3   0  13   -0.71    0.49
  -2   0  13   -0.16    0.59
  -2   0  13    0.79    0.60
  -1   0  13    0.18    0.61
  -1   0  13   -0.37    0.41
  -1   0  13    0.31    0.54
   0   0  13    0.05    0.50
   0   0  13   -0.07    0.62
   0   0  13   -0.16    0.41
   1   0  13   -0.19    0.57
   1   0  13    0.04    0.52
   1   0  13    0.06    0.64
   2   0  13   -0.26    0.56
   2   0  13   -0.27    0.55
   2   0  13   -0.35    0.67
  -5  -1  13    2.28    0.92
  -5  -1  13    2.35    0.92
  -5   1  13    2.73    0.80
  -5   1  13    1.46    0.79
  -4  -1  13    2.44    0.92
  -4  -1  13    4.75    1.21
  -4   1  13    5.39    1.06
  -4   1  13    6.76    1.29
  -3  -1  13    2.40    0.85
  -3  -1  13    2.81    0.97
  -3   1  13    2.71    0.81
  -3   1  13    3.48    0.83
  -3   1  13    3.40    0.98
  -2  -1  13    1.22    0.81
  -2  -1  13    3.36    0.97
  -2   1  13    2.48    0.97
  -2   1  13    1.75    0.76
  -2   1  13    2.80    0.87
  -1  -1  13   11.39    1.59
  -1  -1  13   10.91    1.59
  -1   1  13   12.15    1.47
  -1   1  13   12.11    1.63
  -1   1  13   12.27    1.72
   0  -1  13   19.85    2.07
   0  -1  13   24.07    2.27
   0   1  13   21.90    2.18
   0   1  13   22.81    2.04
   0   1  13   19.22    2.15
   1  -1  13    2.14    0.83
   1  -1  13    1.46    0.76
   1  -1  13    1.56    0.82
   1   1  13    3.28    0.97
   1   1  13    3.47    1.01
   1   1  13    1.15    0.75
   2  -1  13   15.59    1.89
   2  -1  13   16.69    1.86
   2  -1  13   13.17    1.59
   2   1  13   17.16    1.94
   2   1  13   14.05    1.87
  -5  -2  13    8.25    1.40
  -5  -2  13   11.56    1.87
   5  -2 -13    8.01    1.22
  -5   2  13    6.18    1.41
  -4  -2  13    9.06    1.50
  -4  -2  13    8.99    1.64
  -4   2  13    7.10    1.19
  -4   2  13   10.08    1.60
  -3  -2  13    0.75    0.70
  -3  -2  13   -0.76    0.60
  -3   2  13   -0.49    0.47
  -3   2  13    0.74    0.70
  -3   2  13    0.49    0.61
  -2  -2  13    5.89    1.25
  -2  -2  13    5.49    1.22
  -2   2  13    5.95    1.30
  -2   2  13    5.82    1.16
  -2   2  13    6.90    1.23
  -1  -2  13    4.78    1.14
  -1  -2  13    7.31    1.29
  -1   2  13    4.52    1.02
  -1   2  13    5.78    1.29
   0  -2  13    6.81    1.25
   0  -2  13    7.24    1.33
   0   2  13    7.79    1.48
   0   2  13    7.87    1.35
   1  -2  13    6.14    1.16
   1  -2  13    4.60    1.18
   1   2  13    5.19    1.14
   1   2  13    4.72    1.22
   2  -2  13    2.39    0.94
   2   2  13    1.74    0.82
   2   2  13    1.38    0.94
  -3  -3  13   -0.27    0.69
  -3  -3  13    0.21    0.74
  -3   3  13   -0.50    0.59
  -3   3  13    1.21    0.90
  -2  -3  13    0.55    0.71
  -2  -3  13   -0.29    0.64
  -2   3  13    0.45    0.71
  -2   3  13    0.50    0.82
  -1  -3  13    1.42    0.85
  -1  -3  13   -0.27    0.44
  -1   3  13    0.70    0.82
  -1   3  13    0.77    0.70
   0  -3  13    4.82    1.22
   0  -3  13    4.14    1.06
   0   3  13    5.01    1.32
   0   3  13    5.41    1.26
   1  -3  13    0.27    0.72
   1   3  13    1.56    0.96
   1   3  13    0.66    0.70
  -3   0  14    0.79    0.67
  -3   0  14    0.56    0.73
  -2   0  14    3.02    0.95
  -2   0  14    0.99    0.91
  -1   0  14    5.73    1.25
  -1   0  14    5.67    1.30
   0   0  14   -0.33    0.64
   0   0  14   -0.58    0.67
  -3  -1  14    0.58    0.83
  -3  -1  14    0.72    0.76
  -3   1  14    0.23    0.79
  -3   1  14    0.54    0.73
  -2  -1  14    2.32    0.99
  -2  -1  14    3.52    1.08
  -2   1  14    2.21    0.90
  -2   1  14    3.14    0.99
  -1  -1  14    5.07    1.21
  -1  -1  14    4.70    1.18
  -1   1  14    4.13    0.99
  -1   1  14    3.07    0.97
  -1   1  14    4.71    1.17
   0  -1  14    4.99    1.22
   0  -1  14    4.49    1.12
   0   1  14    5.10    1.30
   0   1  14    6.01    1.19
   0   1  14    4.78    1.20
  -2  -2  14   11.84    1.78
  -2  -2  14    7.97    1.43
  -2   2  14   10.33    1.55
  -2   2  14    9.35    1.68
  -1  -2  14    1.00    0.74
  -1  -2  14    0.03    0.58
  -1   2  14    0.11    0.76
   0   0   0    0.00    0.00
;
_shelx_hkl_checksum              52457
loop_
_space_group_symop_operation_xyz
'x, y, z'
'-x, y+1/2, -z+1/2'
'-x, -y, -z'
'x, -y-1/2, z-1/2'
loop_
_atom_site_label
_atom_site_type_symbol
_atom_site_fract_x
_atom_site_fract_y
_atom_site_fract_z
_atom_site_U_iso_or_equiv
_atom_site_adp_type
_atom_site_occupancy
_atom_site_site_symmetry_order
_atom_site_calc_flag
_atom_site_refinement_flags_posn
_atom_site_refinement_flags_adp
_atom_site_refinement_flags_occupancy
_atom_site_disorder_assembly
_atom_site_disorder_group
C1 C 0.5732(3) 0.2792(3) 0.0930(2) 0.0222(5) Uani 1 1 d . . . . .
H1A H 0.545425 0.302554 0.007498 0.027 Uiso 1 1 calc R U . . .
H1B H 0.468130 0.273044 0.127486 0.027 Uiso 1 1 calc R U . . .
C2 C 0.6931(3) 0.4349(3) 0.15299(19) 0.0218(5) Uani 1 1 d . . . . .
H2 H 0.635832 0.557115 0.171777 0.026 Uiso 1 1 calc R U . . .
C3 C 0.7863(3) 0.3291(3) 0.26130(18) 0.0222(5) Uani 1 1 d . . . . .
H3A H 0.870394 0.413318 0.308562 0.027 Uiso 1 1 calc R U . . .
H3B H 0.708010 0.275887 0.311600 0.027 Uiso 1 1 calc R U . . .
C4 C 0.9506(3) 0.2897(3) 0.1148(2) 0.0231(5) Uani 1 1 d . . . . .
H4A H 0.962597 0.212273 0.044314 0.028 Uiso 1 1 calc R U . . .
H4B H 1.063607 0.332214 0.152408 0.028 Uiso 1 1 calc R U . . .
C5 C 0.8360(3) 0.4665(3) 0.0814(2) 0.0244(5) Uani 1 1 d . . . . .
H5A H 0.896207 0.589496 0.103589 0.029 Uiso 1 1 calc R U . . .
H5B H 0.793362 0.468288 -0.003749 0.029 Uiso 1 1 calc R U . . .
N1 N 0.8669(2) 0.1724(3) 0.19891(15) 0.0185(4) Uani 1 1 d . . . . .
O1 O 0.6258(2) -0.0583(2) 0.20501(15) 0.0280(4) Uani 1 1 d . . . . .
O2 O 0.7411(2) -0.0274(2) 0.02027(14) 0.0280(4) Uani 1 1 d . . . . .
S1 S 0.69730(6) 0.06188(8) 0.12399(5) 0.0189(2) Uani 1 1 d . . . . .
loop_
_atom_site_aniso_label
_atom_site_aniso_U_11
_atom_site_aniso_U_22
_atom_site_aniso_U_33
_atom_site_aniso_U_23
_atom_site_aniso_U_13
_atom_site_aniso_U_12
C1 0.0204(11) 0.0198(12) 0.0256(12) 0.0007(10) 0.0008(9) 0.0014(9)
C2 0.0248(12) 0.0139(11) 0.0267(12) 0.0011(10) 0.0037(9) 0.0023(9)
C3 0.0267(12) 0.0211(12) 0.0192(11) -0.0029(10) 0.0051(9) -0.0019(10)
C4 0.0219(11) 0.0242(13) 0.0246(11) -0.0014(10) 0.0082(9) -0.0054(9)
C5 0.0285(13) 0.0204(13) 0.0246(12) 0.0018(10) 0.0050(10) -0.0050(10)
N1 0.0179(9) 0.0184(10) 0.0188(9) 0.0008(8) 0.0018(7) -0.0002(8)
O1 0.0300(9) 0.0212(9) 0.0349(10) 0.0084(8) 0.0113(7) -0.0045(7)
O2 0.0331(9) 0.0209(9) 0.0313(9) -0.0113(8) 0.0094(7) -0.0036(7)
S1 0.0206(3) 0.0137(3) 0.0229(3) 0.0004(2) 0.0046(2) -0.0014(2)
loop_
_atom_type_symbol
_atom_type_description
_atom_type_scat_dispersion_real
_atom_type_scat_dispersion_imag
_atom_type_scat_source
C C 0.0033 0.0016 'International Tables Vol C Tables 4.2.6.8 and 6.1.1.4'
H H 0.0000 0.0000 'International Tables Vol C Tables 4.2.6.8 and 6.1.1.4'
N N 0.0061 0.0033 'International Tables Vol C Tables 4.2.6.8 and 6.1.1.4'
O O 0.0106 0.0060 'International Tables Vol C Tables 4.2.6.8 and 6.1.1.4'
S S 0.1246 0.1234 'International Tables Vol C Tables 4.2.6.8 and 6.1.1.4'
loop_
_geom_angle_atom_site_label_1
_geom_angle_atom_site_label_2
_geom_angle_atom_site_label_3
_geom_angle
_geom_angle_site_symmetry_1
_geom_angle_site_symmetry_3
_geom_angle_publ_flag
C2 C1 S1 101.50(14) . . ?
C5 C2 C1 109.22(19) . . ?
C5 C2 C3 101.07(17) . . ?
C1 C2 C3 103.27(18) . . ?
N1 C3 C2 98.31(16) . . ?
N1 C4 C5 106.03(16) . . ?
C2 C5 C4 102.91(18) . . ?
C3 N1 C4 101.14(17) . . ?
C3 N1 S1 101.26(12) . . ?
C4 N1 S1 108.80(13) . . ?
O1 S1 O2 118.03(10) . . ?
O1 S1 N1 107.59(10) . . ?
O2 S1 N1 109.74(9) . . ?
O1 S1 C1 110.07(10) . . ?
O2 S1 C1 112.91(11) . . ?
N1 S1 C1 96.16(9) . . ?
loop_
_geom_bond_atom_site_label_1
_geom_bond_atom_site_label_2
_geom_bond_distance
_geom_bond_site_symmetry_2
_geom_bond_publ_flag
C1 C2 1.536(3) . ?
C1 S1 1.805(2) . ?
C2 C5 1.531(3) . ?
C2 C3 1.539(3) . ?
C3 N1 1.499(3) . ?
C4 N1 1.500(3) . ?
C4 C5 1.541(3) . ?
N1 S1 1.6825(17) . ?
O1 S1 1.4336(16) . ?
O2 S1 1.4365(16) . ?
loop_
_geom_torsion_atom_site_label_1
_geom_torsion_atom_site_label_2
_geom_torsion_atom_site_label_3
_geom_torsion_atom_site_label_4
_geom_torsion
_geom_torsion_site_symmetry_1
_geom_torsion_site_symmetry_2
_geom_torsion_site_symmetry_3
_geom_torsion_site_symmetry_4
_geom_torsion_publ_flag
S1 C1 C2 C5 72.41(19) . . . . ?
S1 C1 C2 C3 -34.51(19) . . . . ?
C5 C2 C3 N1 -51.79(19) . . . . ?
C1 C2 C3 N1 61.21(19) . . . . ?
C1 C2 C5 C4 -77.3(2) . . . . ?
C3 C2 C5 C4 31.1(2) . . . . ?
N1 C4 C5 C2 0.7(2) . . . . ?
C2 C3 N1 C4 52.08(18) . . . . ?
C2 C3 N1 S1 -59.89(16) . . . . ?
C5 C4 N1 C3 -33.2(2) . . . . ?
C5 C4 N1 S1 72.91(18) . . . . ?
C3 N1 S1 O1 -77.48(14) . . . . ?
C4 N1 S1 O1 176.51(14) . . . . ?
C3 N1 S1 O2 152.91(13) . . . . ?
C4 N1 S1 O2 46.90(16) . . . . ?
C3 N1 S1 C1 35.87(14) . . . . ?
C4 N1 S1 C1 -70.15(15) . . . . ?
C2 C1 S1 O1 110.93(15) . . . . ?
C2 C1 S1 O2 -114.83(15) . . . . ?
C2 C1 S1 N1 -0.35(15) . . . . ?
