#------------------------------------------------------------------------------
#$Date: 2020-04-04 07:23:49 +0300 (Sat, 04 Apr 2020) $
#$Revision: 250095 $
#$URL: file:///home/coder/svn-repositories/cod/cif/4/03/80/4038046.cif $
#------------------------------------------------------------------------------
#
# This file is available in the Crystallography Open Database (COD),
# http://www.crystallography.net/
#
# All data on this site have been placed in the public domain by the
# contributors.
#
data_4038046
loop_
_publ_author_name
'Liu, En-Chih'
'Topczewski, Joseph J.'
_publ_section_title
;
 Gram-Scale Synthesis of 2,5-Difluoro-7,7,8,8-tetracyanoquinodimethane
 (F<sub>2</sub>-TCNQ).
;
_journal_issue                   6
_journal_name_full               'The Journal of organic chemistry'
_journal_page_first              4560
_journal_page_last               4564
_journal_paper_doi               10.1021/acs.joc.0c00053
_journal_volume                  85
_journal_year                    2020
_chemical_formula_sum            'C12 H2 F2 N4'
_chemical_formula_weight         240.18
_space_group_crystal_system      monoclinic
_space_group_IT_number           12
_space_group_name_Hall           '-C 2y'
_space_group_name_H-M_alt        'C 1 2/m 1'
_atom_sites_solution_hydrogens   geom
_audit_creation_method           SHELXL-2018/3
_cell_angle_alpha                90
_cell_angle_beta                 106.72(6)
_cell_angle_gamma                90
_cell_formula_units_Z            2
_cell_length_a                   10.122(13)
_cell_length_b                   5.827(5)
_cell_length_c                   8.812(11)
_cell_measurement_reflns_used    2977
_cell_measurement_temperature    100(2)
_cell_measurement_theta_max      30.38
_cell_measurement_theta_min      2.41
_cell_volume                     497.8(10)
_computing_structure_refinement  'SHELXL-2018/3 (Sheldrick, 2018)'
_computing_structure_solution    'SHELXT 2014/5 (Sheldrick, 2014)'
_diffrn_ambient_temperature      100(2)
_diffrn_measured_fraction_theta_full 0.998
_diffrn_measured_fraction_theta_max 0.995
_diffrn_measurement_device_type  Bruker_Photon_II_CMOS
_diffrn_radiation_type           MoK\a
_diffrn_radiation_wavelength     0.71073
_diffrn_reflns_av_R_equivalents  0.0391
_diffrn_reflns_av_unetI/netI     0.0185
_diffrn_reflns_Laue_measured_fraction_full 0.998
_diffrn_reflns_Laue_measured_fraction_max 0.995
_diffrn_reflns_limit_h_max       14
_diffrn_reflns_limit_h_min       -14
_diffrn_reflns_limit_k_max       8
_diffrn_reflns_limit_k_min       -8
_diffrn_reflns_limit_l_max       12
_diffrn_reflns_limit_l_min       -12
_diffrn_reflns_number            9654
_diffrn_reflns_point_group_measured_fraction_full 0.998
_diffrn_reflns_point_group_measured_fraction_max 0.995
_diffrn_reflns_theta_full        25.242
_diffrn_reflns_theta_max         30.629
_diffrn_reflns_theta_min         2.413
_exptl_absorpt_coefficient_mu    0.129
_exptl_crystal_colour            yellow
_exptl_crystal_density_diffrn    1.602
_exptl_crystal_description       plate
_exptl_crystal_F_000             240
_exptl_crystal_size_max          0.120
_exptl_crystal_size_mid          0.120
_exptl_crystal_size_min          0.020
_refine_diff_density_max         0.378
_refine_diff_density_min         -0.219
_refine_diff_density_rms         0.049
_refine_ls_extinction_method     none
_refine_ls_goodness_of_fit_ref   1.102
_refine_ls_hydrogen_treatment    constr
_refine_ls_matrix_type           full
_refine_ls_number_parameters     55
_refine_ls_number_reflns         841
_refine_ls_number_restraints     0
_refine_ls_restrained_S_all      1.102
_refine_ls_R_factor_all          0.0414
_refine_ls_R_factor_gt           0.0339
_refine_ls_shift/su_max          0.000
_refine_ls_shift/su_mean         0.000
_refine_ls_structure_factor_coef Fsqd
_refine_ls_weighting_details
'w=1/[\s^2^(Fo^2^)+(0.0489P)^2^+0.3303P] where P=(Fo^2^+2Fc^2^)/3'
_refine_ls_weighting_scheme      calc
_refine_ls_wR_factor_gt          0.0956
_refine_ls_wR_factor_ref         0.1010
_reflns_Friedel_coverage         0.000
_reflns_number_gt                713
_reflns_number_total             841
_reflns_threshold_expression     'I > 2\s(I)'
_cod_data_source_file            jo0c00053_si_001.cif
_cod_data_source_block           19084z_a
_cod_depositor_comments          'Adding full bibliography for 4038046.cif.'
_cod_original_sg_symbol_H-M      'C 2/m'
_cod_database_code               4038046
_shelx_shelxl_version_number     2018/3
_shelx_space_group_comment
;
The symmetry employed for this shelxl refinement is uniquely defined
by the following loop, which should always be used as a source of
symmetry information in preference to the above space-group names.
They are only intended as comments.
;
_shelx_estimated_absorpt_t_min   0.985
_shelx_estimated_absorpt_t_max   0.997
_shelx_res_file
;
TITL 19084z_a.res in C2/m
    19084z_a.res
    created by SHELXL-2018/3 at 16:40:04 on 30-May-2019
REM Old TITL 19084z in C2/m
REM SHELXT solution in C2/m
REM R1 0.066,  Rweak 0.002,  Alpha 0.045,  Orientation as input
REM Formula found by SHELXT:  C6 F N2
CELL  0.71073  10.1222   5.8266   8.8125   90.000  106.725   90.000
ZERR    2.000   0.0127   0.0047   0.0106    0.000    0.064    0.000
LATT  7
SYMM -X, Y, -Z
SFAC C H F N
UNIT 24 4 4 8
TEMP -173.150
SIZE 0.02 0.12 0.12
L.S. 10
ACTA
CONF
BOND $H
LIST 4
FMAP 2
PLAN 5
WGHT    0.048900    0.330300
FVAR       1.23028
F1    3    0.761702    0.500000    0.979697    10.50000    0.01381    0.02708 =
         0.01675    0.00000    0.00771    0.00000
N1    4    0.021816    0.500000    0.695931    10.50000    0.01838    0.02824 =
         0.01996    0.00000    0.00474    0.00000
C1    1    0.137557    0.500000    0.708890    10.50000    0.01912    0.01806 =
         0.01233    0.00000    0.00482    0.00000
N2    4    0.332463    0.500000    0.449270    10.50000    0.01900    0.02324 =
         0.01727    0.00000    0.00611    0.00000
C2    1    0.309597    0.500000    0.568940    10.50000    0.01488    0.01666 =
         0.01545    0.00000    0.00371    0.00000
C3    1    0.281008    0.500000    0.718633    10.50000    0.01638    0.01470 =
         0.01393    0.00000    0.00595    0.00000
C4    1    0.387462    0.500000    0.856764    10.50000    0.01632    0.01262 =
         0.01363    0.00000    0.00669    0.00000
C5    1    0.528115    0.500000    0.852518    10.50000    0.01575    0.01607 =
         0.01316    0.00000    0.00697    0.00000
AFIX  43
H5    2    0.548030    0.500000    0.753549    10.50000   -1.20000
AFIX   0
C6    1    0.631433    0.500000    0.987595    10.50000    0.01380    0.01591 =
         0.01459    0.00000    0.00674    0.00000
HKLF 4




REM  19084z_a.res in C2/m
REM wR2 = 0.100971, GooF = S = 1.10178, Restrained GooF = 1.10178 for all data
REM R1 = 0.033949 for 713 Fo > 4sig(Fo) and 0.041396 for all 841 data
REM 55 parameters refined using 0 restraints

END

WGHT      0.0480      0.3309

REM Highest difference peak  0.378,  deepest hole -0.219,  1-sigma level  0.049
Q1    1   0.3644  0.5000  0.9204  10.50000  0.05    0.38
Q2    1   0.5801  0.5000  0.9193  10.50000  0.05    0.38
Q3    1   0.4575  0.5000  0.8615  10.50000  0.05    0.36
Q4    1   0.2156  0.5000  0.7298  10.50000  0.05    0.34
Q5    1   0.3240  0.5000  0.7876  10.50000  0.05    0.30
;
_shelx_res_checksum              50854
_shelx_hkl_file
;
   2   0   0 1748.23  103.99
  -2   0   0 1816.02  106.29
  -2   0   0 1626.14  101.89
   2   0   0 1827.02  105.39
   4   0   0  245.68   11.00
  -4   0   0  228.88   11.00
  -4   0   0  240.98   11.80
  -4   0   0  252.77   11.40
  -4   0   0  234.68    8.80
  -4   0   0  234.98   11.00
  -4   0   0  248.88   10.60
   4   0   0  260.77   11.90
   4   0   0  247.28   12.00
   4   0   0  243.08   11.10
   4   0   0  234.48   10.30
   6   0   0  138.19   10.20
   6   0   0  142.89    9.30
   6   0   0  136.69    9.00
   6   0   0  138.69    8.30
  -6   0   0  136.39    9.20
  -6   0   0  155.28    9.00
  -6   0   0  143.79    7.10
  -6   0   0  146.49    9.60
   6   0   0  119.29    9.40
  -6   0   0  133.19    9.10
  -6   0   0  143.19   10.20
  -8   0   0  559.84   25.70
  -8   0   0  490.15   23.60
  -8   0   0  537.65   18.50
  -8   0   0  522.15   24.00
  -8   0   0  525.65   22.70
   8   0   0  521.65   25.10
   8   0   0  523.35   25.80
   8   0   0  557.44   24.30
 -10   0   0   33.50    7.10
 -10   0   0   27.50    3.30
  10   0   0   39.10    8.80
  10   0   0   31.30    7.70
 -10   0   0   28.20    7.40
 -10   0   0   38.00    7.90
 -10   0   0   23.30    3.00
 -10   0   0   33.00    7.70
  12   0   0   64.99   11.50
  12   0   0   75.89   13.50
 -12   0   0   63.39   11.20
 -12   0   0   59.89    9.80
 -12   0   0   80.69   13.90
   1  -1   0 1796.32   54.79
  -1   1   0 1835.92   54.79
   1   1   0 1818.32   53.89
   3  -1   0 3242.08  194.88
  -3  -1   0 3237.28  160.38
   3  -1   0 3192.08  220.98
  -3  -1   0 3293.07  158.68
   3   1   0 3093.79  159.08
  -3   1   0 3442.16  205.48
   3   1   0 3299.57  156.58
  -3   1   0 3200.38  195.28
   5  -1   0   18.50    4.00
   5  -1   0   19.20    3.90
  -5  -1   0   18.70    4.00
  -5  -1   0   16.80    1.90
  -5  -1   0   16.40    3.40
  -5  -1   0   15.20    3.80
  -5  -1   0   21.00    4.40
  -5  -1   0   22.30    3.90
   5  -1   0   15.60    4.70
   5  -1   0   17.30    4.60
   5  -1   0   16.90    2.90
  -5   1   0   19.40    2.50
   5   1   0   18.20    4.00
   5   1   0   16.50    4.10
  -5   1   0   16.00    2.90
   5   1   0   22.60    3.80
  -5   1   0   16.70    3.90
  -5   1   0   23.70    4.70
  -5   1   0   15.30    4.50
   5   1   0   19.20    4.00
   5   1   0   19.40    4.00
  -7  -1   0    0.80    2.50
   7  -1   0    2.10    3.30
   7  -1   0   -0.20    1.80
  -7  -1   0    4.00    3.00
  -7  -1   0    0.50    0.80
  -7  -1   0    4.00    2.70
   7  -1   0    0.40    3.20
   7  -1   0    1.40    2.70
  -7   1   0    2.20    2.20
   7   1   0   -0.60    2.50
  -7   1   0    1.30    1.10
   7   1   0   -0.20    2.80
   7   1   0    0.80    2.50
  -7   1   0    0.50    3.00
  -7   1   0    0.60    1.90
  -7   1   0    8.30    4.40
   7   1   0    2.60    2.50
  -9  -1   0   10.00    5.10
  -9  -1   0   17.80    5.60
   9  -1   0    7.50    5.40
  -9  -1   0   21.60    6.00
   9  -1   0   27.30    6.20
  -9   1   0   30.10    7.70
  -9   1   0   18.00    3.80
   9   1   0   19.30    6.00
   9   1   0   26.50    6.80
  -9   1   0   23.60    5.20
  -9   1   0   12.70    5.10
  -9   1   0   17.60    5.40
   9   1   0   12.20    4.90
  11  -1   0   35.20    5.60
  11  -1   0   46.20    9.60
  11  -1   0   43.90   10.30
 -11  -1   0   36.30    9.30
 -11  -1   0   39.00   12.90
 -11  -1   0   38.50    8.60
 -11   1   0   41.40    7.40
 -11   1   0   37.30    9.50
 -11   1   0   47.30    8.70
 -11   1   0   39.10    9.20
 -11   1   0   40.30    5.40
  11   1   0   48.70   10.40
 -11   1   0   35.60    8.40
  11   1   0   41.80    8.60
  13  -1   0  168.98   18.60
 -13  -1   0  142.99   19.10
  13  -1   0  188.08   22.50
 -13  -1   0  219.38   18.60
 -13   1   0  202.38   23.20
  13   1   0  184.68   20.50
 -13   1   0  174.08   19.50
 -13   1   0  172.98   14.00
 -13   1   0  180.68   19.50
  -2  -2   0 1060.19   33.70
   2  -2   0 1050.99   34.90
  -2  -2   0 1007.50   33.70
  -2  -2   0 1038.50   33.10
   2  -2   0 1031.30   33.70
   2  -2   0 1037.90   33.50
   2  -2   0 1028.30   34.60
  -2  -2   0 1041.40   33.60
   2  -2   0  992.50   31.00
  -2  -2   0  982.40   30.30
   2  -2   0 1024.70   33.20
  -2  -2   0 1056.69   33.30
  -2  -2   0 1032.50   30.30
   2   2   0 1039.80   33.10
   2   2   0 1043.00   33.50
  -2   2   0 1030.80   33.90
  -2   2   0 1038.90   31.30
   2   2   0 1041.10   33.30
   2   2   0 1061.39   33.20
   2   2   0  996.30   33.40
   2   2   0 1028.80   30.80
  -2   2   0 1031.60   33.90
  -2   2   0 1046.10   33.20
   2   2   0 1017.40   33.60
  -2   2   0 1026.50   34.80
   2   2   0 1076.29   30.80
   4  -2   0  141.29    7.20
   4  -2   0  143.39    9.70
  -4  -2   0  135.49    7.20
   4  -2   0  140.89    8.60
   4  -2   0  156.98    8.00
   4  -2   0  148.99   10.30
  -4  -2   0  148.19    6.70
  -4  -2   0  156.58    8.80
  -4  -2   0  149.39    9.00
   4   2   0  134.59    7.40
   4   2   0  154.88    7.20
  -4   2   0  143.99    9.10
   4   2   0  148.99    8.80
   4   2   0  157.98    7.90
   4   2   0  154.58    7.50
   4   2   0  133.39    8.30
   4   2   0  145.89    8.50
  -4   2   0  146.49    5.70
  -4   2   0  152.88    8.10
   4   2   0  143.79    7.30
   4   2   0  143.49    6.70
  -4   2   0  146.49   10.20
  -6  -2   0   98.79    7.20
   6  -2   0  116.79    7.10
   6  -2   0  100.99    7.20
   6  -2   0  109.99   12.40
  -6  -2   0   99.19    8.40
  -6  -2   0   96.09    6.60
  -6  -2   0   91.79    7.90
  -6   2   0  120.59    7.00
  -6   2   0  106.89    9.00
   6   2   0  109.59    8.00
   6   2   0  101.99    8.60
   6   2   0  103.99    6.80
   6   2   0  104.59    7.40
   6   2   0  111.09    7.60
  -6   2   0  103.99    5.90
  -6   2   0  102.79    8.60
   6   2   0  109.09    5.70
  -8  -2   0  426.86   20.10
  -8  -2   0  415.76   21.30
   8  -2   0  429.56   19.70
  -8  -2   0  437.06   21.40
   8  -2   0  418.56   24.00
  -8   2   0  449.56   24.30
  -8   2   0  422.76   16.40
  -8   2   0  445.96   17.70
   8   2   0  428.16   22.10
  -8   2   0  453.45   22.50
   8   2   0  426.16   20.20
   8   2   0  413.06   17.70
   8   2   0  443.56   21.20
 -10  -2   0   16.80    7.20
  10  -2   0   18.40    8.20
  10  -2   0   21.50    4.80
  10  -2   0   17.40    6.10
 -10  -2   0   14.90    5.60
 -10   2   0   29.80    8.90
  10   2   0   19.70    6.60
  10   2   0   30.00    8.30
 -10   2   0   22.30    6.40
 -10   2   0   21.80    5.00
  10   2   0   22.20    6.50
 -10   2   0   28.30    5.20
 -10   2   0   40.10    8.60
 -12  -2   0   66.89   12.00
  12  -2   0   66.49   14.20
  12  -2   0   77.49    8.90
 -12  -2   0   55.19   10.70
 -12  -2   0   55.99   10.20
  12  -2   0   59.89   10.40
 -12   2   0   46.30    9.80
  12   2   0   66.89   11.70
  12   2   0   69.89   12.50
 -12   2   0   53.89   13.30
 -12   2   0   52.49    7.90
 -12   2   0   58.19   11.80
 -12   2   0   60.89    8.10
  -1  -3   0  566.04   17.90
   1  -3   0  562.24   20.60
  -1  -3   0  543.05   20.70
   1  -3   0  549.85   20.80
  -1  -3   0  523.45   17.60
  -1  -3   0  563.74   21.70
   1  -3   0  552.24   21.70
   1  -3   0  546.65   20.60
   1  -3   0  552.24   19.90
   1  -3   0  585.24   21.10
  -1  -3   0  581.14   20.20
  -1  -3   0  629.24   21.50
  -1  -3   0  562.54   19.60
  -1   3   0  552.74   22.20
   1   3   0  561.04   19.20
  -1   3   0  552.84   20.30
  -1   3   0  539.35   17.50
  -1   3   0  585.14   21.10
   1   3   0  556.44   20.80
   1   3   0  532.75   19.80
   1   3   0  558.84   21.60
  -1   3   0  541.95   20.80
   1   3   0  540.15   18.40
  -1   3   0  543.15   19.30
   1   3   0  572.24   21.80
  -1   3   0  549.85   17.90
   1   3   0  571.94   20.80
   1   3   0  539.35   19.70
  -1   3   0  536.25   20.60
   1   3   0  559.94   18.20
  -1   3   0  555.94   21.80
  -1   3   0  571.64   20.90
  -3  -3   0 1074.99   36.80
  -3  -3   0 1112.69   37.50
   3  -3   0 1050.69   38.30
   3  -3   0 1059.39   38.60
   3  -3   0 1104.29   36.70
  -3  -3   0 1094.19   36.50
   3  -3   0 1050.79   36.60
  -3  -3   0 1088.49   37.20
  -3  -3   0 1080.19   36.10
   3  -3   0 1119.79   37.40
  -3   3   0 1073.79   39.00
  -3   3   0 1113.89   39.00
   3   3   0 1137.29   39.20
   3   3   0 1106.99   36.30
   3   3   0 1041.10   36.40
  -3   3   0 1108.99   37.80
  -3   3   0 1065.19   38.60
  -3   3   0 1121.69   38.80
   3   3   0 1081.09   34.60
   3   3   0 1043.90   36.70
   3   3   0 1058.79   36.70
  -3   3   0 1070.69   33.40
  -5  -3   0   15.00    4.40
   5  -3   0    6.90    2.90
  -5  -3   0   12.30    2.20
   5  -3   0   13.80    4.80
  -5  -3   0   14.20    2.10
  -5  -3   0   11.70    4.00
   5  -3   0   13.10    2.70
   5   3   0   16.00    3.40
  -5   3   0    6.80    3.60
   5   3   0   12.50    3.10
   5   3   0   10.20    3.80
  -5   3   0    8.70    3.00
   5   3   0   13.40    2.90
  -5   3   0    5.90    3.80
   5   3   0   11.70    3.20
   5   3   0   12.10    2.60
   5   3   0   12.30    2.90
   7  -3   0    2.90    2.70
  -7  -3   0    3.60    3.20
  -7  -3   0    1.30    3.60
   7  -3   0    1.60    2.70
   7  -3   0    7.50    5.30
   7   3   0    5.30    2.80
   7   3   0    4.00    2.90
  -7   3   0    0.00    3.20
  -7   3   0    0.60    3.50
  -7   3   0   -0.20    2.30
   7   3   0    4.00    2.60
   7   3   0    0.50    3.50
   7   3   0    4.60    2.80
   7   3   0    3.80    1.90
   9  -3   0    6.10    3.50
  -9  -3   0    5.40    3.30
   9  -3   0   -0.80    4.50
   9  -3   0    6.70    2.90
  -9  -3   0   12.60    5.50
  -9   3   0    6.00    3.10
   9   3   0    4.70    4.10
   9   3   0   10.40    6.00
  -9   3   0    3.20    3.60
  -9   3   0   10.90    6.70
  -9   3   0    4.30    4.90
   9   3   0    8.50    4.10
  11  -3   0   25.00    5.60
 -11  -3   0   45.00    9.80
 -11  -3   0   16.70    6.80
  11  -3   0   32.50   10.00
  11  -3   0   30.30    7.20
 -11   3   0   27.10    8.50
  11   3   0   21.70    6.30
 -11   3   0   33.50    9.70
 -11   3   0   28.60    6.70
 -11   3   0   25.70    7.80
  11   3   0   12.60    6.80
   0  -4   0 9586.34  283.67
   0   4   0 9648.63  283.47
   0   4   0 9999.00  284.67
  -2  -4   0  336.97   14.30
   2  -4   0  328.47   15.80
  -2  -4   0  353.66   16.00
   2  -4   0  330.87   15.80
  -2  -4   0  333.37   15.20
   2  -4   0  345.27   15.80
  -2  -4   0  309.57   15.30
   2  -4   0  314.97   14.50
   2  -4   0  307.87   16.50
  -2   4   0  354.56   18.10
   2   4   0  341.57   11.00
  -2   4   0  343.67   15.60
   2   4   0  352.96   13.60
   2   4   0  301.37   15.60
   2   4   0  331.77   16.00
  -2   4   0  323.37   11.20
  -2   4   0  328.37   17.30
   2   4   0  328.77   14.60
  -2   4   0  290.17   15.40
   4  -4   0   33.10    3.10
   4  -4   0   39.10    7.70
  -4  -4   0   40.60    6.60
   4  -4   0   36.20    5.70
  -4  -4   0   38.50    6.70
   4  -4   0   32.20    6.10
  -4   4   0   33.70    6.90
  -4   4   0   30.80    6.70
  -4   4   0   45.60    7.10
   4   4   0   34.80    4.50
   4   4   0   38.00    5.80
  -6  -4   0   70.59    9.70
   6  -4   0   58.89    8.60
   6  -4   0   75.69    5.30
   6  -4   0   71.79   11.50
   6  -4   0   79.29    8.70
  -6  -4   0   65.09    8.30
  -6   4   0   77.19   10.20
   6   4   0   61.09    4.30
  -6   4   0   81.69   10.50
   6   4   0   72.49    9.90
  -6   4   0   78.99   11.60
   6   4   0   72.29    8.30
   6   4   0   61.89    6.50
   6   4   0   62.19    7.10
   6   4   0   66.99    4.20
   8  -4   0  285.47   15.20
   8  -4   0  249.48   12.50
  -8  -4   0  247.38   10.30
   8  -4   0  235.38   18.90
  -8  -4   0  242.08   15.60
   8   4   0  270.97   12.70
   8   4   0  252.47   12.50
  -8   4   0  240.48   16.60
   8   4   0  247.88   10.90
  -8   4   0  214.68   17.60
   8   4   0  256.67   17.30
   8   4   0  236.18   12.90
  10  -4   0   -0.70    5.70
  10  -4   0    7.90    4.50
 -10  -4   0    4.20    5.30
 -10  -4   0   14.30    5.90
  10  -4   0   10.50    4.60
  10   4   0   12.70    6.70
 -10   4   0   17.60    8.40
 -10   4   0    7.30    5.50
 -10   4   0   15.60    7.40
  10   4   0    9.50    4.10
  12  -4   0   44.20    7.90
  12  -4   0   69.39   15.10
 -12  -4   0   39.10   10.40
 -12  -4   0   41.80   11.40
  12   4   0   49.90    8.20
  12   4   0   66.29   13.40
 -12   4   0   20.70    8.20
 -12   4   0   58.69   12.20
  -1  -5   0  185.88   12.10
  -1  -5   0  192.98   10.60
   1  -5   0  185.88   12.00
   1  -5   0  192.08   12.30
  -1  -5   0  205.78   12.50
  -1  -5   0  178.58    9.90
   1  -5   0  190.88   10.90
   1  -5   0  182.88   10.70
   1   5   0  200.88   10.60
   1   5   0  175.78    8.90
  -1   5   0  204.58   11.40
   1   5   0  193.68   10.30
  -1   5   0  196.58   10.40
  -1   5   0  210.88   14.20
   1   5   0  193.08    8.80
   1   5   0  177.68   10.40
   1   5   0  204.98   13.50
  -1   5   0  182.58   11.40
   1   5   0  184.38    8.60
  -3  -5   0  360.96   17.50
  -3  -5   0  328.97   15.50
  -3  -5   0  322.77   17.30
   3  -5   0  351.96   18.20
   3  -5   0  336.87   17.10
  -3  -5   0  353.56   17.20
   3  -5   0  312.77   17.10
  -3   5   0  330.77   19.30
  -3   5   0  301.07   14.80
   3   5   0  315.97   17.10
   3   5   0  329.87   14.10
  -3   5   0  351.26   18.70
  -3   5   0  310.47   17.00
  -3   5   0  303.77   16.80
   5  -5   0   11.10    4.40
   5  -5   0    7.00    4.80
  -5  -5   0    8.90    5.20
  -5  -5   0   14.00    5.50
   5  -5   0   15.10    6.00
  -5  -5   0   12.90    4.30
  -5   5   0    7.50    5.40
  -5   5   0   18.30    5.80
  -5   5   0    8.70    4.90
   5   5   0    9.20    3.90
   5   5   0   12.30    4.90
   5   5   0   11.10    3.40
  -5   5   0   10.80    5.30
   5   5   0   13.10    3.50
  -7  -5   0    0.80    4.00
   7  -5   0    2.70    3.70
  -7  -5   0    7.10    4.50
   7  -5   0   -0.20    3.90
   7  -5   0   -2.60    4.10
   7  -5   0    6.10    2.30
   7   5   0    1.20    3.00
  -7   5   0   12.40    6.30
   7   5   0    8.20    5.00
   7   5   0    3.10    3.10
  -7   5   0    6.00    5.90
   7   5   0    3.90    3.00
   9  -5   0    1.10    9.80
  -9  -5   0    3.60    5.40
  -9  -5   0    2.00    4.50
   9  -5   0    1.50    3.80
   9  -5   0   -2.20    4.50
   9  -5   0    0.20    2.70
   9   5   0    0.30    2.90
   9   5   0    0.80    4.20
  -9   5   0    0.90    4.40
  -9   5   0    2.80    5.40
  -9   5   0    4.20    6.00
 -11  -5   0   15.60    7.80
  11  -5   0    9.40    6.60
  11  -5   0   14.00    5.90
  11  -5   0    6.30    7.50
 -11   5   0   18.80    7.30
 -11   5   0    6.20    6.20
 -11   5   0    7.70    7.10
 -11   5   0   20.80    9.80
  11   5   0   16.40    8.10
   0  -6   0 3196.88  102.09
   0  -6   0 3017.70   94.99
   0  -6   0 3183.88  101.89
   0   6   0 3005.40   93.69
   0   6   0 3280.27   98.99
   0   6   0 2973.70   95.99
   0   6   0 3256.07   96.99
   0   6   0 3282.27  105.19
   0   6   0 3220.58   94.59
   2  -6   0   88.89   10.90
  -2  -6   0  107.69    9.10
   2  -6   0   88.19   10.90
  -2  -6   0  107.89   12.20
  -2  -6   0   91.89   10.90
   2  -6   0  100.79   11.80
  -2   6   0   93.19   12.80
   2   6   0  103.89    7.90
  -2   6   0   94.59    8.60
   2   6   0  120.19   13.10
   2   6   0   84.09    6.80
  -2   6   0   99.39   10.60
   2   6   0   87.89    7.10
  -2   6   0  109.69    9.70
   4  -6   0    5.90    4.70
   4  -6   0   -2.70    4.30
   4  -6   0    3.80    4.30
  -4  -6   0    6.50    4.10
   4   6   0   -2.50    2.80
   4   6   0    0.20    3.20
  -4   6   0   10.50    4.90
  -4   6   0   -0.10    4.10
   4   6   0   -1.90    2.20
  -4   6   0    0.80    4.30
   6  -6   0   43.40    9.10
  -6  -6   0   58.09    9.90
   6  -6   0   41.60    7.90
   6  -6   0   33.60    9.10
  -6  -6   0   33.40    6.80
   6   6   0   29.90    6.50
   6   6   0   36.10    8.20
  -6   6   0   44.80    9.50
  -6   6   0   32.50    9.30
  -6   6   0   38.80    9.20
   6   6   0   46.80    5.80
   8  -6   0  112.09   12.80
  -8  -6   0  136.69   16.00
   8  -6   0  104.19   13.80
   8  -6   0  117.09   17.00
   8   6   0  117.79    9.60
  -8   6   0  115.29   17.10
   8   6   0  101.69   13.90
  -8   6   0  132.49   16.40
   8   6   0  120.89    8.90
  -8   6   0  146.29   17.60
  -1  -7   0  106.79   12.90
   1  -7   0  105.29   12.50
   1  -7   0   99.09    8.00
  -1  -7   0   91.59   12.40
   1  -7   0   88.39   11.70
   1   7   0   97.49    7.00
   1   7   0   85.99    9.10
  -1   7   0   99.39    8.80
  -1   7   0   90.89   10.20
   1   7   0   80.09    4.70
   1   7   0   99.59   13.50
   1   7   0   97.19    5.10
  -1   7   0   80.69   10.70
  -1   7   0   85.99   12.90
  -3  -7   0  112.49   12.20
   3  -7   0  141.39   12.00
  -3  -7   0  147.79   14.80
   3  -7   0  120.59   13.90
   3  -7   0  135.09   14.30
  -3  -7   0  130.69   14.50
  -3   7   0  152.48   12.90
   3   7   0  140.69   15.40
  -3   7   0  124.99   16.30
  -3   7   0  121.89   13.60
   3   7   0  128.09   10.30
   5  -7   0    8.10    5.90
   5  -7   0    9.40    6.00
   5  -7   0   14.90    5.80
  -5  -7   0   13.00    5.90
  -5  -7   0    7.20    6.60
  -5   7   0   12.90    7.00
   5   7   0    6.40    4.90
  -5   7   0   -1.20    4.40
   5   7   0   10.40    3.50
   5   7   0   16.90    5.90
  -5   7   0   11.70    5.80
  -7  -7   0    2.30    5.00
   7  -7   0    8.90    6.20
   7  -7   0    2.60    4.60
  -7  -7   0    4.90    5.70
   7  -7   0    4.00    7.30
   7   7   0    0.20    4.20
  -7   7   0    2.20    5.40
  -7   7   0    0.70    5.70
   7   7   0    4.20    5.40
  -7   7   0   -2.90    4.90
   0   8   0 1103.19   35.80
   2  -8   0   17.80    6.80
  -2  -8   0   26.20    7.50
  -2  -8   0   25.80    9.10
  -2   8   0   37.90    7.40
   2   8   0   37.80    9.70
  -2   8   0   46.70   11.30
  -2   8   0   21.90    7.00
  -4   8   0    0.70    5.30
  -4   8   0    6.40    5.60
  14   0  -1   35.40   10.10
 -14   0   1   74.39   14.10
 -14   0   1   62.89   11.20
  14   0  -1   57.79   13.30
 -14   0   1   66.49   12.50
 -12   0   1   82.39   13.10
 -12   0   1   80.19   12.10
  12   0  -1   99.19   14.00
  12   0  -1  109.49   15.60
  10   0  -1  213.78   15.30
 -10   0   1  228.58   16.70
  10   0  -1  259.87   18.00
 -10   0   1  243.78   16.00
 -10   0   1  217.78   14.20
   8   0  -1    8.70    4.20
  -8   0   1    6.00    2.30
  -8   0   1    3.10    3.20
  -8   0   1    4.70    1.50
  -8   0   1    0.60    3.00
   8   0  -1    6.20    4.00
  -8   0   1    0.70    2.80
   8   0  -1    2.90    3.50
  -8   0   1    6.70    3.70
   6   0  -1 1888.81   61.49
   6   0  -1 1957.80   60.29
  -6   0   1 1901.11   61.49
  -6   0   1 1945.61   56.29
  -6   0   1 1971.80   62.19
  -6   0   1 1899.31   62.59
   6   0  -1 1830.22   62.79
  -6   0   1 1913.81   56.39
   6   0  -1 1820.92   61.29
  -6   0   1 1864.31   60.29
  -6   0   1 1907.21   56.19
   6   0  -1 1842.12   62.39
  -4   0   1  143.09    8.40
   4   0  -1  159.28    8.90
   4   0  -1  143.09    7.40
   4   0  -1  147.49    8.50
  -4   0   1  154.48    5.70
  -4   0   1  148.19    8.30
   4   0  -1  152.08    8.10
   4   0  -1  143.19    8.00
  -4   0   1  159.68    7.80
  -4   0   1  138.99    8.30
  -4   0   1  162.48    8.20
  -4   0   1  150.98    8.10
   2   0  -1  153.58    6.40
  -2   0   1  150.18    5.40
   2   0  -1  146.89    6.30
   2   0  -1  141.79    5.30
  -2   0   1  158.78    6.50
  -2   0   1  150.28    6.90
   2   0  -1  152.58    6.90
  -2   0   1  145.99    7.00
   2   0  -1  152.78    7.00
   2   0  -1  163.58    6.80
  -2   0   1  152.48    6.80
   2   0  -1  156.88    6.80
  -2   0   1  145.59    6.60
   0   0  -1  548.95   17.00
   0   0   1  544.75   17.90
   0   0   1  545.05   17.20
   0   0   1  555.74   16.60
   0   0  -1  526.05   16.80
   0   0  -1  522.65   16.80
   0   0   1  522.65   17.20
  -2   0  -1  164.08    8.90
  -2   0  -1  163.98    7.70
  -2   0  -1  168.38    7.30
  -2   0  -1  162.28    7.10
   2   0   1  160.08    7.00
   2   0   1  161.18    7.90
   2   0   1  170.88    8.10
  -2   0  -1  179.98    7.10
   2   0   1  171.48    5.90
  -4   0  -1 1395.46   43.40
  -4   0  -1 1431.56   45.30
  -4   0  -1 1479.85   47.10
   4   0   1 1409.26   46.40
   4   0   1 1414.96   44.40
  -4   0  -1 1317.27   44.50
   4   0   1 1387.06   44.90
  -4   0  -1 1384.56   45.90
  -6   0  -1 1204.28   39.80
   6   0   1 1281.77   44.80
   6   0   1 1230.78   41.70
   6   0   1 1235.78   43.40
   6   0   1 1214.48   42.70
  -6   0  -1 1368.16   43.10
  -6   0  -1 1225.38   44.90
  -6   0  -1 1267.87   43.50
   8   0   1 3806.02  119.39
  -8   0  -1 3762.82  114.39
  -8   0  -1 3693.43  118.39
  -8   0  -1 3676.53  115.59
  -8   0  -1 3500.15  109.59
   8   0   1 3377.06  116.49
  -8   0  -1 3735.53  116.39
   8   0   1 3729.73  115.99
 -10   0  -1   21.40    6.00
 -10   0  -1   23.50    6.70
 -10   0  -1   16.90    3.60
 -10   0  -1   16.80    6.30
  10   0   1   30.80    7.50
 -12   0  -1    8.90    6.90
 -12   0  -1   -2.60    4.00
 -12   0  -1   -0.80    4.60
 -12   0  -1   -5.00    4.00
  12   0   1    6.40    5.60
  12   0   1    4.90    6.70
  13  -1  -1  244.68   12.40
 -13  -1   1  223.08   18.70
  13  -1  -1  226.58   21.00
 -13  -1   1  228.18   18.20
  13  -1  -1  242.48   18.20
 -13   1   1  190.18   16.40
 -13   1   1  234.08   28.00
  13   1  -1  208.38   19.00
  13   1  -1  241.98   19.60
 -13   1   1  233.28   18.20
  11  -1  -1   15.40    7.00
 -11  -1   1   16.50    6.10
 -11  -1   1   11.00    5.80
 -11  -1   1   17.00    6.20
  11  -1  -1   15.50    3.70
  11  -1  -1   19.50    6.30
 -11   1   1   20.60    6.60
 -11   1   1   11.20    3.10
 -11   1   1   17.70    3.30
  11   1  -1   10.70    5.60
 -11   1   1   13.80    5.50
  11   1  -1   12.30    3.50
  11   1  -1   10.90    6.10
 -11   1   1   18.00    5.20
 -11   1   1   31.10    8.90
  11   1  -1   12.70    6.10
  -9  -1   1   84.69   10.60
  -9  -1   1   90.39   11.00
   9  -1  -1   82.79   10.30
  -9  -1   1  104.99   11.50
   9  -1  -1   91.49   12.50
   9  -1  -1   90.09    6.20
  -9   1   1   85.89   11.20
   9   1  -1   81.09   11.00
  -9   1   1   88.19    4.30
  -9   1   1   84.69   10.50
   9   1  -1   88.99   11.20
   9   1  -1   71.79   10.30
  -9   1   1   79.19    6.00
  -9   1   1   79.59   12.00
  -9   1   1   71.59    5.90
  -9   1   1   97.49    9.40
   7  -1  -1  317.07   13.90
   7  -1  -1  323.77   12.60
  -7  -1   1  302.07   10.80
  -7  -1   1  316.27   15.90
  -7  -1   1  313.47   16.10
   7  -1  -1  326.37   15.70
   7  -1  -1  309.97   17.40
   7  -1  -1  317.27   18.00
  -7  -1   1  305.17   15.70
   7   1  -1  340.37   16.80
  -7   1   1  310.97   14.00
  -7   1   1  339.57   16.20
   7   1  -1  322.67   15.90
  -7   1   1  328.47   18.00
  -7   1   1  312.17   13.30
   7   1  -1  305.37   16.30
   7   1  -1  329.87   16.00
  -7   1   1  300.87   12.00
  -7   1   1  331.07   16.90
  -5  -1   1 2252.37   66.89
   5  -1  -1 2191.08   71.99
   5  -1  -1 2173.08   66.49
   5  -1  -1 2246.88   67.39
   5  -1  -1 2192.58   69.19
  -5  -1   1 2217.88   69.79
  -5  -1   1 2253.27   69.99
  -5  -1   1 2130.09   68.39
  -5  -1   1 2237.88   69.29
   5  -1  -1 2242.78   72.09
   5  -1  -1 2221.18   70.29
  -5   1   1 2225.38   70.69
   5   1  -1 2217.58   69.69
  -5   1   1 2181.28   69.49
   5   1  -1 2247.88   66.39
  -5   1   1 2220.58   69.29
   5   1  -1 2304.87   70.39
  -5   1   1 2205.68   67.79
   5   1  -1 2128.39   69.09
  -5   1   1 2203.58   67.39
   5   1  -1 2272.67   69.79
  -5   1   1 2154.78   71.59
   5   1  -1 2384.16   70.99
  -5   1   1 2355.56   72.79
   5   1  -1 2151.08   69.59
   3  -1  -1 2111.89   63.19
   3  -1  -1 2251.37   65.09
   3  -1  -1 2006.70   60.79
   3  -1  -1 1990.30   64.09
  -3  -1   1 2038.40   61.69
  -3  -1   1 2015.10   62.99
   3   1  -1 2200.98   63.49
   3   1  -1 1973.80   61.79
   3   1  -1 2043.00   62.99
  -3   1   1 1976.70   64.19
  -3   1   1 2009.60   62.19
   3   1  -1 2067.99   60.79
   3   1  -1 2075.39   61.89
  -1  -1   1 5980.90  196.68
   1  -1  -1 5836.32  240.18
   1  -1  -1 6319.27  244.28
  -1  -1   1 6232.38  198.08
  -1   1   1 5860.41  238.58
   1   1  -1 5845.82  196.18
   1   1  -1 5846.11  197.48
  -1   1   1 6002.40  243.88
  -1  -1  -1  261.27    9.10
  -1  -1  -1  249.38    9.50
   1  -1   1  264.37   10.10
   1  -1   1  256.27   10.40
  -1  -1  -1  254.47    9.60
  -1  -1  -1  253.87    9.70
   1  -1   1  249.58    9.80
   1  -1   1  265.97    9.70
  -1  -1  -1  248.78    9.70
  -1  -1  -1  249.08    9.70
   1  -1   1  233.48    9.50
   1   1   1  243.48    9.50
  -1   1  -1  248.88   10.00
   1   1   1  250.97    9.70
  -1   1  -1  265.57    9.80
   1   1   1  256.17    9.40
   1   1   1  256.77    9.60
   1   1   1  252.17    7.80
  -1   1  -1  249.88   10.40
  -1   1  -1  241.48    9.70
  -3  -1  -1  907.81   30.90
   3  -1   1 1028.80   34.40
   3  -1   1  950.30   30.20
   3  -1   1  936.01   33.20
  -3  -1  -1  946.31   32.10
  -3  -1  -1  945.81   31.80
   3  -1   1  979.10   32.10
  -3  -1  -1  975.20   30.80
  -3  -1  -1  961.20   31.30
  -3  -1  -1  954.50   31.90
   3   1   1 1001.30   31.90
   3   1   1  995.40   30.50
   3   1   1  973.60   31.70
   3   1   1  974.80   30.60
  -3   1  -1  938.51   32.70
  -3   1  -1  981.40   33.80
   3   1   1  953.80   31.80
   3   1   1  969.00   31.90
  -3   1  -1  933.11   30.20
   3   1   1  983.70   29.50
  -3   1  -1  957.70   30.20
  -3   1  -1  969.80   32.50
   5  -1   1  745.43   26.10
  -5  -1  -1  705.93   25.70
  -5  -1  -1  697.93   23.40
  -5  -1  -1  712.03   26.90
   5  -1   1  708.43   26.70
  -5  -1  -1  689.83   26.60
   5  -1   1  704.23   28.90
  -5  -1  -1  702.63   26.90
   5  -1   1  730.83   28.70
  -5  -1  -1  662.83   25.70
   5   1   1  745.33   21.00
   5   1   1  721.73   23.60
  -5   1  -1  752.52   29.20
  -5   1  -1  713.43   24.80
   5   1   1  697.13   26.70
  -5   1  -1  689.13   27.50
  -5   1  -1  732.03   22.90
  -5   1  -1  695.83   25.00
   5   1   1  689.93   26.10
   5   1   1  731.63   25.60
  -5   1  -1  719.63   27.20
  -7  -1  -1  769.12   30.90
   7  -1   1  748.13   31.70
   7  -1   1  799.42   34.00
  -7  -1  -1  775.42   30.50
  -7  -1  -1  772.82   31.40
  -7  -1  -1  783.62   25.70
  -7  -1  -1  788.72   30.10
  -7   1  -1  763.82   31.30
  -7   1  -1  736.33   28.30
   7   1   1  816.62   32.40
   7   1   1  757.52   30.90
   7   1   1  807.82   31.70
  -7   1  -1  745.83   27.70
   7   1   1  774.12   29.60
   9  -1   1   33.00    6.80
   9  -1   1   38.80    9.20
  -9  -1  -1   42.00    7.30
  -9  -1  -1   33.80    6.80
  -9  -1  -1   30.50    7.40
  -9  -1  -1   24.70    3.20
  -9  -1  -1   39.90    8.20
  -9   1  -1   22.70    4.70
  -9   1  -1   18.00    6.00
   9   1   1   30.80    7.70
   9   1   1   30.10    7.20
  -9   1  -1   38.00    7.90
  -9   1  -1   33.80    6.30
  -9   1  -1   17.00    6.80
   9   1   1   32.50    7.80
 -11  -1  -1  271.17   19.70
 -11  -1  -1  281.57   19.30
 -11  -1  -1  284.07   18.90
  11  -1   1  278.37   15.30
  11  -1   1  281.07   22.10
  11  -1   1  295.77   19.00
  11   1   1  299.47   20.40
  11   1   1  280.67   20.70
 -11   1  -1  317.47   20.10
 -11   1  -1  310.37   20.30
 -11   1  -1  266.37   19.30
 -11   1  -1  280.27   21.70
 -11   1  -1  265.17   16.50
  13  -1   1    4.30    5.70
  13  -1   1   -0.50    5.80
 -13  -1  -1   12.10    7.80
 -13  -1  -1   20.40    8.40
 -13  -1  -1    6.90    6.40
  13  -1   1    2.50    4.20
 -13   1  -1    6.40    6.80
 -13   1  -1    8.00    6.60
  13   1   1    0.10    6.50
 -13   1  -1    5.00    5.60
 -13   1  -1    3.50    5.10
  12  -2  -1   73.79   11.40
  12  -2  -1   67.59    7.40
 -12  -2   1   66.69   11.70
 -12  -2   1   68.49   11.30
  12  -2  -1   92.49   16.00
 -12  -2   1   84.69   11.70
  12   2  -1   49.70   10.70
 -12   2   1   69.79   11.60
 -12   2   1   71.39    8.00
  12   2  -1   45.10    9.80
 -12   2   1   54.79   12.70
 -12   2   1   85.99   13.40
  10  -2  -1  163.78   12.70
 -10  -2   1  178.48   15.40
  10  -2  -1  173.38   10.70
  10  -2  -1  159.58   18.40
 -10  -2   1  167.88   13.60
 -10  -2   1  176.18   12.80
  10   2  -1  194.48   14.20
  10   2  -1  158.78   12.70
 -10   2   1  186.78   16.50
 -10   2   1  187.78   15.60
 -10   2   1  191.18    8.90
 -10   2   1  190.58   14.10
  10   2  -1  178.88   10.10
  -8  -2   1    5.40    4.00
   8  -2  -1    1.00    2.10
   8  -2  -1   -2.50    2.80
   8  -2  -1    0.80    3.80
   8  -2  -1    2.10    2.10
  -8  -2   1    1.30    2.80
  -8   2   1   -0.30    1.90
   8   2  -1   -1.90    2.80
  -8   2   1   -2.00    3.00
  -8   2   1    3.00    2.70
   8   2  -1    1.10    2.80
  -8   2   1    5.70    4.00
  -8   2   1    3.60    2.30
  -8   2   1   -1.40    3.40
   8   2  -1    0.90    2.00
  -6  -2   1 1221.98   39.10
   6  -2  -1 1241.78   45.60
   6  -2  -1 1214.38   41.00
   6  -2  -1 1324.47   39.90
  -6  -2   1 1241.28   43.40
   6  -2  -1 1194.28   45.60
  -6  -2   1 1223.28   40.30
  -6  -2   1 1218.28   39.80
  -6  -2   1 1238.68   43.10
   6  -2  -1 1233.18   38.30
  -6   2   1 1148.69   44.90
   6   2  -1 1191.68   41.70
   6   2  -1 1180.58   40.50
  -6   2   1 1269.87   44.10
  -6   2   1 1223.28   40.40
  -6   2   1 1171.18   41.10
   6   2  -1 1332.87   44.40
   6   2  -1 1186.68   39.30
  -6   2   1 1259.87   41.90
   6   2  -1 1231.58   39.10
  -6   2   1 1172.68   45.30
   6   2  -1 1265.57   41.30
  -4  -2   1   70.79    6.00
  -4  -2   1   66.99    3.90
   4  -2  -1   67.99    3.20
   4  -2  -1   70.29    4.90
   4  -2  -1   76.89    8.50
   4  -2  -1   64.49    5.60
  -4  -2   1   70.09    3.80
   4  -2  -1   72.79    8.60
  -4  -2   1   63.49    5.00
   4  -2  -1   70.09    4.90
  -4  -2   1   71.69    5.80
   4   2  -1   68.29    5.30
   4   2  -1   73.89    5.20
   4   2  -1   60.39    4.50
   4   2  -1   61.59    6.60
  -4   2   1   84.69    9.00
   4   2  -1   67.69    5.90
  -4   2   1   65.49    5.90
   4   2  -1   66.39    4.30
   4   2  -1   68.19    5.90
  -4   2   1   67.99    5.40
  -4   2   1   73.49    8.40
  -4   2   1   73.09    5.10
  -4   2   1   66.79    5.70
  -4   2   1   55.69    4.40
   4   2  -1   65.09    4.10
   2  -2  -1   95.59    6.20
   2  -2  -1   95.89    6.70
   2  -2  -1  112.79    6.00
   2  -2  -1  105.59    7.00
  -2  -2   1  100.09    5.80
   2  -2  -1  108.09    5.20
  -2  -2   1  107.59    6.20
   2  -2  -1  109.09    5.90
  -2  -2   1  106.19    6.10
   2  -2  -1  108.79    3.90
  -2  -2   1  112.39    6.50
  -2  -2   1  107.19    6.50
  -2   2   1  113.89    7.10
   2   2  -1  111.49    6.00
   2   2  -1  105.29    6.30
  -2   2   1  105.29    5.80
   2   2  -1   98.99    6.00
  -2   2   1  113.49    6.70
   2   2  -1  104.79    6.30
   2   2  -1  100.79    5.70
  -2   2   1  107.59    7.30
   2   2  -1  116.79    6.00
  -2   2   1   99.99    7.70
  -2   2   1  113.79    6.20
   0  -2  -1  346.17   13.30
   0  -2   1  344.27   12.90
   0  -2  -1  349.57   13.20
   0  -2   1  341.07   12.70
   0  -2  -1  337.87   12.80
   0  -2   1  355.76   14.00
   0  -2  -1  370.86   14.10
   0  -2   1  328.47   12.30
   0  -2  -1  349.96   11.30
   0  -2  -1  338.37   12.70
   0  -2  -1  343.57   12.40
   0  -2   1  358.56   13.30
   0  -2  -1  347.57   11.40
   0   2   1  361.86   12.40
   0   2   1  342.77   13.90
   0   2  -1  342.57   12.20
   0   2   1  340.27   13.20
   0   2   1  334.07   12.70
   0   2  -1  340.57   13.70
   0   2   1  339.87   12.70
   0   2  -1  334.47   12.60
   0   2  -1  344.27   13.00
   0   2  -1  335.97   12.20
   0   2  -1  319.67   12.90
   0   2   1  333.07   13.60
   0   2   1  324.67   12.90
   0   2   1  331.07   12.80
   0   2  -1  367.66   12.90
   0   2   1  331.97   11.40
   0   2   1  329.97   11.40
   0   2  -1  334.17   10.60
   0   2  -1  359.56   12.90
   2  -2   1   51.59    2.60
  -2  -2  -1   51.49    4.40
   2  -2   1   57.19    5.30
  -2  -2  -1   60.09    4.90
  -2  -2  -1   47.50    3.40
   2  -2   1   55.29    4.70
  -2  -2  -1   55.89    5.60
   2  -2   1   50.79    5.90
  -2  -2  -1   50.49    4.00
   2  -2   1   55.59    4.60
   2  -2   1   61.39    6.60
   2   2   1   52.39    2.90
   2   2   1   53.59    4.40
   2   2   1   44.80    3.70
   2   2   1   51.99    3.80
   2   2   1   51.59    4.40
  -2   2  -1   56.19    5.80
  -2   2  -1   52.09    4.80
   2   2   1   46.20    3.80
   2   2   1   58.79    5.60
  -2   2  -1   56.29    4.80
   2   2   1   53.59    4.40
  -2   2  -1   50.79    5.90
   2   2   1   48.50    4.90
   4  -2   1  822.62   30.10
  -4  -2  -1  824.62   28.60
   4  -2   1  835.02   32.40
   4  -2   1  851.81   27.80
  -4  -2  -1  831.62   30.60
  -4  -2  -1  845.72   28.00
  -4  -2  -1  819.82   28.00
   4  -2   1  801.52   31.70
  -4  -2  -1  893.31   30.00
   4  -2   1  868.71   28.80
   4  -2   1  811.42   28.90
   4   2   1  839.02   28.90
   4   2   1  837.32   29.90
  -4   2  -1  813.82   31.10
   4   2   1  840.82   28.80
   4   2   1  855.91   27.90
   4   2   1  827.92   27.70
  -4   2  -1  870.71   28.70
   4   2   1  822.72   30.00
   4   2   1  858.91   27.90
   4   2   1  870.61   28.80
  -4   2  -1  839.52   31.10
  -4   2  -1  840.02   26.70
  -4   2  -1  882.91   32.90
  -6  -2  -1  914.01   34.00
  -6  -2  -1  929.11   35.10
   6  -2   1  896.31   31.90
  -6  -2  -1  862.31   29.70
   6  -2   1  946.11   32.30
   6  -2   1  929.21   37.70
  -6   2  -1  890.01   34.90
  -6   2  -1  890.41   37.20
   6   2   1  875.21   31.70
   6   2   1  931.61   29.90
  -6   2  -1  917.41   30.40
   6   2   1  921.91   33.80
  -6   2  -1  922.01   30.70
  -8  -2  -1 3201.78   99.49
   8  -2   1 3296.67  105.09
  -8  -2  -1 2836.22   90.39
  -8  -2  -1 3020.60   98.59
  -8  -2  -1 3013.00   97.79
   8  -2   1 3124.09   96.49
  -8   2  -1 2983.90   93.69
  -8   2  -1 3078.49  100.49
   8   2   1 3048.79   99.99
  -8   2  -1 3022.70  103.19
   8   2   1 2899.31   97.29
  -8   2  -1 3008.80   91.39
   8   2   1 3114.89   99.09
 -10  -2  -1   23.40    6.60
  10  -2   1   20.60    6.20
  10  -2   1   21.30    8.30
 -10  -2  -1   24.00    6.80
  10  -2   1   21.40    5.40
 -10  -2  -1   13.00    5.80
 -10   2  -1   16.60    4.60
 -10   2  -1   26.50    7.80
 -10   2  -1   17.90    7.00
  10   2   1   10.60    5.50
  10   2   1   17.10    6.60
  10   2   1   27.10    7.60
 -10   2  -1   23.80    7.30
  12  -2   1   -2.60    5.40
 -12  -2  -1    0.10    5.20
  12  -2   1    4.30    3.80
 -12  -2  -1    3.40    5.20
  12  -2   1   -0.40    4.10
 -12  -2  -1   12.50    6.40
 -12   2  -1   -0.20    6.10
 -12   2  -1   10.00    4.30
 -12   2  -1   -0.40    5.00
 -12   2  -1    5.50    4.40
  12   2   1    0.20    5.10
 -12   2  -1    4.80    6.00
  12   2   1    3.10    5.80
 -13  -3   1  212.28   17.70
  13  -3  -1  186.68   12.90
  13  -3  -1  175.58   15.00
 -13  -3   1  144.29   17.80
  13  -3  -1  202.38   28.40
 -13   3   1  141.89   20.20
 -13   3   1  193.58   22.00
  13   3  -1  171.28   15.10
  13   3  -1  200.08   22.90
 -13   3   1  160.48   18.20
  11  -3  -1   13.40    7.60
  11  -3  -1   15.00    5.80
 -11  -3   1   11.80    6.20
 -11  -3   1   12.50    6.10
  11  -3  -1    5.40    3.50
 -11  -3   1   16.40    5.30
 -11   3   1    9.20    5.30
  11   3  -1    5.70    4.30
 -11   3   1    1.30    3.80
 -11   3   1    5.50    6.20
  11   3  -1   -0.10    4.80
 -11   3   1    8.20    6.00
   9  -3  -1   70.99   12.40
  -9  -3   1   67.19   10.10
   9  -3  -1   76.59    7.90
  -9  -3   1   77.59   10.80
   9  -3  -1   82.89    9.30
   9   3  -1   72.39   11.10
  -9   3   1   73.39   12.40
  -9   3   1   66.19    7.50
   9   3  -1   54.59    7.40
   9   3  -1   64.59    8.40
  -9   3   1   69.09    9.10
  -9   3   1   85.69   12.00
  -9   3   1   73.69   10.20
   7  -3  -1  166.48   14.10
  -7  -3   1  190.78    9.90
  -7  -3   1  156.68   11.50
  -7  -3   1  173.58    8.80
  -7  -3   1  177.18   12.70
   7  -3  -1  189.18   10.40
   7  -3  -1  176.38   11.40
  -7  -3   1  171.38    8.40
  -7   3   1  179.68   12.10
   7   3  -1  190.58   10.20
   7   3  -1  183.88   12.80
   7   3  -1  172.08   11.50
  -7   3   1  162.48   12.30
  -7   3   1  157.38   13.70
   7   3  -1  185.58   11.10
   7   3  -1  177.08    9.40
   7   3  -1  182.58    9.90
  -7   3   1  168.28   10.60
   5  -3  -1 1031.70   35.70
  -5  -3   1 1119.99   39.90
   5  -3  -1 1029.80   40.20
  -5  -3   1 1079.49   36.30
   5  -3  -1 1043.30   34.50
  -5  -3   1 1078.19   38.50
  -5   3   1 1053.99   40.40
  -5   3   1 1079.89   39.50
   5   3  -1  981.40   36.30
   5   3  -1 1051.39   32.60
   5   3  -1 1008.60   35.80
   5   3  -1 1042.70   37.40
  -5   3   1 1062.39   35.60
  -5   3   1 1039.80   37.00
  -5   3   1 1014.10   34.80
   5   3  -1 1046.30   37.70
  -5   3   1 1042.10   38.40
   5   3  -1 1075.59   32.60
   5   3  -1 1048.70   34.10
  -3  -3   1  694.13   25.50
  -3  -3   1  719.33   26.30
  -3  -3   1  733.73   26.40
   3  -3  -1  714.23   25.40
   3  -3  -1  739.13   27.80
  -3  -3   1  696.93   25.40
   3  -3  -1  680.63   27.30
  -3  -3   1  716.93   25.30
   3  -3  -1  733.43   25.50
   3  -3  -1  722.63   23.20
   3  -3  -1  729.13   26.30
   3   3  -1  695.63   25.20
  -3   3   1  724.43   27.80
   3   3  -1  670.63   25.80
   3   3  -1  697.23   24.60
   3   3  -1  662.03   25.80
  -3   3   1  680.73   27.10
   3   3  -1  727.03   25.50
  -3   3   1  692.73   27.70
  -3   3   1  722.23   26.10
   3   3  -1  660.13   24.90
   3   3  -1  705.53   25.90
  -3   3   1  685.23   25.10
   3   3  -1  731.73   25.40
  -3   3   1  691.83   23.50
   1  -3  -1 1830.72   54.49
   1  -3  -1 1704.03   55.99
  -1  -3   1 1813.22   52.79
  -1  -3   1 1712.73   52.69
  -1  -3   1 1794.22   56.09
  -1  -3   1 1748.13   55.19
   1  -3  -1 1888.81   56.59
  -1  -3   1 1778.82   57.39
   1  -3  -1 1801.52   53.59
   1  -3  -1 1843.52   56.79
  -1  -3   1 1784.82   55.69
   1  -3  -1 1807.42   56.19
   1   3  -1 1820.12   53.49
   1   3  -1 1720.83   55.39
   1   3  -1 1791.22   57.49
   1   3  -1 1741.83   55.19
   1   3  -1 1806.62   56.09
  -1   3   1 1831.02   58.09
   1   3  -1 1761.22   52.99
  -1   3   1 1735.53   53.49
  -1   3   1 1778.92   56.39
  -1   3   1 1766.12   56.29
  -1   3   1 1725.53   54.69
  -1   3   1 1780.02   56.09
  -1   3   1 1812.62   57.59
  -1   3   1 1739.43   53.69
   1   3  -1 1734.33   55.59
  -1   3   1 1725.83   56.29
   1   3  -1 1782.92   55.29
   1   3  -1 1737.03   53.69
  -1  -3  -1   95.19    6.80
  -1  -3  -1   80.69    5.00
  -1  -3  -1   88.79    5.10
  -1  -3  -1   83.49    6.30
   1  -3   1   91.19    6.50
   1  -3   1   92.99    7.20
  -1  -3  -1   86.69    5.90
   1  -3   1   82.59    6.10
   1  -3   1   92.39    6.20
   1  -3   1   79.59    5.80
   1  -3   1   82.19    6.30
   1   3   1   87.59    5.20
   1   3   1   85.09    4.50
   1   3   1   81.59    6.60
  -1   3  -1   85.49    6.00
  -1   3  -1   88.09    6.30
  -1   3  -1   83.69    6.50
   1   3   1   82.69    6.50
   1   3   1   78.69    5.10
   1   3   1   86.69    5.20
   1   3   1   86.09    5.60
   1   3   1   82.29    6.60
   1   3   1   84.69    5.50
   1   3   1   91.69    6.80
  -1   3  -1   87.99    6.80
  -1   3  -1   76.89    4.60
  -1   3  -1   87.89    8.00
  -3  -3  -1  345.07   15.40
   3  -3   1  303.97   14.90
   3  -3   1  342.47   10.60
  -3  -3  -1  317.17   14.30
   3  -3   1  322.57   16.30
  -3  -3  -1  338.67   14.00
   3  -3   1  293.97   14.40
   3  -3   1  330.17   14.60
  -3  -3  -1  327.97   12.10
  -3  -3  -1  331.47   15.30
   3  -3   1  302.27   14.40
   3  -3   1  306.37   15.60
  -3  -3  -1  332.07   12.00
  -3   3  -1  317.37   15.40
   3   3   1  333.87   12.60
   3   3   1  288.07   12.80
   3   3   1  327.07   11.70
  -3   3  -1  318.87   10.40
  -3   3  -1  329.97   16.60
   3   3   1  338.27   14.40
   3   3   1  334.47   14.90
   3   3   1  345.97   12.50
   3   3   1  343.17   14.30
   3   3   1  316.67   14.80
   3   3   1  328.97   14.50
   3   3   1  324.27   14.40
  -3   3  -1  327.87   15.50
  -5  -3  -1  335.97   14.70
   5  -3   1  371.66   13.70
   5  -3   1  346.47   19.20
  -5  -3  -1  345.27   17.50
  -5  -3  -1  342.07   13.70
  -5  -3  -1  365.56   18.10
   5  -3   1  353.36   16.10
  -5   3  -1  332.47   15.60
  -5   3  -1  373.36   18.40
   5   3   1  327.27   14.00
   5   3   1  378.76   14.90
  -5   3  -1  304.07   18.60
  -5   3  -1  349.57   12.10
  -5   3  -1  330.67   17.80
   5   3   1  368.96   14.70
   5   3   1  356.66   14.80
   5   3   1  328.47   14.70
  -7  -3  -1  520.45   22.30
   7  -3   1  563.34   22.00
   7  -3   1  577.74   23.60
  -7  -3  -1  563.54   25.90
   7  -3   1  532.75   28.30
  -7  -3  -1  567.94   25.00
  -7   3  -1  515.95   22.00
   7   3   1  582.44   23.20
   7   3   1  544.05   20.40
   7   3   1  562.54   20.40
  -7   3  -1  606.24   27.30
  -7   3  -1  564.54   28.80
   7   3   1  577.04   23.80
  -7   3  -1  559.64   19.40
   7   3   1  536.35   22.50
  -9  -3  -1   19.50    6.40
   9  -3   1   15.10    4.90
   9  -3   1   27.00    9.00
   9  -3   1   21.60    5.10
  -9  -3  -1   20.60    6.00
   9   3   1   21.10    7.40
  -9   3  -1   24.00    4.10
  -9   3  -1   18.30    6.70
   9   3   1   29.40    6.70
   9   3   1   24.20    6.50
  -9   3  -1   30.70    8.60
  11  -3   1  209.88   15.00
 -11  -3  -1  234.88   18.20
 -11  -3  -1  212.98   17.40
  11  -3   1  216.38   24.50
  11   3   1  252.97   17.80
  11   3   1  255.07   19.60
 -11   3  -1  204.18   23.40
 -11   3  -1  231.98   19.20
 -11   3  -1  201.18   17.40
 -11   3  -1  240.48   16.10
  12  -4  -1   34.70   11.80
  12  -4  -1   41.70    8.70
 -12  -4   1   38.70   10.20
  12   4  -1   41.60    7.40
 -12   4   1   38.00   10.40
 -12   4   1   24.90    7.70
 -12   4   1   41.90    8.70
 -12   4   1   65.59   15.20
  12   4  -1   43.80   13.20
 -10  -4   1   85.09   11.80
 -10  -4   1  105.99   13.90
  10  -4  -1  113.89    9.60
  10  -4  -1   83.29    9.40
  10  -4  -1  103.59   16.20
 -10   4   1  113.09   17.00
 -10   4   1  120.19   13.60
  10   4  -1   95.59   10.30
  10   4  -1  121.19   15.20
 -10   4   1  121.49   15.10
  10   4  -1  121.89    8.90
   8  -4  -1   -1.70    4.10
   8  -4  -1    1.20    2.60
  -8  -4   1   -4.20    3.50
  -8  -4   1    1.10    3.30
   8   4  -1   -0.10    3.30
   8   4  -1    2.50    2.00
   8   4  -1   -3.30    1.30
  -8   4   1   -2.70    3.90
   8   4  -1   -2.10    3.90
  -8   4   1    1.80    4.80
  -8   4   1    1.30    3.50
   8   4  -1   -0.70    1.70
   6  -4  -1  442.96   19.70
   6  -4  -1  470.25   21.70
   6  -4  -1  431.46   25.50
   6  -4  -1  435.66   17.20
  -6  -4   1  472.05   21.10
  -6  -4   1  474.75   20.20
  -6  -4   1  423.66   21.60
   6   4  -1  459.65   21.50
  -6   4   1  447.66   24.00
   6   4  -1  438.96   17.70
  -6   4   1  418.46   17.60
   6   4  -1  419.26   19.30
  -6   4   1  431.86   22.10
  -6   4   1  433.36   21.90
  -4  -4   1   51.99    7.20
  -4  -4   1   39.70    6.00
  -4  -4   1   50.59    7.50
  -4  -4   1   30.30    5.90
   4  -4  -1   41.10    7.40
   4  -4  -1   30.20    5.90
  -4  -4   1   31.20    5.40
   4  -4  -1   37.70    5.70
   4  -4  -1   30.80    3.70
  -4   4   1   28.10    5.50
   4   4  -1   43.60    6.50
  -4   4   1   38.40    4.40
   4   4  -1   38.30    5.60
   4   4  -1   36.20    5.10
  -4   4   1   36.00    7.20
  -4   4   1   39.80    7.80
  -4   4   1   28.10    6.40
   2  -4  -1   22.90    3.60
  -2  -4   1   11.10    3.40
  -2  -4   1   16.30    4.00
  -2  -4   1   19.30    5.10
   2  -4  -1   13.20    3.70
   2  -4  -1   17.30    3.60
  -2  -4   1   24.10    5.20
   2  -4  -1   22.20    4.90
   2  -4  -1   16.10    4.40
  -2   4   1   19.20    4.90
  -2   4   1   17.50    4.50
  -2   4   1   20.60    3.10
  -2   4   1   13.20    3.40
  -2   4   1   21.10    3.00
  -2   4   1   18.30    4.90
   2   4  -1   17.50    3.60
   2   4  -1   19.00    4.40
   2   4  -1   14.80    3.70
   2   4  -1   18.60    3.50
   2   4  -1   18.50    4.10
   0  -4   1  117.29    8.40
   0  -4   1  126.29    9.50
   0  -4   1  107.49    8.30
   0  -4  -1  115.99    6.30
   0  -4  -1  112.09    7.00
   0  -4  -1  111.29    8.30
   0  -4   1  120.39    6.90
   0  -4  -1   98.39    7.30
   0  -4   1  110.29    8.00
   0  -4  -1  103.79    8.00
   0   4  -1  117.99    8.30
   0   4   1  122.99    6.70
   0   4   1  119.99    6.60
   0   4  -1  118.79    4.80
   0   4   1  122.89    6.70
   0   4   1  113.99   12.10
   0   4  -1  117.39    7.40
   0   4  -1  100.19    6.50
   0   4   1  127.49    7.80
   0   4  -1  111.89    6.70
   0   4  -1  132.99    8.20
   0   4  -1  114.29    5.00
   0   4   1  127.49    7.50
   2  -4   1   16.70    4.40
  -2  -4  -1   17.00    2.40
  -2  -4  -1   16.70    4.00
  -2  -4  -1   13.90    3.90
  -2  -4  -1   13.50    2.30
  -2  -4  -1   13.50    4.00
  -2  -4  -1   15.40    3.30
   2  -4   1   13.90    3.70
   2  -4   1   12.20    3.70
   2  -4   1   18.50    4.30
   2  -4   1   19.30    4.90
   2   4   1   13.10    3.90
   2   4   1   12.80    2.50
   2   4   1   15.40    2.50
   2   4   1   11.30    3.30
  -2   4  -1   16.40    2.00
  -2   4  -1   19.60    4.60
   2   4   1   14.80    3.40
   2   4   1   12.00    2.40
  -2   4  -1   12.70    3.70
  -2   4  -1   15.50    4.10
  -4  -4  -1  253.07   14.50
   4  -4   1  230.38   15.20
   4  -4   1  245.78   14.00
   4  -4   1  242.28   13.50
  -4  -4  -1  262.67   12.90
  -4  -4  -1  272.47   14.90
  -4  -4  -1  254.77    9.00
   4   4   1  256.47   10.40
   4   4   1  247.18   10.30
  -4   4  -1  259.47   15.20
  -4   4  -1  262.27   16.20
   4   4   1  252.47   10.20
   4   4   1  243.28   13.10
  -4   4  -1  258.77   15.10
   4   4   1  244.28   10.60
   4   4   1  267.07   13.60
  -6  -4  -1  375.76   20.20
   6  -4   1  347.97   21.70
  -6  -4  -1  367.26   18.40
  -6  -4  -1  336.47   13.60
   6  -4   1  393.76   14.30
   6  -4   1  408.26   19.10
   6   4   1  338.47   16.20
   6   4   1  366.16   15.50
   6   4   1  389.26   16.00
   6   4   1  384.76   15.50
  -6   4  -1  389.16   21.10
   6   4   1  393.36   17.60
  -6   4  -1  467.05   24.00
  -8  -4  -1 1751.42   57.69
   8  -4   1 1866.61   70.39
   8  -4   1 1752.92   61.89
  -8  -4  -1 1837.12   66.19
  -8  -4  -1 1898.81   64.19
   8  -4   1 1755.82   57.79
   8   4   1 1714.13   58.99
   8   4   1 1934.11   60.69
  -8   4  -1 1980.90   71.29
   8   4   1 1783.72   59.29
   8   4   1 1658.93   59.19
   8   4   1 1903.11   71.19
  -8   4  -1 1830.42   67.39
  10  -4   1   -4.00    4.50
 -10  -4  -1   13.50    6.30
  10  -4   1    7.20    4.20
  10  -4   1    5.70    4.40
 -10  -4  -1    4.40    4.70
 -10   4  -1   11.30    6.40
 -10   4  -1    5.20    4.80
 -10   4  -1    3.80    6.30
  10   4   1    0.80    5.20
  10   4   1    5.70    4.10
  11  -5  -1   -8.30    3.20
 -11  -5   1    0.20    4.80
  11  -5  -1    8.20    7.80
  11  -5  -1   -3.70    3.30
  11  -5  -1   -4.80    4.90
 -11  -5   1   10.10    7.40
 -11   5   1    1.30    5.40
 -11   5   1   -4.60    4.30
 -11   5   1    3.80    4.80
 -11   5   1   -6.60    4.30
   9  -5  -1   49.80    9.80
   9  -5  -1   35.30   10.20
  -9  -5   1   38.70    8.30
  -9  -5   1   44.60    9.70
   9  -5  -1   44.70    6.30
  -9   5   1   46.20   10.40
  -9   5   1   60.99   11.00
   9   5  -1   45.10   10.20
  -9   5   1   43.40   10.80
   7  -5  -1   72.69   10.30
   7  -5  -1   78.29   12.80
  -7  -5   1   82.49   10.50
   7  -5  -1   64.39    9.00
   7  -5  -1   61.99    5.50
  -7   5   1   78.09   12.80
  -7   5   1   66.39   10.50
   7   5  -1   94.39   12.10
   7   5  -1   67.39    7.20
  -7   5   1   96.39   13.10
   7   5  -1   84.99    8.90
  -5  -5   1  440.66   21.70
   5  -5  -1  412.16   21.40
   5  -5  -1  453.15   23.50
  -5  -5   1  414.66   21.20
  -5  -5   1  427.26   20.20
   5  -5  -1  444.36   20.60
   5  -5  -1  433.56   15.70
   5   5  -1  428.16   18.60
   5   5  -1  448.16   20.00
  -5   5   1  415.06   16.20
  -5   5   1  414.76   23.40
  -5   5   1  462.75   23.90
  -5   5   1  430.16   21.70
   5   5  -1  409.76   20.30
  -3  -5   1  185.98   12.30
   3  -5  -1  189.88   12.00
  -3  -5   1  188.48   12.90
  -3  -5   1  172.78   11.40
  -3  -5   1  172.38   11.70
   3  -5  -1  170.28   12.40
   3  -5  -1  182.18   12.40
  -3   5   1  181.68   12.90
  -3   5   1  180.88   13.70
   3   5  -1  188.68   10.40
  -3   5   1  194.18   12.00
  -3   5   1  159.98    9.80
  -3   5   1  170.38    8.20
   3   5  -1  172.48   10.40
  -3   5   1  169.18   12.70
   3   5  -1  187.28   12.40
   1  -5  -1  587.84   25.10
  -1  -5   1  552.34   24.50
  -1  -5   1  631.04   25.00
   1  -5  -1  609.64   21.10
   1  -5  -1  551.74   23.00
  -1  -5   1  570.74   26.20
  -1  -5   1  585.04   18.90
  -1  -5   1  569.24   20.40
   1  -5  -1  580.14   22.70
   1  -5  -1  581.34   24.90
  -1   5   1  539.55   20.40
   1   5  -1  576.14   22.60
   1   5  -1  585.04   20.50
   1   5  -1  570.84   19.80
   1   5  -1  641.74   23.80
  -1   5   1  578.04   21.50
  -1   5   1  598.34   23.10
  -1   5   1  626.44   27.40
   1   5  -1  608.54   26.80
   1   5  -1  625.74   20.70
  -1   5   1  606.54   24.00
  -1   5   1  586.34   24.20
   1   5  -1  570.34   20.00
  -1  -5  -1   26.50    3.60
  -1  -5  -1   29.40    3.70
   1  -5   1   38.20    6.50
  -1  -5  -1   29.70    6.00
   1  -5   1   32.60    6.20
  -1  -5  -1   34.60    6.50
  -1  -5  -1   39.70    6.00
   1  -5   1   33.30    5.30
   1  -5   1   34.30    7.00
  -1   5  -1   36.50    6.20
  -1   5  -1   35.40    4.00
   1   5   1   28.80    4.10
   1   5   1   26.60    6.30
  -1   5  -1   22.80    5.90
  -1   5  -1   34.30    5.40
  -1   5  -1   38.40    6.40
   1   5   1   24.10    4.10
   1   5   1   28.00    4.70
   1   5   1   35.50    5.10
   3  -5   1   99.09   10.70
  -3  -5  -1   96.09   10.80
   3  -5   1   94.99   11.30
  -3  -5  -1   99.89   10.60
  -3  -5  -1   96.49    7.40
   3  -5   1   96.89   10.40
   3   5   1   96.89    5.00
   3   5   1   95.09    5.70
   3   5   1  121.29   12.10
   3   5   1   99.99    4.90
  -3   5  -1  100.49   11.50
   3   5   1   88.99    7.70
  -3   5  -1  108.19   11.50
  -3   5  -1   94.79   10.50
   5  -5   1  124.39   14.50
   5  -5   1  129.59   11.20
   5  -5   1  138.99   12.90
  -5  -5  -1  140.39    9.90
  -5  -5  -1  123.89   13.30
  -5  -5  -1  139.69   13.90
  -5   5  -1  146.89   12.50
   5   5   1  131.79   10.20
   5   5   1  144.19    7.60
  -5   5  -1  131.19   12.00
   5   5   1  130.19    7.00
  -5   5  -1  127.89   15.40
   7  -5   1  368.76   23.60
  -7  -5  -1  340.47   20.70
   7  -5   1  305.37   19.10
  -7  -5  -1  329.17   18.20
   7   5   1  331.17   12.00
   7   5   1  329.47   16.20
  -7   5  -1  316.67   20.70
   7   5   1  293.77   14.00
  -7   5  -1  310.97   20.60
   7   5   1  311.77   11.60
   7   5   1  330.67   13.90
  -7   5  -1  349.87   23.20
   9  -5   1   17.10    7.00
   9  -5   1   20.80    4.00
  -9  -5  -1   18.40    7.60
   9  -5   1   22.90    9.20
   9  -5   1   18.80    6.40
  -9  -5  -1   10.80    5.90
   9   5   1   14.90    3.60
  -9   5  -1   21.50    7.50
   9   5   1   21.30    8.60
   9   5   1   14.80    4.60
  -9   5  -1   30.60    9.90
  -9   5  -1   16.40    7.90
  -8  -6   1    1.40    4.90
   8  -6  -1    4.80    4.60
  -8  -6   1    1.30    5.80
   8  -6  -1    5.10    5.60
   8  -6  -1   -3.70    5.50
  -8   6   1   -3.80    5.80
   8   6  -1    2.30    3.90
   8   6  -1   -2.20    2.90
  -8   6   1    2.50    5.20
  -8   6   1    4.60    5.70
   8   6  -1    2.40    5.00
   6  -6  -1  105.59   13.40
   6  -6  -1  129.39   13.50
  -6  -6   1  133.79   14.80
  -6  -6   1  129.79   11.00
   6  -6  -1  133.79   16.30
   6   6  -1  144.69   11.20
  -6   6   1  145.09   22.70
  -6   6   1  140.89   17.10
   6   6  -1  150.48   10.10
   6   6  -1  136.39   11.90
  -6   6   1  144.89   16.30
  -4  -6   1   32.70    7.20
   4  -6  -1   19.80    6.10
  -4  -6   1   35.80    7.90
   4  -6  -1   36.20    7.70
  -4  -6   1   32.50    7.20
   4   6  -1   34.10    6.50
   4   6  -1   31.50    7.00
   4   6  -1   28.50    5.40
  -4   6   1   44.50    9.70
  -4   6   1   33.70    7.00
   2  -6  -1   -0.30    3.90
  -2  -6   1   -1.30    3.40
  -2  -6   1    5.60    4.70
   2  -6  -1   -1.40    3.00
   2   6  -1   -2.90    1.80
   2   6  -1   -1.90    2.90
  -2   6   1    2.90    3.40
  -2   6   1   -1.20    2.80
  -2   6   1   -1.40    3.50
   2   6  -1    1.20    2.40
  -2   6   1   -1.60    2.30
  -2   6   1   -0.50    1.80
   2   6  -1    4.60    3.20
   0  -6   1   35.70    4.70
   0  -6   1   46.00    7.80
   0  -6  -1   46.20    5.50
   0  -6  -1   42.60    7.80
   0  -6  -1   52.29    6.40
   0  -6  -1   27.00    7.00
   0  -6   1   34.80    7.40
   0   6  -1   41.00    5.90
   0   6  -1   32.30    7.80
   0   6   1   30.00    5.10
   0   6   1   65.19   10.50
   0   6  -1   45.60    7.00
   0   6   1   30.70    5.00
   0   6  -1   42.70    5.60
   0   6   1   49.40    6.30
   0   6   1   35.30    5.00
  -2  -6  -1   16.60    5.90
   2  -6   1    3.60    4.50
  -2  -6  -1    6.80    4.20
  -2  -6  -1   22.40    5.50
   2  -6   1   13.40    5.30
   2   6   1    9.70    2.70
  -2   6  -1   14.40    6.60
   2   6   1   13.90    3.80
  -2   6  -1   23.30    6.10
  -2   6  -1    9.80    4.80
  -2   6  -1    7.30    4.00
   2   6   1   12.40    5.20
  -4  -6  -1   51.69    8.70
   4  -6   1   54.79    9.40
   4  -6   1   82.49   11.10
  -4  -6  -1   79.29   11.20
  -4  -6  -1   47.80    6.80
   4  -6   1   73.49   10.10
   4   6   1   62.59    4.60
  -4   6  -1   70.29   11.00
   4   6   1   61.29    4.90
   4   6   1   71.49    9.70
  -4   6  -1   62.29   10.20
  -4   6  -1   79.89   12.30
  -4   6  -1   72.79   11.70
  -6  -6  -1  140.29   11.20
  -6  -6  -1  115.69   13.90
   6  -6   1  170.78   18.60
   6  -6   1  137.19   15.00
   6  -6   1  155.88   15.00
   6   6   1  149.79    7.20
  -6   6  -1  125.39   15.90
   6   6   1  130.79   11.20
  -6   6  -1  146.29   16.20
  -6   6  -1  151.78   17.90
   8  -6   1 1053.39   47.70
  -8   6  -1  898.41   43.70
  -8   6  -1  936.31   46.40
  -8   6  -1  975.00   44.70
   8   6   1  912.01   42.30
  -7  -7   1   25.00    8.30
  -7  -7   1   18.30    6.50
   7  -7  -1   32.30   10.20
   7  -7  -1    9.60    5.60
   7  -7  -1   29.20    8.70
   7   7  -1   10.40    5.30
   7   7  -1   27.70    7.80
  -7   7   1   20.10    8.30
  -7   7   1   26.80   10.70
  -5  -7   1  188.18   15.00
  -5  -7   1  167.98   14.80
   5  -7  -1  183.88   15.70
   5  -7  -1  168.68   16.40
   5  -7  -1  184.08   15.60
   5   7  -1  195.58   12.00
  -5   7   1  165.18   15.60
  -5   7   1  200.28   15.80
   5   7  -1  205.78   13.80
  -5   7   1  182.58   19.70
   3  -7  -1   55.49   10.20
  -3  -7   1   43.60    8.60
   3  -7  -1   51.59    8.50
  -3  -7   1   58.09   10.40
   3  -7  -1   49.10    9.00
  -3   7   1   40.80    8.00
  -3   7   1   40.90    9.90
   3   7  -1   48.70    7.20
   3   7  -1   54.39   10.00
  -3   7   1   66.79   10.20
   1  -7  -1  265.07   18.00
   1  -7  -1  260.67   17.80
  -1  -7   1  246.18   17.30
   1  -7  -1  288.87   14.60
  -1  -7   1  253.17   17.40
  -1   7   1  293.37   15.40
   1   7  -1  291.47   19.90
  -1   7   1  296.67   15.60
  -1   7   1  291.87   20.40
   1  -7   1   14.50    6.00
   1  -7   1    9.80    4.40
  -1  -7  -1   12.80    5.20
  -1  -7  -1    5.60    3.60
   1  -7   1   18.40    6.50
  -1  -7  -1    7.10    6.10
   1   7   1   12.70    3.90
   1   7   1   10.10    3.00
  -1   7  -1   18.90    7.60
  -1   7  -1   13.20    4.70
   1   7   1   12.10    2.80
   1   7   1   14.80    6.30
  -1   7  -1    5.40    4.40
   3  -7   1   32.60    7.10
  -3  -7  -1   21.20    6.00
   3  -7   1   51.59   10.20
  -3  -7  -1   44.10    9.50
   3  -7   1   33.70    7.90
  -3   7  -1   29.80    9.00
   3   7   1   18.10    6.60
  -3   7  -1   44.60    9.10
   3   7   1   21.70    5.80
  -3   7  -1   28.90    7.50
   3   7   1   29.80    4.00
   5  -7   1   75.39   11.70
   5  -7   1   63.59   11.30
  -5  -7  -1   49.50    9.50
   5  -7   1   36.00    8.00
  -5  -7  -1   41.40   10.30
   5   7   1   55.59    9.70
  -5   7  -1   62.69   11.90
  -5   7  -1   37.60    9.10
   5   7   1   58.19    9.90
  -5   7  -1   45.00   10.50
   7  -7   1  136.59   18.00
   7  -7   1  224.28   19.70
  -7  -7  -1  155.48   17.80
  -7  -7  -1  151.48   13.00
   7  -7   1  168.18   17.70
  -7   7  -1  170.78   29.50
  -7   7  -1  162.58   20.10
   7   7   1  148.19   16.90
  -7   7  -1  220.48   23.60
   4  -8  -1   28.60    8.20
   4  -8  -1    5.80    7.00
  -4   8   1   16.70    6.90
  -4   8   1   36.30   10.80
   4   8  -1    5.60    6.40
  -4   8   1   24.40    7.80
   2  -8  -1    3.10    6.10
  -2  -8   1   -5.80    4.20
  -2  -8   1    1.20    5.80
   2  -8  -1   14.50    6.80
   2   8  -1    3.70    4.50
  -2   8   1    8.10    7.10
  -2   8   1   -0.90    4.50
  -2   8   1   12.90    5.10
   2   8  -1    4.00    5.90
   0  -8   1    9.50    6.30
   0  -8   1    9.90    7.00
   0   8  -1    2.50    8.40
   0   8  -1   15.80    7.40
   0   8  -1    9.80    3.20
   0   8   1   10.60    7.10
   2  -8   1   13.70    6.40
  -2  -8  -1    0.40    7.20
   2  -8   1    2.90    6.40
   2   8   1   10.30    6.70
  -2   8  -1    0.90    5.30
  -2   8  -1    3.30    4.00
  -2   8  -1    6.80    5.10
  14   0  -2   29.90    9.90
 -14   0   2   25.70    8.50
 -14   0   2   21.40    7.40
 -14   0   2   23.00    9.40
 -12   0   2   80.69   12.60
  12   0  -2   75.29    5.20
  12   0  -2   74.59   12.10
  12   0  -2   77.49   13.40
 -12   0   2   70.79   11.10
 -12   0   2   74.29   10.20
 -10   0   2   43.10   10.20
  10   0  -2   46.70    4.30
  10   0  -2   45.60    9.40
 -10   0   2   50.79    8.80
 -10   0   2   51.49    8.00
  10   0  -2   53.69    9.10
   8   0  -2   21.10    5.30
   8   0  -2   15.90    5.10
  -8   0   2   17.10    1.70
  -8   0   2   16.30    4.50
  -8   0   2   14.10    4.60
   8   0  -2   22.60    6.10
  -8   0   2   18.30    1.60
  -8   0   2   22.20    3.00
  -8   0   2   19.90    5.40
  -6   0   2 1103.79   40.80
  -6   0   2 1184.38   39.80
   6   0  -2 1126.49   41.20
  -6   0   2 1158.48   34.90
   6   0  -2 1143.69   41.10
   6   0  -2 1118.09   38.70
   6   0  -2 1250.27   40.70
  -6   0   2 1198.18   39.10
  -6   0   2 1198.68   41.20
   6   0  -2 1117.59   40.20
  -6   0   2 1114.99   39.90
  -4   0   2   19.70    3.70
   4   0  -2   14.80    3.20
   4   0  -2   16.90    3.50
  -4   0   2   25.70    4.40
   4   0  -2   18.90    2.20
   4   0  -2   15.20    3.10
   4   0  -2   26.10    4.40
  -4   0   2   20.80    3.90
  -4   0   2   15.50    3.10
   4   0  -2   21.10    3.50
   4   0  -2   22.00    4.20
  -4   0   2   19.20    2.20
   2   0  -2 1625.64   48.80
  -2   0   2 1625.64   49.60
   0   0  -2  355.96   12.20
   0   0   2  339.67   12.90
   0   0  -2  331.47   12.90
   0   0  -2  366.16   13.60
   0   0   2  339.77   11.20
   0   0  -2  355.26   12.20
   0   0   2  335.27   14.10
   0   0   2  351.26   12.20
   0   0   2  338.77   11.90
   0   0  -2  368.76   13.60
   0   0   2  337.57   12.70
   2   0   2 6681.13  295.67
  -2   0  -2 6658.33  290.17
   2   0   2 6239.38  288.87
  -2   0  -2 6156.98  286.17
   4   0   2   42.00    4.90
  -4   0  -2   39.30    5.00
   4   0   2   38.70    2.70
  -4   0  -2   42.00    6.40
   4   0   2   46.80    6.40
  -4   0  -2   52.89    6.30
   4   0   2   48.30    6.50
   4   0   2   53.49    5.40
  -4   0  -2   55.19    5.90
  -4   0  -2   47.90    5.00
  -6   0  -2  140.29    9.60
  -6   0  -2  139.29    9.50
  -6   0  -2  138.99    8.20
   6   0   2  143.49   11.90
  -6   0  -2  126.19   10.60
   6   0   2  133.09    8.90
  -8   0  -2    4.30    3.70
  -8   0  -2   -1.70    2.40
  -8   0  -2    0.60    3.10
  -8   0  -2   -1.10    3.00
  -8   0  -2    8.00    4.90
   8   0   2   -5.90    2.20
   8   0   2    0.10    3.70
 -10   0  -2   66.49   11.90
 -10   0  -2   81.99   11.50
 -10   0  -2  101.89   12.00
 -10   0  -2   94.89   12.30
 -10   0  -2   70.09    7.50
  10   0   2   93.29   14.40
 -12   0  -2   88.79   13.90
 -12   0  -2  109.99   14.60
 -12   0  -2  107.29   13.50
  12   0   2  119.09   15.90
  12   0   2   87.79   15.10
 -12   0  -2  100.39   15.20
 -13  -1   2   54.99   10.90
 -13  -1   2   60.29   11.70
  13  -1  -2   72.19   12.10
 -13  -1   2   53.19   10.20
  13  -1  -2   69.19   13.10
  13   1  -2   74.09   13.10
 -13   1   2   59.89   11.30
  13   1  -2   63.29   12.10
 -13   1   2   58.39   13.20
  11  -1  -2    1.00    4.50
  11  -1  -2   -1.40    1.70
 -11  -1   2    1.60    3.80
 -11  -1   2    4.50    4.40
 -11  -1   2    1.10    4.10
  11  -1  -2   -0.50    4.50
  11   1  -2    1.90    4.50
 -11   1   2   -0.20    1.90
 -11   1   2    4.70    3.60
 -11   1   2    2.50    1.00
 -11   1   2   -1.80    1.60
  11   1  -2   -3.30    4.30
 -11   1   2    2.30    5.20
  11   1  -2    0.40    3.80
  11   1  -2   -0.10    1.80
  -9  -1   2  774.92   31.30
   9  -1  -2  717.53   33.50
  -9  -1   2  715.83   24.20
   9  -1  -2  740.83   30.50
  -9  -1   2  731.63   30.90
   9  -1  -2  714.23   24.20
  -9  -1   2  711.53   30.00
  -9   1   2  766.92   33.60
   9   1  -2  736.23   31.70
  -9   1   2  693.83   29.80
   9   1  -2  684.53   23.90
  -9   1   2  722.53   25.20
  -9   1   2  762.42   32.20
   9   1  -2  755.42   31.70
  -9   1   2  653.23   29.50
   9   1  -2  755.32   31.30
  -9   1   2  722.73   24.80
   7  -1  -2  412.56   21.60
  -7  -1   2  450.95   19.80
   7  -1  -2  443.96   21.80
  -7  -1   2  442.26   19.60
  -7  -1   2  435.96   16.00
   7  -1  -2  428.56   17.60
  -7  -1   2  440.16   19.90
   7  -1  -2  437.06   15.10
   7   1  -2  446.36   19.90
   7   1  -2  423.56   19.80
  -7   1   2  457.25   16.80
   7   1  -2  428.26   20.10
  -7   1   2  453.05   21.80
  -7   1   2  433.36   19.30
   7   1  -2  436.36   15.00
  -7   1   2  430.46   20.50
  -7   1   2  414.66   20.50
  -7   1   2  451.45   17.90
  -5  -1   2 1200.78   40.30
   5  -1  -2 1195.98   38.30
   5  -1  -2 1219.38   40.00
  -5  -1   2 1230.68   38.20
   5  -1  -2 1195.48   36.90
  -5  -1   2 1206.88   40.50
   5  -1  -2 1221.58   42.30
  -5  -1   2 1180.88   40.20
  -5  -1   2 1172.28   39.60
  -5  -1   2 1200.58   39.80
   5  -1  -2 1141.69   40.50
   5  -1  -2 1181.98   42.30
   5   1  -2 1221.78   40.10
  -5   1   2 1170.18   39.30
  -5   1   2 1169.38   42.20
   5   1  -2 1217.38   40.70
   5   1  -2 1154.48   40.20
  -5   1   2 1174.18   39.90
   5   1  -2 1236.68   40.10
  -5   1   2 1217.38   38.40
   5   1  -2 1162.88   40.10
  -5   1   2 1243.48   42.80
  -5   1   2 1228.88   41.20
   5   1  -2 1205.68   40.60
   5   1  -2 1182.08   36.10
  -3  -1   2  171.38    8.40
  -3  -1   2  176.38    7.70
  -3  -1   2  172.78    8.50
  -3  -1   2  164.28    8.60
   3  -1  -2  174.58    6.70
   3  -1  -2  180.68    8.40
   3  -1  -2  169.28    9.50
  -3  -1   2  172.68    8.20
   3  -1  -2  180.18    8.30
   3  -1  -2  179.98    8.60
  -3  -1   2  184.88    6.60
   3  -1  -2  174.28    9.70
  -3  -1   2  172.98    8.00
   3   1  -2  181.38    6.90
  -3   1   2  172.68    9.60
   3   1  -2  163.18    8.40
  -3   1   2  170.78    8.20
   3   1  -2  181.88    8.60
  -3   1   2  175.38    6.70
  -3   1   2  171.58    7.30
   3   1  -2  181.28    8.20
   3   1  -2  180.18    6.60
  -3   1   2  173.28    8.30
  -3   1   2  165.58    9.50
   3   1  -2  166.88    8.50
   3   1  -2  177.98    8.10
  -3   1   2  178.48    8.70
  -1  -1   2  517.15   16.40
   1  -1  -2  497.95   16.90
   1  -1  -2  488.35   17.40
  -1  -1   2  508.85   15.20
  -1  -1   2  467.35   16.20
   1  -1  -2  509.35   18.30
   1  -1  -2  478.55   16.10
  -1  -1   2  481.25   16.50
  -1  -1   2  489.15   17.50
   1  -1  -2  487.35   16.40
   1  -1  -2  492.35   14.70
   1  -1  -2  465.45   17.60
  -1  -1   2  478.85   16.80
  -1   1   2  484.85   18.00
  -1   1   2  514.85   18.00
   1   1  -2  504.25   17.60
   1   1  -2  493.65   17.00
   1   1  -2  515.95   17.10
   1   1  -2  488.85   17.00
  -1   1   2  492.55   17.50
   1   1  -2  507.05   15.20
   1   1  -2  488.85   16.60
   1   1  -2  483.75   17.10
  -1   1   2  489.25   16.80
  -1  -1  -2 3462.15  102.59
  -1   1  -2 3427.86  102.29
  -1   1  -2 3461.25  102.89
   3  -1   2 1198.18   39.30
  -3  -1  -2 1116.69   35.60
   3  -1   2 1122.49   39.00
  -3  -1  -2 1213.18   37.90
  -3  -1  -2 1132.39   38.10
  -3  -1  -2 1117.39   36.30
  -3  -1  -2 1145.59   37.40
   3  -1   2 1117.39   35.60
   3  -1   2 1113.99   37.10
   3   1   2 1131.79   36.50
  -3   1  -2 1091.79   37.00
   3   1   2 1102.59   35.30
  -3   1  -2 1149.69   39.50
   3   1   2 1111.39   37.10
  -3   1  -2 1165.48   37.90
  -3   1  -2 1113.99   35.50
  -3   1  -2 1041.00   38.00
   3   1   2 1114.99   37.90
   3   1   2 1160.28   37.90
  -5  -1  -2  289.37   14.30
  -5  -1  -2  262.87   13.50
   5  -1   2  274.87   13.60
  -5  -1  -2  295.67   14.40
  -5  -1  -2  277.27   12.10
   5  -1   2  300.57   11.00
  -5  -1  -2  303.17   15.00
   5  -1   2  277.77   15.40
  -5  -1  -2  268.87   12.80
  -5   1  -2  253.47   14.50
  -5   1  -2  282.47   13.20
  -5   1  -2  290.67   12.90
   5   1   2  267.77   14.10
  -5   1  -2  276.47   15.90
   5   1   2  281.97   12.60
   5   1   2  271.37   14.50
   5   1   2  279.47    9.70
   5   1   2  276.47   12.20
  -5   1  -2  299.87   14.80
   7  -1   2 1814.52   64.99
  -7  -1  -2 1792.62   62.39
  -7  -1  -2 1845.92   61.69
  -7  -1  -2 1812.12   64.39
  -7  -1  -2 1767.72   56.39
   7  -1   2 1827.62   60.19
  -7  -1  -2 1863.11   61.39
   7   1   2 1713.03   61.49
  -7   1  -2 1843.62   64.79
  -7   1  -2 1751.42   58.19
  -7   1  -2 1822.72   61.79
  -7   1  -2 1814.92   61.09
   7   1   2 1578.64   58.69
   9  -1   2   10.90    6.20
  -9  -1  -2   32.70    7.60
  -9  -1  -2   14.30    3.50
   9  -1   2   20.70    6.30
  -9  -1  -2   14.50    6.20
  -9  -1  -2   16.40    5.90
  -9  -1  -2   18.70    5.40
   9   1   2   11.90    6.00
  -9   1  -2   14.90    4.80
   9   1   2   12.30    5.90
  -9   1  -2   33.60    8.90
  -9   1  -2   13.90    6.00
  11  -1   2  145.99   19.60
 -11  -1  -2  144.49   16.90
 -11  -1  -2  178.28   18.20
  11  -1   2  149.88   15.90
 -11  -1  -2  138.69   15.60
 -11   1  -2  137.79   15.90
  11   1   2  152.48   17.10
 -11   1  -2  143.39   12.30
 -11   1  -2  139.69   16.60
 -11   1  -2  124.49   17.60
  11   1   2  129.29   17.20
  12  -2  -2   63.09   10.40
  12  -2  -2   44.40    5.30
 -12  -2   2   68.29   10.40
 -12  -2   2   41.60    9.10
  12  -2  -2   60.99   13.50
 -12  -2   2   56.49   10.20
 -12   2   2   53.99   12.70
  12   2  -2   63.79   11.10
  12   2  -2   76.39   13.00
 -12   2   2   53.89   10.30
 -12   2   2   76.69   12.90
 -10  -2   2   37.60    8.00
  10  -2  -2   28.40    5.00
 -10  -2   2   38.30    7.10
  10  -2  -2   43.40   10.00
  10  -2  -2   39.80    4.90
 -10  -2   2   40.00    7.60
  10  -2  -2   29.70    6.80
  10   2  -2   51.29    9.60
 -10   2   2   41.60    5.30
 -10   2   2   44.30    8.50
  10   2  -2   25.30    6.40
  10   2  -2   39.50    4.70
 -10   2   2   32.50    5.50
  10   2  -2   31.00    7.00
 -10   2   2   37.80    7.40
 -10   2   2   45.50   10.10
  -8  -2   2    8.40    3.90
   8  -2  -2    4.60    3.70
  -8  -2   2   12.70    4.70
  -8  -2   2    9.00    2.70
   8  -2  -2   10.10    2.60
   8  -2  -2    0.30    4.10
   8  -2  -2    6.30    2.50
  -8  -2   2    5.10    3.10
   8   2  -2   11.50    3.90
  -8   2   2    7.30    4.70
  -8   2   2    5.90    2.80
  -8   2   2    7.90    3.00
   8   2  -2    7.10    4.10
   8   2  -2    2.20    3.00
   8   2  -2    4.40    2.10
  -8   2   2    2.30    3.20
  -8   2   2    6.20    4.00
   6  -2  -2  833.62   29.50
  -6  -2   2  857.81   28.40
  -6  -2   2  790.92   28.00
   6  -2  -2  825.32   27.20
  -6  -2   2  846.62   31.30
   6  -2  -2  865.01   34.20
   6  -2  -2  809.92   26.80
  -6  -2   2  835.42   30.90
   6  -2  -2  782.12   33.00
  -6   2   2  844.42   29.70
   6   2  -2  804.02   28.60
   6   2  -2  784.02   30.40
  -6   2   2  833.82   32.70
   6   2  -2  810.52   28.80
  -6   2   2  820.02   33.40
  -6   2   2  822.32   29.70
   6   2  -2  822.92   27.00
  -6   2   2  782.12   33.10
   6   2  -2  803.92   29.20
  -6   2   2  731.23   30.80
  -4  -2   2    7.70    2.50
   4  -2  -2    5.90    1.50
   4  -2  -2    6.20    3.10
  -4  -2   2    4.40    1.60
  -4  -2   2    4.60    1.90
   4  -2  -2    7.90    2.10
  -4  -2   2    3.90    2.30
   4  -2  -2    3.10    2.80
   4  -2  -2    3.30    2.10
   4  -2  -2    5.50    2.40
  -4  -2   2    2.40    2.20
  -4  -2   2    6.60    1.60
  -4   2   2    0.60    2.00
  -4   2   2    7.90    2.50
  -4   2   2    6.50    3.30
   4   2  -2    3.70    2.30
   4   2  -2    8.00    2.40
   4   2  -2    5.30    2.60
   4   2  -2    2.70    2.40
  -4   2   2    4.80    2.50
   4   2  -2    1.20    1.40
   4   2  -2    5.30    1.80
  -4   2   2    6.20    1.90
  -4   2   2   -0.90    2.40
   4   2  -2   -0.20    1.90
   4   2  -2    4.50    1.80
   2  -2  -2  895.71   29.60
  -2  -2   2  876.51   29.20
   2  -2  -2  899.91   31.70
   2  -2  -2  908.01   29.50
  -2  -2   2  933.31   29.10
  -2  -2   2  931.21   29.70
  -2  -2   2  901.11   27.80
  -2  -2   2  889.21   28.00
   2  -2  -2  898.61   31.30
   2  -2  -2  934.81   31.90
  -2  -2   2  961.00   30.60
   2  -2  -2  946.61   29.60
   2  -2  -2  921.41   30.20
  -2  -2   2  939.91   31.10
  -2   2   2  927.21   31.40
  -2   2   2  883.21   29.50
  -2   2   2  873.31   31.60
  -2   2   2  893.61   29.60
   2   2  -2  869.91   29.30
   2   2  -2  895.71   30.30
  -2   2   2  932.91   29.70
   2   2  -2  923.31   30.60
   2   2  -2  902.61   28.10
   2   2  -2  925.11   28.40
   2   2  -2  913.51   31.00
   2   2  -2  924.81   29.00
   2   2  -2  926.71   30.60
  -2   2   2  935.41   32.10
   2   2  -2  867.71   29.40
   0  -2   2  228.48   11.00
   0  -2   2  229.78    8.00
   0  -2   2  231.78   10.40
   0  -2  -2  238.08    7.90
   0  -2   2  259.47   10.50
   0  -2  -2  261.67   10.80
   0  -2   2  236.28   10.60
   0  -2  -2  224.48   10.40
   0  -2   2  229.28   10.00
   0  -2  -2  244.98   11.30
   0  -2  -2  237.08   10.80
   0  -2   2  244.58    9.60
   0  -2  -2  233.98    7.60
   0  -2  -2  238.08    9.90
   0   2   2  237.88   10.80
   0   2  -2  247.88    7.90
   0   2   2  239.18   10.40
   0   2   2  254.27   10.20
   0   2  -2  240.08   10.30
   0   2   2  236.18   11.10
   0   2  -2  245.18   10.80
   0   2  -2  223.68   10.90
   0   2  -2  233.18   10.40
   0   2  -2  243.78   10.20
   0   2   2  235.08   10.30
   0   2   2  237.28   10.60
  -2  -2  -2 3673.13  112.19
   2  -2   2 3767.92  113.39
  -2  -2  -2 3711.43  111.39
   2  -2   2 3690.93  113.69
  -2  -2  -2 3817.12  110.99
   2  -2   2 3700.73  112.19
  -2   2  -2 3802.92  112.49
   2   2   2 3745.83  112.39
   2   2   2 3824.22  112.39
  -2   2  -2 3745.93  113.39
   2   2   2 3671.03  111.99
   4  -2   2   37.70    6.40
   4  -2   2   37.70    5.20
   4  -2   2   40.90    7.00
  -4  -2  -2   42.20    6.30
  -4  -2  -2   29.80    4.80
  -4  -2  -2   30.10    4.30
  -4  -2  -2   39.10    4.80
   4  -2   2   31.00    4.40
   4  -2   2   43.50    4.60
   4  -2   2   27.60    4.80
   4   2   2   32.50    4.40
   4   2   2   36.90    5.20
   4   2   2   29.90    4.90
   4   2   2   31.60    3.90
   4   2   2   35.40    5.30
  -4   2  -2   31.50    4.30
  -4   2  -2   30.70    6.20
  -4   2  -2   38.90    6.10
  -4   2  -2   31.70    3.70
   4   2   2   24.20    4.40
   4   2   2   32.10    3.50
  -4   2  -2   32.80    5.10
  -4   2  -2   30.60    5.70
  -6  -2  -2  120.29   10.10
   6  -2   2  133.69   12.20
  -6  -2  -2  136.89   10.10
  -6  -2  -2  130.59    9.90
   6  -2   2  145.69    9.00
   6  -2   2  135.29    9.10
  -6  -2  -2  129.09    7.80
  -6   2  -2  131.59    8.10
  -6   2  -2  149.79   12.60
   6   2   2  134.59    8.10
   6   2   2  140.29    6.90
   6   2   2  131.49   10.00
   6   2   2  128.69    8.00
  -6   2  -2  125.59   10.50
  -6   2  -2  138.49    7.90
   6   2   2  149.88   10.10
  -8  -2  -2    4.10    4.00
  -8  -2  -2    3.80    4.40
   8  -2   2    1.80    4.40
   8  -2   2    3.50    3.60
  -8  -2  -2    4.90    4.40
   8  -2   2    2.50    2.90
  -8  -2  -2    2.20    2.20
  -8   2  -2    1.30    2.90
  -8   2  -2    1.50    4.00
   8   2   2   -2.30    2.90
   8   2   2    3.00    4.40
  -8   2  -2   -1.50    4.00
   8   2   2    1.40    2.30
 -10  -2  -2   91.49   12.70
 -10  -2  -2   69.09   10.90
 -10  -2  -2   74.99   11.30
  10  -2   2   74.99    9.60
  10  -2   2   68.89   13.40
  10  -2   2   80.99   10.60
 -10  -2  -2   71.29    5.40
  10   2   2   80.49   12.70
 -10   2  -2   87.79    9.70
 -10   2  -2   71.29   11.90
  10   2   2  105.39   14.20
 -12  -2  -2   85.19   13.30
  12  -2   2   83.99   10.50
 -12  -2  -2   84.89   13.20
  12  -2   2   93.89   13.10
 -12  -2  -2   95.79   14.20
  12  -2   2  102.19   17.30
  12   2   2  106.49   16.30
 -12   2  -2   62.89    9.20
 -12   2  -2  102.79   15.10
 -12   2  -2   84.29   15.90
  13  -3  -2   32.20    8.00
 -13  -3   2   35.50   11.30
 -13  -3   2   37.50    9.50
 -13   3   2   42.30    9.90
 -13   3   2   49.00    7.80
 -13   3   2   23.80    8.90
  13   3  -2   41.90    8.70
  13   3  -2   45.70   10.70
 -13   3   2   38.60   11.80
 -11  -3   2   -5.20    2.90
 -11  -3   2    0.30    3.90
  11  -3  -2    3.90    2.90
  11  -3  -2   -0.40    4.80
  11  -3  -2   -1.10    3.50
 -11  -3   2    2.70    3.20
 -11   3   2   -1.20    4.50
 -11   3   2    2.60    3.50
 -11   3   2   -1.00    4.00
 -11   3   2    0.60    3.80
  11   3  -2    2.70    4.60
   9  -3  -2  558.54   29.60
  -9  -3   2  532.15   25.30
  -9  -3   2  498.15   25.40
   9  -3  -2  496.65   25.70
  -9  -3   2  514.15   20.30
   9  -3  -2  505.85   22.70
  -9  -3   2  554.24   26.50
  -9   3   2  456.55   25.40
  -9   3   2  512.65   23.90
   9   3  -2  501.85   21.60
   9   3  -2  465.75   25.20
  -9   3   2  536.85   23.80
   9   3  -2  517.85   22.20
   9   3  -2  499.35   20.20
  -9   3   2  540.75   29.20
  -7  -3   2  218.88    9.40
   7  -3  -2  195.28   15.40
  -7  -3   2  212.48    9.40
   7  -3  -2  217.78    8.30
  -7  -3   2  246.68   14.70
  -7  -3   2  234.88   12.00
  -7  -3   2  217.68   13.60
   7  -3  -2  214.08   11.10
   7  -3  -2  249.97   12.50
   7   3  -2  238.08   14.60
   7   3  -2  210.98   10.40
   7   3  -2  213.38   11.00
   7   3  -2  237.38   11.70
   7   3  -2  225.28    7.80
  -7   3   2  243.58   15.00
   7   3  -2  223.38    7.90
  -7   3   2  233.08   13.80
  -7   3   2  214.58   16.00
  -7   3   2  211.88   12.20
  -5  -3   2  531.75   20.10
   5  -3  -2  527.55   22.10
   5  -3  -2  523.65   24.50
   5  -3  -2  545.25   16.10
  -5  -3   2  584.44   22.60
  -5  -3   2  519.65   21.50
   5  -3  -2  535.35   20.20
   5  -3  -2  527.35   22.00
  -5  -3   2  583.14   23.40
   5  -3  -2  522.95   20.20
  -5   3   2  535.45   24.90
   5   3  -2  535.95   21.00
  -5   3   2  519.75   22.00
  -5   3   2  471.45   24.10
   5   3  -2  558.64   19.60
   5   3  -2  553.44   22.40
  -5   3   2  543.55   24.70
   5   3  -2  492.85   19.80
  -5   3   2  518.55   21.20
  -5   3   2  521.75   20.50
  -5   3   2  550.94   22.90
   5   3  -2  563.84   17.40
   5   3  -2  495.35   23.00
  -3  -3   2   68.29    7.30
   3  -3  -2   64.99    7.60
   3  -3  -2   64.49    5.10
   3  -3  -2   57.89    6.70
   3  -3  -2   60.09    4.70
   3  -3  -2   58.19    7.50
  -3  -3   2   66.59    5.30
  -3  -3   2   66.79    7.00
  -3  -3   2   60.99    6.50
  -3  -3   2   69.19    6.70
   3  -3  -2   59.19    3.30
   3  -3  -2   59.39    6.00
  -3   3   2   74.99    8.10
   3   3  -2   70.19    5.40
  -3   3   2   65.99    8.10
  -3   3   2   63.99    7.20
  -3   3   2   70.79    6.40
  -3   3   2   60.49    7.60
   3   3  -2   53.19    5.60
  -3   3   2   62.39    5.40
   3   3  -2   69.29    5.80
   3   3  -2   64.39    5.20
  -3   3   2   53.79    4.50
   3   3  -2   57.99    7.80
   3   3  -2   68.29    5.60
  -1  -3   2  125.79    7.80
  -1  -3   2  134.09    6.50
   1  -3  -2  134.19    7.20
   1  -3  -2  132.49    8.30
  -1  -3   2  134.59    6.60
   1  -3  -2  129.29    8.10
   1  -3  -2  137.39    6.80
   1  -3  -2  127.09   10.00
   1  -3  -2  125.29    6.10
   1  -3  -2  125.89    7.80
   1  -3  -2  130.69    9.20
  -1  -3   2  133.59    8.90
  -1  -3   2  124.59    7.20
  -1   3   2  135.89    6.50
  -1   3   2  138.29    8.90
   1   3  -2  137.69    6.90
   1   3  -2  128.49    7.70
  -1   3   2  138.89    8.00
  -1   3   2  125.19    8.30
   1   3  -2  127.69    7.50
   1   3  -2  122.09    7.60
   1   3  -2  127.69    7.30
  -1   3   2  128.39    6.90
  -1   3   2  135.79    5.30
  -1   3   2  128.49    8.30
  -1   3   2  146.89   10.20
   1   3  -2  135.29   10.00
   1   3  -2  130.79    6.40
   1   3  -2  137.29    8.00
   1  -3   2 1189.18   40.80
   1  -3   2 1282.67   40.30
   1  -3   2 1175.48   45.40
   1  -3   2 1176.08   40.60
  -1  -3  -2 1275.17   40.70
  -1  -3  -2 1170.88   41.50
  -1  -3  -2 1239.08   41.20
  -1  -3  -2 1204.88   39.70
  -1  -3  -2 1213.58   39.70
  -1  -3  -2 1241.38   37.90
   1  -3   2 1254.17   42.10
   1   3   2 1169.88   38.10
   1   3   2 1210.98   41.40
   1   3   2 1239.88   41.00
  -1   3  -2 1217.88   38.50
  -1   3  -2 1200.48   40.50
  -1   3  -2 1199.18   40.70
   1   3   2 1227.28   40.10
  -1   3  -2 1275.37   41.80
   1   3   2 1290.57   39.80
   1   3   2 1209.78   39.90
  -1   3  -2 1288.67   41.60
  -1   3  -2 1199.38   41.70
   1   3   2 1154.38   40.50
   1   3   2 1287.57   42.10
   3  -3   2  557.44   16.70
  -3  -3  -2  508.75   21.40
   3  -3   2  573.54   23.80
  -3  -3  -2  559.94   22.50
  -3  -3  -2  552.44   20.30
   3  -3   2  539.35   22.20
   3  -3   2  549.35   16.80
  -3  -3  -2  595.04   23.10
   3  -3   2  519.25   23.60
  -3  -3  -2  553.24   20.50
   3   3   2  535.45   20.70
  -3   3  -2  515.45   22.70
   3   3   2  562.04   20.50
   3   3   2  509.45   21.10
   3   3   2  587.64   22.00
  -3   3  -2  578.44   24.20
  -3   3  -2  525.25   23.90
   3   3   2  537.35   16.80
   3   3   2  532.95   21.70
  -3   3  -2  511.95   21.70
   3   3   2  554.64   16.70
  -5  -3  -2  139.19    9.00
   5  -3   2  156.78    9.90
   5  -3   2  133.69    9.50
   5  -3   2  160.48   12.80
   5  -3   2  151.98    7.70
  -5  -3  -2  147.49    9.10
  -5  -3  -2  141.09   10.80
  -5   3  -2  142.29   11.40
   5   3   2  152.78    7.40
   5   3   2  143.59    9.40
   5   3   2  136.19    8.80
  -5   3  -2  145.59    7.20
  -5   3  -2  143.59   12.40
   5   3   2  138.49    8.50
   5   3   2  161.78    9.60
  -5   3  -2  148.19    9.60
  -5   3  -2  146.19   11.40
  -7  -3  -2 1279.57   46.20
   7  -3   2 1255.87   44.80
  -7  -3  -2 1295.47   47.90
   7  -3   2 1262.67   51.39
  -7  -3  -2 1214.38   42.00
   7  -3   2 1256.97   42.50
   7   3   2 1274.77   42.00
  -7   3  -2 1331.97   52.19
  -7   3  -2 1281.67   48.90
   7   3   2 1290.77   40.70
  -7   3  -2 1214.58   42.80
   7   3   2 1175.28   45.90
  -7   3  -2 1232.18   40.70
   7   3   2 1218.08   41.70
   9  -3   2    8.60    4.40
   9  -3   2    1.40    3.80
  -9  -3  -2    0.10    4.20
  -9  -3  -2    7.10    4.70
  -9  -3  -2   13.30    3.10
  -9  -3  -2   20.50    6.60
  -9   3  -2   10.90    6.40
   9   3   2    9.60    6.00
   9   3   2   11.60    3.30
  -9   3  -2    4.80    5.70
  -9   3  -2    9.40    3.50
   9   3   2    2.70    4.90
  11  -3   2  101.59   11.90
 -11  -3  -2  103.99   14.70
  11  -3   2  106.69   17.70
  11  -3   2  119.69   12.80
 -11  -3  -2  110.09   14.30
 -11   3  -2  109.49   15.50
  11   3   2   82.29   12.40
 -11   3  -2  106.39    8.90
 -11   3  -2   98.89   16.80
  11   3   2   82.69   13.40
  12  -4  -2   35.30   11.40
  12  -4  -2   25.10    7.20
  12  -4  -2   38.80    6.40
 -12   4   2   25.60    7.90
 -12   4   2   32.20    8.10
  12   4  -2   38.00    6.70
 -12   4   2   53.99   13.40
  12   4  -2   43.70   14.10
  10  -4  -2   16.90    5.30
  10  -4  -2   20.70    4.80
  10  -4  -2   26.50    9.40
 -10  -4   2   14.10    5.70
 -10  -4   2   28.00    8.40
 -10   4   2   24.60    6.50
 -10   4   2   22.30    6.30
  10   4  -2   17.60    6.90
 -10   4   2   11.80    7.20
  10   4  -2   20.70    4.40
 -10   4   2   28.60    8.00
  10   4  -2   14.10    6.00
  -8  -4   2    1.30    3.50
  -8  -4   2    0.20    2.90
  -8  -4   2   -1.80    3.70
   8  -4  -2    0.60    2.70
   8  -4  -2   -1.20    2.70
   8  -4  -2    0.60    3.70
   8  -4  -2   -1.50    4.00
   8   4  -2   -0.60    1.40
   8   4  -2    0.70    4.10
  -8   4   2    2.90    4.40
  -8   4   2    1.30    3.70
  -8   4   2   -1.00    3.00
  -8   4   2    1.90    4.60
  -6  -4   2  377.56   19.80
   6  -4  -2  378.86   16.00
   6  -4  -2  362.86   18.90
  -6  -4   2  363.76   18.50
  -6  -4   2  359.96   18.00
   6  -4  -2  372.66   17.10
   6  -4  -2  412.36   22.30
   6   4  -2  395.66   19.20
  -6   4   2  392.56   22.10
  -6   4   2  356.46   17.50
  -6   4   2  361.26   19.30
   6   4  -2  367.96   15.70
  -6   4   2  381.56   20.00
  -4  -4   2   -3.50    2.40
  -4  -4   2    4.90    3.40
   4  -4  -2    0.80    2.10
   4  -4  -2    3.60    2.30
   4  -4  -2   -2.00    2.60
  -4  -4   2    0.30    2.30
  -4  -4   2    2.10    3.10
   4  -4  -2   -1.70    2.70
  -4  -4   2    0.80    2.40
   4  -4  -2    3.80    2.40
   4   4  -2   -3.20    2.00
  -4   4   2    5.10    4.10
   4   4  -2   -0.50    2.40
  -4   4   2    1.10    2.90
   4   4  -2    1.80    2.80
  -4   4   2   -0.20    2.20
  -4   4   2   -0.50    2.90
  -4   4   2    2.80    2.00
  -2  -4   2  224.68   11.80
  -2  -4   2  238.98   13.60
   2  -4  -2  241.28   13.20
   2  -4  -2  235.68   10.60
  -2  -4   2  244.88   12.40
   2  -4  -2  239.98   12.90
   2  -4  -2  220.48   12.10
   2  -4  -2  223.68    9.40
   2  -4  -2  230.18   10.60
   2   4  -2  224.68   13.20
   2   4  -2  226.18   10.10
  -2   4   2  217.98    9.00
  -2   4   2  220.08   11.00
   2   4  -2  253.77    8.70
  -2   4   2  234.78   13.30
  -2   4   2  231.98   14.00
  -2   4   2  212.28   10.30
   2   4  -2  207.08   11.50
   2   4  -2  219.88   11.90
  -2   4   2  239.08   13.10
   2   4  -2  215.48   11.70
   0  -4  -2   87.09    8.40
   0  -4   2   84.39    8.20
   0  -4  -2   74.79    6.20
   0  -4   2   97.19   10.10
   0  -4   2   76.99    8.20
   0  -4   2   77.59    6.60
   0  -4   2   69.69    7.30
   0  -4  -2   76.99    4.30
   0  -4   2   71.09    5.70
   0  -4  -2   70.19    6.10
   0  -4  -2   72.69    6.00
   0  -4  -2   77.19    8.30
   0   4  -2   70.99    6.30
   0   4   2   90.39    9.60
   0   4   2   65.09    5.50
   0   4   2   79.09    4.60
   0   4  -2   64.29    5.30
   0   4  -2   73.49    7.60
   0   4   2   73.59    6.40
   0   4   2   71.99    4.60
   0   4  -2   75.39    8.00
   0   4   2   71.69    6.20
   0   4  -2   74.99    5.70
  -2  -4  -2 1161.78   40.30
   2  -4   2 1116.39   41.00
  -2  -4  -2 1165.88   37.00
   2  -4   2 1153.48   41.80
   2  -4   2 1115.29   39.60
  -2  -4  -2 1111.69   40.60
   2  -4   2 1085.89   40.00
  -2  -4  -2 1089.89   37.20
   2   4   2 1190.98   37.50
   2   4   2 1186.28   41.20
   2   4   2 1096.79   38.70
  -2   4  -2 1158.08   41.20
  -2   4  -2 1132.69   35.80
  -2   4  -2 1145.59   40.40
  -2   4  -2 1203.78   42.20
   2   4   2 1099.59   37.80
   2   4   2 1110.89   37.40
   4  -4   2   17.20    5.90
  -4  -4  -2   22.10    3.50
  -4  -4  -2   23.50    3.80
  -4  -4  -2   36.40    7.00
   4  -4   2   21.60    5.40
   4  -4   2   21.10    5.00
   4  -4   2   14.30    4.80
  -4  -4  -2   34.60    6.70
  -4  -4  -2   34.10    5.50
  -4   4  -2   33.50    7.40
   4   4   2   23.50    1.80
   4   4   2   29.80    4.50
  -4   4  -2   25.50    6.20
   4   4   2   22.80    5.90
   4   4   2   20.90    1.80
   4   4   2   16.70    3.60
  -4   4  -2   25.10    2.40
  -6  -4  -2  119.19    8.30
   6  -4   2  136.79   12.50
  -6  -4  -2  125.89   10.10
  -6  -4  -2  144.89    9.60
  -6  -4  -2  136.79   14.20
   6  -4   2  130.19   15.50
   6  -4   2  123.59    6.50
   6   4   2  134.89    9.00
  -6   4  -2  163.38   17.40
   6   4   2  119.99    9.10
  -6   4  -2  136.29    6.30
   6   4   2  125.49    9.00
  -6   4  -2  148.29   12.80
   6   4   2  128.29    6.90
   8  -4   2    6.70    6.20
  -8  -4  -2    7.10    4.70
   8  -4   2    2.30    2.80
  -8  -4  -2    0.30    3.70
   8  -4   2   -2.00    3.30
   8   4   2    3.90    3.40
  -8   4  -2   -0.30    4.10
   8   4   2    5.70    3.90
  -8   4  -2   -0.80    4.50
   8   4   2   -2.10    3.10
 -10  -4  -2   33.80    8.90
  10  -4   2   38.40    7.50
  10  -4   2   49.00   12.30
 -10  -4  -2   44.70    9.40
  10  -4   2   49.80    7.30
  10   4   2   32.40    7.30
 -10   4  -2   33.20    9.50
  10   4   2   38.50    9.90
 -10   4  -2    7.80    7.00
  11  -5  -2   -1.00    5.70
 -11  -5   2    4.30    6.10
  11  -5  -2    0.20    3.40
  11  -5  -2    1.00    5.20
 -11  -5   2    2.80    5.40
  11  -5  -2    4.90    4.60
 -11   5   2    5.00    5.00
 -11   5   2    3.60    5.60
 -11   5   2    3.30    7.20
  11   5  -2   -5.60    3.90
   9  -5  -2  272.07   21.80
   9  -5  -2  317.37   19.90
  -9  -5   2  318.67   20.70
   9  -5  -2  279.67   16.20
   9  -5  -2  299.27   14.90
  -9  -5   2  283.97   18.60
  -9   5   2  284.57   22.60
  -9   5   2  305.47   20.70
  -9   5   2  310.77   20.10
  -9   5   2  272.97   16.90
   9   5  -2  307.37   20.30
   7  -5  -2   89.89   13.30
  -7  -5   2   87.19   10.30
   7  -5  -2   89.99   11.70
   7  -5  -2   82.89    6.70
  -7  -5   2   93.69   11.00
   7  -5  -2   76.39    9.20
  -7   5   2   82.29   13.20
  -7   5   2   79.39    8.20
   7   5  -2   75.29    6.70
   7   5  -2   89.59   11.30
  -7   5   2   73.89   11.40
   7   5  -2   89.39    9.60
  -7   5   2   83.49   11.40
   5  -5  -2  207.48   15.20
   5  -5  -2  211.58   10.20
  -5  -5   2  199.68   13.90
  -5  -5   2  196.78   13.10
  -5  -5   2  188.58   12.30
  -5  -5   2  190.78   12.90
   5  -5  -2  201.88   13.80
   5  -5  -2  192.88   12.40
  -5  -5   2  195.38   13.80
  -5   5   2  203.18   10.70
   5   5  -2  197.88   12.40
   5   5  -2  206.58   12.30
  -5   5   2  210.78   13.90
  -5   5   2  197.18   15.60
   5   5  -2  205.38   12.70
  -5   5   2  219.38   15.60
  -5   5   2  214.08   16.00
   3  -5  -2   24.10    4.60
  -3  -5   2   28.00    5.80
  -3  -5   2   27.60    5.80
   3  -5  -2   30.40    6.00
   3  -5  -2   29.60    6.50
   3  -5  -2   21.00    5.70
  -3  -5   2   22.30    6.00
  -3   5   2   32.00    7.00
   3   5  -2   36.00    5.20
  -3   5   2   37.20    7.30
  -3   5   2   22.30    3.90
  -3   5   2   23.10    6.40
   3   5  -2   34.10    6.80
  -3   5   2   25.60    3.60
   3   5  -2   23.10    5.00
  -3   5   2   29.40    5.50
  -1  -5   2   36.70    6.20
   1  -5  -2   37.50    4.50
   1  -5  -2   41.10    5.10
   1  -5  -2   39.20    7.00
   1  -5  -2   31.60    6.20
  -1  -5   2   48.20    8.50
  -1  -5   2   27.80    5.50
   1  -5  -2   30.70    5.60
  -1  -5   2   33.50    4.30
   1   5  -2   33.50    2.70
  -1   5   2   32.90    4.70
   1   5  -2   44.50    5.00
   1   5  -2   33.30    4.00
  -1   5   2   36.70    6.60
  -1   5   2   33.70    6.00
   1   5  -2   29.20    5.00
  -1   5   2   30.60    3.90
  -1   5   2   35.80    5.60
   1   5  -2   46.90    6.90
  -1   5   2   34.60    7.00
  -1  -5  -2  402.46   19.70
   1  -5   2  388.16   17.70
   1  -5   2  382.96   19.00
   1  -5   2  374.16   18.10
   1  -5   2  374.86   20.20
  -1  -5  -2  410.66   19.30
  -1  -5  -2  357.96   15.60
  -1   5  -2  357.16   14.90
   1   5   2  399.06   16.30
   1   5   2  367.26   18.00
   1   5   2  389.96   13.70
   1   5   2  377.96   15.50
   1   5   2  365.56   16.70
  -1   5  -2  401.36   19.20
  -1   5  -2  392.86   17.50
  -1   5  -2  375.86   18.10
   1   5   2  370.36   19.90
   3  -5   2  224.18   15.10
   3  -5   2  234.68   14.20
   3  -5   2  253.17   15.70
  -3  -5  -2  244.98   15.20
  -3  -5  -2  226.08    9.90
  -3  -5  -2  199.18   13.70
   3  -5   2  236.88   14.40
  -3  -5  -2  247.78   12.00
  -3   5  -2  261.17   15.80
   3   5   2  247.58   11.10
  -3   5  -2  225.28    7.90
  -3   5  -2  232.88   14.80
   3   5   2  220.48   12.30
  -3   5  -2  249.08   15.90
   3   5   2  224.68   11.10
   3   5   2  254.97   15.20
   5  -5   2   67.99    9.30
  -5  -5  -2   51.39    9.00
   5  -5   2   55.39   11.80
  -5  -5  -2   56.59    7.30
  -5  -5  -2   51.79    3.50
   5  -5   2   63.89    9.60
  -5   5  -2   47.80    9.70
   5   5   2   53.09    5.40
   5   5   2   53.59    7.90
  -5   5  -2   65.79   10.60
   7  -5   2  676.23   31.80
  -7  -5  -2  680.03   25.40
   7  -5   2  781.12   37.50
  -7  -5  -2  701.33   30.20
   7  -5   2  723.93   31.50
  -7  -5  -2  734.13   34.00
   7   5   2  743.83   26.90
  -7   5  -2  767.52   37.60
  -7   5  -2  734.93   35.20
   7   5   2  661.53   28.20
   7   5   2  679.23   22.80
  -9  -5  -2    7.90    6.20
   9  -5   2    0.40    6.20
  -9  -5  -2   12.70    6.00
   9  -5   2   13.10    7.00
   9  -5   2    7.40    5.30
  -9   5  -2    1.70    6.00
   9   5   2    4.30    6.40
  -9   5  -2    2.20    6.10
   9   5   2    9.20    6.70
   9   5   2    7.40    3.90
  10  -6  -2    6.30    5.00
 -10  -6   2    2.80    5.80
  10  -6  -2   16.00    8.90
  10  -6  -2   12.70    7.10
 -10   6   2    6.60    6.00
 -10   6   2    8.90    5.50
  10   6  -2    8.10    5.70
 -10   6   2    8.70   12.00
  10   6  -2    7.20    6.90
 -10   6   2   12.40    8.80
   8  -6  -2    3.20    3.10
  -8  -6   2    2.90    4.60
  -8  -6   2    1.10    5.00
   8  -6  -2    5.00    6.60
   8  -6  -2   -4.80    4.20
   8  -6  -2    6.70    4.50
   8   6  -2    1.60    4.00
  -8   6   2    3.20    5.30
   8   6  -2    0.30    2.90
   8   6  -2    3.90    5.40
  -8   6   2    5.70    6.60
  -8   6   2    1.90    5.60
  -6  -6   2  158.58   13.70
   6  -6  -2  136.59   15.90
  -6  -6   2  172.68   14.50
   6  -6  -2  140.99   15.10
   6  -6  -2  137.29   13.50
  -6   6   2  143.99   17.20
  -6   6   2  165.38   17.70
   6   6  -2  172.68   12.70
   6   6  -2  166.48   12.00
   6   6  -2  169.48   11.60
  -6   6   2  147.69   13.00
  -4  -6   2   -1.00    3.60
  -4  -6   2    3.80    4.50
   4  -6  -2    0.10    4.10
   4  -6  -2    3.00    4.30
  -4  -6   2   -2.20    3.40
   4  -6  -2    4.20    4.30
  -4   6   2    7.80    4.40
   4   6  -2    1.40    3.60
   4   6  -2    0.30    3.00
  -4   6   2    7.10    4.90
  -4   6   2    1.70    2.50
   4   6  -2   -3.40    2.70
   2  -6  -2   34.90    8.30
  -2  -6   2   52.99    8.30
   2  -6  -2   41.00    7.00
   2  -6  -2   33.90    5.20
   2  -6  -2   43.50    4.50
  -2  -6   2   49.90    7.90
  -2  -6   2   44.50    8.90
   2  -6  -2   48.50    8.10
  -2   6   2   34.40    7.40
  -2   6   2   59.19   10.50
   2   6  -2   43.10    4.20
  -2   6   2   42.80    7.30
  -2   6   2   43.60    5.00
   2   6  -2   36.40    7.80
   2   6  -2   42.90    7.00
   2   6  -2   49.10    5.00
  -2   6   2   45.80    6.80
   0  -6  -2   12.30    4.10
   0  -6  -2   17.60    4.90
   0  -6   2   12.60    5.70
   0  -6  -2   15.10    5.40
   0  -6  -2   14.50    5.60
   0  -6   2   17.40    5.40
   0  -6   2   11.30    3.20
   0  -6   2   20.30    6.00
   0   6  -2   11.90    4.60
   0   6   2   15.90    4.50
   0   6  -2   11.10    3.70
   0   6  -2   13.30    4.00
   0   6   2   13.10    3.30
   0   6  -2   13.00    5.60
   0   6   2   24.90    7.20
   0   6   2   12.50    4.50
   0   6  -2   12.50    3.70
   0   6   2   16.70    3.60
   2  -6   2  280.47   17.40
  -2  -6  -2  285.27   11.00
   2  -6   2  309.27   18.20
  -2  -6  -2  298.07   16.70
   2  -6   2  298.37   17.40
  -2  -6  -2  338.47   19.20
   2   6   2  323.97   19.20
   2   6   2  324.27   13.50
   2   6   2  299.07   10.40
   2   6   2  281.47   14.50
  -2   6  -2  340.87   19.00
  -2   6  -2  320.97   18.10
  -2   6  -2  354.06   21.40
  -2   6  -2  301.27   16.70
  -4  -6  -2    8.60    5.60
  -4  -6  -2   13.10    4.20
  -4  -6  -2   21.20    6.20
   4  -6   2   23.90    6.30
   4  -6   2   22.90    6.80
   4  -6   2   26.40    7.40
   4   6   2   24.60    6.40
  -4   6  -2   15.90    6.60
   4   6   2   17.60    2.30
  -4   6  -2   21.10    6.80
  -4   6  -2   18.80    7.70
  -6  -6  -2  101.79   10.70
  -6  -6  -2  117.79   14.40
   6  -6   2  100.59   12.60
   6  -6   2  101.89   12.70
   6  -6   2   78.99   13.20
  -6   6  -2  111.69   14.60
   6   6   2   76.69   10.10
  -6   6  -2  101.29   15.10
  -6   6  -2  114.19   15.50
   8  -6   2   -4.20    5.60
  -8  -6  -2   -0.20    4.20
   8  -6   2   -0.80    4.20
  -8  -6  -2   -6.20    3.90
   8   6   2    1.00    5.50
  -8   6  -2    3.10    8.00
  -8   6  -2    8.40    6.50
   8   6   2   -2.40    4.40
  -8   6  -2    1.40    7.00
   7  -7  -2   33.30    8.80
   7  -7  -2   27.40    7.40
   7  -7  -2   25.80    9.20
   7   7  -2   23.90    6.30
   7   7  -2   34.40    8.40
  -7   7   2   22.00    7.40
   7   7  -2   36.30    7.20
   5  -7  -2   88.69   12.70
   5  -7  -2   76.69   12.00
  -5  -7   2   92.79   12.60
  -5  -7   2  106.19   12.60
   5  -7  -2   99.59   12.80
  -5   7   2  105.59   14.60
   5   7  -2   72.29    9.30
   5   7  -2   72.79    9.40
  -5   7   2   98.79   12.30
  -5   7   2   89.29   14.30
   3  -7  -2   16.00    6.90
  -3  -7   2    7.40    5.20
   3  -7  -2   13.80    5.70
   3  -7  -2   11.20    5.30
  -3  -7   2    7.10    5.70
  -3   7   2   20.30    5.70
  -3   7   2   14.20    5.80
   3   7  -2   13.60    5.20
  -3   7   2   12.20    6.30
   3   7  -2    6.60    5.20
   3   7  -2   11.50    3.50
  -1  -7   2    3.90    4.60
   1  -7  -2    5.50    3.10
  -1  -7   2   21.50    6.80
   1  -7  -2    5.10    5.00
   1  -7  -2    9.00    5.30
  -1   7   2    7.00    6.10
   1   7  -2    5.40    5.20
   1   7  -2   11.50    5.00
   1   7  -2   11.10    2.10
  -1   7   2   10.20    4.00
   1   7  -2    9.40    1.90
   1  -7   2  131.39   14.30
   1  -7   2  153.78   15.40
  -1  -7  -2  145.09   15.50
  -1  -7  -2  139.29   10.80
   1   7   2  137.59    6.90
  -1   7  -2  147.59   11.30
  -1   7  -2  178.88   24.80
   1   7   2  138.39    8.70
  -1   7  -2  137.89   16.80
   1   7   2  142.99   16.30
   3  -7   2  110.99   13.40
  -3  -7  -2  120.09   13.50
  -3  -7  -2  101.79   13.80
   3  -7   2   63.89   10.30
   3  -7   2  104.29   12.90
  -3   7  -2   97.29   15.00
   3   7   2  108.49   13.80
  -3   7  -2  134.39   14.90
  -3   7  -2  110.89   13.70
   5  -7   2   11.70    5.80
   5  -7   2   13.70   11.40
   5  -7   2   16.40    7.10
  -5  -7  -2   12.50    6.70
  -5  -7  -2   11.60    6.50
  -5   7  -2   22.40    7.70
   5   7   2   25.20    7.60
  -5   7  -2    3.50    6.10
  -5   7  -2    0.40    5.10
  -4   8   2    3.40    5.30
  -2  -8   2    4.20    5.70
   2  -8  -2   -1.30    4.70
  -2  -8   2    5.30    5.00
   2  -8  -2   -1.20    5.60
   2   8  -2    9.80    6.30
  -2   8   2   11.40    5.00
  -2   8   2    7.00    6.90
   2   8  -2    8.00    4.90
   0  -8   2   -1.40    4.90
   0  -8  -2    5.90    6.10
   0  -8   2    3.80    5.70
   0   8   2    0.50    3.30
   0   8  -2    2.50    3.10
   0   8  -2   -0.90    4.70
   0   8  -2    4.30    6.50
  -2  -8  -2   76.09   12.90
   2  -8   2   71.99   13.50
   2  -8   2   83.79   12.80
   2   8   2   88.49   13.80
  -2   8  -2   81.69   10.70
  -2   8  -2   96.79   15.90
  -2   8  -2   70.49   11.80
 -14   0   3   42.80   11.80
  14   0  -3   19.90    9.90
  12   0  -3   17.20    6.90
 -12   0   3    7.40    6.10
  12   0  -3   28.70    8.60
 -12   0   3   20.50    7.00
 -10   0   3   52.99    9.70
  10   0  -3   55.79   10.40
  10   0  -3   67.79   10.30
 -10   0   3   60.09    5.00
 -10   0   3   55.89    8.90
  -8   0   3  633.24   25.50
  -8   0   3  605.04   21.80
   8   0  -3  604.54   27.30
   8   0  -3  570.74   26.80
   8   0  -3  570.14   25.50
  -8   0   3  592.04   26.80
  -8   0   3  594.74   18.90
   6   0  -3  404.96   18.00
  -6   0   3  411.96   19.50
   6   0  -3  426.46   18.10
  -6   0   3  415.66   18.80
   6   0  -3  487.05   20.60
  -6   0   3  452.05   15.10
   6   0  -3  454.45   20.30
  -6   0   3  437.06   18.30
   6   0  -3  421.86   19.10
  -6   0   3  459.15   20.10
   6   0  -3  428.36   19.70
   6   0  -3  464.25   19.30
   4   0  -3 1319.97   42.30
  -4   0   3 1300.57   43.00
  -4   0   3 1310.27   41.30
  -4   0   3 1284.77   40.10
   4   0  -3 1332.57   43.50
   4   0  -3 1259.07   40.10
   4   0  -3 1331.37   41.90
   4   0  -3 1303.97   43.40
  -4   0   3 1222.98   42.10
  -4   0   3 1230.28   43.00
   4   0  -3 1307.67   41.50
  -2   0   3  498.85   19.50
  -2   0   3  509.75   18.50
   2   0  -3  530.35   19.90
  -2   0   3  528.55   19.40
  -2   0   3  546.45   17.80
   2   0  -3  539.85   17.80
   2   0  -3  518.05   18.50
   2   0  -3  523.85   19.50
   2   0  -3  539.75   16.10
   2   0  -3  494.65   18.30
  -2   0   3  536.95   18.60
   0   0  -3 1482.95   46.80
   0   0   3 1521.05   48.80
   0   0   3 1487.35   46.80
   0   0   3 1519.75   47.80
   0   0  -3 1594.94   49.20
   0   0  -3 1516.05   48.20
   0   0  -3 1540.15   46.70
   0   0   3 1506.95   48.10
   0   0  -3 1514.95   47.90
   0   0   3 1512.35   45.30
   2   0   3 1336.97   43.70
   2   0   3 1327.67   42.30
  -2   0  -3 1383.36   42.80
  -2   0  -3 1302.37   44.20
  -2   0  -3 1401.36   45.80
   2   0   3 1353.36   42.80
   2   0   3 1366.46   44.90
   2   0   3 1291.07   44.90
  -2   0  -3 1367.06   43.70
  -4   0  -3  256.07   14.20
   4   0   3  239.68    9.90
  -4   0  -3  255.67   12.40
   4   0   3  222.78   11.10
   4   0   3  277.77   14.20
  -4   0  -3  229.58   11.60
  -4   0  -3  240.98   12.00
   4   0   3  246.58   12.20
   4   0   3  234.18   13.50
  -4   0  -3  220.78   12.60
  -6   0  -3  118.99   13.00
  -6   0  -3  106.69    8.80
  -6   0  -3  106.79   10.50
   6   0   3   98.29    4.50
   6   0   3  110.99   10.00
  -6   0  -3   91.89    7.70
   6   0   3   88.19   10.80
  -8   0  -3  372.76   19.50
   8   0   3  363.96   22.90
  -8   0  -3  370.66   19.80
  -8   0  -3  379.26   22.70
 -10   0  -3  145.89   16.30
  10   0   3  154.38   16.60
 -10   0  -3  131.59   17.40
  10   0   3  142.19   17.40
 -10   0  -3  127.59   15.10
  12   0   3   41.40   10.60
 -12   0  -3   21.30    9.50
  12   0   3   27.00    9.60
 -12   0  -3    8.60    7.50
 -12   0  -3   32.20    9.20
 -12   0  -3   37.60    9.10
  13  -1  -3    5.60    6.10
 -13  -1   3   -0.70    4.00
 -13  -1   3    4.20    5.70
  13  -1  -3   -2.20    4.70
 -13  -1   3    5.00    5.40
 -13   1   3    3.50    5.90
  13   1  -3   11.50    6.60
 -13   1   3   -1.90    4.40
  13   1  -3   -2.10    4.40
  11  -1  -3   22.20    6.70
 -11  -1   3   16.20    5.90
 -11  -1   3   29.80    3.30
 -11  -1   3   32.60    8.10
 -11  -1   3   23.00    6.50
  11  -1  -3   33.20    8.80
 -11   1   3   25.60    4.00
 -11   1   3    5.60    4.60
  11   1  -3   13.00    5.70
 -11   1   3   21.90    3.30
 -11   1   3   22.50    3.40
  11   1  -3   20.20    7.20
 -11   1   3   17.50    3.60
 -11   1   3   31.30    8.60
   9  -1  -3  555.74   25.40
   9  -1  -3  560.64   28.20
  -9  -1   3  551.84   25.40
  -9  -1   3  553.94   25.40
  -9  -1   3  611.54   25.90
  -9  -1   3  551.54   20.60
   9   1  -3  535.65   25.60
   9   1  -3  547.45   17.20
  -9   1   3  555.54   20.40
  -9   1   3  595.04   28.40
   9   1  -3  550.34   26.10
  -9   1   3  580.84   25.00
   9   1  -3  566.54   26.30
   7  -1  -3   44.70    5.60
  -7  -1   3   48.90    7.00
  -7  -1   3   44.50    5.20
   7  -1  -3   39.70    2.40
  -7  -1   3   55.89    7.40
   7  -1  -3   35.60    6.00
  -7  -1   3   52.59    7.10
   7  -1  -3   39.50    7.50
   7  -1  -3   42.50    7.70
   7   1  -3   29.70    5.70
  -7   1   3   56.99    7.00
   7   1  -3   47.90    7.10
   7   1  -3   40.40    2.10
   7   1  -3   49.30    7.20
  -7   1   3   53.89    4.60
  -7   1   3   53.89    8.60
   5  -1  -3  676.23   26.40
   5  -1  -3  732.43   28.40
   5  -1  -3  744.13   28.70
  -5  -1   3  688.93   25.90
   5  -1  -3  713.03   26.00
   5  -1  -3  703.73   24.80
  -5  -1   3  717.43   25.10
  -5  -1   3  732.33   26.20
   5  -1  -3  703.73   24.70
  -5   1   3  698.93   24.60
   5   1  -3  684.03   27.50
  -5   1   3  713.13   28.10
  -5   1   3  702.83   21.70
   5   1  -3  688.63   26.00
   5   1  -3  717.13   22.40
   5   1  -3  710.03   26.20
  -5   1   3  685.33   24.70
  -5   1   3  690.73   26.20
   5   1  -3  733.83   26.60
   3  -1  -3    2.90    1.70
   3  -1  -3    1.70    2.10
   3  -1  -3    2.80    2.10
  -3  -1   3    0.10    1.70
  -3  -1   3    6.70    2.60
   3  -1  -3    1.60    2.50
  -3  -1   3    0.60    1.80
  -3  -1   3   -0.10    1.00
   3  -1  -3    3.10    1.70
  -3  -1   3    1.20    1.70
  -3  -1   3    4.00    1.80
   3  -1  -3    1.90    1.40
   3  -1  -3    3.50    2.10
  -3  -1   3    2.10    1.90
   3   1  -3    2.50    1.70
   3   1  -3    1.40    1.80
  -3   1   3    2.00    1.20
   3   1  -3    6.20    2.30
   3   1  -3    2.90    1.90
  -3   1   3   -0.50    1.50
   3   1  -3    0.20    1.60
   3   1  -3   -0.20    1.70
  -3   1   3    2.30    1.20
  -3   1   3    5.80    2.90
   3   1  -3    1.00    1.20
  -3   1   3    3.50    2.60
  -3   1   3    0.30    1.50
   1  -1  -3 7634.74  337.37
  -1  -1   3 7715.13  319.47
   1  -1  -3 7701.03  339.87
  -1   1   3 8477.15  351.16
   1   1  -3 7497.65  316.87
   1   1  -3 7952.10  324.87
  -1   1   3 7925.31  340.57
   1  -1   3  192.38    9.30
  -1  -1  -3  211.98    9.10
   1  -1   3  204.58    8.30
  -1  -1  -3  201.68   10.60
   1  -1   3  199.48   10.20
   1  -1   3  178.38   10.10
  -1  -1  -3  192.58    7.60
  -1  -1  -3  191.88    9.70
   1  -1   3  191.88    9.50
  -1  -1  -3  197.58   10.00
   1  -1   3  200.68   10.40
   1   1   3  193.08    9.30
   1   1   3  205.88    8.90
   1   1   3  209.58   10.30
   1   1   3  206.78    7.60
  -1   1  -3  179.18    9.80
  -1   1  -3  206.08   10.90
   1   1   3  193.98    9.80
   1   1   3  181.38   10.10
  -1   1  -3  207.58   10.00
  -1   1  -3  208.58    9.80
   3  -1   3  128.89    9.30
   3  -1   3  127.19    7.10
  -3  -1  -3  132.19    7.80
  -3  -1  -3  124.29    8.10
  -3  -1  -3  108.59    8.50
  -3  -1  -3  131.99    9.40
   3  -1   3  118.09    8.90
   3  -1   3  119.99    7.60
  -3  -1  -3  130.09    6.70
  -3   1  -3  130.19    8.30
  -3   1  -3  121.99    8.60
   3   1   3  125.09    7.90
   3   1   3  120.19    8.50
  -3   1  -3  121.39    8.00
   3   1   3  128.29    9.00
   3   1   3  124.49    6.30
  -3   1  -3  118.59    9.30
   3   1   3  128.69    7.90
   5  -1   3  100.09    6.10
   5  -1   3   88.29   10.50
  -5  -1  -3   99.69    9.00
  -5  -1  -3  112.29    8.70
  -5  -1  -3  103.19    7.30
  -5  -1  -3  102.79    7.10
   5   1   3  117.99    7.90
   5   1   3   93.69   10.30
  -5   1  -3   93.99    8.30
  -5   1  -3  106.19    8.20
   5   1   3   96.49    6.50
  -5   1  -3  108.19   13.10
   5   1   3   98.29    8.70
  -5   1  -3   98.29    7.50
  -7  -1  -3   23.00    6.10
  -7  -1  -3   18.60    5.80
  -7  -1  -3   33.10    7.40
   7  -1   3   17.00    6.50
  -7  -1  -3    9.30    3.60
  -7  -1  -3   20.10    4.90
   7   1   3   20.50    4.70
   7   1   3   19.40    6.20
  -7   1  -3   28.80    6.50
  -7   1  -3   34.70    8.10
   7   1   3   16.70    5.50
  -7   1  -3   29.80    5.80
  -9  -1  -3  140.89    9.90
  -9  -1  -3  166.68   12.40
  -9  -1  -3  159.98   13.40
   9  -1   3  170.58   13.20
  -9  -1  -3  148.49   16.70
   9  -1   3  148.79   18.10
  -9   1  -3  137.19   16.90
   9   1   3  184.88   16.30
  -9   1  -3  154.98   13.60
  -9   1  -3  189.88   13.00
 -11  -1  -3    6.40    6.20
  11  -1   3   14.70    6.80
 -11  -1  -3   12.80    6.20
  11  -1   3    8.80    7.10
 -11  -1  -3    5.90    4.80
 -11  -1  -3   13.40    6.40
  11   1   3    9.80    6.40
 -11   1  -3   14.60    5.80
 -11   1  -3    4.20    6.60
 -11   1  -3   21.90    8.30
 -11   1  -3   20.60    7.50
  11   1   3   24.60    9.40
  14  -2  -3   39.20   11.30
  14  -2  -3   39.30    9.70
 -14  -2   3   33.70    9.90
 -14  -2   3   31.20    8.70
  14   2  -3   28.20   10.10
  14   2  -3   21.70    8.70
 -14   2   3   15.70    8.70
  12  -2  -3   13.10    6.20
  12  -2  -3   12.40    8.30
 -12  -2   3   21.60    7.10
 -12  -2   3   18.50    6.70
  12  -2  -3   15.20    2.70
 -12  -2   3   11.20    5.20
 -12   2   3   14.60    5.80
  12   2  -3   24.00    8.00
  12   2  -3   15.00    6.30
 -12   2   3   11.40    3.70
  10  -2  -3   68.49   12.20
  10  -2  -3   57.79    7.90
  10  -2  -3   57.39    8.90
 -10  -2   3   68.29   10.10
  10  -2  -3   53.99    5.00
 -10  -2   3   73.39   10.60
 -10  -2   3   49.10    7.70
 -10  -2   3   50.89    5.60
  10   2  -3   63.09    9.20
 -10   2   3   70.79    9.80
 -10   2   3   71.39   11.30
 -10   2   3   67.39   12.10
 -10   2   3   47.70    6.40
 -10   2   3   56.09    7.00
  10   2  -3   44.80    9.40
  10   2  -3   55.89    4.20
  10   2  -3   65.89    9.70
  -8  -2   3  445.36   19.20
   8  -2  -3  447.66   20.60
   8  -2  -3  469.15   16.20
  -8  -2   3  426.56   21.10
   8  -2  -3  407.26   23.70
  -8  -2   3  460.25   18.30
   8  -2  -3  454.85   18.00
  -8  -2   3  428.66   21.40
   8   2  -3  451.65   15.80
  -8   2   3  441.46   19.10
   8   2  -3  438.16   20.20
  -8   2   3  428.46   23.80
   8   2  -3  404.36   19.70
   8   2  -3  438.66   21.80
  -8   2   3  473.75   22.70
  -8   2   3  457.55   20.20
  -6  -2   3  274.47   14.80
  -6  -2   3  302.87   15.60
   6  -2  -3  299.27   19.00
   6  -2  -3  309.37   11.90
   6  -2  -3  289.77   14.20
  -6  -2   3  308.97   13.20
   6  -2  -3  319.27   12.80
  -6  -2   3  321.47   14.20
  -6  -2   3  304.57   13.60
   6   2  -3  296.87   13.80
  -6   2   3  317.47   19.40
  -6   2   3  301.27   16.30
   6   2  -3  305.87   11.60
  -6   2   3  320.67   14.70
   6   2  -3  304.27   13.50
   6   2  -3  305.87   10.60
  -6   2   3  291.77   14.60
  -6   2   3  311.87   11.90
   6   2  -3  306.77   14.00
  -6   2   3  317.37   13.80
   4  -2  -3  774.32   30.00
   4  -2  -3  761.32   27.90
  -4  -2   3  720.73   27.00
   4  -2  -3  702.63   31.50
  -4  -2   3  750.62   27.40
  -4  -2   3  751.62   25.50
   4  -2  -3  722.03   27.00
   4  -2  -3  772.92   25.20
  -4  -2   3  777.12   25.00
  -4  -2   3  750.02   27.50
   4  -2  -3  760.82   26.80
   4  -2  -3  823.22   27.20
  -4   2   3  762.02   27.60
  -4   2   3  792.52   29.90
   4   2  -3  770.82   25.30
   4   2  -3  769.82   25.30
   4   2  -3  737.43   27.20
   4   2  -3  770.92   24.90
  -4   2   3  724.33   27.50
   4   2  -3  764.32   25.80
   4   2  -3  734.53   27.60
  -4   2   3  751.12   27.00
  -4   2   3  746.93   25.10
   4   2  -3  704.83   27.70
   4   2  -3  768.82   25.90
   4   2  -3  783.12   27.40
  -4   2   3  753.32   29.90
  -4   2   3  761.02   24.70
   2  -2  -3  336.77   15.60
   2  -2  -3  313.77   15.20
  -2  -2   3  319.37   12.90
  -2  -2   3  327.97   14.80
   2  -2  -3  339.77   12.90
   2  -2  -3  331.47   13.70
   2  -2  -3  318.97   14.70
  -2  -2   3  331.27   12.00
  -2  -2   3  339.37   12.80
   2  -2  -3  358.56   13.80
  -2  -2   3  346.37   13.20
  -2  -2   3  322.07   13.00
  -2   2   3  360.56   15.20
  -2   2   3  339.87   13.70
   2   2  -3  315.97   14.00
   2   2  -3  336.97   14.40
  -2   2   3  332.17   15.40
   2   2  -3  349.17   13.50
  -2   2   3  335.97   13.50
   2   2  -3  317.17   13.70
   2   2  -3  359.56   12.70
  -2   2   3  320.97   15.40
   2   2  -3  334.97   14.10
   2   2  -3  326.77   12.90
   2   2  -3  340.07   14.70
  -2   2   3  334.57   13.10
   2   2  -3  348.37   13.00
   0  -2   3  933.91   30.70
   0  -2  -3  912.61   27.40
   0  -2   3  933.31   31.10
   0  -2  -3  898.01   31.70
   0  -2   3  932.71   28.90
   0  -2   3  923.71   31.80
   0  -2  -3  948.81   32.00
   0  -2  -3  928.91   30.90
   0  -2  -3  887.11   26.90
   0  -2  -3  914.01   26.80
   0  -2  -3  890.11   31.40
   0  -2   3  893.41   28.20
   0  -2  -3  886.71   30.40
   0  -2   3  885.91   31.10
   0  -2   3  898.11   31.10
   0   2  -3  941.21   31.80
   0   2  -3  866.61   31.30
   0   2   3  905.81   31.30
   0   2   3  845.72   30.20
   0   2  -3  890.41   28.60
   0   2  -3  901.31   31.50
   0   2   3  937.91   30.70
   0   2   3  864.71   31.60
   0   2   3  934.21   32.00
   0   2  -3  951.00   31.50
   0   2   3  889.51   30.20
   0   2  -3  869.61   30.70
   2  -2   3  869.71   32.00
  -2  -2  -3  856.81   31.90
   2  -2   3  976.00   33.60
   2  -2   3  924.61   33.70
   2  -2   3  929.91   32.00
  -2  -2  -3  895.21   32.50
  -2  -2  -3  936.81   30.50
   2  -2   3  860.81   31.70
   2  -2   3  907.81   28.80
  -2  -2  -3  946.31   32.50
  -2  -2  -3  944.41   32.20
  -2   2  -3  869.11   31.70
   2   2   3  915.81   31.90
   2   2   3  955.50   32.50
  -2   2  -3 1009.70   33.40
   2   2   3  889.91   32.50
  -2   2  -3  965.30   33.60
   2   2   3  953.30   32.40
   2   2   3  951.10   32.20
  -2   2  -3  915.01   34.20
  -2   2  -3  897.31   32.90
  -4  -2  -3  185.88   10.30
  -4  -2  -3  169.98    7.90
   4  -2   3  159.08   11.50
  -4  -2  -3  158.38    9.40
  -4  -2  -3  165.88   10.60
   4  -2   3  166.58    9.40
  -4  -2  -3  173.18   10.90
  -4   2  -3  178.88   12.70
   4   2   3  166.18   10.50
  -4   2  -3  161.58   10.90
   4   2   3  162.78    9.70
  -4   2  -3  162.68   11.20
   4   2   3  164.68   10.60
  -4   2  -3  172.18    9.40
   4   2   3  154.58    7.30
   6  -2   3   59.19    6.10
   6  -2   3   66.89    7.60
  -6  -2  -3   69.29    7.40
  -6  -2  -3   61.59    8.40
  -6  -2  -3   68.39    9.20
   6  -2   3   63.69   10.60
  -6  -2  -3   66.59    6.90
  -6  -2  -3   88.39   10.40
   6   2   3   60.19    7.00
  -6   2  -3   62.29    7.00
   6   2   3   54.79    8.40
  -6   2  -3   53.89    5.90
   6   2   3   60.19    5.30
  -6   2  -3   63.29    9.30
   6   2   3   68.29    8.90
  -6   2  -3   62.29   10.40
   6   2   3   64.39    4.60
  -8  -2  -3  303.77   18.80
  -8  -2  -3  268.27   17.70
   8  -2   3  291.37   16.20
   8  -2   3  300.67   21.40
  -8  -2  -3  295.77   14.50
  -8  -2  -3  309.87   18.30
  -8   2  -3  298.47   21.20
  -8   2  -3  322.77   19.50
   8   2   3  256.97   19.70
   8   2   3  283.87   14.40
  -8   2  -3  307.97   15.80
 -10  -2  -3  132.79   15.70
  10  -2   3  132.59   14.20
  10  -2   3  143.99   13.80
  10  -2   3  127.29   18.00
 -10  -2  -3  147.19   16.20
 -10   2  -3  135.29   11.10
 -10   2  -3  121.89   17.50
 -10   2  -3  153.28   17.60
  10   2   3  139.29   16.80
  10   2   3  126.69   16.00
  12  -2   3   24.00   10.40
  12  -2   3   40.80    9.70
 -12  -2  -3   38.50    9.70
  12  -2   3   14.50    6.30
 -12  -2  -3   17.70    8.10
  12   2   3   55.09   12.10
 -12   2  -3   30.50   10.60
  12   2   3   16.60    8.40
 -12   2  -3   45.20   11.20
 -12   2  -3   25.50    7.00
 -12   2  -3   28.40    9.00
  13  -3  -3    2.30    5.20
  13  -3  -3    0.20    7.60
 -13  -3   3    0.00    5.00
 -13   3   3    1.70    4.90
  13   3  -3    2.60    6.90
  13   3  -3   -1.30    4.30
 -13   3   3    5.20    4.20
 -13   3   3    5.20    7.30
  11  -3  -3   12.60    3.30
 -11  -3   3   11.20    6.00
  11  -3  -3   18.90    8.30
  11  -3  -3    9.10    5.10
 -11  -3   3    9.20    5.40
 -11  -3   3   16.00    3.90
 -11   3   3   13.00    5.90
 -11   3   3   14.00    4.90
  11   3  -3    7.20    6.30
 -11   3   3    1.40    4.80
 -11   3   3   10.10    7.00
   9  -3  -3  446.86   26.00
   9  -3  -3  408.86   15.70
  -9  -3   3  416.56   22.40
   9  -3  -3  395.06   19.60
  -9  -3   3  398.86   18.10
   9  -3  -3  387.36   16.50
  -9  -3   3  427.86   22.00
  -9  -3   3  389.46   16.90
  -9   3   3  440.26   26.00
   9   3  -3  416.76   18.80
   9   3  -3  419.66   22.40
   9   3  -3  422.86   18.70
  -9   3   3  391.66   22.50
  -9   3   3  406.26   20.10
  -9   3   3  417.46   20.00
  -7  -3   3   25.40    5.70
   7  -3  -3   32.10    4.50
  -7  -3   3   36.40    7.20
   7  -3  -3   35.20    3.80
  -7  -3   3   31.20    5.40
   7  -3  -3   32.80    5.60
   7  -3  -3   39.70    8.60
  -7  -3   3   37.40    3.90
  -7  -3   3   34.70    3.90
  -7   3   3   32.40    8.10
  -7   3   3   31.40    6.60
  -7   3   3   36.70    5.40
  -7   3   3   26.60    5.80
   7   3  -3   30.20    4.20
   7   3  -3   27.80    4.30
   7   3  -3   38.60    3.00
   7   3  -3   27.90    6.30
  -5  -3   3  289.47   10.80
   5  -3  -3  303.57   12.20
  -5  -3   3  337.87   13.70
   5  -3  -3  294.17   14.90
   5  -3  -3  332.47   18.20
   5  -3  -3  336.47   14.50
  -5  -3   3  333.67   15.90
   5  -3  -3  318.37   13.70
  -5  -3   3  329.47   15.60
   5  -3  -3  334.97   15.60
  -5  -3   3  313.07   16.10
   5   3  -3  319.97   12.10
  -5   3   3  304.37   17.70
  -5   3   3  326.77   15.90
  -5   3   3  293.57   13.40
  -5   3   3  283.97   14.10
   5   3  -3  298.77   12.90
  -5   3   3  338.17   18.20
   5   3  -3  323.87   13.50
   5   3  -3  321.77   12.00
   5   3  -3  287.87   14.80
  -5   3   3  304.27   12.70
   5   3  -3  336.67   15.60
  -5   3   3  318.87   16.20
  -3  -3   3   13.80    3.00
   3  -3  -3   19.80    3.50
   3  -3  -3   13.20    3.10
   3  -3  -3    9.20    3.20
  -3  -3   3   17.30    3.70
   3  -3  -3    6.50    3.30
  -3  -3   3   19.80    4.50
   3  -3  -3   14.20    2.90
   3  -3  -3   22.30    4.10
   3  -3  -3   14.00    4.30
  -3  -3   3   12.70    3.00
  -3   3   3   13.40    4.30
   3   3  -3   12.80    2.80
  -3   3   3    9.80    3.70
   3   3  -3    8.30    3.00
  -3   3   3   14.80    2.90
   3   3  -3    8.80    3.20
   3   3  -3   10.20    3.20
   3   3  -3   14.70    3.60
   3   3  -3    8.50    2.60
  -3   3   3    8.10    2.90
  -3   3   3   15.00    3.70
  -3   3   3   11.50    2.80
   3   3  -3   18.10    3.40
   1  -3  -3 2906.51   87.79
   1  -3  -3 2783.42   90.49
   1  -3  -3 2794.02   91.09
  -1  -3   3 2945.41   91.29
  -1  -3   3 2784.82   87.89
   1  -3  -3 2893.81   85.59
   1  -3  -3 2947.91   89.69
  -1  -3   3 3038.30   89.59
  -1  -3   3 2841.62   87.49
  -1  -3   3 2958.30   87.69
   1  -3  -3 2934.21   90.69
   1   3  -3 3055.19   85.79
  -1   3   3 2808.02   89.09
   1   3  -3 2968.20   91.19
  -1   3   3 2956.80   90.39
   1   3  -3 2925.61   89.19
  -1   3   3 2906.81   88.69
   1   3  -3 2956.60   90.19
   1   3  -3 2833.32   89.49
   1   3  -3 2877.01   88.89
  -1   3   3 2784.32   89.19
   1   3  -3 3024.30   88.79
  -1   3   3 2920.31   90.99
   1   3  -3 2952.50   87.79
  -1   3   3 2905.61   91.39
   1  -3   3   86.49    8.20
   1  -3   3   84.69    6.90
   1  -3   3   68.89    6.40
  -1  -3  -3   79.29    4.50
  -1  -3  -3   80.19    6.50
  -1  -3  -3   83.09    6.40
   1  -3   3   88.49    7.50
  -1  -3  -3   76.69    8.60
   1  -3   3  100.49    6.50
   1  -3   3   83.89    7.00
  -1  -3  -3   78.09    7.00
  -1  -3  -3   87.09    7.00
   1   3   3   83.79    7.30
   1   3   3   81.09    6.60
  -1   3  -3   94.69    7.50
   1   3   3   77.69    6.50
   1   3   3   82.39    7.60
   1   3   3   93.19    6.60
   1   3   3   90.79    6.90
  -1   3  -3   89.49    7.60
  -1   3  -3   70.09    6.50
  -1   3  -3   87.19    6.80
  -3  -3  -3   57.99    7.60
  -3  -3  -3   80.19    8.60
   3  -3   3   71.09    8.00
  -3  -3  -3   69.49    7.80
   3  -3   3   85.69    8.40
  -3  -3  -3   71.29    5.60
   3  -3   3   67.39    3.60
   3  -3   3   79.09    9.90
  -3   3  -3   65.49    8.20
  -3   3  -3   69.99    8.50
   3   3   3   65.89    7.60
  -3   3  -3   50.59    6.80
   3   3   3   61.69    7.00
  -3   3  -3   74.49    9.90
   3   3   3   60.89    7.20
   3   3   3   66.39    7.10
   5  -3   3   46.80    7.00
   5  -3   3   44.30    4.60
   5  -3   3   56.09    5.70
   5  -3   3   46.90    6.80
  -5  -3  -3   54.69    7.10
  -5  -3  -3   54.19    8.50
  -5  -3  -3   51.99    7.30
  -5  -3  -3   53.09    6.60
   5  -3   3   44.40    8.70
  -5   3  -3   50.79    5.30
   5   3   3   47.80    6.90
  -5   3  -3   44.90    6.40
   5   3   3   60.49    7.50
   5   3   3   49.10    7.40
   5   3   3   50.09    6.00
  -5   3  -3   59.39    9.30
  -5   3  -3   32.00    7.40
   5   3   3   48.20    3.50
  -7  -3  -3   22.10    5.80
   7  -3   3   11.90    6.20
  -7  -3  -3    8.40    5.20
  -7  -3  -3   17.90    4.70
  -7  -3  -3   21.10    6.00
   7  -3   3   18.10    5.40
   7  -3   3   20.10    4.60
  -7   3  -3   20.60    6.20
   7   3   3   17.30    3.50
   7   3   3   19.00    3.60
   7   3   3   12.90    5.20
  -7   3  -3   23.70    7.80
  -7   3  -3    8.90    4.00
   7   3   3   23.40    5.70
  -7   3  -3   14.90    3.80
  -9  -3  -3  146.69   13.10
   9  -3   3  140.19   10.90
   9  -3   3  127.09   13.00
  -9  -3  -3  113.79   13.50
  -9  -3  -3  141.99   15.70
   9  -3   3  132.29   18.40
  -9   3  -3  148.59   17.40
  -9   3  -3  127.79    9.40
   9   3   3  120.49   10.10
  -9   3  -3  151.58   19.10
   9   3   3  107.39   13.50
 -11  -3  -3   15.10    7.20
  11  -3   3   11.90    5.60
  11  -3   3    0.90    6.90
 -11   3  -3   11.70    5.10
 -11   3  -3    8.10    7.90
  11   3   3    4.80    6.80
  11   3   3    5.50    6.00
  12  -4  -3   15.70    4.30
  12  -4  -3    8.70    6.00
  12  -4  -3   23.00    9.60
 -12   4   3   18.10    8.80
 -12   4   3    6.30    5.10
  12   4  -3   14.20    4.80
 -12   4   3   15.30    6.60
 -12   4   3    5.40    6.50
  12   4  -3   22.80    8.60
 -10  -4   3   49.10    9.20
  10  -4  -3   41.90    7.40
  10  -4  -3   49.50    6.50
 -10  -4   3   43.10    6.90
 -10  -4   3   50.29   10.00
  10  -4  -3   53.49   10.00
  10  -4  -3   57.19   12.60
  10   4  -3   41.50   10.10
 -10   4   3   59.49   12.60
  10   4  -3   53.89    6.30
 -10   4   3   35.40    9.00
 -10   4   3   59.09    9.10
  10   4  -3   42.40    5.50
 -10   4   3   41.90    8.00
  -8  -4   3  224.48   13.70
   8  -4  -3  220.08   14.90
   8  -4  -3  225.78   18.00
  -8  -4   3  248.58   16.50
   8  -4  -3  230.58   12.50
   8  -4  -3  228.88   13.20
  -8  -4   3  237.88   15.40
   8   4  -3  218.38    8.70
  -8   4   3  239.68   13.40
  -8   4   3  206.38   14.70
  -8   4   3  250.17   19.00
   8   4  -3  244.98   16.10
   8   4  -3  206.08   11.40
  -8   4   3  237.38   16.30
  -6  -4   3  121.09   10.10
   6  -4  -3  139.09   10.70
   6  -4  -3  152.68   13.20
  -6  -4   3  120.09    9.90
  -6  -4   3  160.88   11.90
   6  -4  -3  119.59    8.70
  -6  -4   3  121.19    8.60
   6  -4  -3  109.09    9.20
   6   4  -3  130.59    8.40
  -6   4   3  136.39   12.50
   6   4  -3  130.89   10.30
  -6   4   3  119.89   10.70
  -6   4   3  138.69   10.80
  -6   4   3  124.59    8.00
   6   4  -3  126.29    8.00
  -6   4   3  121.09    9.70
  -4  -4   3  202.08   11.20
   4  -4  -3  189.48   10.80
   4  -4  -3  210.48   10.70
  -4  -4   3  206.88   12.20
   4  -4  -3  196.38    9.90
  -4  -4   3  194.48   11.00
  -4  -4   3  212.68   13.20
   4  -4  -3  198.78   12.40
   4  -4  -3  216.58   14.10
   4  -4  -3  206.98   11.60
  -4   4   3  233.28   14.20
   4   4  -3  204.48   10.90
  -4   4   3  195.68   13.90
  -4   4   3  190.28   13.70
   4   4  -3  190.98   10.80
  -4   4   3  191.08   11.50
  -4   4   3  185.38   10.50
   4   4  -3  189.28   11.60
   2  -4  -3  127.49    7.10
   2  -4  -3  123.49    9.70
  -2  -4   3  131.69    8.20
  -2  -4   3  115.79    6.00
  -2  -4   3  118.99    8.60
   2  -4  -3  116.49    6.70
   2  -4  -3  122.29    8.00
  -2  -4   3  115.59    5.80
   2  -4  -3  141.29    9.10
  -2  -4   3  126.49    9.90
   2  -4  -3  119.99    9.00
   2   4  -3  111.79    8.40
   2   4  -3  110.89    8.60
   2   4  -3  117.59    6.40
   2   4  -3  119.19    6.30
  -2   4   3  125.99   10.10
   2   4  -3  148.39    7.30
  -2   4   3  113.99    7.00
  -2   4   3  120.79    7.80
  -2   4   3  122.79   10.00
  -2   4   3  115.99    9.30
   2   4  -3  119.09    7.80
   0  -4   3  265.37   13.90
   0  -4  -3  307.97   15.90
   0  -4   3  264.17   13.10
   0  -4  -3  260.17   14.10
   0  -4   3  275.67   15.30
   0  -4  -3  255.47   12.80
   0  -4   3  282.87   13.10
   0  -4   3  262.67   13.80
   0   4   3  260.47   13.40
   0   4  -3  272.77   13.80
   0   4  -3  246.38   12.40
   0   4  -3  252.87   12.20
   0   4  -3  273.07   14.40
   0   4   3  252.67   14.80
   0   4   3  240.18   12.60
  -2  -4  -3  359.36   17.90
  -2  -4  -3  374.96   16.80
  -2  -4  -3  364.76   18.60
   2  -4   3  408.56   19.80
  -2  -4  -3  412.36   15.20
   2  -4   3  390.06   17.60
   2  -4   3  404.46   19.60
   2  -4   3  376.06   18.30
  -2   4  -3  390.86   15.40
   2   4   3  418.86   19.50
   2   4   3  409.56   17.20
  -2   4  -3  402.36   19.50
   2   4   3  369.16   17.20
  -2   4  -3  385.66   18.40
  -2   4  -3  398.36   20.00
   4  -4   3   55.19    8.10
   4  -4   3   61.29    8.40
  -4  -4  -3   58.09    7.00
  -4  -4  -3   66.29    7.20
  -4  -4  -3   67.49    9.50
  -4  -4  -3   67.69    9.20
   4  -4   3   44.90    7.40
   4  -4   3   66.69   10.30
  -4   4  -3   71.69   10.60
  -4   4  -3   54.19    8.80
   4   4   3   42.90    6.50
  -4   4  -3   48.40    8.30
   4   4   3   67.39    7.50
   4   4   3   65.79    8.30
  -6  -4  -3   25.10    5.80
   6  -4   3   18.20    5.50
   6  -4   3   13.30    2.80
   6  -4   3   22.10    7.70
  -6  -4  -3   11.60    4.20
  -6  -4  -3   10.00    5.30
   6  -4   3   16.90    2.70
   6  -4   3   15.80    5.00
  -6   4  -3    9.00    5.50
   6   4   3   11.50    4.10
   6   4   3    9.50    4.10
   6   4   3    8.50    4.30
   6   4   3   15.80    1.80
  -6   4  -3   13.10    6.10
  -6   4  -3   16.80    3.10
  -8  -4  -3  162.68   12.10
  -8  -4  -3  164.98   13.10
  -8  -4  -3  145.99   16.40
   8  -4   3  150.68    9.30
   8  -4   3  182.48   21.10
   8  -4   3  154.78   15.00
  -8   4  -3  164.48   15.00
   8   4   3  138.39   10.60
  -8   4  -3  129.19   17.80
  -8   4  -3  152.98    8.40
   8   4   3  210.38   14.40
  10  -4   3   90.19    9.50
  10  -4   3   61.09   13.80
 -10  -4  -3   90.99   13.20
  10  -4   3   66.29   10.40
  10   4   3   59.49   10.50
 -10   4  -3   67.99   14.10
  11  -5  -3    1.80    6.00
  11  -5  -3    3.20    3.90
 -11  -5   3   -3.50    5.20
  11  -5  -3    6.50    7.30
  11  -5  -3    2.30    4.70
 -11   5   3   -0.60    5.60
 -11   5   3    2.60    4.30
  11   5  -3   -3.50    4.50
 -11   5   3    2.10    5.30
  -9  -5   3  231.08   15.20
   9  -5  -3  238.58   14.10
   9  -5  -3  201.18   12.90
   9  -5  -3  231.08   16.80
   9  -5  -3  203.48   19.10
  -9  -5   3  228.48   16.50
  -9  -5   3  216.18   17.20
  -9   5   3  233.68   20.10
  -9   5   3  241.18   17.90
  -9   5   3  225.88   17.00
   9   5  -3  239.08   17.10
  -9   5   3  226.88   14.10
   7  -5  -3   13.70    5.90
  -7  -5   3   15.80    5.50
   7  -5  -3   30.90    5.50
   7  -5  -3   19.90    5.20
   7  -5  -3   39.50    9.60
  -7   5   3   23.50    7.70
  -7   5   3   28.40    7.10
  -7   5   3   28.70    5.10
   7   5  -3   16.20    6.10
   7   5  -3   23.70    5.90
   7   5  -3   22.40    4.80
   7   5  -3   23.90    4.80
  -7   5   3   27.50    7.50
   5  -5  -3  102.99    7.70
  -5  -5   3   89.89   10.20
   5  -5  -3  130.19   11.80
  -5  -5   3  101.79   12.10
   5  -5  -3  103.59   13.10
  -5  -5   3  117.99   11.20
   5  -5  -3  108.39   12.00
  -5  -5   3  127.69   10.20
  -5   5   3  106.79    8.30
  -5   5   3  115.99   13.60
   5   5  -3  111.99    9.30
  -5   5   3  108.99   13.40
   5   5  -3  102.19   10.80
   5   5  -3  101.69    8.70
  -5   5   3  112.89    9.80
   3  -5  -3    0.80    2.80
   3  -5  -3   -0.30    3.10
   3  -5  -3    3.10    1.90
  -3  -5   3   -3.30    2.20
   3  -5  -3   -1.90    2.00
   3  -5  -3   -4.80    2.00
  -3  -5   3   -0.80    3.10
  -3  -5   3    0.10    3.30
  -3   5   3    0.30    3.70
  -3   5   3   -0.10    3.30
  -3   5   3    3.40    2.70
   3   5  -3   -0.40    2.80
  -3   5   3   -0.20    1.10
   3   5  -3   -0.20    1.90
  -3   5   3    4.90    3.80
  -3   5   3    0.10    2.30
   1  -5  -3  923.61   35.30
  -1  -5   3  834.82   29.80
  -1  -5   3  879.31   36.50
   1  -5  -3  901.51   31.70
   1  -5  -3  864.71   28.80
  -1  -5   3  885.41   33.10
  -1  -5   3  942.51   34.90
   1  -5  -3  900.21   34.50
   1  -5  -3  895.51   34.00
   1   5  -3  892.31   34.60
   1   5  -3  921.31   31.70
  -1   5   3  860.21   27.40
  -1   5   3  869.11   34.70
  -1   5   3  966.30   37.60
   1   5  -3  878.91   30.30
  -1   5   3  903.91   29.50
   1   5  -3  847.52   32.20
  -1   5   3  945.41   34.20
  -1  -5  -3   33.10    6.40
   1  -5   3   46.90    7.10
   1  -5   3   45.90    7.40
  -1  -5  -3   34.60    5.50
   1  -5   3   33.80    7.30
  -1  -5  -3   28.80    6.70
   1   5   3   40.90    6.60
   1   5   3   42.90    6.40
   1   5   3   45.90    8.00
  -1   5  -3   38.50    7.30
  -1   5  -3   40.80    7.10
  -1   5  -3   40.50    5.40
  -3  -5  -3   27.70    6.50
   3  -5   3   27.50    6.90
  -3  -5  -3   26.70    4.60
  -3  -5  -3   21.70    4.00
   3  -5   3   23.30    6.10
   3  -5   3   38.70    7.30
  -3  -5  -3   28.70    6.90
   3  -5   3   27.20    6.80
  -3   5  -3   21.70    6.60
   3   5   3   30.50    5.10
  -3   5  -3   22.60    6.30
   3   5   3   19.80    4.60
  -3   5  -3   25.00    3.40
   3   5   3   23.80    5.90
  -3   5  -3   32.30    6.80
  -5  -5  -3    7.20    3.60
   5  -5   3   12.80    5.10
   5  -5   3    6.30    5.50
   5  -5   3   10.90    5.10
  -5  -5  -3   15.80    4.00
   5  -5   3   10.50    5.10
  -5  -5  -3   18.30    6.10
  -5   5  -3   25.70    7.60
   5   5   3   15.50    4.30
   5   5   3    9.50    4.40
   5   5   3   12.70    3.90
  -5   5  -3   18.00    7.30
   7  -5   3    2.40    5.90
  -7  -5  -3   11.60    4.90
   7  -5   3   18.00    6.90
   7  -5   3   12.50    5.30
  -7  -5  -3    0.00    4.50
  -7   5  -3    7.50    6.40
  -7   5  -3    5.40    6.10
   7   5   3   11.10    5.20
  -9  -5  -3   68.69   19.80
   9  -5   3   53.99    9.50
   9  -5   3   88.79   13.60
  -9  -5  -3   94.69   12.40
   9  -5   3   61.39   13.70
   9   5   3   85.49   10.40
  -9   5  -3   61.29   15.70
  -9   5  -3   81.89   14.00
  10  -6  -3   26.20    8.90
  10  -6  -3   37.00   11.60
  10  -6  -3   37.50    7.70
 -10  -6   3   13.30    6.80
 -10   6   3   33.10    7.40
 -10   6   3   16.20    6.70
  10   6  -3   32.60    8.00
  10   6  -3   26.60    8.90
 -10   6   3   20.30    9.80
 -10   6   3   33.60    9.20
   8  -6  -3   81.39    8.40
  -8  -6   3   82.29   11.60
  -8  -6   3  107.39   13.20
   8  -6  -3   93.39   14.90
   8  -6  -3   67.79   11.10
   8  -6  -3   89.39   10.80
   8   6  -3   92.79    8.10
  -8   6   3  118.59   15.90
  -8   6   3   93.09   15.50
  -8   6   3   93.29    9.40
  -8   6   3   96.69   13.30
   8   6  -3   87.29   12.50
   8   6  -3   80.69   10.90
  -6  -6   3   55.89   10.10
   6  -6  -3   48.40    9.30
   6  -6  -3   40.30    7.70
   6  -6  -3   67.19   11.70
   6  -6  -3   74.39    8.00
  -6   6   3   52.89   10.30
   6   6  -3   55.79    8.70
   6   6  -3   46.70    7.80
  -6   6   3   60.09    6.30
  -6   6   3   39.00    9.20
  -6   6   3   54.89    9.20
   6   6  -3   53.49    8.30
   4  -6  -3   53.99    9.70
   4  -6  -3   51.69    9.20
  -4  -6   3   50.49    8.20
  -4  -6   3   32.70    8.40
  -4  -6   3   34.00    7.20
  -4   6   3   36.30    3.70
   4   6  -3   38.50    7.10
   4   6  -3   29.80    7.20
  -4   6   3   57.89    8.10
   4   6  -3   47.40    6.40
  -4   6   3   20.10    7.60
  -4   6   3   27.90    7.60
  -4   6   3   48.20    8.80
   2  -6  -3   48.50    8.00
   2  -6  -3   42.70    5.10
   2  -6  -3   26.90    6.20
  -2  -6   3   57.09    8.80
  -2  -6   3   39.60   10.00
   2  -6  -3   42.30    8.30
  -2  -6   3   36.20    7.30
  -2   6   3   36.80    8.40
  -2   6   3   43.50    7.60
   2   6  -3   36.80    8.30
  -2   6   3   46.30    9.00
  -2   6   3   47.20    6.00
   2   6  -3   45.10    7.60
   0  -6   3   77.69   10.10
   0  -6  -3   51.99    7.00
   0  -6   3   57.29    8.50
   0  -6   3   66.39    7.00
   0  -6  -3   69.29   10.50
   0  -6   3   54.79   10.00
   0  -6  -3   63.29    7.90
   0   6   3   46.90   10.10
   0   6  -3   50.09    6.30
   0   6   3   79.99    9.00
   0   6   3   67.59    9.20
   0   6  -3   65.69    9.60
   0   6  -3   72.89    8.40
   0   6  -3   59.09    7.00
  -2  -6  -3  138.19    9.70
   2  -6   3  166.88   15.50
  -2  -6  -3  150.98   13.30
   2  -6   3  202.58   13.60
  -2  -6  -3  149.69   11.80
   2  -6   3  157.28   13.90
   2  -6   3  160.68   12.30
   2   6   3  141.59   10.20
   2   6   3  159.38   10.00
  -2   6  -3  165.58   12.30
  -2   6  -3  167.88   13.60
  -2   6  -3  142.39   12.50
  -2   6  -3  157.08    8.10
   2   6   3  171.28   13.90
   4  -6   3   14.20    6.40
   4  -6   3   18.20    5.80
   4  -6   3   13.30    5.80
  -4  -6  -3   16.60    6.90
  -4  -6  -3   23.20    7.00
  -4  -6  -3   10.50    3.80
   4   6   3   14.10    3.70
  -4   6  -3   11.10    6.30
   4   6   3    9.80    4.90
  -4   6  -3   21.50    7.40
   6  -6   3   -4.10    4.90
  -6  -6  -3   -0.30    4.10
   6  -6   3    9.30    6.40
   6  -6   3   -2.00    4.10
  -6  -6  -3    5.40    4.30
  -6   6  -3    2.70    5.70
  -6   6  -3   -5.90    4.30
   6   6   3   -2.40    3.80
   8  -6   3   51.79   10.20
  -8  -6  -3   58.89    9.80
   8  -6   3   68.59   13.40
   8  -6   3   67.29   13.90
  -8  -6  -3   77.09   13.50
   8   6   3   54.79    9.50
  -8   6  -3   62.59   14.00
  -8   6  -3   32.30   10.30
   7  -7  -3    6.60    5.40
   7  -7  -3   10.90    6.40
   7  -7  -3   21.60    8.90
   7   7  -3   11.60    5.40
  -7   7   3    6.50    6.40
  -7   7   3   15.10    7.30
   7   7  -3   13.50    5.40
   5  -7  -3   20.30    7.80
   5  -7  -3   13.40    5.90
  -5  -7   3   37.60    8.10
  -5  -7   3   17.40    6.80
  -5  -7   3   32.50    8.70
  -5   7   3   26.50    8.50
  -5   7   3   25.60    7.80
   5   7  -3   25.30    5.60
   5   7  -3   26.10    7.10
   5   7  -3   40.40    8.40
  -5   7   3   30.90    7.50
   3  -7  -3   -2.20    4.20
   3  -7  -3    1.70    4.80
  -3  -7   3   -2.30    3.70
  -3  -7   3    2.00    4.70
  -3  -7   3    4.60    4.60
   3  -7  -3    3.50    4.70
   3   7  -3   -0.90    4.30
  -3   7   3    1.70    3.40
   3   7  -3    1.00    4.20
  -3   7   3    6.70    5.80
  -3   7   3    1.50    4.20
  -1  -7   3  301.07   20.90
  -1  -7   3  317.17   19.50
   1  -7  -3  316.57   20.20
  -1  -7   3  313.87   18.60
  -1   7   3  345.67   17.70
  -1   7   3  335.57   22.10
  -1   7   3  303.17   12.90
   1   7  -3  282.67   12.00
   1   7  -3  313.67   12.70
   1   7  -3  281.97   19.10
   1   7  -3  275.27   20.40
   1  -7   3    8.40    5.30
   1  -7   3   17.40    6.10
  -1  -7  -3   15.80    6.80
  -1  -7  -3   14.30    5.50
   1  -7   3    8.50    5.90
   1   7   3   11.30    4.20
  -1   7  -3   14.10    6.70
  -1   7  -3    6.00    4.80
  -1   7  -3   20.90    5.70
   1   7   3   10.60    6.00
  -3  -7  -3    7.40    5.60
   3  -7   3   14.20    6.00
  -3  -7  -3   13.50    6.60
   3  -7   3   14.80    6.90
   3   7   3    0.10    4.30
   3   7   3    6.10    2.70
  -3   7  -3   12.20    6.40
  -3   7  -3   10.90    6.30
  -3   7  -3    8.90    6.00
  -5  -7  -3    5.80    5.70
   5  -7   3   -1.90    4.60
   5  -7   3   -0.60    5.20
  -5   7  -3    0.50    4.60
   5   7   3   -4.40    4.50
  -5   7  -3    1.30    5.70
  -2  -8   3   22.50    7.40
   2  -8  -3   13.80    7.10
  -2  -8   3   15.60    6.60
  -2   8   3    6.50    4.90
   2   8  -3    5.90    6.00
  -2   8   3   20.40    8.70
   2   8  -3   14.00    5.90
   0  -8   3   20.00    8.10
   0  -8   3   12.20    6.10
   0  -8  -3    7.10    6.50
   0   8  -3   27.20   10.00
   0   8   3   14.80    5.00
   0   8   3    9.30    7.10
   0   8  -3   15.20    6.40
 -14   0   4  507.65   30.00
 -14   0   4  489.35   30.20
  14   0  -4  400.06   31.50
  12   0  -4   69.29   11.30
 -12   0   4   62.59   11.40
 -12   0   4   63.39   10.10
  12   0  -4   65.79   12.20
 -12   0   4   62.49    5.50
 -10   0   4  378.16   23.80
  10   0  -4  352.56   20.00
 -10   0   4  342.57   15.50
 -10   0   4  349.07   19.00
  10   0  -4  317.77   20.60
  -8   0   4   77.89    8.90
   8   0  -4   79.09   10.70
  -8   0   4   76.39   10.20
   8   0  -4   87.19   10.30
  -8   0   4   69.39    4.60
   8   0  -4   77.89   11.40
   6   0  -4   13.50    4.40
   6   0  -4   20.70    5.30
   6   0  -4    9.30    3.30
   6   0  -4   11.70    2.50
  -6   0   4   11.60    2.60
   6   0  -4    9.10    3.20
  -6   0   4   13.70    3.60
  -6   0   4   18.10    4.90
   4   0  -4    0.10    1.50
   4   0  -4   -0.40    1.50
  -4   0   4   -1.80    1.70
   4   0  -4    3.90    2.80
  -4   0   4   -0.80    2.00
  -4   0   4    1.10    2.10
  -4   0   4   -0.10    2.00
   4   0  -4    3.90    2.40
  -4   0   4    0.40    1.50
   4   0  -4    2.40    2.60
  -2   0   4 3983.40  119.69
  -2   0   4 4096.89  120.29
   2   0  -4 3973.70  121.19
   2   0  -4 3987.20  119.89
   0   0  -4 1471.75   47.80
   0   0   4 1572.74   49.99
   0   0  -4 1544.65   47.70
   0   0   4 1485.05   46.40
   0   0   4 1499.25   50.29
   0   0   4 1514.35   49.30
   0   0  -4 1542.25   50.69
   0   0   4 1565.54   48.00
   0   0  -4 1455.95   49.40
   0   0  -4 1532.55   49.20
   2   0   4  671.03   25.30
   2   0   4  662.43   23.40
  -2   0  -4  655.43   26.40
  -2   0  -4  728.13   27.70
   2   0   4  621.24   23.60
   2   0   4  681.23   26.30
   2   0   4  627.04   26.20
  -2   0  -4  661.63   23.70
   4   0   4  251.67   13.10
  -4   0  -4  286.57   15.40
   4   0   4  258.17   12.70
   4   0   4  295.57   16.20
   4   0   4  283.37   12.00
  -4   0  -4  307.87   14.10
  -4   0  -4  254.77   13.70
   4   0   4  254.07   15.30
   4   0   4  273.17   14.20
  -4   0  -4  293.57   16.60
  -6   0  -4  202.08   15.70
  -6   0  -4  221.18   13.50
   6   0   4  243.38   16.00
   6   0   4  205.98    9.20
  -6   0  -4  220.18   13.20
  -8   0  -4  238.58   18.30
  -8   0  -4  224.68   15.00
  -8   0  -4  184.18   13.80
 -10   0  -4   26.20    8.90
 -10   0  -4   44.30    9.20
 -10   0  -4   28.50    7.80
  10   0   4   52.89   10.30
  10   0   4   42.90   10.60
 -10   0  -4   39.30    9.40
  13  -1  -4   30.00    9.90
 -13  -1   4    8.70    6.20
 -13  -1   4   29.80    8.80
  13  -1  -4   36.60    9.00
  13   1  -4   28.30    8.90
 -13   1   4   20.90    3.90
  13   1  -4   31.80    9.00
 -13   1   4   22.30    7.30
 -13   1   4   30.20    9.80
 -11  -1   4   20.80    6.40
 -11  -1   4   19.80    6.50
  11  -1  -4   19.20    7.50
 -11  -1   4   17.80    3.80
 -11   1   4   24.30    3.50
 -11   1   4   26.10    7.90
 -11   1   4   12.30    5.70
  11   1  -4   19.40    6.90
  11   1  -4    9.40    5.60
  11   1  -4   21.30    6.90
  -9  -1   4   34.60    6.80
   9  -1  -4   34.40    8.00
  -9  -1   4   26.10    6.00
  -9  -1   4   33.20    5.30
   9  -1  -4   45.40    7.70
   9   1  -4   29.20    6.60
   9   1  -4   27.70    7.10
  -9   1   4   26.80    4.20
   9   1  -4   29.30    6.80
  -9   1   4   22.80    5.70
  -9   1   4   30.30    7.80
  -7  -1   4  578.64   22.70
   7  -1  -4  621.44   27.40
   7  -1  -4  566.54   22.80
  -7  -1   4  608.84   24.30
   7  -1  -4  562.14   26.40
   7  -1  -4  590.34   24.40
  -7  -1   4  537.15   23.60
  -7   1   4  565.64   21.60
   7   1  -4  594.94   25.00
   7   1  -4  603.64   25.10
   7   1  -4  572.64   18.90
  -7   1   4  583.24   26.40
  -7   1   4  576.94   22.90
   7   1  -4  559.24   24.40
  -5  -1   4   67.09    6.90
   5  -1  -4   59.49    6.30
  -5  -1   4   59.79    7.00
  -5  -1   4   55.19    4.30
  -5  -1   4   56.79    6.40
   5  -1  -4   47.90    7.40
   5  -1  -4   66.89    7.30
   5  -1  -4   56.59    8.00
   5  -1  -4   65.19    7.20
  -5  -1   4   55.29    2.90
  -5  -1   4   59.99    6.70
  -5  -1   4   58.89    6.90
   5  -1  -4   49.40    5.30
   5   1  -4   50.99    6.30
   5   1  -4   69.69    7.60
  -5   1   4   51.89    5.30
   5   1  -4   64.69    7.50
  -5   1   4   49.80    3.00
  -5   1   4   44.30    7.20
   5   1  -4   59.39    4.30
  -5   1   4   53.89    7.70
  -5   1   4   54.59    5.90
  -5   1   4   65.59    7.30
   5   1  -4   72.49    7.70
   5   1  -4   64.39    7.40
  -3  -1   4   21.20    4.00
  -3  -1   4   18.30    3.50
  -3  -1   4   20.40    4.10
   3  -1  -4   22.90    3.10
   3  -1  -4   15.60    3.40
  -3  -1   4   18.00    3.50
  -3  -1   4   20.20    3.80
   3  -1  -4   18.20    2.60
  -3  -1   4   20.20    2.70
   3  -1  -4   19.90    3.70
  -3  -1   4   22.90    4.10
   3  -1  -4   21.80    4.80
   3  -1  -4   18.70    4.40
   3   1  -4   28.00    4.80
   3   1  -4   22.00    3.70
  -3   1   4   20.00    3.80
  -3   1   4   21.40    2.60
  -3   1   4   14.40    4.00
   3   1  -4   15.80    3.60
  -3   1   4   18.10    4.40
   3   1  -4   14.60    3.00
  -3   1   4   17.10    2.50
   3   1  -4   17.00    1.30
  -3   1   4   13.40    3.30
   3   1  -4   24.30    4.10
   1  -1  -4  190.28    9.20
  -1  -1   4  153.58    9.10
   1  -1  -4  168.38    7.50
  -1  -1   4  151.78    9.30
   1  -1  -4  153.48    9.00
   1  -1  -4  165.48    9.70
  -1  -1   4  162.38    5.40
   1  -1  -4  166.68   10.20
  -1  -1   4  159.68    9.20
  -1  -1   4  175.78    9.50
  -1  -1   4  152.88    7.90
  -1   1   4  158.18    9.20
  -1   1   4  178.78   10.00
   1   1  -4  173.28    8.60
   1   1  -4  148.39    9.50
  -1   1   4  176.68   10.30
   1   1  -4  155.68    9.10
   1   1  -4  170.68    9.00
  -1   1   4  168.78    8.80
  -1   1   4  156.28    7.20
   1   1  -4  153.08    8.90
   1   1  -4  172.18    8.10
   1  -1   4  389.66   16.20
   1  -1   4  393.46   14.60
   1  -1   4  365.86   15.50
  -1  -1  -4  394.06   13.80
   1  -1   4  369.16   17.20
   1  -1   4  386.26   16.80
  -1  -1  -4  368.36   16.50
  -1  -1  -4  383.46   17.60
  -1  -1  -4  360.36   16.10
   1  -1   4  399.46   17.20
  -1   1  -4  373.46   17.50
  -1   1  -4  348.37   16.10
   1   1   4  351.26   15.30
   1   1   4  360.46   16.30
  -1   1  -4  363.86   16.50
  -1   1  -4  383.76   15.90
   1   1   4  356.16   17.00
   1   1   4  383.86   14.70
   1   1   4  396.76   17.10
   3  -1   4  523.05   19.40
  -3  -1  -4  516.45   22.70
  -3  -1  -4  520.85   19.00
   3  -1   4  501.05   22.90
   3  -1   4  536.95   20.70
  -3  -1  -4  500.55   20.80
   3  -1   4  533.25   20.00
   3  -1   4  526.85   23.10
  -3   1  -4  500.65   21.00
   3   1   4  530.25   21.20
  -3   1  -4  495.95   21.20
   3   1   4  480.25   22.30
  -3   1  -4  525.15   23.60
  -3   1  -4  548.15   22.90
   3   1   4  505.15   18.40
   3   1   4  468.25   20.20
   3   1   4  487.75   20.10
  -5  -1  -4    2.80    3.80
   5  -1   4    0.40    1.90
  -5  -1  -4    0.40    2.90
   5  -1   4    6.60    4.60
  -5  -1  -4    0.10    2.80
  -5  -1  -4    4.20    2.70
  -5   1  -4    3.50    3.80
  -5   1  -4    0.50    2.30
   5   1   4    0.40    2.50
   5   1   4    4.20    2.50
   5   1   4    0.60    3.50
   5   1   4    3.80    3.60
  -5   1  -4    2.60    3.10
  -7  -1  -4  210.08   12.90
  -7  -1  -4  190.88   14.30
  -7  -1  -4  204.68   14.10
   7  -1   4  190.28    8.90
  -7  -1  -4  213.58   15.90
   7   1   4  184.18    6.80
  -7   1  -4  218.78   13.30
   7   1   4  183.08    6.90
  -7   1  -4  210.28   16.90
   7   1   4  185.88   14.50
  -7   1  -4  181.58   13.60
   7   1   4  192.68   12.20
   9  -1   4  285.57   18.20
  -9  -1  -4  270.87   18.70
  -9  -1  -4  258.57   20.10
   9  -1   4  298.57   22.50
  -9  -1  -4  281.27   17.00
  -9  -1  -4  271.47   18.50
  -9   1  -4  273.27   17.20
   9   1   4  265.37   20.90
  -9   1  -4  269.57   18.60
  -9   1  -4  288.57   21.90
  11  -1   4    2.40    6.80
 -11  -1  -4    6.60    5.50
 -11  -1  -4    9.40    6.30
 -11  -1  -4    7.90    7.20
 -11  -1  -4   -6.50    3.70
  11  -1   4   10.20    6.00
 -11   1  -4    3.90    5.00
 -11   1  -4    7.70    7.40
  11   1   4    0.60    5.70
 -11   1  -4    2.70    5.90
  14  -2  -4  384.06   29.20
 -14  -2   4  431.26   26.20
  14   2  -4  464.45   28.30
 -14   2   4  389.96   24.50
 -12  -2   4   49.60    8.80
 -12  -2   4   46.10    9.50
  12  -2  -4   70.39   11.10
  12  -2  -4   35.70   10.80
 -12  -2   4   47.60    5.50
 -12   2   4   44.40    6.60
  12   2  -4   61.19   11.60
  12   2  -4   49.80    9.50
 -12   2   4   49.90   13.50
 -12   2   4   48.80    8.80
 -10  -2   4  283.17   16.00
 -10  -2   4  303.77   14.40
 -10  -2   4  269.27   17.50
  10  -2  -4  307.87   21.40
  10  -2  -4  298.87   17.40
  10   2  -4  275.87   17.10
  10   2  -4  288.17   18.50
 -10   2   4  287.57   16.40
  10   2  -4  274.17   17.10
 -10   2   4  267.77   20.00
 -10   2   4  316.57   16.70
  -8  -2   4   45.90    7.60
   8  -2  -4   56.49    8.10
  -8  -2   4   76.49    8.10
   8  -2  -4   56.39   10.20
  -8   2   4   42.10    8.80
   8   2  -4   48.40    7.30
  -8   2   4   52.69    6.90
   8   2  -4   72.69    9.70
  -8   2   4   56.69    7.90
  -6  -2   4   14.90    3.60
   6  -2  -4   11.60    3.50
  -6  -2   4   14.80    3.40
  -6  -2   4   11.70    3.70
  -6  -2   4   12.80    3.90
  -6  -2   4   16.80    2.50
   6  -2  -4   19.50    3.80
   6  -2  -4    4.20    2.90
   6  -2  -4   10.30    4.70
  -6   2   4   14.20    3.20
   6   2  -4   12.60    3.90
   6   2  -4   26.00    5.40
   6   2  -4   14.10    2.60
  -6   2   4   16.10    4.00
  -6   2   4   16.50    5.40
   6   2  -4   19.60    3.50
   6   2  -4   13.50    3.60
  -6   2   4   14.20    2.50
   4  -2  -4    0.20    2.00
  -4  -2   4    0.20    1.60
   4  -2  -4    3.00    2.50
   4  -2  -4    0.90    2.50
  -4  -2   4    0.20    2.20
  -4  -2   4   -0.30    1.70
  -4  -2   4   -1.40    1.20
   4  -2  -4   -0.30    2.90
  -4  -2   4    1.10    1.80
  -4  -2   4    2.60    2.20
   4  -2  -4    0.80    1.90
   4  -2  -4    1.50    1.80
   4   2  -4    2.90    2.30
   4   2  -4    2.40    1.90
  -4   2   4    5.50    2.60
   4   2  -4    0.70    1.60
  -4   2   4    1.70    2.70
  -4   2   4   -0.90    1.20
   4   2  -4    1.30    1.80
   4   2  -4   -4.80    1.40
   4   2  -4    1.80    2.10
  -4   2   4   -0.90    1.80
   4   2  -4    1.40    1.40
  -4   2   4    1.80    1.30
  -2  -2   4 2528.15   77.39
   2  -2  -4 2500.85   77.29
  -2  -2   4 2472.75   76.69
  -2  -2   4 2447.85   76.19
  -2  -2   4 2538.55   78.99
   2  -2  -4 2463.55   78.69
   2  -2  -4 2463.95   75.59
   2  -2  -4 2519.75   76.29
  -2  -2   4 2464.65   75.99
   2  -2  -4 2421.16   79.39
   2  -2  -4 2603.74   80.19
   2   2  -4 2455.45   77.49
  -2   2   4 2534.45   76.29
   2   2  -4 2519.45   76.99
   2   2  -4 2427.86   77.39
   2   2  -4 2482.65   78.69
   2   2  -4 2547.15   75.89
  -2   2   4 2437.56   79.69
   2   2  -4 2561.84   77.79
  -2   2   4 2455.95   76.19
  -2   2   4 2503.65   78.79
  -2   2   4 2571.44   79.59
  -2   2   4 2466.55   78.69
   2   2  -4 2578.94   78.39
   0  -2   4  910.31   32.50
   0  -2   4  930.31   33.20
   0  -2  -4  916.21   32.30
   0  -2   4  956.90   29.40
   0  -2  -4  927.01   33.20
   0  -2   4  966.30   33.40
   0  -2  -4  926.61   31.40
   0  -2   4  922.61   31.80
   0  -2  -4  902.71   33.00
   0  -2   4  940.81   32.80
   0  -2   4  891.51   29.60
   0  -2  -4  899.01   33.50
   0  -2  -4  925.81   28.00
   0   2   4  939.61   33.30
   0   2  -4  922.71   33.10
   0   2  -4  893.71   32.30
   0   2   4  943.91   34.00
   0   2   4  874.11   32.00
   0   2  -4  913.11   33.00
   0   2  -4  941.51   32.80
   0   2   4  907.91   31.20
   0   2  -4  930.01   29.50
   0   2  -4  935.51   33.50
   0   2   4  887.31   33.00
  -2  -2  -4  447.46   19.90
   2  -2   4  445.56   20.00
  -2  -2  -4  422.86   19.90
  -2  -2  -4  466.15   20.70
   2  -2   4  444.56   18.70
   2  -2   4  428.06   19.00
   2  -2   4  437.26   15.80
  -2  -2  -4  437.46   18.90
  -2  -2  -4  430.06   14.20
   2   2   4  402.96   17.70
  -2   2  -4  449.46   22.10
  -2   2  -4  421.36   19.40
  -2   2  -4  407.86   18.20
   2   2   4  416.56   19.40
   2   2   4  456.85   19.20
  -4  -2  -4  171.18   10.60
  -4  -2  -4  172.78    8.30
  -4  -2  -4  181.58   12.40
   4  -2   4  179.78    9.10
   4  -2   4  173.98   10.10
  -4  -2  -4  176.58   11.70
  -4  -2  -4  170.78   10.70
   4   2   4  180.78   12.30
   4   2   4  171.68   11.70
  -4   2  -4  184.98   13.70
   4   2   4  161.28    7.70
   4   2   4  158.38   11.50
  -4   2  -4  163.38   11.60
   6  -2   4  195.68   10.70
  -6  -2  -4  187.28   12.70
  -6  -2  -4  198.98   13.80
  -6  -2  -4  190.88   13.90
  -6  -2  -4  192.98   10.50
   6   2   4  168.88    9.00
  -6   2  -4  188.98   11.40
  -6   2  -4  187.68   13.90
   6   2   4  178.28   13.50
   6   2   4  177.28   14.80
  -6   2  -4  170.78   15.30
   6   2   4  181.98    9.60
   6   2   4  196.58   12.20
  -8  -2  -4  176.18   14.50
  -8  -2  -4  174.08   11.50
  -8  -2  -4  190.78   15.70
  -8  -2  -4  166.98   13.90
   8  -2   4  189.88   13.10
  -8   2  -4  157.88   14.60
  -8   2  -4  185.68   12.50
   8   2   4  186.58   15.10
   8   2   4  163.38   11.60
  -8   2  -4  194.38   17.70
 -10  -2  -4   39.90    9.30
 -10  -2  -4   32.20    8.20
  10  -2   4   33.10    7.70
  10  -2   4   49.00   11.90
 -10  -2  -4   29.30    8.40
  10  -2   4   23.60    7.40
 -10   2  -4   35.10   11.00
  10   2   4   36.30    9.60
 -10   2  -4   42.70   10.10
 -10   2  -4   48.20    8.70
 -13  -3   4   27.10    8.20
  13  -3  -4   16.20    7.20
 -13   3   4   19.60    5.80
 -13   3   4   15.90    6.50
  13   3  -4   28.30    7.40
  13   3  -4    6.30    7.00
 -13   3   4   14.70    8.50
  11  -3  -4    4.10    8.10
  11  -3  -4    8.40    7.00
  11  -3  -4    7.30    2.50
 -11  -3   4    6.50    3.70
 -11  -3   4    1.90    3.90
 -11   3   4   15.30    8.00
 -11   3   4    1.10    3.50
  11   3  -4   12.10    6.30
 -11   3   4    5.40    4.10
   9  -3  -4   27.30    8.60
   9  -3  -4   49.20    7.80
  -9  -3   4   44.40    6.90
   9  -3  -4   34.80    4.80
  -9  -3   4   34.60    5.50
   9  -3  -4   38.30    4.70
  -9  -3   4   28.90    6.80
   9   3  -4   36.00    8.10
   9   3  -4   32.40    5.70
  -9   3   4   43.90    6.70
  -9   3   4   37.30    7.10
   9   3  -4   38.70    4.40
   9   3  -4   31.90    5.90
  -9   3   4   14.90    6.80
   7  -3  -4  304.07   19.50
   7  -3  -4  306.47   12.80
   7  -3  -4  309.37   13.30
  -7  -3   4  289.47   12.40
   7  -3  -4  339.27   16.10
   7  -3  -4  301.27   16.20
  -7  -3   4  328.67   16.20
  -7  -3   4  301.57   16.70
   7   3  -4  284.77   11.90
  -7   3   4  291.57   16.40
   7   3  -4  301.87   12.80
   7   3  -4  310.17   14.10
  -7   3   4  293.57   13.00
  -7   3   4  315.27   19.60
   7   3  -4  331.57   17.30
   7   3  -4  317.57   14.70
  -7   3   4  277.47   13.40
   7   3  -4  293.67   14.00
  -7   3   4  304.27   17.20
  -5  -3   4   12.30    4.20
  -5  -3   4   15.80    4.30
   5  -3  -4   16.90    4.50
   5  -3  -4   11.80    3.40
  -5  -3   4    8.20    3.80
  -5  -3   4   13.90    3.20
   5  -3  -4   15.90    3.50
  -5  -3   4   21.60    3.10
   5  -3  -4   13.00    5.10
   5   3  -4   20.70    3.80
  -5   3   4   18.70    5.90
   5   3  -4   23.20    4.70
  -5   3   4   14.90    4.50
  -5   3   4   17.40    3.90
   5   3  -4   23.60    3.90
  -5   3   4   17.80    5.70
   5   3  -4   19.90    3.60
   5   3  -4   17.80    3.50
  -5   3   4   23.60    2.90
   5   3  -4   14.60    3.30
  -3  -3   4   14.90    3.50
  -3  -3   4    9.20    3.90
  -3  -3   4   11.70    2.80
   3  -3  -4    2.60    2.60
   3  -3  -4   10.20    4.20
   3  -3  -4    6.20    2.90
  -3  -3   4    5.50    2.60
   3  -3  -4    3.30    2.00
   3   3  -4    7.40    3.00
   3   3  -4    8.80    3.50
  -3   3   4    6.80    2.70
   3   3  -4    5.00    2.10
  -3   3   4   11.90    4.00
  -3   3   4    7.00    3.60
  -3   3   4    4.20    2.20
   3   3  -4    8.90    2.80
   3   3  -4    5.70    2.20
   3   3  -4    4.50    3.00
  -3   3   4    3.50    3.00
   3   3  -4    3.20    2.50
   1  -3  -4   81.69    7.00
   1  -3  -4   85.59    4.20
   1  -3  -4   84.29    7.80
  -1  -3   4   95.49    9.70
  -1  -3   4   80.69    5.00
  -1  -3   4   89.59    6.70
  -1  -3   4   88.69    6.90
  -1  -3   4   75.69    6.50
  -1  -3   4   88.19    5.60
   1  -3  -4   86.49    6.90
   1   3  -4   84.19    6.60
   1   3  -4   90.89    7.20
  -1   3   4   99.29   10.20
  -1   3   4   86.69    6.70
  -1   3   4   98.39    8.30
  -1   3   4   83.79    7.50
  -1   3   4   68.69    6.20
   1   3  -4   79.79    8.60
  -1   3   4   90.79    6.90
   1   3  -4   86.29    7.40
   1   3  -4   91.89    4.90
   1   3  -4   92.09    7.60
   1  -3   4  200.18   11.80
  -1  -3  -4  191.28   12.40
   1  -3   4  192.58    7.70
  -1  -3  -4  187.78   11.60
   1  -3   4  208.58   12.30
   1  -3   4  198.28   11.30
   1  -3   4  207.28   10.10
  -1  -3  -4  205.98   11.60
  -1  -3  -4  201.18    8.30
  -1   3  -4  183.38   11.30
  -1   3  -4  192.68   11.70
   1   3   4  196.18   12.20
  -1   3  -4  198.38   12.70
   1   3   4  195.78   11.50
   1   3   4  191.98   12.00
  -3  -3  -4  270.17   15.10
  -3  -3  -4  258.47   15.00
   3  -3   4  274.37   10.70
  -3  -3  -4  289.67   13.10
   3  -3   4  300.17   16.60
   3  -3   4  266.17   14.60
   3  -3   4  273.57   14.90
   3   3   4  292.87   15.80
   3   3   4  322.77   15.70
  -3   3  -4  293.37   16.10
  -3   3  -4  262.77   15.60
   3   3   4  289.77   15.20
  -3   3  -4  254.57   16.60
  -5  -3  -4   -0.20    3.50
   5  -3   4    0.40    2.20
   5  -3   4    2.60    3.20
   5  -3   4   -1.00    2.60
  -5  -3  -4    0.60    3.50
   5  -3   4    1.30    2.10
   5  -3   4    6.50    5.00
  -5  -3  -4    7.00    3.90
  -5   3  -4    1.30    2.20
   5   3   4    1.10    2.90
   5   3   4    1.60    3.40
  -5   3  -4    8.20    4.90
   5   3   4    1.00    2.40
   5   3   4   -1.00    3.30
  -5   3  -4    2.90    4.60
   7  -3   4  148.59   10.30
   7  -3   4  146.69   15.70
  -7  -3  -4  126.49   13.80
  -7  -3  -4  138.69   11.80
   7  -3   4  154.58   17.90
  -7  -3  -4  129.59   14.40
   7   3   4  133.09    7.90
   7   3   4  146.79    8.70
  -7   3  -4  123.89    9.40
  -7   3  -4  130.09   15.20
   7   3   4  162.68   11.30
   7   3   4  153.18   14.00
   7   3   4  147.39   12.80
  -7   3  -4  142.29   20.30
   9  -3   4  182.78   21.50
  -9  -3  -4  239.78   17.60
  -9  -3  -4  191.18   16.70
   9  -3   4  220.58   14.10
  -9  -3  -4  212.68   16.30
  -9   3  -4  191.88   17.30
  -9   3  -4  222.58   13.50
   9   3   4  209.08   13.20
  -9   3  -4  237.98   21.50
   9   3   4  214.98   17.70
  12  -4  -4   36.20    7.90
  12  -4  -4   31.70    8.80
 -12  -4   4   33.70    6.40
  12  -4  -4   12.70    8.30
 -12   4   4   30.50   10.90
 -12   4   4   43.40    8.90
  12   4  -4   27.90    9.10
 -12   4   4   40.70    7.80
  12   4  -4   40.60    6.40
  10  -4  -4  194.98   21.50
 -10  -4   4  193.38   12.90
  10  -4  -4  172.38   12.80
  10  -4  -4  167.28   14.00
 -10  -4   4  164.78   14.50
  10  -4  -4  163.48   10.20
 -10   4   4  187.38   21.40
  10   4  -4  167.98    9.80
 -10   4   4  181.58   15.60
  10   4  -4  175.98    9.80
  10   4  -4  192.68   15.50
 -10   4   4  151.58   11.70
  -8  -4   4   23.80    5.90
   8  -4  -4   25.50    4.80
   8  -4  -4   20.80    5.60
   8  -4  -4   28.00    3.20
   8  -4  -4   33.30    9.00
   8  -4  -4   21.70    6.00
   8   4  -4   21.20    6.10
   8   4  -4   26.80    3.40
   8   4  -4   25.00    3.50
   8   4  -4   20.10    3.20
  -8   4   4   16.30    6.00
  -8   4   4   22.60    6.40
   8   4  -4   23.60    3.50
  -8   4   4   26.80    5.20
  -8   4   4   34.80    9.90
   6  -4  -4   22.80    4.20
   6  -4  -4   19.00    4.20
  -6  -4   4   28.10    5.10
  -6  -4   4   31.30    6.40
  -6  -4   4   21.40    5.70
   6  -4  -4   33.30    7.90
   6  -4  -4   32.20    5.90
   6  -4  -4   26.70    6.10
  -6   4   4   18.30    3.20
   6   4  -4   25.40    2.70
   6   4  -4   26.90    5.90
  -6   4   4   27.90    6.00
   6   4  -4    9.80    4.30
  -6   4   4   26.60    7.20
  -6   4   4   26.50    6.60
   6   4  -4   22.60    2.50
  -4  -4   4   -0.30    2.00
   4  -4  -4   -0.60    3.20
   4  -4  -4    1.80    1.90
  -4  -4   4    0.60    0.90
  -4  -4   4   -0.30    3.10
   4  -4  -4   -0.50    1.90
  -4  -4   4   -2.00    2.60
   4  -4  -4   -1.50    2.10
   4  -4  -4    4.30    3.30
   4  -4  -4   -0.30    2.40
   4   4  -4    8.30    3.00
   4   4  -4    1.00    1.60
   4   4  -4    2.20    3.00
  -4   4   4   -0.80    3.40
  -4   4   4    4.70    3.80
   4   4  -4    0.90    3.10
  -4   4   4   -0.50    2.70
  -4   4   4   -3.70    1.40
   4   4  -4    2.10    2.60
   2  -4  -4 1052.39   35.90
  -2  -4   4  913.91   33.10
  -2  -4   4 1019.70   36.30
   2  -4  -4 1024.00   34.20
  -2  -4   4  997.40   38.60
   2  -4  -4 1020.90   38.30
  -2  -4   4  969.30   34.00
   2  -4  -4 1020.80   36.80
   2  -4  -4  964.80   32.10
   2   4  -4 1015.20   32.20
   2   4  -4 1075.59   37.70
   2   4  -4  971.50   33.50
  -2   4   4  981.70   38.50
  -2   4   4 1031.20   38.10
  -2   4   4  964.20   38.40
   0  -4   4  296.27   13.70
   0  -4  -4  303.07   15.70
   0  -4   4  319.87   17.30
   0  -4  -4  295.47   15.60
   0  -4   4  304.27   15.50
   0   4   4  305.27   15.50
   0   4  -4  270.57   15.70
   0   4   4  278.77   15.70
   0   4   4  306.47   16.90
   0   4  -4  296.67   16.10
   0   4  -4  291.07   14.00
   0   4  -4  276.27   15.30
   2  -4   4  140.39   10.00
   2  -4   4  152.98   12.10
  -2  -4  -4  192.48   12.60
  -2  -4  -4  163.38   11.10
  -2  -4  -4  173.88    8.40
   2  -4   4  172.18   11.70
  -2  -4  -4  156.08   11.30
   2  -4   4  162.38   12.20
  -2   4  -4  186.28   13.30
   2   4   4  179.08   12.40
   2   4   4  180.58   11.30
  -2   4  -4  184.48   12.20
   2   4   4  176.08   11.70
  -2   4  -4  173.08   12.50
  -4  -4  -4   68.89    7.30
   4  -4   4   62.09    8.40
   4  -4   4   45.40    8.00
   4  -4   4   63.69    9.10
  -4  -4  -4   48.50    7.30
  -4  -4  -4   62.09    9.40
  -4   4  -4   49.80    9.60
   4   4   4   56.49    8.30
  -4   4  -4   64.29    9.60
   4   4   4   51.99    7.70
   4   4   4   56.09    8.00
   6  -4   4  121.99   15.50
   6  -4   4  104.79   11.50
   6  -4   4  125.39    6.80
   6  -4   4  125.09   13.10
  -6  -4  -4  120.39   11.90
  -6  -4  -4  126.09   14.90
   6  -4   4  111.59    6.30
  -6  -4  -4  141.89   11.30
  -6   4  -4  131.99   15.80
   6   4   4  120.19   12.10
   6   4   4  100.99   11.40
  -6   4  -4  116.99   15.80
  -6   4  -4  112.99    7.80
   6   4   4  135.29   11.20
   8  -4   4   96.59   12.40
  -8  -4  -4   95.49   11.80
  -8  -4  -4   88.79   11.20
   8  -4   4   96.29   15.60
  -8  -4  -4  126.39   15.70
   8  -4   4  105.69    7.90
  -8   4  -4  112.59   15.30
   8   4   4   89.69   10.40
  -8   4  -4   56.89   12.10
  -8   4  -4   86.09    7.30
  10  -4   4   21.80    9.80
 -10  -4  -4   18.70    7.40
 -10  -4  -4   21.50    7.90
 -10   4  -4   35.30   10.40
  10   4   4   32.10   12.90
 -10   4  -4   30.10   10.80
 -11  -5   4    8.40    6.60
  11  -5  -4   -0.50    7.50
  11  -5  -4    3.90    3.70
  11  -5  -4    0.80    4.50
 -11  -5   4    8.20    5.00
 -11   5   4    6.60    6.50
 -11   5   4   -3.40    4.40
 -11   5   4    5.70    4.70
  11   5  -4   -0.10    5.20
  -9  -5   4   23.40    7.00
  -9  -5   4   31.80    7.30
   9  -5  -4   29.10    6.40
   9  -5  -4   26.90    5.70
   9  -5  -4   23.50    7.20
  -9   5   4   28.50    8.00
   9   5  -4   23.70    7.40
  -9   5   4   19.20    8.20
  -9   5   4   25.40    5.10
   9   5  -4   30.90    7.20
  -9   5   4   28.60    8.10
   7  -5  -4  138.59   11.90
  -7  -5   4  107.99   10.40
  -7  -5   4  120.99   13.30
  -7  -5   4   94.79   11.50
   7  -5  -4  109.39   10.50
   7  -5  -4  100.79   14.10
   7  -5  -4  108.19    8.80
   7   5  -4  103.89   11.70
  -7   5   4  107.99    7.10
  -7   5   4  106.59   14.70
   7   5  -4  110.79   12.10
  -7   5   4  113.39   15.40
  -7   5   4  144.39   11.90
   7   5  -4  103.39    9.20
   5  -5  -4   12.40    6.00
   5  -5  -4   -0.30    2.90
  -5  -5   4   -2.20    2.90
  -5  -5   4    0.80    4.00
   5  -5  -4    2.90    3.10
   5  -5  -4    0.50    3.40
  -5  -5   4    3.00    3.70
  -5   5   4   -1.90    2.80
   5   5  -4   -5.00    2.90
   5   5  -4   -1.60    2.50
  -5   5   4    0.70    3.20
  -5   5   4    1.80    4.10
  -3  -5   4    2.00    3.50
   3  -5  -4    1.00    3.20
   3  -5  -4    0.10    3.20
   3  -5  -4    1.30    2.10
  -3  -5   4    0.90    2.90
   3  -5  -4    0.30    2.10
  -3  -5   4    1.60    4.10
   3  -5  -4   -1.60    3.80
  -3   5   4   -1.90    3.30
  -3   5   4   -2.30    3.60
   3   5  -4   -0.50    1.40
   3   5  -4   -3.60    2.40
   3   5  -4   -0.40    1.90
  -3   5   4    4.00    4.00
   1  -5  -4   44.60    7.30
  -1  -5   4   44.00    6.60
   1  -5  -4   33.50    6.90
  -1  -5   4   44.60    8.20
  -1  -5   4   30.70    6.30
   1  -5  -4   31.70    6.30
  -1   5   4   44.30    7.50
   1   5  -4   55.69    7.20
  -1   5   4   36.60    7.20
  -1   5   4   34.60    7.30
   1   5  -4   46.60    7.70
   1   5  -4   34.00    5.40
  -1  -5  -4   98.39   10.50
   1  -5   4   95.39   10.90
   1  -5   4   87.09   11.40
   1  -5   4   98.09    8.30
   1  -5   4   94.59   10.70
  -1  -5  -4   91.39   10.90
   1   5   4   69.69    9.20
  -1   5  -4   91.69   10.90
  -1   5  -4   81.99    9.40
   1   5   4   99.59    8.70
  -1   5  -4   96.49    7.60
  -1   5  -4  112.39   12.10
   1   5   4  101.09   12.00
  -3  -5  -4  126.89   13.10
   3  -5   4  101.89   10.70
   3  -5   4  127.29   14.20
   3  -5   4  105.79   12.50
  -3  -5  -4  103.19    8.80
  -3  -5  -4  116.09    7.30
   3   5   4  100.99    9.20
  -3   5  -4  114.29   14.10
  -3   5  -4   97.29    7.10
  -3   5  -4   87.79   11.20
   3   5   4  119.89    9.40
  -3   5  -4  113.19   13.40
   3   5   4  117.89   12.70
  -5  -5  -4   -3.50    3.30
   5  -5   4   -1.20    3.60
   5  -5   4    1.00    4.20
   5  -5   4   -1.10    4.50
  -5  -5  -4   -3.00    2.60
   5  -5   4   -2.90    3.20
   5   5   4    0.90    3.50
  -5   5  -4   -3.40    3.70
  -5   5  -4   -1.90    4.30
  -5   5  -4    0.10    1.80
   5   5   4    2.60    4.20
   5   5   4    2.80    3.50
   7  -5   4  121.89   18.10
   7  -5   4   81.39   11.30
  -7  -5  -4   93.69   11.00
   7  -5   4   78.39   11.50
  -7  -5  -4   73.39   11.80
  -7   5  -4   67.39   13.80
  -7   5  -4   81.99   13.80
   7   5   4   73.89   10.20
   7   5   4   68.59    8.80
   8  -6  -4   11.10    4.70
   8  -6  -4    8.20    4.50
   8  -6  -4    9.70    6.00
   8  -6  -4   13.80    8.20
  -8  -6   4    5.60    5.40
  -8  -6   4   10.30    6.10
   8   6  -4    7.80    5.10
   8   6  -4    4.10    4.60
  -8   6   4    6.70    6.20
   8   6  -4    5.50    3.80
  -8   6   4   20.10    6.90
  -8   6   4    5.10    6.00
   6  -6  -4   11.50    6.20
   6  -6  -4   34.70    7.30
   6  -6  -4   17.60    4.80
   6  -6  -4   19.90    6.80
  -6  -6   4   27.70    7.70
  -6   6   4   22.10    6.50
   6   6  -4   13.30    5.00
  -6   6   4   36.00    9.30
   6   6  -4   29.90    7.50
  -6   6   4   22.40    7.40
   6   6  -4   24.60    5.90
   4  -6  -4    0.10    3.80
   4  -6  -4   -2.80    3.80
  -4  -6   4   -1.80    4.00
   4  -6  -4    3.60    4.70
  -4  -6   4    2.00    4.20
  -4   6   4    0.40    4.00
  -4   6   4   -0.20    5.90
  -4   6   4    0.20    3.00
   4   6  -4    0.90    2.50
  -4   6   4   -1.00    3.50
   4   6  -4   -3.20    3.60
   4   6  -4   -0.90    2.90
  -2  -6   4  379.66   20.70
   2  -6  -4  381.06   15.00
   2  -6  -4  408.56   17.40
   2  -6  -4  414.36   21.50
  -2  -6   4  411.46   20.00
   2  -6  -4  373.36   21.20
  -2  -6   4  383.56   23.10
   2   6  -4  413.96   16.00
  -2   6   4  365.46   21.80
   2   6  -4  394.16   15.10
   2   6  -4  434.66   21.90
  -2   6   4  404.56   23.60
   0  -6   4   82.29    9.80
   0  -6   4   82.99   12.20
   0  -6  -4  105.89   10.60
   0  -6   4   78.69   10.50
   0  -6  -4   91.49   11.60
   0   6  -4   88.19    9.90
   0   6  -4   89.49   11.90
   0   6   4   77.29   11.40
   0   6   4   86.09    9.80
   0   6  -4   71.49    8.00
   0   6   4   84.89   10.50
  -2  -6  -4   43.00    8.60
   2  -6   4   61.89    9.70
   2  -6   4   72.39    9.50
   2  -6   4   66.69   10.50
  -2  -6  -4   72.99   10.00
   2  -6   4   41.90    9.30
   2   6   4   48.30    7.10
   2   6   4   62.29    8.70
   2   6   4   45.50    9.10
  -2   6  -4   59.99   10.00
  -2   6  -4   63.79   10.80
   4  -6   4   15.60    6.20
   4  -6   4   14.70    6.40
  -4  -6  -4   14.10    4.10
  -4  -6  -4   15.10    6.80
   4  -6   4   13.70    5.90
  -4  -6  -4    6.10    5.60
   4  -6   4    9.80    6.40
  -4   6  -4    9.60    6.50
   4   6   4    5.30    4.00
   4   6   4   18.70    6.60
  -4   6  -4   12.90    6.60
   6  -6   4   53.79   10.20
  -6  -6  -4   57.19    8.20
   6  -6   4   52.79   12.00
  -6  -6  -4   57.69   11.00
   6  -6   4   57.59   10.10
   6   6   4   55.09    7.10
  -6   6  -4   64.39   12.70
   6   6   4   46.60    9.00
  -6   6  -4   55.59   11.80
   7  -7  -4   26.10    8.70
  -7  -7   4   44.80   10.40
   7  -7  -4   34.10    8.20
   7  -7  -4   36.70   10.90
  -7   7   4   29.80    8.30
  -7   7   4   34.20    9.90
   7   7  -4   33.40    7.60
   7   7  -4   26.40    6.70
   7   7  -4   32.80    7.60
  -7   7   4   24.20    8.40
  -5  -7   4   -3.70    4.30
   5  -7  -4    2.00    5.00
   5  -7  -4   -0.30    4.20
   5  -7  -4    7.20    6.70
  -5  -7   4    1.00    5.40
  -5  -7   4    4.90    4.60
  -5   7   4    1.70    5.20
   5   7  -4   -1.10    3.50
   5   7  -4    8.90    5.70
  -5   7   4   -1.00    4.00
   5   7  -4    6.60    5.20
  -5   7   4   -4.30    4.10
  -3  -7   4    6.90    5.20
  -3  -7   4   -1.80    3.90
   3  -7  -4    8.20    5.90
   3  -7  -4    2.30    4.70
  -3  -7   4    0.80    5.40
  -3   7   4    5.20    5.10
   3   7  -4    1.30    4.40
   3   7  -4    3.60    5.00
  -3   7   4    5.70    5.30
  -1  -7   4    9.20    5.60
   1  -7  -4   14.70    4.50
  -1  -7   4   14.10    6.00
  -1  -7   4   25.40    8.10
   1  -7  -4   16.80    7.10
  -1   7   4   19.30    5.80
   1   7  -4   20.00    4.40
   1   7  -4   18.10    6.60
  -1   7   4    6.50    5.30
   1   7  -4   12.50    6.20
   1  -7   4   42.50    8.90
  -1  -7  -4   28.90    8.50
   1  -7   4   44.90   10.40
   1  -7   4   34.60    7.60
  -1  -7  -4   40.40    8.00
  -1   7  -4   48.70    8.70
   1   7   4   44.50    7.10
   1   7   4   41.10    9.50
  -1   7  -4   31.10    8.30
  -3  -7  -4   51.19    9.60
   3  -7   4   28.70    8.20
   3  -7   4   40.20    8.90
  -3  -7  -4   24.90    9.70
   3   7   4   40.70    6.10
   3   7   4   33.70    8.80
  -3   7  -4   27.50    7.90
  -3   7  -4   52.29   11.30
  14   0  -5    6.70    6.80
  14   0  -5   -1.50    5.60
 -14   0   5    4.70    6.60
 -14   0   5    1.10    4.30
 -12   0   5   59.19   11.00
  12   0  -5   31.40    8.20
  12   0  -5   60.69   11.80
 -12   0   5   50.69    9.30
 -10   0   5    9.50    4.10
  10   0  -5   11.70    5.60
 -10   0   5    6.10    4.80
 -10   0   5    1.60    3.70
  10   0  -5    6.30    4.90
  -8   0   5   14.20    3.20
   8   0  -5   22.20    5.80
   8   0  -5   28.10    7.30
  -8   0   5   18.50    5.10
  -8   0   5   20.60    5.90
   8   0  -5   14.20    5.30
   8   0  -5   18.70    3.30
  -6   0   5  376.46   18.80
  -6   0   5  370.56   16.60
   6   0  -5  408.36   16.20
   6   0  -5  400.26   19.70
   6   0  -5  404.66   18.40
   6   0  -5  362.56   19.30
   6   0  -5  391.36   17.20
  -6   0   5  395.16   16.00
  -4   0   5    2.40    2.30
   4   0  -5    2.50    2.80
  -4   0   5   -1.70    2.00
   4   0  -5    0.10    2.00
  -4   0   5    0.60    2.40
   4   0  -5    1.00    1.60
  -4   0   5    1.20    2.30
  -4   0   5    0.60    1.70
   4   0  -5    1.00    2.90
   4   0  -5    2.30    2.30
  -2   0   5 2270.47   70.39
   2   0  -5 2064.89   68.69
  -2   0   5 2306.47   69.59
   2   0  -5 2093.29   69.89
  -2   0   5 2219.38   70.09
   2   0  -5 2191.88   68.29
   2   0  -5 2194.38   71.09
  -2   0   5 2143.19   73.09
   0   0  -5    8.20    2.60
   0   0   5   20.60    2.80
   0   0  -5   19.30    4.50
   0   0   5   14.60    4.70
   0   0  -5   21.30    4.60
   0   0  -5   26.70    4.30
   0   0  -5   17.10    4.90
   0   0   5   19.00    4.40
   0   0   5   19.60    4.70
  -2   0  -5   86.29   10.10
   2   0   5   90.49   10.20
   2   0   5   92.99    7.00
  -2   0  -5   86.99    8.00
   2   0   5   96.29    8.80
   2   0   5   81.29    6.30
   2   0   5   87.39    6.70
   2   0   5   85.69    6.10
  -2   0  -5   81.19    6.50
  -4   0  -5    0.20    2.40
   4   0   5    1.20    3.50
   4   0   5    0.60    2.30
  -4   0  -5   -1.10    2.50
   4   0   5   -1.60    2.70
   4   0   5   -1.30    1.80
  -4   0  -5   -1.60    3.00
   6   0   5 1094.49   43.50
   6   0   5 1024.80   34.60
  -6   0  -5 1036.10   43.90
  -6   0  -5  998.00   39.10
  -6   0  -5 1039.50   40.00
  -8   0  -5    4.50    5.70
  -8   0  -5    2.40    3.90
 -10   0  -5   54.19   11.20
 -10   0  -5   72.89   12.00
 -10   0  -5   80.49   14.20
 -10   0  -5   98.89   13.60
  10   0   5   76.09   14.80
  10   0   5   76.69   12.50
  13  -1  -5  213.58   22.80
  13  -1  -5  167.28   18.40
 -13  -1   5  191.88   16.10
 -13  -1   5  191.58   10.90
 -13  -1   5  213.68   17.00
  13   1  -5  204.08   21.20
 -13   1   5  268.87   20.90
 -13   1   5  197.78   15.90
 -13   1   5  218.08   12.30
  13   1  -5  206.68   18.00
 -11  -1   5  176.78   13.90
 -11  -1   5  170.88   13.60
 -11  -1   5  167.68   10.90
  11  -1  -5  160.48   16.60
  11  -1  -5  175.68   16.30
 -11   1   5  171.98    9.10
 -11   1   5  155.68   12.40
  11   1  -5  138.09   15.70
 -11   1   5  171.18   15.50
  11   1  -5  172.38   14.70
  11   1  -5  182.78   18.10
  -9  -1   5  225.38   14.40
   9  -1  -5  230.48   17.00
  -9  -1   5  211.68   12.70
   9  -1  -5  241.58   15.10
  -9  -1   5  244.38   14.70
  -9   1   5  231.78   11.40
   9   1  -5  214.18   14.90
   9   1  -5  211.88   15.20
  -9   1   5  230.58   13.50
   9   1  -5  222.28   15.30
  -9   1   5  208.58   15.70
   7  -1  -5 2271.37   73.89
   7  -1  -5 2454.85   79.99
   7  -1  -5 2328.97   75.89
   7  -1  -5 2258.57   73.29
  -7  -1   5 2332.37   75.59
  -7  -1   5 2288.37   70.69
  -7  -1   5 2345.67   75.19
   7  -1  -5 2297.87   76.19
   7   1  -5 2523.75   77.49
   7   1  -5 2314.07   76.09
  -7   1   5 2319.97   73.29
  -7   1   5 2288.27   72.89
   7   1  -5 2265.47   76.49
   7   1  -5 2276.67   70.69
   5  -1  -5   18.10    4.40
  -5  -1   5   16.90    3.60
  -5  -1   5   11.40    3.40
  -5  -1   5   14.30    3.80
   5  -1  -5   13.70    3.90
   5  -1  -5   19.30    3.50
   5  -1  -5   10.30    2.80
   5  -1  -5   12.30    4.40
   5  -1  -5   10.10    3.40
  -5  -1   5   11.80    3.80
  -5  -1   5   14.10    3.90
  -5  -1   5   14.20    2.10
  -5   1   5   12.80    3.40
  -5   1   5   16.60    3.20
   5   1  -5   13.50    3.70
   5   1  -5    9.40    2.90
   5   1  -5   13.30    4.90
  -5   1   5   15.80    4.80
  -5   1   5   13.70    2.20
   5   1  -5   15.80    4.50
   5   1  -5   13.90    4.10
  -3  -1   5   25.60    4.70
   3  -1  -5   20.00    4.20
   3  -1  -5   29.10    4.70
  -3  -1   5   15.40    3.70
  -3  -1   5   13.60    3.70
   3  -1  -5   23.50    3.20
   3  -1  -5   24.70    3.10
  -3  -1   5   19.80    4.20
  -3  -1   5   27.00    5.20
   3  -1  -5   26.90    5.80
  -3   1   5   29.60    4.80
   3   1  -5   16.00    3.70
  -3   1   5   25.60    4.60
  -3   1   5   31.70    5.80
  -3   1   5   19.70    5.10
   3   1  -5   29.00    5.40
   3   1  -5   27.20    4.60
   3   1  -5   24.80    5.10
   1  -1  -5   48.30    4.10
  -1  -1   5   52.39    2.30
   1  -1  -5   52.19    6.90
   1  -1  -5   71.59    8.80
   1  -1  -5   54.39    6.70
  -1  -1   5   57.09    7.00
  -1  -1   5   57.29    7.00
   1  -1  -5   48.10    6.00
   1  -1  -5   60.09    4.40
  -1  -1   5   56.29    5.80
  -1  -1   5   65.19    7.30
  -1  -1   5   49.10    6.80
  -1   1   5   56.09    4.10
  -1   1   5   56.99    7.20
   1   1  -5   58.69    7.10
   1   1  -5   57.79    4.90
  -1   1   5   47.80    7.10
   1   1  -5   50.49    6.40
  -1   1   5   48.10    6.80
   1   1  -5   51.89    7.30
   1   1  -5   61.19    6.60
  -1   1   5   51.59    6.20
  -1  -1  -5 1417.76   48.00
  -1  -1  -5 1282.07   46.10
   1  -1   5 1311.27   43.20
  -1  -1  -5 1313.67   42.20
   1  -1   5 1327.97   47.50
   1  -1   5 1410.16   49.00
  -1  -1  -5 1293.97   45.70
   1  -1   5 1322.97   46.70
   1  -1   5 1300.97   44.50
   1  -1   5 1298.07   45.10
  -1   1  -5 1319.27   45.90
   1   1   5 1315.17   47.30
  -1   1  -5 1333.67   48.60
  -1   1  -5 1328.67   44.90
   1   1   5 1309.67   44.60
   1   1   5 1360.26   43.10
   1   1   5 1359.56   46.20
   1   1   5 1375.36   47.10
  -1   1  -5 1392.16   48.10
  -3  -1  -5    3.20    3.80
   3  -1   5    0.40    2.70
   3  -1   5   -1.00    3.20
  -3  -1  -5   -0.40    1.90
   3  -1   5    0.50    2.20
  -3  -1  -5   -1.30    2.40
   3  -1   5   -0.30    1.80
  -3   1  -5   -0.70    2.30
   3   1   5    2.80    2.10
   3   1   5   -2.50    2.20
   3   1   5    0.30    3.00
   3   1   5   -0.40    2.70
  -3   1  -5   -1.20    2.90
   3   1   5   -0.80    3.00
   5  -1   5   88.29    6.90
   5  -1   5   87.49   11.70
  -5  -1  -5   80.59    9.90
  -5  -1  -5   76.99    7.00
  -5   1  -5   81.19   12.00
   5   1   5   81.89   11.40
   5   1   5   85.39    6.50
   5   1   5   77.69    9.20
  -5   1  -5   84.89    9.30
   5   1   5   72.89    6.40
  -5   1  -5   84.29   10.00
  -7  -1  -5   45.90    9.30
   7  -1   5   46.70    5.40
  -7  -1  -5   42.20    7.20
   7  -1   5   41.60    9.60
  -7  -1  -5   35.70    8.10
  -7   1  -5   29.50    7.20
  -7   1  -5   30.60    8.70
  -7   1  -5   48.50    8.20
   7   1   5   47.70    8.20
   7   1   5   46.40    3.90
  -9  -1  -5    1.40    3.90
  -9  -1  -5    2.50    6.10
  -9  -1  -5    3.10    4.70
  -9  -1  -5    1.80    4.90
   9  -1   5    7.80    5.30
   9  -1   5    3.90    5.70
  -9   1  -5   -3.10    3.70
  -9   1  -5    4.30    5.90
  -9   1  -5   -1.50    5.30
  12  -2  -5   49.70    9.80
 -12  -2   5   46.30    9.70
  12  -2  -5   39.10   10.60
 -12  -2   5   42.60    6.50
 -12  -2   5   50.39    8.80
  12   2  -5   47.80   10.00
 -12   2   5   48.80    8.70
  12   2  -5   60.79   10.60
 -12   2   5   54.29   12.00
 -10  -2   5   14.00    4.50
 -10  -2   5    7.90    4.10
  10  -2  -5    8.30    4.70
 -10   2   5    7.60    3.50
  10   2  -5   13.90    5.40
 -10   2   5   23.50    7.70
  10   2  -5    2.90    4.60
 -10   2   5   11.10    4.10
  -8  -2   5   21.50    5.30
   8  -2  -5   18.80    5.70
   8  -2  -5   13.90    4.00
  -8  -2   5    9.20    3.70
  -8  -2   5   19.30    5.40
   8  -2  -5   14.30    6.30
  -8   2   5   13.30    4.10
   8   2  -5   15.60    5.00
   8   2  -5   22.80    5.50
  -8   2   5   14.90    4.30
  -8   2   5   14.10    5.90
   8   2  -5   17.10    4.30
   8   2  -5   23.60    6.20
  -6  -2   5  359.66   13.30
  -6  -2   5  356.96   17.70
   6  -2  -5  348.57   17.20
  -6  -2   5  355.26   17.40
   6  -2  -5  348.77   16.00
   6  -2  -5  392.16   21.00
   6   2  -5  341.87   13.80
  -6   2   5  363.86   14.50
   6   2  -5  366.16   17.40
  -6   2   5  350.26   13.50
  -6   2   5  366.96   19.90
   6   2  -5  375.06   17.70
   6   2  -5  370.06   14.90
  -4  -2   5   -3.00    1.80
   4  -2  -5    2.00    3.50
   4  -2  -5    3.20    2.30
  -4  -2   5    1.90    2.80
  -4  -2   5    1.70    2.50
  -4  -2   5   -1.70    1.90
   4  -2  -5    1.10    1.90
   4  -2  -5    0.00    2.20
   4  -2  -5   -1.70    2.00
  -4  -2   5    0.80    2.20
  -4  -2   5   -0.40    1.40
   4   2  -5    0.00    1.10
  -4   2   5    1.40    2.90
  -4   2   5    1.00    1.70
   4   2  -5   -2.30    1.70
  -4   2   5   -2.00    2.10
   4   2  -5   -0.90    2.50
  -4   2   5   -2.60    2.10
   4   2  -5    1.50    2.20
  -2  -2   5 1450.95   46.10
   2  -2  -5 1399.16   45.20
  -2  -2   5 1428.76   47.30
   2  -2  -5 1422.96   51.69
  -2  -2   5 1312.67   47.50
  -2  -2   5 1376.26   45.80
   2  -2  -5 1410.66   42.10
  -2  -2   5 1471.75   42.00
   2  -2  -5 1537.65   49.99
   2  -2  -5 1463.05   45.80
   2  -2  -5 1482.15   50.89
   2  -2  -5 1370.76   50.19
   2   2  -5 1439.56   47.70
   2   2  -5 1371.26   47.60
  -2   2   5 1392.26   47.40
  -2   2   5 1384.86   45.50
   2   2  -5 1470.55   48.60
   2   2  -5 1415.06   47.50
  -2   2   5 1357.36   49.80
   2   2  -5 1460.55   45.70
   0  -2  -5    6.60    1.70
   0  -2  -5   12.40    4.40
   0  -2   5   15.10    3.00
   0  -2   5    9.10    2.10
   0  -2  -5   11.10    3.70
   0  -2  -5    9.30    3.10
   0  -2   5   10.40    4.00
   0   2   5    4.90    3.20
   0   2  -5    8.90    3.40
   0   2   5   11.20    4.10
   0   2  -5    7.30    2.40
   0   2   5    7.10    2.70
   0   2   5    7.60    3.50
   0   2  -5   18.90    4.80
   0   2  -5   14.10    4.20
   2  -2   5   46.00    5.10
  -2  -2  -5   53.09    8.10
  -2  -2  -5   48.90    3.60
   2  -2   5   59.59    8.40
  -2  -2  -5   55.99    7.60
   2   2   5   55.99    8.20
   2   2   5   45.90    7.20
  -2   2  -5   62.09    7.80
   2   2   5   57.49    8.00
  -2   2  -5   54.39    8.60
   2   2   5   41.30    6.60
  -2   2  -5   58.39    8.10
  -4  -2  -5   -0.10    2.80
   4  -2   5    1.80    2.60
   4  -2   5   -4.10    3.10
  -4  -2  -5   -0.20    3.00
   4  -2   5    2.60    2.90
  -4  -2  -5    1.00    1.80
  -4  -2  -5   -0.50    3.40
   4   2   5   -0.70    3.40
   4   2   5    3.80    3.90
  -4   2  -5   -4.90    2.50
  -4   2  -5   -0.50    3.50
   4   2   5   -2.50    2.80
   4   2   5   -0.80    1.60
  -6  -2  -5  884.81   35.50
   6  -2   5  857.91   39.00
   6  -2   5  895.81   32.60
  -6  -2  -5  866.51   31.60
  -6  -2  -5  868.31   37.00
  -6  -2  -5  906.41   38.30
   6   2   5  904.31   38.00
   6   2   5  897.61   34.90
  -6   2  -5  866.61   40.50
  -6   2  -5  845.82   37.10
  -8  -2  -5    5.90    4.90
   8  -2   5    5.30    5.70
   8  -2   5    2.30    4.20
   8  -2   5    2.40    2.60
  -8  -2  -5    0.00    4.30
  -8  -2  -5    2.20    3.00
  -8  -2  -5    6.00    4.80
  -8   2  -5   -2.30    3.20
   8   2   5    4.70    5.40
  -8   2  -5    4.20    5.00
  -8   2  -5   -0.70    5.20
   8   2   5    5.20    4.10
  10  -2   5   58.39   10.10
  10  -2   5   48.20    9.60
 -10  -2  -5   66.29   13.00
 -10  -2  -5   45.00   11.30
  10  -2   5   59.19   13.90
 -10  -2  -5   48.60   10.10
 -10   2  -5   49.40   10.80
 -10   2  -5   50.59   12.90
 -10   2  -5   68.59   10.40
 -13  -3   5  136.09   16.30
  13   3  -5  158.08   13.70
 -13   3   5  146.99   20.10
  13   3  -5  117.69   16.70
 -13   3   5  140.99   11.30
 -13   3   5   84.29   11.60
  11  -3  -5  108.29   13.30
  11  -3  -5  103.09   15.80
 -11  -3   5  106.69   11.10
 -11  -3   5  121.79   14.30
 -11   3   5  110.19   16.30
 -11   3   5  103.29   11.30
  11   3  -5  123.39   15.00
  11   3  -5  119.79   11.00
   9  -3  -5  138.49    9.20
  -9  -3   5  156.68   11.50
   9  -3  -5  151.58   11.70
   9  -3  -5  140.59   11.40
   9  -3  -5  154.78   18.30
  -9   3   5  155.78   10.30
   9   3  -5  131.89   10.40
   9   3  -5  163.98   11.10
  -9   3   5  147.59   11.70
   9   3  -5  142.79   12.50
  -9   3   5  186.78   16.10
   7  -3  -5 1578.64   54.29
   7  -3  -5 1571.94   54.59
  -7  -3   5 1609.64   50.19
   7  -3  -5 1565.14   51.29
   7  -3  -5 1596.94   60.39
  -7  -3   5 1609.34   55.69
  -7  -3   5 1633.14   56.19
   7   3  -5 1539.95   52.69
   7   3  -5 1578.54   51.39
  -7   3   5 1625.94   55.99
  -7   3   5 1554.94   50.39
  -7   3   5 1610.04   59.79
   7   3  -5 1689.13   53.19
  -7   3   5 1527.35   50.29
   7   3  -5 1569.44   55.49
   7   3  -5 1580.24   50.59
  -5  -3   5   20.70    3.80
   5  -3  -5   16.00    4.30
  -5  -3   5   26.60    5.50
   5  -3  -5   20.60    4.40
  -5  -3   5   26.20    5.80
   5  -3  -5   23.30    5.00
   5  -3  -5   17.80    6.10
   5   3  -5   18.50    4.10
   5   3  -5   10.10    3.90
   5   3  -5   18.80    3.30
   5   3  -5   17.00    4.00
   5   3  -5   10.50    4.30
  -5   3   5   18.10    5.10
   5   3  -5    9.60    3.90
  -5   3   5   18.00    6.10
  -5   3   5   19.90    4.00
  -3  -3   5   31.60    3.60
   3  -3  -5   24.10    3.90
  -3  -3   5   23.20    4.10
   3  -3  -5   31.50    5.60
  -3  -3   5   20.90    5.40
  -3  -3   5   24.50    4.30
   3  -3  -5   23.30    6.00
  -3  -3   5   21.00    4.20
   3   3  -5   31.00    4.90
  -3   3   5   23.80    5.60
  -3   3   5   33.90    7.00
   3   3  -5   27.40    4.30
  -3   3   5   25.70    4.60
  -3   3   5   22.10    6.10
   3   3  -5   24.00    4.90
   3   3  -5   33.50    6.10
   3   3  -5   28.30    5.30
  -1  -3   5   40.80    6.20
   1  -3  -5   38.40    6.40
  -1  -3   5   40.00    5.90
   1  -3  -5   39.30    6.60
   1  -3  -5   41.50    7.20
  -1  -3   5   41.30    4.70
  -1  -3   5   33.10    6.50
   1  -3  -5   33.20    2.80
  -1  -3   5   44.60    4.40
   1   3  -5   44.30    4.60
  -1   3   5   36.10    6.90
   1   3  -5   34.40    6.10
   1   3  -5   37.20    5.90
  -1   3   5   41.10    7.00
   1   3  -5   38.70    6.30
  -1   3   5   41.60    7.10
  -1  -3  -5  699.33   27.40
   1  -3   5  707.33   27.60
   1  -3   5  673.43   28.20
   1  -3   5  676.03   28.40
  -1  -3  -5  682.93   28.80
  -1  -3  -5  706.23   23.10
   1  -3   5  677.93   23.20
   1  -3   5  653.93   24.60
  -1  -3  -5  694.03   27.60
  -1   3  -5  655.33   27.90
  -1   3  -5  741.53   29.10
   1   3   5  710.63   28.50
   1   3   5  747.23   29.40
  -1   3  -5  705.43   29.70
   1   3   5  669.23   28.90
  -3  -3  -5   -5.90    2.40
  -3  -3  -5    2.30    3.50
   3  -3   5    1.30    3.10
  -3  -3  -5    1.00    2.40
   3  -3   5    0.30    1.90
   3  -3   5    3.80    3.30
   3  -3   5   -1.50    3.60
   3   3   5    2.40    4.20
   3   3   5   -1.70    2.90
  -3   3  -5    6.10    4.30
  -3   3  -5    0.90    2.70
   3   3   5   -0.20    3.50
  -5  -3  -5   85.09   11.60
   5  -3   5   84.59    9.60
  -5  -3  -5   71.39   10.30
   5  -3   5   60.79    9.10
  -5  -3  -5   74.59    9.00
  -5   3  -5   63.29    7.50
  -5   3  -5   84.49   12.90
   5   3   5   97.59   11.80
   5   3   5   63.19   10.00
  -5   3  -5   76.29   11.00
   5   3   5   75.99    9.50
   7  -3   5   18.10    5.00
   7  -3   5   28.60    5.90
  -7  -3  -5   20.10    7.20
  -7  -3  -5   29.20    7.90
  -7  -3  -5   28.10    7.20
   7  -3   5   25.30    6.60
   7  -3   5   45.00   10.90
   7   3   5   22.10    6.60
  -7   3  -5   21.40    5.50
  -7   3  -5   20.70    8.50
  -7   3  -5   22.80    7.70
   7   3   5   26.20    6.40
   9  -3   5    8.60    5.20
  -9  -3  -5   -1.20    4.70
   9  -3   5    7.00    6.90
  -9  -3  -5   -0.40    5.00
   9  -3   5   -0.30    4.10
  -9  -3  -5    2.70    6.00
  -9   3  -5    1.60    5.90
   9   3   5    0.40    3.70
  -9   3  -5   -0.50    4.00
  -9   3  -5   -1.20    6.20
  12  -4  -5   23.50    7.30
  12  -4  -5   35.80    8.70
  12  -4  -5   17.50    9.30
 -12  -4   5   17.20    6.80
 -12  -4   5   23.70    6.40
 -12   4   5   31.80    7.60
 -12   4   5   37.60   11.40
  12   4  -5   23.90    8.50
  12   4  -5   29.10    5.90
 -12   4   5   28.90    8.00
  10  -4  -5    2.60    4.70
 -10  -4   5    9.70    5.00
 -10  -4   5    4.80    4.80
  10  -4  -5   11.60    7.10
  10   4  -5   15.70    6.50
 -10   4   5    5.30    3.70
 -10   4   5   16.20    8.00
  10   4  -5   10.70    3.80
 -10   4   5    4.50    4.60
  10   4  -5    5.10    3.30
  -8  -4   5    6.70    4.60
   8  -4  -5   26.40    6.00
  -8  -4   5   14.30    5.30
   8  -4  -5    8.00    6.40
   8  -4  -5    6.90    5.20
   8  -4  -5    7.00    2.50
   8   4  -5    6.30    3.00
   8   4  -5   13.90    4.20
   8   4  -5   19.10    5.90
  -8   4   5   15.80    6.70
  -8   4   5   13.40    3.40
   8   4  -5   10.20    3.10
   8   4  -5    8.50    3.10
  -8   4   5   18.70    6.00
  -6  -4   5  272.27   10.30
   6  -4  -5  301.27   15.90
  -6  -4   5  286.97   17.20
  -6  -4   5  296.77   14.20
   6  -4  -5  306.17   16.60
   6  -4  -5  268.07   19.00
  -6  -4   5  277.17   10.80
  -6  -4   5  283.47   16.70
  -6   4   5  313.67   19.70
   6   4  -5  273.47   14.30
   6   4  -5  317.37   13.00
   6   4  -5  327.57   17.70
  -6   4   5  289.87   17.70
   6   4  -5  300.57   14.00
   6   4  -5  302.17   15.90
   4  -4  -5    3.30    3.30
  -4  -4   5    2.30    2.60
   4  -4  -5    7.80    5.20
  -4  -4   5   -1.90    2.40
   4  -4  -5    0.30    2.10
  -4  -4   5    2.80    3.60
   4  -4  -5    1.40    2.70
  -4  -4   5   -0.70    1.50
   4   4  -5    1.20    2.50
   4   4  -5    0.70    3.40
   4   4  -5    0.20    2.20
   4   4  -5    0.20    2.00
  -4   4   5    0.10    3.50
   4   4  -5    1.20    2.30
  -4   4   5   -3.20    2.50
   2  -4  -5  583.34   22.30
   2  -4  -5  574.24   23.70
  -2  -4   5  537.25   21.40
   2  -4  -5  547.15   23.70
  -2  -4   5  549.05   23.30
   2  -4  -5  532.05   18.70
  -2  -4   5  557.34   20.80
  -2  -4   5  574.54   26.10
   2  -4  -5  530.55   25.70
  -2   4   5  549.05   26.10
   2   4  -5  536.95   22.00
  -2   4   5  548.45   25.30
   2   4  -5  519.65   24.30
  -2   4   5  587.24   26.40
   2   4  -5  554.14   19.50
   2   4  -5  557.14   23.00
   0  -4  -5    0.20    3.80
   0  -4   5    6.90    3.90
   0  -4   5    4.60    3.70
   0  -4   5    6.30    1.60
   0  -4  -5    2.70    2.90
   0  -4   5    5.30    3.00
   0  -4   5    4.10    3.40
   0  -4  -5    9.50    4.30
   0   4   5    8.00    4.40
   0   4  -5   -0.90    3.30
   0   4   5    6.90    4.10
   0   4  -5    4.50    3.60
   0   4   5    3.20    3.90
   0   4  -5   -0.10    3.30
   2  -4   5    8.80    4.00
  -2  -4  -5   13.50    5.20
  -2  -4  -5   22.10    5.90
  -2  -4  -5   14.50    2.90
   2  -4   5    9.80    4.20
   2  -4   5   13.10    5.80
  -2  -4  -5   13.20    5.10
  -2   4  -5   11.20    5.20
   2   4   5    8.50    4.30
   2   4   5   18.00    5.70
   2   4   5   14.00    5.00
  -2   4  -5   15.60    5.70
  -4  -4  -5   -1.50    3.40
   4  -4   5    4.80    3.90
  -4  -4  -5   11.10    4.90
   4  -4   5   -6.40    3.00
   4  -4   5   -1.30    3.90
   4   4   5    1.20    4.00
   4   4   5   -0.70    3.90
   4   4   5   -1.40    3.40
   6  -4   5  589.14   32.70
   6  -4   5  595.14   26.90
   6  -4   5  579.14   20.60
   6  -4   5  572.94   20.40
   6  -4   5  560.94   27.40
  -6  -4  -5  572.24   27.40
  -6  -4  -5  539.15   28.60
  -6  -4  -5  556.34   25.20
  -6   4  -5  552.44   22.90
   6   4   5  547.85   27.20
   6   4   5  537.25   26.40
  -6   4  -5  550.24   32.00
  -6   4  -5  589.84   30.60
   8  -4   5   -0.70    6.20
   8  -4   5   -0.50    5.10
  -8  -4  -5    0.10    4.80
  -8  -4  -5    1.00    4.70
   8   4   5   -2.40    4.00
  -8   4  -5    3.00    3.90
  -8   4  -5   -2.40    5.10
  -8   4  -5    3.10    6.50
   8   4   5    5.70    5.00
  11  -5  -5   46.90   12.80
  11  -5  -5   62.79   10.20
 -11  -5   5   57.99   11.10
 -11  -5   5   44.70    8.50
 -11   5   5   50.09   10.50
  11   5  -5   52.39   11.10
 -11   5   5   62.39   14.10
   9  -5  -5   86.69   15.20
   9  -5  -5   60.29    8.90
  -9  -5   5   58.39   10.20
  -9  -5   5   68.29   10.40
   9  -5  -5   64.49   10.50
  -9   5   5   54.09   10.20
   9   5  -5   82.99   11.80
  -9   5   5   70.59   13.10
   9   5  -5   64.19   10.70
  -9   5   5   83.19    6.70
   7  -5  -5  851.21   33.90
  -7  -5   5  840.92   36.80
   7  -5  -5  848.12   36.50
   7  -5  -5  920.31   41.90
  -7  -5   5  889.41   33.40
  -7   5   5  882.11   40.80
   7   5  -5  872.11   35.30
   7   5  -5  883.21   33.70
  -7   5   5  915.81   39.20
   5  -5  -5   16.00    5.10
  -5  -5   5   16.60    6.00
   5  -5  -5   17.80    7.20
  -5  -5   5   15.70    4.70
   5  -5  -5   15.50    3.20
   5  -5  -5   20.20    6.10
   5   5  -5   26.20    6.70
  -5   5   5   23.00    8.30
   5   5  -5   14.50    4.50
   3  -5  -5   34.80    4.40
  -3  -5   5   31.60    7.60
   3  -5  -5   33.40    5.10
   3  -5  -5   27.20    6.20
   3  -5  -5   37.80    8.70
  -3  -5   5   34.50    6.70
   3  -5  -5   31.50    6.90
  -3  -5   5   39.40    6.00
  -3   5   5   39.60    9.00
  -3   5   5   44.00    8.80
   3   5  -5   28.30    4.40
   3   5  -5   22.20    3.70
  -3   5   5   29.80    7.00
   3   5  -5   39.10    5.40
   3   5  -5   21.40    6.20
  -1  -5   5   28.30    5.50
   1  -5  -5   24.50    6.30
  -1  -5   5   28.70    7.30
  -1  -5   5   29.10    5.70
   1  -5  -5   25.80    6.50
  -1  -5   5   31.40    6.70
   1  -5  -5   19.30    5.10
  -1   5   5   15.40    5.40
  -1   5   5   14.80    5.90
  -1   5   5   19.90    6.30
   1   5  -5   37.10    7.60
   1   5  -5   22.00    5.10
   1   5  -5   28.60    5.80
   1  -5   5  262.27   14.20
   1  -5   5  258.87   17.50
  -1  -5  -5  259.27   16.50
  -1  -5  -5  262.07   15.60
   1  -5   5  234.68   15.70
  -1  -5  -5  246.08   15.60
   1  -5   5  276.67   16.80
   1   5   5  275.17   15.90
  -1   5  -5  241.38   15.30
   1   5   5  239.28   16.00
  -1   5  -5  280.17   17.50
  -1   5  -5  240.18   16.30
   1   5   5  295.87   18.50
  -3  -5  -5   -3.30    3.60
   3  -5   5   -4.60    2.60
  -3  -5  -5   -4.80    3.20
   3  -5   5    2.20    4.20
   3  -5   5   -4.20    3.10
  -3  -5  -5   -0.60    3.70
  -3  -5  -5    1.50    2.10
  -3   5  -5   -0.90    2.70
   3   5   5   -2.40    4.10
   3   5   5   -2.30    3.20
  -3   5  -5    5.00    4.70
   3   5   5   -2.60    3.30
  -3   5  -5    2.20    5.00
  -5  -5  -5   70.59   12.00
   5  -5   5   88.59   14.40
   5  -5   5   55.89    9.20
  -5  -5  -5   79.19    8.60
   5  -5   5   57.19   10.00
   5  -5   5   72.29   10.60
  -5   5  -5   50.89   11.30
  -5   5  -5   70.99   11.80
   5   5   5   59.59    9.00
  -5   5  -5   57.39    6.30
   7  -5   5    3.10    6.40
  -7  -5  -5    7.50    6.30
  -7  -5  -5    9.30    5.70
   7  -5   5    6.10    5.70
   7  -5   5   13.90    6.30
   7   5   5    5.80    5.90
   7   5   5    5.50    4.50
   8  -6  -5   15.00    9.70
   8  -6  -5    7.80    5.30
  -8  -6   5   10.10    6.00
   8  -6  -5    3.10    5.30
  -8   6   5   12.20    7.70
   8   6  -5    1.60    3.60
   8   6  -5    2.20    4.70
  -8   6   5    6.40    5.80
   8   6  -5    8.30    6.30
   6  -6  -5  177.78   15.00
  -6  -6   5  194.38   16.40
   6  -6  -5  188.58   17.10
  -6  -6   5  196.48   13.70
   6  -6  -5  222.68   13.70
  -6   6   5  226.08   18.30
   6   6  -5  213.68   14.70
   6   6  -5  183.18   12.40
  -6   6   5  213.18   17.90
   6   6  -5  231.48   16.00
   4  -6  -5    1.80    3.80
  -4  -6   5    3.80    4.30
  -4  -6   5    6.90    5.60
   4  -6  -5    0.80    2.30
  -4  -6   5    1.50    3.80
   4   6  -5    2.20    4.40
  -4   6   5   13.90    6.10
  -4   6   5    2.40    4.70
   4   6  -5   -0.50    2.40
   2  -6  -5  180.18   11.60
  -2  -6   5  196.18   14.10
  -2  -6   5  170.38   15.30
  -2  -6   5  177.78   12.20
   2  -6  -5  181.98   14.40
   2  -6  -5  168.98   14.20
  -2  -6   5  184.38    8.90
  -2   6   5  210.48   16.70
   2   6  -5  177.98   11.00
  -2   6   5  196.18   14.70
   2   6  -5  183.18   11.40
   2   6  -5  193.98   14.70
   0  -6  -5    2.00    4.60
   0  -6  -5    1.60    4.10
   0  -6   5    9.50    4.80
   0  -6   5    6.50    4.60
   0  -6   5   -1.70    4.40
   0  -6  -5    6.40    4.70
   0  -6   5    7.40    4.40
   0   6  -5    3.40    4.50
   0   6   5    1.60    4.70
   0   6   5    2.20    3.90
   0   6  -5    1.00    4.50
  -2  -6  -5    5.30    5.40
   2  -6   5    0.90    4.40
   2  -6   5   -1.00    4.30
  -2  -6  -5   -0.10    4.50
   2  -6   5    0.20    4.80
   2  -6   5    4.20    4.50
  -2   6  -5  -11.10    3.00
  -2   6  -5   -1.70    4.00
   2   6   5   -3.50    3.30
   2   6   5   -2.80    3.90
   4  -6   5    1.70    5.40
   4  -6   5    0.40    4.00
   4  -6   5    3.10    4.20
  -4  -6  -5    6.10    5.70
   4  -6   5    3.70    4.80
   4   6   5   -1.80    3.70
  -4   6  -5    6.90    6.00
  -4   6  -5   -9.00    3.70
   4   6   5   -3.90    4.50
   6  -6   5  296.67   19.80
   6  -6   5  351.36   25.90
   6   6   5  282.87   20.30
  -6   6  -5  302.97   25.00
  -6   6  -5  284.47   22.30
   6   6   5  296.77   17.30
  -5  -7   5    5.90    6.30
  -5  -7   5   12.70    6.20
   5  -7  -5   12.60    7.50
  -5  -7   5    3.60    4.90
   5   7  -5    2.50    4.90
  -5   7   5    3.40    5.60
   5   7  -5   23.70    7.50
  -3  -7   5   39.00    8.40
   3  -7  -5   26.40    8.30
  -3  -7   5   23.70    8.00
   3  -7  -5    6.00    6.50
   3  -7  -5   31.40    5.90
  -3  -7   5   35.90    9.90
  -3   7   5   29.00    9.10
   3   7  -5   39.40    8.90
  -3   7   5   29.60    8.10
   3   7  -5   26.30    7.70
  -1  -7   5   16.30    6.20
  -1  -7   5   16.30    6.20
   1  -7  -5   20.30    5.60
  -1  -7   5   12.20    6.70
   1  -7  -5    7.20    6.10
  -1   7   5   13.10    5.90
   1   7  -5   15.70    5.40
   1   7  -5    8.80    6.20
  -1   7   5   16.60    7.50
   1  -7   5   83.69   13.40
   1  -7   5   80.19   12.20
  -1  -7  -5  100.89   14.50
   1  -7   5   72.59   10.80
  -1  -7  -5   85.69   11.40
   1   7   5   75.29   13.00
   1   7   5   80.29   10.20
  -1   7  -5   65.89   11.30
  -1   7  -5   97.89   12.30
   3  -7   5   -6.50    4.20
  -3  -7  -5   -3.20    3.80
   3  -7   5   -4.60    3.50
  -3  -7  -5   -1.60    6.10
   3  -7   5   -4.70    5.00
   3   7   5   -5.10    3.30
  -3   7  -5    5.60    9.50
   3   7   5   -3.00    4.70
  -3   7  -5   -1.70    5.10
 -14   0   6   78.39   13.50
  14   0  -6   76.49   13.50
 -14   0   6   73.49   11.80
  14   0  -6   94.59   15.80
  12   0  -6   25.90    8.10
 -12   0   6   37.90    9.30
 -12   0   6   32.00    6.50
  12   0  -6   30.10    8.70
 -12   0   6   24.20    7.10
 -10   0   6   31.00    4.20
 -10   0   6   38.40    7.50
 -10   0   6   36.60    8.30
 -10   0   6   33.80    6.70
   8   0  -6 2454.35   88.39
  -8   0   6 2631.84   84.29
   8   0  -6 2752.42   87.09
   8   0  -6 2701.53   89.39
   8   0  -6 2561.44   81.79
  -8   0   6 2705.73   81.69
  -8   0   6 2644.74   87.89
  -6   0   6   13.50    1.70
   6   0  -6   11.60    4.30
   6   0  -6   15.60    3.90
   6   0  -6    8.70    3.20
  -6   0   6   11.10    4.40
   6   0  -6   14.00    5.30
  -6   0   6   18.50    4.20
   6   0  -6   13.40    4.90
  -6   0   6   10.70    1.50
  -6   0   6   15.80    3.90
  -4   0   6  101.09    7.80
   4   0  -6   78.79    9.90
   4   0  -6   87.39    7.40
  -4   0   6   95.29    8.50
   4   0  -6   88.39    7.30
   4   0  -6   83.89    3.80
   4   0  -6   90.19    7.50
   2   0  -6  292.67   15.00
   2   0  -6  280.67   15.30
  -2   0   6  272.17   15.10
   2   0  -6  309.97   18.90
   2   0  -6  259.87   12.30
  -2   0   6  279.37   13.90
   2   0  -6  275.87   13.40
   2   0  -6  280.97   15.40
   0   0  -6  473.95   22.00
   0   0   6  493.25   21.30
   0   0  -6  469.45   22.90
   0   0   6  469.65   21.40
   0   0  -6  463.35   19.10
   0   0   6  471.55   16.80
   0   0   6  502.25   22.40
   2   0   6    0.80    3.80
  -2   0  -6    3.30    2.90
   2   0   6    7.30    3.40
   2   0   6   -0.70    2.50
   2   0   6    1.40    2.50
   2   0   6    3.40    2.50
  -2   0  -6    3.90    4.50
  -4   0  -6   10.30    5.20
  -4   0  -6   18.70    5.10
   4   0   6    8.10    5.50
   4   0   6    6.00    4.50
   4   0   6   15.40    4.20
  -4   0  -6   18.80    5.20
  -6   0  -6  125.39   12.90
  -6   0  -6  117.09   15.10
   6   0   6  103.49    7.80
   6   0   6  124.69   16.50
  -6   0  -6  114.49   12.50
  -8   0  -6   -6.00    2.80
  -8   0  -6   -0.70    5.10
  -8   0  -6   -2.50    4.00
   8   0   6   -3.40    4.50
 -10   0  -6   41.10   10.40
  10   0   6   47.20   10.50
 -10   0  -6   32.50    9.40
  10   0   6   30.00   10.80
 -10   0  -6   40.80   10.10
 -10   0  -6   59.09   14.20
 -13  -1   6    4.50    5.50
  13  -1  -6    1.80    5.00
 -13  -1   6    4.10    4.70
  13  -1  -6    4.00    6.30
 -13  -1   6   -2.30    2.90
 -13   1   6   -0.60    3.90
 -13   1   6    6.00    4.80
  13   1  -6   -2.80    4.10
  13   1  -6   -1.80    4.90
  11  -1  -6  200.68   17.90
 -11  -1   6  225.18   15.50
 -11  -1   6  198.58   13.20
 -11  -1   6  200.18   15.60
  11  -1  -6  213.88   15.80
  11   1  -6  247.28   17.90
 -11   1   6  204.68   17.20
 -11   1   6  171.28   13.40
  11   1  -6  232.98   17.00
 -11   1   6  215.38   11.10
  -9  -1   6  120.49    9.90
   9  -1  -6  106.29   14.00
   9  -1  -6  116.69    8.80
   9  -1  -6  121.79   13.20
  -9  -1   6  121.09   10.70
  -9  -1   6  134.49   13.10
   9   1  -6  116.29    6.80
   9   1  -6  119.09   13.50
  -9   1   6  102.89    9.00
   9   1  -6  109.69   13.00
  -9   1   6  119.49    8.60
  -9   1   6  116.19   14.00
  -7  -1   6 1438.06   46.90
   7  -1  -6 1390.26   48.80
   7  -1  -6 1379.16   48.20
   7  -1  -6 1478.15   51.19
  -7  -1   6 1480.55   50.79
  -7  -1   6 1394.16   50.39
   7  -1  -6 1413.76   46.90
  -7  -1   6 1427.76   49.80
   7  -1  -6 1516.75   54.79
  -7   1   6 1522.65   53.99
   7   1  -6 1348.97   46.70
   7   1  -6 1405.36   45.20
   7   1  -6 1370.36   51.79
   7   1  -6 1511.95   52.89
   7   1  -6 1437.86   50.89
  -7   1   6 1509.85   49.00
  -7   1   6 1442.86   47.70
  -5  -1   6 1108.59   39.90
  -5  -1   6 1154.58   35.00
   5  -1  -6 1067.09   39.20
  -5  -1   6 1128.19   38.50
   5  -1  -6 1135.99   40.00
  -5  -1   6 1109.49   38.70
   5  -1  -6 1075.09   35.60
  -5  -1   6 1123.29   40.80
   5  -1  -6 1068.29   36.70
   5  -1  -6 1131.19   43.20
   5   1  -6 1102.99   32.50
   5   1  -6 1138.99   32.50
   5   1  -6 1126.89   41.50
   5   1  -6 1090.29   38.20
  -5   1   6 1070.99   34.90
   5   1  -6 1083.69   39.50
  -5   1   6 1130.49   36.40
   5   1  -6 1022.00   40.30
  -5   1   6 1105.89   39.50
   3  -1  -6  157.58   11.70
  -3  -1   6  154.38   10.20
   3  -1  -6  164.78    7.70
  -3  -1   6  156.68    9.80
   3  -1  -6  169.68    8.20
   3  -1  -6  160.48   10.20
  -3  -1   6  181.68   11.40
  -3  -1   6  156.78   10.80
   3   1  -6  156.78    9.60
   3   1  -6  184.18   12.30
   3   1  -6  165.98   10.00
   3   1  -6  162.08   11.00
   3   1  -6  156.38   10.30
  -3   1   6  157.98   11.50
   3   1  -6  167.18   10.50
  -3   1   6  171.38   11.10
   1  -1  -6  744.03   27.90
   1  -1  -6  716.53   25.50
   1  -1  -6  741.03   24.90
  -1  -1   6  707.73   28.90
  -1  -1   6  709.13   21.50
  -1  -1   6  701.93   26.60
   1  -1  -6  733.03   30.80
  -1  -1   6  724.73   28.80
  -1  -1   6  749.42   29.20
   1   1  -6  717.03   29.10
  -1   1   6  760.72   30.10
   1   1  -6  722.33   27.00
  -1   1   6  657.83   29.60
   1   1  -6  725.23   26.40
  -1   1   6  760.12   29.30
  -1   1   6  704.43   24.30
   1   1  -6  736.13   30.20
   1  -1   6 1023.00   39.00
  -1  -1  -6 1022.10   34.10
   1  -1   6 1063.79   37.60
   1  -1   6 1005.80   35.20
   1  -1   6 1037.60   38.60
  -1  -1  -6 1010.60   39.90
  -1   1  -6  910.11   38.00
  -1   1  -6 1002.50   40.00
   1   1   6 1011.10   34.30
   1   1   6  926.91   39.10
   1   1   6 1089.79   39.60
  -1   1  -6 1063.89   36.90
   1   1   6 1024.20   38.20
  -3  -1  -6    1.80    2.50
  -3  -1  -6   -1.50    3.70
   3  -1   6   -1.80    2.90
  -3  -1  -6    2.40    3.00
   3  -1   6   -1.70    2.00
   3  -1   6    6.30    4.80
   3   1   6   -4.20    2.90
   3   1   6   -0.10    3.10
  -3   1  -6    0.40    3.80
  -3   1  -6    4.20    3.30
   3   1   6    0.30    2.30
  -5  -1  -6  108.29   13.60
  -5  -1  -6  129.29   11.00
   5  -1   6  125.39   14.90
  -5  -1  -6   99.49   11.90
   5  -1   6  107.89    9.70
  -5   1  -6  112.49   14.50
  -5   1  -6  108.19   11.40
   5   1   6   96.69    8.10
   5   1   6  121.49   14.60
   5   1   6  116.79   12.40
  -5   1  -6  129.49   11.00
  -7  -1  -6   -0.60    4.40
  -7  -1  -6    8.10    4.80
   7  -1   6    7.60    3.40
  -7  -1  -6    1.30    5.80
   7  -1   6    9.20    6.00
   7   1   6    4.70    5.70
  -7   1  -6    8.90    5.30
  -7   1  -6    0.80    3.70
   7   1   6    2.80    4.30
   7   1   6    6.00    2.80
  -9  -1  -6  102.69   16.40
  -9  -1  -6   82.09   12.80
  -9  -1  -6   92.69   13.90
   9  -1   6   79.19   14.80
  -9  -1  -6  104.29   12.70
  -9   1  -6   54.19   13.20
  -9   1  -6   66.99   10.70
  -9   1  -6   78.29   12.50
 -12  -2   6   26.80    6.10
  12  -2  -6   24.50    9.20
 -12  -2   6   28.80    7.60
 -12  -2   6   34.50    7.60
  12  -2  -6   32.60    8.40
 -12   2   6   19.50    4.90
 -12   2   6   23.90    9.00
  12   2  -6   33.70    8.20
  12   2  -6   17.70    6.80
 -12   2   6   24.20    7.30
  10  -2  -6   32.50    8.40
 -10  -2   6   25.70    6.60
 -10  -2   6   33.30    6.60
 -10  -2   6   31.90    6.60
  10  -2  -6   25.80    8.40
 -10   2   6   23.70    5.40
  10   2  -6   21.50    6.90
  10   2  -6   19.70    6.40
 -10   2   6   44.20    7.10
 -10   2   6   50.49   10.70
   8  -2  -6 2335.07   75.39
  -8  -2   6 2247.68   73.09
   8  -2  -6 2250.17   80.19
   8  -2  -6 2160.28   71.99
  -8  -2   6 2295.17   75.19
  -8  -2   6 2296.27   74.89
   8   2  -6 2200.28   68.79
   8   2  -6 2246.18   75.49
   8   2  -6 2158.18   69.19
  -8   2   6 2212.78   73.19
  -8   2   6 2210.68   78.79
   8   2  -6 2294.97   75.29
  -8   2   6 2251.47   70.79
   8   2  -6 2150.18   74.79
   6  -2  -6    6.50    3.90
  -6  -2   6    2.50    3.50
   6  -2  -6    9.60    5.60
  -6  -2   6    4.30    3.30
  -6  -2   6    7.90    3.60
   6  -2  -6   15.70    3.90
  -6  -2   6   10.10    2.40
   6   2  -6    8.50    2.20
  -6   2   6    8.10    2.60
  -6   2   6    5.40    4.40
   6   2  -6    6.10    3.60
  -6   2   6   12.60    4.50
   6   2  -6   11.80    4.40
   6   2  -6    6.60    3.80
  -6   2   6    7.40    2.30
  -4  -2   6   63.19    8.60
   4  -2  -6   57.79    6.20
   4  -2  -6   59.19    9.60
  -4  -2   6   59.29    5.90
   4  -2  -6   64.89    7.10
  -4  -2   6   53.89    7.60
  -4  -2   6   67.29    7.70
   4  -2  -6   65.79    8.10
   4  -2  -6   56.89    4.00
  -4   2   6   62.39    6.10
   4   2  -6   44.00    6.90
  -4   2   6   58.79    8.00
   4   2  -6   52.29    7.10
   4   2  -6   53.39    7.60
   4   2  -6   70.49    8.70
  -4   2   6   55.99    8.80
  -2  -2   6  215.78   12.50
  -2  -2   6  204.38   13.20
  -2  -2   6  204.08   11.10
   2  -2  -6  206.98   12.10
   2  -2  -6  199.48   10.40
   2  -2  -6  228.58   14.80
  -2  -2   6  205.78   11.10
   2   2  -6  231.38   12.80
  -2   2   6  201.18   13.40
   2   2  -6  207.48   10.60
  -2   2   6  218.88   14.30
  -2   2   6  219.98   13.30
   2   2  -6  202.48   13.40
   2   2  -6  203.48   12.50
  -2   2   6  206.78   10.90
  -2   2   6  203.18   10.30
   0  -2   6  375.06   13.20
   0  -2  -6  331.17   15.60
   0  -2  -6  359.56   13.50
   0  -2   6  340.77   17.90
   0  -2   6  359.36   15.40
   0  -2  -6  386.16   18.00
   0  -2  -6  367.56   19.70
   0  -2   6  353.46   18.20
   0   2  -6  332.57   17.20
   0   2  -6  364.26   15.20
   0   2  -6  361.86   19.20
   0   2   6  341.77   19.20
   0   2  -6  334.57   19.70
   0   2   6  353.76   18.60
   0   2   6  350.46   15.40
   0   2   6  392.76   19.10
  -2  -2  -6    5.80    2.20
   2  -2   6    6.40    4.80
  -2  -2  -6    7.00    4.00
   2  -2   6   13.80    3.70
  -2  -2  -6   12.50    5.80
   2  -2   6    1.10    3.20
  -2   2  -6    6.90    3.80
   2   2   6   11.60    5.00
   2   2   6   13.10    5.00
  -2   2  -6   13.80    5.40
   2   2   6    4.40    4.10
  -4  -2  -6    2.30    3.70
   4  -2   6   -0.10    3.90
   4  -2   6   12.00    4.30
  -4  -2  -6   -0.10    2.00
   4   2   6    4.70    4.00
   4   2   6   -2.10    3.50
  -4   2  -6   -1.50    4.20
  -4   2  -6   -1.00    2.50
  -6  -2  -6   81.09    7.10
   6  -2   6   77.49   12.70
  -6  -2  -6   97.69   13.50
  -6  -2  -6   75.59   11.20
  -6  -2  -6   84.39   10.90
   6  -2   6   87.39    9.20
  -6   2  -6   48.50   12.00
   6   2   6   87.89   12.30
   6   2   6   71.79   10.10
  -6   2  -6  100.69   20.90
   6   2   6   71.49    6.50
  -6   2  -6   74.19    9.60
  -8  -2  -6   -1.60    4.10
  -8  -2  -6   -5.30    5.00
  -8  -2  -6    4.30    3.80
   8  -2   6   -0.80    5.30
   8  -2   6   -4.40    2.50
   8  -2   6   -0.10    4.20
  -8  -2  -6   -5.10    4.00
  -8   2  -6   -0.30    4.70
  -8   2  -6   -2.50    5.30
  -8   2  -6    3.30    5.60
   8   2   6   -2.60    4.20
   8   2   6    1.40    4.30
  13  -3  -6    2.40    5.00
  13  -3  -6    1.00    5.20
 -13  -3   6    0.00    5.20
  13  -3  -6    1.50    7.10
 -13  -3   6    1.00    4.20
 -13   3   6   -2.90    4.00
 -13   3   6    4.10    7.00
 -13   3   6    1.60    4.50
  13   3  -6    3.50    6.20
  13   3  -6    2.60    5.30
  11  -3  -6  189.88   15.00
  11  -3  -6  186.28   21.40
 -11  -3   6  189.78   13.50
  11  -3  -6  167.28   14.00
 -11  -3   6  166.58   14.70
 -11   3   6  195.68   13.60
 -11   3   6  210.58   18.80
  11   3  -6  194.88   14.10
 -11   3   6  170.28   12.30
  11   3  -6  178.38   18.40
  -9  -3   6   64.99    7.40
   9  -3  -6   91.19   10.60
   9  -3  -6   80.49   14.20
  -9  -3   6   69.19    9.80
  -9  -3   6   75.99   10.40
   9  -3  -6   81.39   10.50
   9   3  -6   67.49    9.10
  -9   3   6   72.99    9.90
   9   3  -6   85.69   10.10
  -9   3   6   68.39   13.40
  -9   3   6   72.79    8.30
   9   3  -6   55.69    6.20
   9   3  -6   54.29    9.30
  -7  -3   6 1031.30   39.40
   7  -3  -6  966.10   35.20
   7  -3  -6  983.90   42.80
  -7  -3   6  994.40   32.90
  -7  -3   6  999.10   38.70
   7  -3  -6 1008.80   36.90
  -7  -3   6  974.00   34.70
   7  -3  -6  980.20   37.80
   7   3  -6  933.31   32.70
   7   3  -6  910.11   36.10
   7   3  -6 1057.99   38.60
  -7   3   6 1014.40   42.50
   7   3  -6 1008.70   36.70
  -7   3   6  981.30   32.30
  -7   3   6  962.70   38.70
   5  -3  -6  640.44   24.80
  -5  -3   6  591.14   27.20
   5  -3  -6  665.33   27.90
  -5  -3   6  611.84   23.80
   5  -3  -6  589.24   25.60
   5  -3  -6  592.34   29.70
  -5  -3   6  646.44   23.30
   5   3  -6  575.94   24.50
   5   3  -6  643.64   25.20
  -5   3   6  621.24   29.00
  -5   3   6  644.34   27.70
   5   3  -6  597.04   26.80
   5   3  -6  592.94   20.40
  -5   3   6  557.94   22.80
   5   3  -6  601.24   25.10
   3  -3  -6   88.09    6.60
  -3  -3   6  102.29    7.60
  -3  -3   6  102.29   11.40
   3  -3  -6   90.99    7.80
  -3  -3   6   97.29    8.00
  -3  -3   6   98.79    7.60
   3  -3  -6   99.29    8.50
   3   3  -6   92.69    8.20
   3   3  -6   91.29    7.10
  -3   3   6   95.69   10.70
  -3   3   6  102.59   11.80
   3   3  -6   91.59    9.80
   3   3  -6  101.59    9.30
  -1  -3   6  410.46   14.20
   1  -3  -6  376.56   20.50
   1  -3  -6  373.56   18.70
   1  -3  -6  387.46   13.50
  -1  -3   6  391.46   18.00
  -1  -3   6  409.96   19.20
  -1  -3   6  374.86   19.90
  -1  -3   6  379.96   15.90
   1  -3  -6  378.46   17.60
   1   3  -6  392.26   15.40
   1   3  -6  353.36   18.50
  -1   3   6  338.07   19.90
  -1   3   6  402.96   20.50
   1   3  -6  370.26   18.90
   1   3  -6  400.16   20.20
  -1   3   6  413.06   20.60
  -1  -3  -6  734.13   24.50
   1  -3   6  716.23   29.10
  -1  -3  -6  695.23   31.10
   1  -3   6  717.03   30.50
  -1  -3  -6  711.63   29.40
   1  -3   6  721.43   25.20
  -1  -3  -6  715.23   28.70
   1  -3   6  724.93   30.70
   1  -3   6  716.03   25.50
  -1   3  -6  756.12   30.70
   1   3   6  676.13   31.10
   1   3   6  745.73   31.00
  -1   3  -6  747.23   32.10
  -1   3  -6  652.53   29.60
   1   3   6  702.53   30.30
  -3  -3  -6    0.90    2.50
   3  -3   6    5.30    4.30
   3  -3   6    7.00    4.20
  -3  -3  -6   11.30    5.60
   3  -3   6    1.40    3.60
  -3  -3  -6    7.10    4.40
   3  -3   6   -1.20    2.30
   3   3   6   11.90    5.20
  -3   3  -6   -0.40    3.60
   3   3   6    5.20    4.30
   3   3   6   11.00    5.00
  -3   3  -6    4.40    4.80
   5  -3   6   93.39   10.40
  -5  -3  -6   99.19   12.70
  -5  -3  -6  120.89   10.00
   5  -3   6   95.19    8.20
   5  -3   6  105.69   12.10
  -5  -3  -6   82.99   12.00
  -5   3  -6  127.39   14.60
   5   3   6  116.69   12.70
  -5   3  -6  113.59    9.40
  -5   3  -6   98.39   14.40
   5   3   6   98.09   12.40
  -7  -3  -6    2.20    4.80
   7  -3   6    2.80    4.00
   7  -3   6   10.00    5.50
   7  -3   6   -0.10    3.60
   7  -3   6   -0.60    5.90
  -7  -3  -6   -1.90    5.10
   7   3   6    4.50    5.00
  -7   3  -6   -3.70    4.70
  -7   3  -6    1.10    5.30
   7   3   6    5.10    5.10
  -7   3  -6   -2.00    3.50
   9  -3   6   52.89    8.70
   9  -3   6   50.29    9.60
  -9  -3  -6   84.89   12.90
  -9  -3  -6   55.49   11.60
   9  -3   6   63.79   15.00
  -9   3  -6   22.70   11.20
  -9   3  -6   55.99   12.10
  -9   3  -6   50.79    9.10
   9   3   6   38.90    8.10
 -12  -4   6   21.20    7.70
  12  -4  -6   30.60    8.60
  12  -4  -6   23.70   11.40
  12  -4  -6   17.40    6.80
 -12  -4   6   12.90    6.40
 -12   4   6   17.60    7.50
  12   4  -6   21.60    5.90
 -12   4   6   26.20    6.40
  10  -4  -6   12.40    7.70
 -10  -4   6   30.90    7.70
  10  -4  -6   20.70    6.70
  10  -4  -6   23.00    7.30
 -10  -4   6   30.10    7.40
 -10   4   6   18.10    4.50
 -10   4   6   19.10    6.60
  10   4  -6   12.60    6.30
  10   4  -6   23.80    5.20
 -10   4   6   33.00   10.20
   8  -4  -6 1458.35   52.39
  -8  -4   6 1423.86   53.59
   8  -4  -6 1369.36   58.29
  -8  -4   6 1383.46   44.80
   8  -4  -6 1437.06   51.79
  -8  -4   6 1460.85   53.99
  -8   4   6 1373.16   44.80
   8   4  -6 1503.75   53.19
  -8   4   6 1522.85   54.89
   8   4  -6 1514.75   54.89
   8   4  -6 1411.06   48.10
   8   4  -6 1524.95   48.40
  -8   4   6 1479.95   58.59
   8   4  -6 1253.07   50.59
  -6  -4   6    7.70    4.50
   6  -4  -6    4.70    4.30
  -6  -4   6    3.20    2.30
  -6  -4   6    6.40    3.10
   6  -4  -6   -0.70    4.50
   6  -4  -6    9.10    4.30
   6   4  -6    2.80    3.50
   6   4  -6    2.60    2.80
   6   4  -6    9.80    4.50
  -6   4   6    5.80    4.30
   6   4  -6    9.00    3.60
  -6   4   6   -2.10    4.00
   4  -4  -6   31.30    6.40
  -4  -4   6   32.50    7.40
   4  -4  -6   23.40    5.60
  -4  -4   6   14.90    4.20
  -4  -4   6   16.20    4.20
   4  -4  -6   26.50    7.80
   4  -4  -6   14.80    4.70
   4   4  -6   18.30    4.20
  -4   4   6   26.10    7.00
   4   4  -6   18.00    4.30
   4   4  -6   15.50    5.60
   4   4  -6   29.90    5.50
  -4   4   6   18.20    6.30
  -2  -4   6  118.09   10.00
  -2  -4   6  112.99    7.50
   2  -4  -6  130.69   10.80
   2  -4  -6  134.49    9.60
   2  -4  -6  123.29   11.90
  -2  -4   6   98.99   10.30
  -2  -4   6  124.39    7.30
   2  -4  -6  126.39    6.20
  -2  -4   6  128.29   13.60
   2  -4  -6  114.39   13.50
  -2   4   6  130.69   11.70
   2   4  -6  130.59   11.00
   2   4  -6  108.49    7.00
   2   4  -6  131.39   10.50
   2   4  -6  108.79    9.30
  -2   4   6  115.49   13.70
  -2   4   6  138.99   12.00
   0  -4  -6  191.28   14.30
   0  -4   6  181.48   12.60
   0  -4   6  157.78   12.10
   0  -4  -6  190.58   12.80
   0  -4  -6  207.38   13.30
   0  -4   6  192.48    8.70
   0  -4   6  214.48   14.90
   0  -4   6  203.58   10.30
   0   4   6  181.68   13.80
   0   4   6  212.68   14.90
   0   4  -6  174.08   12.90
   0   4  -6  205.88   14.00
   0   4   6  154.98   13.50
   0   4  -6  197.68   14.30
   2  -4   6   12.70    5.40
  -2  -4  -6   12.20    5.40
  -2  -4  -6   22.50    3.40
  -2  -4  -6   27.30    6.60
   2  -4   6   21.10    6.10
   2  -4   6   21.00    5.70
   2  -4   6   21.00    5.00
  -2  -4  -6   20.50    6.20
   2   4   6   10.90    5.20
   2   4   6   21.50    6.40
  -2   4  -6   15.90    6.20
  -2   4  -6   22.20    6.80
   4  -4   6    6.40    4.60
   4  -4   6    1.80    2.00
  -4  -4  -6   -1.20    3.90
   4  -4   6    2.20    4.20
   4  -4   6   -0.80    4.40
  -4  -4  -6    1.60    2.80
  -4  -4  -6   -1.80    4.10
   4  -4   6    3.60    4.10
   4  -4   6   -0.10    2.00
  -4   4  -6   -0.90    4.50
   4   4   6    0.90    4.30
   4   4   6    3.90    4.50
   4   4   6   -4.20    3.50
  -4   4  -6    0.90    4.60
   6  -4   6   41.10    8.50
   6  -4   6   42.30    8.20
   6  -4   6   30.80   11.60
  -6  -4  -6   45.10    9.40
  -6  -4  -6   30.40    8.30
   6  -4   6   41.50    5.20
  -6  -4  -6   36.80    7.40
  -6   4  -6   38.20    6.50
   6   4   6   45.50    9.10
  -6   4  -6   50.79   12.10
  -6   4  -6   54.79   10.90
   6   4   6   38.10    8.50
  -8  -4  -6   -3.20    4.40
   8  -4   6    8.40    6.50
   8  -4   6   -4.60    5.40
  -8  -4  -6    5.60    7.00
  -8   4  -6    1.90    7.60
   8   4   6    0.60    4.90
  -8   4  -6   -3.90    4.90
   9  -5  -6   30.40   10.80
   9  -5  -6   25.70    7.10
  -9  -5   6   21.60    7.00
  -9  -5   6   29.70    8.20
   9  -5  -6   18.90    7.20
  -9   5   6   18.60    6.80
  -9   5   6   31.40    9.70
   9   5  -6   22.40    6.80
   9   5  -6   16.20    6.50
   7  -5  -6  588.94   26.00
  -7  -5   6  550.14   28.50
   7  -5  -6  575.14   31.70
   7  -5  -6  579.54   27.30
  -7  -5   6  554.44   23.90
   7  -5  -6  564.04   20.30
   7   5  -6  542.35   25.20
  -7   5   6  530.75   30.40
   7   5  -6  571.84   28.10
  -7   5   6  552.74   29.20
   5  -5  -6  281.77   19.80
   5  -5  -6  283.97   16.30
   5  -5  -6  248.08   12.70
  -5  -5   6  276.57   15.30
  -5  -5   6  249.97   17.80
   5   5  -6  249.97   13.50
   5   5  -6  252.97   17.10
  -5   5   6  272.57   18.90
   5   5  -6  245.68   13.70
   5   5  -6  277.17   12.60
  -5   5   6  237.78   17.80
   3  -5  -6   40.40    7.60
   3  -5  -6   47.40    6.70
  -3  -5   6   34.60    8.30
   3  -5  -6   48.40    8.10
  -3  -5   6   46.30    7.70
   3  -5  -6   46.70    4.60
  -3  -5   6   45.10    6.10
   3  -5  -6   41.00   10.50
  -3   5   6   44.40    9.10
   3   5  -6   51.79    7.20
   3   5  -6   41.30    6.10
  -3   5   6   49.50    9.70
   3   5  -6   41.70    4.90
  -1  -5   6  162.48   14.20
   1  -5  -6  151.68   13.00
   1  -5  -6  157.78   11.60
  -1  -5   6  146.19    9.70
   1  -5  -6  146.29   12.20
  -1  -5   6  147.89   11.90
   1   5  -6  156.68   11.60
  -1   5   6  164.48   14.10
   1   5  -6  140.89   12.70
   1   5  -6  162.48   12.50
  -1   5   6  148.89   13.80
  -1  -5  -6  420.56   22.10
   1  -5   6  432.26   23.40
  -1  -5  -6  440.86   23.00
   1  -5   6  407.46   19.20
  -1  -5  -6  404.56   22.70
   1  -5   6  447.36   22.80
   1  -5   6  396.06   23.60
  -1   5  -6  431.36   24.00
   1   5   6  411.56   23.30
   1   5   6  519.45   25.80
   1   5   6  461.35   22.90
  -1   5  -6  431.56   24.20
  -3  -5  -6    4.70    5.40
   3  -5   6    5.40    4.20
   3  -5   6    7.20    5.10
  -3  -5  -6   -1.80    4.00
   3  -5   6    0.60    4.10
   3  -5   6   -0.30    4.60
  -3  -5  -6   -0.40    2.10
   3   5   6    1.70    4.20
   3   5   6   -8.20    3.90
  -3   5  -6    2.40    4.50
  -3   5  -6    5.20    5.50
  -5  -5  -6   67.99   11.80
   5  -5   6   90.59   12.70
   5  -5   6   93.99   15.10
   5  -5   6   83.09   11.90
   5  -5   6   62.49    9.90
  -5  -5  -6   79.79    8.60
   5   5   6  102.09   13.60
  -5   5  -6   77.29   13.00
   5   5   6   69.99   10.40
  -5   5  -6   65.09    7.60
  -5   5  -6   82.69   14.30
   8  -6  -6  784.72   40.70
   8  -6  -6  790.92   32.80
   8   6  -6  728.23   35.50
  -8   6   6  659.03   42.10
  -8   6   6  810.02   38.80
   8   6  -6  774.42   31.60
  -6  -6   6    9.40    5.10
   6  -6  -6   -5.30    4.30
   6  -6  -6   -3.20    3.80
  -6  -6   6    3.60    5.40
   6   6  -6    1.90    3.40
   6   6  -6    3.00    5.00
  -6   6   6   -2.30    4.10
  -6   6   6   -3.40    4.10
  -4  -6   6    1.50    3.50
   4  -6  -6   18.00    7.80
   4  -6  -6    5.50    5.30
  -4  -6   6    9.80    4.50
  -4  -6   6   -0.90    4.90
   4   6  -6    0.80    2.50
   4   6  -6    6.90    2.70
   4   6  -6    6.70    2.30
   4   6  -6   -0.50    4.40
  -4   6   6    7.80    5.60
  -4   6   6    5.00    5.40
   2  -6  -6   69.69   11.10
  -2  -6   6   37.20    9.30
  -2  -6   6   52.39    7.50
  -2  -6   6   47.80    8.60
   2  -6  -6   52.39    7.90
   2  -6  -6   56.39    9.90
  -2   6   6   71.99   11.20
  -2   6   6   44.80   10.30
   2   6  -6   61.89    8.10
   2   6  -6   58.89   10.30
   0  -6  -6   62.99   10.20
   0  -6  -6   91.49   11.50
   0  -6   6   85.49   13.10
   0  -6   6   91.59   10.00
   0  -6   6  108.09   13.00
   0  -6  -6   85.59   12.30
   0   6   6   73.49   12.20
   0   6  -6   69.59   11.60
   0   6   6   72.89   10.50
   0   6  -6   80.59   11.10
   2  -6   6   21.30    7.70
   2  -6   6   34.80    9.20
   2  -6   6   18.80    6.00
  -2  -6  -6   31.50    7.60
  -2  -6  -6   20.10    8.20
   2  -6   6   14.10    6.40
  -2   6  -6    6.60    5.90
  -2   6  -6   29.50    8.40
   2   6   6   13.50    5.70
   2   6   6   21.20    7.80
   4  -6   6    4.80    5.30
   4  -6   6    4.50    4.90
   4  -6   6    3.10    5.40
   4  -6   6    2.30    6.70
  -4  -6  -6    7.50    5.80
   4   6   6    5.30    5.10
  -4   6  -6    5.40    7.50
   4   6   6   -9.90    3.50
   5  -7  -6   65.29   20.00
  -5  -7   6  101.79   12.60
   5  -7  -6  115.69   14.90
  -5  -7   6   86.39   14.40
  -5   7   6  112.49   16.40
  -5   7   6   84.59   13.80
   5   7  -6   92.99   13.10
   5   7  -6   93.99   13.30
  -3  -7   6    0.00    6.30
  -3  -7   6   17.40    7.10
   3  -7  -6   11.20    4.80
  -3  -7   6   24.30    6.80
  -3   7   6   17.80    7.90
  -3   7   6   10.30    6.30
   3   7  -6   13.70    6.70
  -1  -7   6   53.59   10.00
  -1  -7   6   38.60    9.30
  -1  -7   6   46.40   13.30
   1  -7  -6   66.79    9.50
   1   7  -6   47.30   10.30
  -1   7   6   43.60    9.20
   1   7  -6   51.49    8.10
   1  -7   6  227.28   15.70
   1  -7   6  222.38   19.70
   1  -7   6  270.27   19.20
  -1  -7  -6  227.88   16.90
  -1  -7  -6  253.57   19.60
  -1   7  -6  255.87   18.40
   1   7   6  213.38   16.00
 -12   0   7  277.97   18.00
  12   0  -7  311.27   22.40
 -12   0   7  288.37   20.60
 -12   0   7  275.67   17.00
  12   0  -7  267.67   19.30
 -10   0   7    5.60    3.20
 -10   0   7   10.60    4.60
  10   0  -7   10.50    6.30
 -10   0   7    2.30    4.50
 -10   0   7    3.10    4.50
  10   0  -7    6.50    4.90
   8   0  -7   -1.40    3.70
   8   0  -7    2.90    4.00
   8   0  -7    0.00    2.30
  -8   0   7   -4.40    2.80
  -8   0   7    1.50    2.90
  -8   0   7   -0.40    2.90
  -6   0   7  112.99   10.70
   6   0  -7  148.39   10.90
  -6   0   7  130.49    9.60
  -6   0   7  128.39    8.80
   6   0  -7  129.49    6.10
   6   0  -7  146.99   12.70
   4   0  -7   14.50    3.70
   4   0  -7   11.00    4.20
  -4   0   7   14.40    5.20
   4   0  -7   24.60    6.30
   4   0  -7   10.60    5.40
  -4   0   7    9.60    4.10
   2   0  -7  543.85   23.60
  -2   0   7  614.24   25.90
   2   0  -7  597.94   27.60
  -2   0   7  583.54   26.30
   2   0  -7  591.84   23.80
   2   0  -7  590.84   22.70
   0   0  -7 4405.66  137.49
   0   0   7 4281.67  135.69
   0   0  -7 4257.77  132.19
   0   0   7 4488.95  135.19
   0   0   7 4164.38  127.29
   2   0   7    0.10    3.60
  -2   0  -7    9.30    5.60
  -2   0  -7   -4.60    1.80
   2   0   7   -2.30    2.10
   2   0   7    1.40    3.80
   2   0   7    2.10    3.20
  -4   0  -7   -6.90    2.30
  -4   0  -7    0.90    3.30
   4   0   7    0.90    3.10
   4   0   7    4.40    4.40
  -4   0  -7   -4.50    4.30
   4   0   7    4.80    5.40
  -6   0  -7   19.00    6.00
   6   0   7   22.60    4.90
  -6   0  -7   13.20    7.90
   6   0   7   35.50    9.40
  -6   0  -7    9.10    5.30
   8   0   7  393.46   26.70
  -8   0  -7  408.06   23.20
  -8   0  -7  378.06   23.60
 -13  -1   7  173.08   15.40
  13  -1  -7  206.98   17.50
 -13  -1   7  252.17   18.60
  13   1  -7  178.98   19.80
 -13   1   7  223.48   16.20
 -13   1   7  209.08   15.00
 -13   1   7  198.28   18.60
  11  -1  -7  161.28   16.90
 -11  -1   7  182.78   13.80
 -11  -1   7  176.08   13.30
  11  -1  -7  171.38   19.90
 -11   1   7  115.79   15.50
  11   1  -7  159.88   17.40
  11   1  -7  157.38   16.80
 -11   1   7  149.49   12.00
  -9  -1   7    7.60    4.80
   9  -1  -7    4.40    3.50
   9  -1  -7   -0.70    4.00
  -9  -1   7    4.90    4.10
   9  -1  -7    5.20    5.90
  -9  -1   7    3.10    3.60
   9   1  -7    7.00    3.30
  -9   1   7    4.00    4.40
   9   1  -7    8.10    5.40
  -9   1   7    3.40    3.40
  -9   1   7    7.20    3.60
   9   1  -7   13.20    5.50
   9   1  -7    0.70    4.00
  -7  -1   7   32.60    6.00
   7  -1  -7   24.60    4.20
  -7  -1   7   30.40    3.20
   7  -1  -7   38.70    7.10
   7  -1  -7   30.20    8.20
  -7  -1   7   30.60    6.90
  -7  -1   7   27.50    5.10
  -7  -1   7   28.10    6.40
   7  -1  -7   30.70    6.30
   7   1  -7   31.40    3.30
   7   1  -7   35.60    5.50
  -7   1   7   22.40    5.50
   7   1  -7   45.50    9.70
   7   1  -7   23.40    6.20
  -7   1   7   32.30    7.60
   7   1  -7   32.50    7.60
   5  -1  -7   25.30    7.30
  -5  -1   7   15.80    5.60
   5  -1  -7   13.50    4.50
  -5  -1   7   20.40    3.40
   5  -1  -7   18.90    3.20
   5  -1  -7   13.20    3.50
  -5  -1   7   21.00    5.00
  -5  -1   7   14.40    4.80
  -5   1   7   12.60    2.90
   5   1  -7   16.60    5.90
   5   1  -7   11.90    4.40
  -5   1   7   26.00    6.60
  -5   1   7   10.40    4.60
   3  -1  -7    4.40    2.20
   3  -1  -7    1.90    1.90
   3  -1  -7    5.40    3.50
   3  -1  -7   -1.70    3.60
  -3  -1   7    4.50    4.00
  -3  -1   7    4.60    3.50
  -3  -1   7    1.50    3.20
   3   1  -7    2.80    4.30
  -3   1   7    5.50    3.70
  -3   1   7   -0.10    3.40
   3   1  -7    0.40    3.00
   3   1  -7    1.50    3.00
   3   1  -7    1.90    2.90
   1  -1  -7   32.40    7.80
  -1  -1   7   23.80    6.10
   1  -1  -7   30.20    4.90
  -1  -1   7   36.70    7.10
   1  -1  -7   30.50    4.50
   1  -1  -7   37.40    6.40
  -1  -1   7   37.50    6.90
   1   1  -7   36.70    5.70
  -1   1   7   32.10    4.10
   1   1  -7   38.50    7.80
  -1   1   7   33.40    7.00
  -1   1   7   37.60    7.00
   1   1  -7   40.20    6.40
   1   1  -7   33.70    8.00
  -1  -1  -7  779.62   28.60
   1  -1   7  835.72   34.40
  -1  -1  -7  767.82   34.80
   1  -1   7  835.12   32.50
   1  -1   7  779.92   27.00
   1  -1   7  845.72   34.00
  -1   1  -7  828.82   35.60
   1   1   7  779.72   33.00
   1   1   7  768.62   28.30
  -1   1  -7  782.02   31.20
   1   1   7  820.52   34.40
  -3  -1  -7  482.75   25.90
   3  -1   7  445.26   23.70
  -3  -1  -7  469.15   20.10
   3  -1   7  490.95   22.20
   3  -1   7  438.26   24.90
  -3   1  -7  496.35   27.10
   3   1   7  490.25   25.30
   3   1   7  491.15   24.00
  -3   1  -7  459.35   22.20
  -5  -1  -7   28.50    5.90
  -5  -1  -7   26.70    8.30
   5  -1   7   17.60    7.30
  -5  -1  -7   27.80    7.30
   5  -1   7   19.10    5.20
   5   1   7   31.40    8.70
   5   1   7   19.90    4.80
   5   1   7   20.70    6.00
  -5   1  -7   24.50    7.00
  -5   1  -7   22.50    8.50
  -5   1  -7   16.60    5.80
   7  -1   7   55.39   11.30
  -7  -1  -7   55.99    8.90
  -7  -1  -7   44.10    9.90
  -7  -1  -7   69.49   12.90
   7  -1   7   72.69    7.90
   7   1   7   41.40    5.80
   7   1   7   55.89    9.70
   7   1   7   70.59   12.60
  -7   1  -7   66.59   10.90
  -7   1  -7   33.90    7.90
  -7   1  -7   44.70   11.60
  -9  -1  -7   14.30    9.20
  -9  -1  -7   29.90    9.60
   9  -1   7   19.60    9.10
  -9  -1  -7   23.30    7.30
  -9   1  -7   29.20   11.60
  -9   1  -7   20.70    7.60
  -9   1  -7   28.80    8.80
  12  -2  -7  245.38   18.20
 -12  -2   7  245.48   17.80
  12  -2  -7  231.68   21.30
 -12  -2   7  254.17   16.20
 -12   2   7  231.48   17.30
  12   2  -7  238.18   18.40
 -12   2   7  234.58   20.30
 -12   2   7  232.28   14.30
  12   2  -7  235.38   18.40
  10  -2  -7   -0.50    3.10
  10  -2  -7   17.00    7.70
 -10  -2   7   10.60    4.80
 -10  -2   7   13.80    5.30
 -10  -2   7    4.10    4.60
  10  -2  -7    2.50    4.40
 -10   2   7    6.30    4.20
 -10   2   7    4.70    5.70
  10   2  -7    2.10    4.80
 -10   2   7    6.20    3.70
  10   2  -7    2.30    4.40
  -8  -2   7   -0.40    3.60
  -8  -2   7   -2.10    2.70
   8  -2  -7   -1.70    3.50
   8  -2  -7    2.50    5.10
  -8  -2   7   -0.60    3.10
   8  -2  -7   -0.60    2.80
   8   2  -7    0.90    3.50
   8   2  -7    3.50    3.90
  -8   2   7    6.10    4.10
  -8   2   7    0.60    2.30
   8   2  -7    1.00    4.20
  -8   2   7   -1.90    3.50
   8   2  -7    1.50    2.10
   8   2  -7    1.40    3.00
   6  -2  -7  110.99   11.90
   6  -2  -7  113.59   14.00
   6  -2  -7   94.99    7.40
  -6  -2   7  103.99    9.20
  -6  -2   7  110.79   12.30
  -6  -2   7  111.29    6.70
   6   2  -7  108.39   10.00
  -6   2   7  108.29    6.80
  -6   2   7  108.89    9.80
   6   2  -7  107.59   11.20
   6   2  -7  133.79   11.20
  -6   2   7  121.59   13.90
  -4  -2   7    4.70    4.10
   4  -2  -7    3.50    2.60
  -4  -2   7    7.70    2.70
   4  -2  -7    8.80    5.40
   4  -2  -7    3.60    3.00
  -4  -2   7   -0.70    3.30
   4  -2  -7    3.80    1.90
   4  -2  -7    0.40    3.30
  -4   2   7    8.50    4.30
   4   2  -7    7.00    3.90
  -4   2   7    4.00    2.70
   4   2  -7   10.20    4.20
   4   2  -7    5.50    4.60
  -4   2   7    9.10    5.00
   4   2  -7    6.90    4.10
   2  -2  -7  496.65   22.30
   2  -2  -7  460.15   19.20
   2  -2  -7  500.55   19.20
   2  -2  -7  490.35   17.20
  -2  -2   7  472.65   20.60
  -2  -2   7  488.65   22.90
   2  -2  -7  534.55   25.90
  -2  -2   7  482.35   23.70
   2   2  -7  517.05   21.00
   2   2  -7  509.35   23.00
   2   2  -7  492.75   25.40
   2   2  -7  511.75   24.40
  -2   2   7  466.25   20.50
  -2   2   7  497.85   23.80
  -2   2   7  471.15   24.10
   0  -2   7 3550.44  111.99
   0  -2   7 3382.96  106.89
   0  -2   7 3504.75  102.79
   0  -2   7 3362.86  110.99
   0  -2  -7 3432.46  104.39
   0  -2  -7 3555.54  113.89
   0   2   7 3807.92  113.49
   0   2   7 3230.58  106.09
   0   2   7 3514.95  112.39
   0   2  -7 3499.25  113.39
   0   2  -7 3544.85  110.49
  -2  -2  -7   -2.10    3.80
   2  -2   7    6.00    4.00
  -2  -2  -7    2.80    2.20
   2  -2   7    0.50    4.00
  -2  -2  -7    6.10    4.30
   2   2   7   -1.10    4.50
   2   2   7   -4.40    3.50
  -2   2  -7   -1.60    2.90
  -2   2  -7    1.10    4.20
  -4  -2  -7    2.80    4.10
  -4  -2  -7   -4.20    3.60
  -4  -2  -7   -0.50    2.20
   4  -2   7    0.50    3.60
   4  -2   7    3.70    5.10
   4   2   7   -1.50    4.00
  -4   2  -7    6.50    4.90
   4   2   7    2.30    3.90
  -6  -2  -7    5.90    5.90
  -6  -2  -7   10.20    5.30
  -6  -2  -7   12.70    5.40
  -6  -2  -7   23.20    7.50
   6  -2   7   18.50    5.50
   6  -2   7   42.80   10.70
   6   2   7   20.90    6.70
   6   2   7   15.10    6.60
  -6   2  -7   24.00    9.00
  -6   2  -7    6.70    6.30
   6   2   7   11.80    4.40
  -8  -2  -7  348.67   22.10
  -8  -2  -7  301.67   16.80
  -8  -2  -7  323.37   24.90
   8  -2   7  339.07   27.00
   8   2   7  343.27   21.10
  -8   2  -7  291.97   21.90
  -8   2  -7  330.27   26.70
  -8   2  -7  318.87   20.30
 -11  -3   7  110.69   13.90
  11  -3  -7  103.69   16.40
  11  -3  -7   93.89   11.70
  11  -3  -7   92.29   12.40
 -11   3   7   92.69   11.50
 -11   3   7   93.79    9.90
  11   3  -7  104.89   14.30
 -11   3   7  111.89   16.50
  11   3  -7  101.19   12.30
   9  -3  -7   -2.80    3.10
  -9  -3   7    4.50    5.00
   9  -3  -7   -0.90    5.40
  -9  -3   7   -1.10    3.50
   9  -3  -7   -1.80    3.60
  -9  -3   7    1.40    3.40
  -9   3   7   -3.90    3.30
   9   3  -7    2.60    4.40
   9   3  -7   -1.40    3.70
  -9   3   7    2.60    2.70
  -9   3   7    1.80    5.20
   9   3  -7   -3.30    3.90
  -7  -3   7    4.90    4.40
   7  -3  -7    8.70    4.00
  -7  -3   7    7.40    2.90
   7  -3  -7    4.30    5.80
  -7  -3   7    7.10    5.10
   7  -3  -7   17.10    5.60
  -7   3   7    5.50    2.80
  -7   3   7   11.70    6.40
   7   3  -7    3.20    3.90
  -7   3   7   10.30    5.30
   7   3  -7   12.00    4.90
   7   3  -7   10.40    4.70
   7   3  -7   10.30    2.40
  -5  -3   7   23.60    4.40
   5  -3  -7   23.90    7.70
  -5  -3   7   21.10    6.30
   5  -3  -7   20.70    5.60
  -5  -3   7   18.10    4.90
   5  -3  -7   16.30    4.60
   5   3  -7   17.90    5.00
   5   3  -7   22.60    5.20
   5   3  -7   16.90    5.60
  -5   3   7   17.10    6.60
  -5   3   7   28.40    6.70
   5   3  -7   15.20    5.80
   3  -3  -7    4.60    3.30
  -3  -3   7    6.90    3.20
   3  -3  -7   10.00    6.10
   3  -3  -7   10.20    4.40
  -3  -3   7    1.20    3.80
   3  -3  -7    8.00    3.00
  -3  -3   7    7.70    4.00
  -3   3   7    4.60    4.10
   3   3  -7    9.90    4.50
   3   3  -7   19.10    5.70
   3   3  -7   12.90    4.50
   3   3  -7   10.20    4.70
  -3   3   7   10.80    5.70
  -1  -3   7    7.10    3.20
   1  -3  -7   14.50    5.40
   1  -3  -7    6.50    2.20
   1  -3  -7    5.90    1.80
  -1  -3   7    6.10    4.40
  -1  -3   7    9.60    2.00
   1  -3  -7    8.20    3.90
   1  -3  -7    3.20    4.90
  -1  -3   7    7.10    3.80
  -1  -3   7   18.70    5.50
   1   3  -7    8.20    4.90
  -1   3   7   10.80    5.50
   1   3  -7    5.70    4.60
   1   3  -7    7.50    4.50
   1   3  -7    8.60    3.30
  -1   3   7    8.70    4.90
   1  -3   7  583.44   26.30
   1  -3   7  609.44   22.00
  -1  -3  -7  600.34   21.70
   1  -3   7  559.74   27.40
   1  -3   7  600.24   31.60
   1  -3   7  585.24   22.80
  -1  -3  -7  622.24   29.50
  -1  -3  -7  610.74   27.30
   1   3   7  574.44   28.10
  -1   3  -7  591.74   27.50
   1   3   7  627.64   29.10
  -1   3  -7  637.94   30.20
   3  -3   7  319.47   18.60
   3  -3   7  325.97   20.60
  -3  -3  -7  312.97   20.60
  -3  -3  -7  327.37   21.40
   3  -3   7  305.37   18.20
   3  -3   7  308.47   14.70
  -3  -3  -7  301.27   19.10
   3   3   7  311.77   19.40
  -3   3  -7  347.27   23.90
   3   3   7  320.77   20.10
  -3   3  -7  351.26   22.80
  -5  -3  -7    3.10    5.00
   5  -3   7   22.40    6.60
   5  -3   7   21.10    7.80
  -5  -3  -7   14.80    5.40
  -5  -3  -7    7.10    5.20
   5  -3   7   15.40    5.80
   5   3   7   16.20    6.20
  -5   3  -7   15.10    5.20
  -5   3  -7    7.90    6.30
  -5   3  -7   13.40    6.70
   5   3   7   24.00    7.90
   7  -3   7   27.80   10.80
  -7  -3  -7   54.99   11.50
  -7  -3  -7   57.89   10.00
   7  -3   7   55.69   10.10
   7  -3   7   48.50    8.10
  -7  -3  -7   32.70    9.30
  -7   3  -7   29.50    9.00
   7   3   7   44.80   10.50
   7   3   7   36.40    8.50
  -7   3  -7   45.90   11.90
  -7   3  -7   28.40    7.50
 -10  -4   7   -6.50    3.20
  10  -4  -7    2.90    6.40
  10  -4  -7   -4.00    3.50
  10  -4  -7   -2.20    4.30
 -10  -4   7    1.50    4.60
 -10   4   7    3.60    3.40
  10   4  -7   -7.10    3.80
 -10   4   7    2.40    5.20
 -10   4   7    5.60    6.30
  10   4  -7    9.00    4.80
   8  -4  -7   -1.20    3.70
  -8  -4   7   -2.50    3.80
  -8  -4   7    0.10    2.90
  -8  -4   7    3.80    2.90
   8  -4  -7   -0.50    3.50
  -8  -4   7   -4.90    3.00
   8   4  -7   -1.30    3.50
  -8   4   7   -0.70    3.80
   8   4  -7    4.10    4.80
  -8   4   7    7.50    6.40
   8   4  -7    1.60    3.60
   8   4  -7   -1.40    4.40
   6  -4  -7   77.39   10.00
   6  -4  -7   79.99   12.70
   6  -4  -7   85.39   10.30
  -6  -4   7   74.59    8.20
  -6  -4   7   78.79   12.90
   6   4  -7   68.39    8.80
   6   4  -7   66.09    8.40
   6   4  -7   75.59   10.80
   6   4  -7   75.19    9.20
  -6   4   7   88.59   13.00
   4  -4  -7   -0.70    3.30
   4  -4  -7    2.90    2.60
   4  -4  -7    4.80    4.20
  -4  -4   7    2.20    4.70
  -4  -4   7    1.40    3.20
   4  -4  -7   -3.10    4.60
  -4  -4   7    2.00    2.90
  -4   4   7    1.50    4.30
   4   4  -7    4.90    3.20
   4   4  -7   -2.20    3.20
   4   4  -7    2.00    4.30
   2  -4  -7  268.87   16.60
  -2  -4   7  291.77   16.10
   2  -4  -7  299.17   16.10
   2  -4  -7  292.57   16.20
   2  -4  -7  281.17   19.10
  -2  -4   7  266.17   15.70
  -2  -4   7  280.77   11.40
   2  -4  -7  258.37   11.10
  -2  -4   7  279.47   18.30
   2   4  -7  273.67   16.20
  -2   4   7  312.17   19.30
   2   4  -7  300.57   17.80
   2   4  -7  288.87   12.90
   2   4  -7  272.07   17.40
  -2   4   7  295.97   18.80
   0  -4   7 2113.39   64.99
   0  -4   7 2124.09   71.89
   0  -4  -7 2163.68   71.39
   0  -4   7 2073.79   73.59
   0  -4   7 2010.10   64.49
   0  -4  -7 2128.49   70.89
   0  -4   7 2166.28   71.49
   0   4  -7 2029.00   73.79
   0   4  -7 1920.91   77.39
  -2  -4  -7   -0.10    2.00
   2  -4   7    3.90    3.20
   2  -4   7    2.70    3.90
  -2  -4  -7   -3.70    4.50
   2  -4   7    3.60    4.30
   2  -4   7    2.10    2.60
  -2  -4  -7    2.70    4.50
   2   4   7   -3.10    3.70
   2   4   7    2.90    4.90
  -2   4  -7   -2.20    3.70
  -2   4  -7   -1.20    4.30
   4  -4   7   -1.40    3.10
  -4  -4  -7    3.30    3.20
   4  -4   7    6.80    5.10
   4  -4   7   -1.80    3.50
  -4  -4  -7    4.10    4.90
   4   4   7    4.60    5.20
  -4   4  -7    4.70    5.40
   4   4   7   -0.30    4.70
  -4   4  -7   -2.50    5.60
   6  -4   7   17.60    7.20
  -6  -4  -7    7.50    7.10
  -6  -4  -7   15.20    7.50
   6  -4   7    7.20    5.40
   6  -4   7    5.10    6.90
  -6  -4  -7   22.10    6.20
  -6   4  -7    7.70    4.80
  -6   4  -7   14.70    9.30
   6   4   7    5.60    6.20
  -6   4  -7   19.30    7.60
   6   4   7   16.70    7.10
   9  -5  -7    3.10    6.70
  -9  -5   7   -4.40    4.10
   9  -5  -7    0.10    4.40
   9  -5  -7    0.60    5.40
   9   5  -7    1.70    4.80
  -9   5   7    6.30    5.60
   9   5  -7   -3.60    4.60
  -9   5   7    5.80    7.20
   9   5  -7   -0.60    1.80
  -7  -5   7   -2.10    3.10
   7  -5  -7   -3.30    4.10
   7  -5  -7    0.40    4.50
  -7  -5   7   -3.10    4.90
   7  -5  -7    1.30    6.10
   7   5  -7   -3.00    2.40
   7   5  -7   -4.90    4.40
   7   5  -7   -0.90    2.50
   7   5  -7   -1.30    3.50
  -7   5   7    7.10    6.30
  -7   5   7   -1.00    4.50
   5  -5  -7   23.00    5.20
  -5  -5   7   11.90    4.60
   5  -5  -7   20.30    7.10
   5  -5  -7    8.10    6.70
   5  -5  -7   23.40    6.80
  -5  -5   7   23.20    7.60
   5   5  -7   14.20    4.60
  -5   5   7   19.30    7.30
   5   5  -7   14.80    4.30
   5   5  -7   14.50    6.40
  -5   5   7   16.10    6.70
   5   5  -7   18.40    4.90
   3  -5  -7   32.40    9.10
  -3  -5   7   19.00    5.90
   3  -5  -7   13.50    2.70
  -3  -5   7   17.60    6.80
   3  -5  -7   17.30    5.30
  -3  -5   7    9.50    3.50
  -3  -5   7   13.70    4.20
   3   5  -7   38.40    8.70
   3   5  -7   15.30    5.00
   3   5  -7   30.90    6.80
  -3   5   7   25.10    8.00
   3   5  -7   19.00    4.00
  -3   5   7   12.60    5.90
  -1  -5   7    0.80    4.40
   1  -5  -7    5.50    4.50
   1  -5  -7   -3.30    4.40
  -1  -5   7    1.90    3.20
   1  -5  -7    0.80    4.20
  -1  -5   7    0.40    4.00
  -1   5   7    2.70    4.90
   1   5  -7   -2.70    3.60
   1   5  -7    2.20    4.50
  -1   5   7   -3.50    3.80
   1  -5   7  359.76   20.60
  -1  -5  -7  334.37   20.50
   1  -5   7  345.17   16.50
  -1  -5  -7  369.86   20.80
  -1  -5  -7  320.67   21.00
   1  -5   7  338.07   21.90
   1   5   7  347.37   21.10
  -1   5  -7  350.16   22.00
  -1   5  -7  335.27   22.10
   1   5   7  338.97   21.80
  -3  -5  -7  195.28   15.80
  -3  -5  -7  180.38   18.00
   3  -5   7  165.58   16.70
   3  -5   7  182.68   16.00
   3  -5   7  132.19   17.10
   3  -5   7  182.98   12.30
  -3  -5  -7  172.18    9.10
  -3   5  -7  140.99   17.50
   3   5   7  167.38   14.60
  -3   5  -7  156.68   17.90
   3   5   7  146.89   16.70
   5  -5   7   12.40    6.80
   5  -5   7   12.20    6.30
  -5  -5  -7    9.20    4.60
   5  -5   7   12.30    6.00
   5   5   7    8.50    5.80
   5   5   7   12.50    7.50
  -5   5  -7    3.00    4.20
  -5   5  -7   13.30    6.50
  -5   5  -7    1.10    6.40
  -8  -6   7    2.80    4.20
   8  -6  -7   -6.00    4.20
   8  -6  -7   12.20    9.10
  -8   6   7   -0.80    5.40
  -8   6   7    3.20    6.50
   8   6  -7    2.80    5.40
   8   6  -7    1.00    4.40
  -6  -6   7   45.60    8.30
  -6  -6   7   29.30    8.90
   6  -6  -7   40.30   10.90
   6  -6  -7   40.70    8.80
   6  -6  -7   52.49   10.30
  -6   6   7   38.20   10.00
   6   6  -7   26.50    5.70
  -6   6   7   64.59   12.40
   6   6  -7   36.70    9.10
  -4  -6   7   11.00    7.00
  -4  -6   7   -0.80    4.00
   4  -6  -7    7.10    4.30
   4  -6  -7    3.00    4.90
   4  -6  -7    3.20    6.70
  -4   6   7    0.30    5.10
   4   6  -7    2.20    3.10
  -4   6   7   -4.40    4.30
   4   6  -7    6.50    5.60
   2  -6  -7  157.98   12.40
  -2  -6   7  131.39   14.40
  -2  -6   7  129.49   16.70
   2  -6  -7  161.18   17.50
   2  -6  -7  127.69   14.80
  -2  -6   7  151.98   10.50
   2   6  -7  135.59   15.60
  -2   6   7  121.89   16.00
  -2   6   7  146.69   16.40
   2   6  -7  142.89   12.20
   0  -6   7 1081.49   47.90
   0  -6   7 1072.79   39.40
   0  -6  -7 1064.69   45.10
   0  -6  -7 1060.19   45.10
   0  -6  -7 1119.89   44.00
   0  -6   7 1114.99   45.20
   0   6  -7 1091.39   45.50
   0   6  -7 1064.09   46.80
   2  -6   7   -7.90    3.80
  -2  -6  -7    2.30    5.70
   2  -6   7   -1.70    4.10
  -2  -6  -7   -1.40    4.30
   2   6   7   -3.70    4.80
  -2   6  -7   11.50    7.50
   2   6   7    0.60    4.70
  12   0  -8   94.59   15.30
 -12   0   8  112.89   13.10
 -12   0   8  103.99   14.40
  12   0  -8  103.29   14.70
 -12   0   8  108.59   13.10
 -10   0   8   60.49   10.50
  10   0  -8   52.59   11.60
 -10   0   8   67.89    9.30
 -10   0   8   69.29    7.90
 -10   0   8   78.39   10.90
  10   0  -8   47.90    9.50
  -8   0   8   36.80    6.70
   8   0  -8   46.70    9.50
  -8   0   8   71.29   10.90
  -8   0   8   51.89    7.10
   8   0  -8   51.39    4.40
  -6   0   8  134.79   12.00
   6   0  -8  137.59   11.10
  -6   0   8  122.99   10.30
   6   0  -8  115.39   14.10
  -4   0   8  200.58   14.60
   4   0  -8  188.18   15.20
   4   0  -8  215.58   13.30
  -4   0   8  181.28   13.30
   4   0  -8  183.68   12.40
   2   0  -8   -0.40    4.30
  -2   0   8   -2.00    3.50
   2   0  -8    2.90    3.10
   2   0  -8    0.90    3.10
  -2   0   8   -2.00    3.10
   0   0   8   19.00    6.60
   0   0   8   16.00    5.60
   0   0  -8   14.40    4.90
   0   0  -8   28.20    5.40
   0   0   8   19.00    3.20
   0   0  -8    4.60    5.30
   0   0   8   23.10    6.00
   2   0   8    5.00    4.00
   2   0   8   -3.70    3.20
   2   0   8   -4.30    2.50
  -2   0  -8   10.60    4.30
  -2   0  -8   -1.30    4.30
   2   0   8   -1.00    3.80
  -4   0  -8   74.99   12.60
  -4   0  -8   89.19   11.90
   4   0   8   89.39   10.60
   4   0   8   77.19   12.50
  -4   0  -8   82.19   10.40
   4   0   8   82.09   11.70
   6   0   8  400.86   26.00
  -6   0  -8  319.87   19.40
   6   0   8  325.77   17.20
  -6   0  -8  309.37   24.30
  -6   0  -8  322.37   20.90
  -8   0  -8  552.94   35.60
   8   0   8  564.34   34.40
  -8   0  -8  588.64   29.60
  13  -1  -8  119.69   18.00
 -13  -1   8  123.69   22.90
 -13  -1   8  164.48   13.60
  13  -1  -8  114.29   12.30
  13  -1  -8  119.89   15.80
 -13  -1   8  115.39   14.40
 -13   1   8  124.79   17.70
  13   1  -8  130.59   17.80
 -13   1   8  124.39   14.50
  13   1  -8  135.09   18.20
  11  -1  -8   16.60    6.60
  11  -1  -8   10.40    4.50
  11  -1  -8   17.30    7.90
 -11  -1   8   11.70    5.50
 -11  -1   8    1.40    4.60
 -11   1   8    6.50    4.10
  11   1  -8   12.90    7.10
  11   1  -8   11.80    6.10
 -11   1   8    8.00    4.80
 -11   1   8   25.90    9.00
  -9  -1   8    1.90    4.20
   9  -1  -8   -0.90    5.00
   9  -1  -8   -1.20    3.80
  -9  -1   8    3.20    3.50
   9  -1  -8    1.80    2.90
   9   1  -8   -2.70    2.00
  -9   1   8   -1.20    4.40
   9   1  -8   -3.30    2.90
  -9   1   8    2.00    3.00
   9   1  -8    2.00    5.40
  -9   1   8    0.90    3.30
  -7  -1   8  345.07   12.30
   7  -1  -8  299.47   18.20
   7  -1  -8  344.87   14.00
  -7  -1   8  346.17   17.40
  -7  -1   8  372.26   19.80
   7  -1  -8  303.87   21.20
  -7  -1   8  342.47   19.70
  -7   1   8  340.57   20.90
  -7   1   8  320.67   17.80
   7   1  -8  352.16   21.20
   7   1  -8  334.37   18.80
  -7   1   8  322.07   12.40
  -5  -1   8  771.02   27.20
  -5  -1   8  747.53   33.00
   5  -1  -8  762.62   25.40
   5  -1  -8  716.33   27.90
   5  -1  -8  759.42   31.60
  -5  -1   8  769.72   32.80
  -5  -1   8  774.72   31.40
   5  -1  -8  815.92   36.20
  -5   1   8  791.22   34.30
   5   1  -8  726.93   31.50
   5   1  -8  775.82   34.20
   5   1  -8  787.22   31.30
  -5   1   8  791.82   32.40
  -3  -1   8  418.76   20.90
  -3  -1   8  420.46   21.70
  -3  -1   8  356.06   20.50
   3  -1  -8  344.37   17.40
   3  -1  -8  416.96   18.70
   3  -1  -8  372.96   22.60
   3  -1  -8  399.06   19.80
   3   1  -8  414.06   22.70
  -3   1   8  449.36   21.80
  -3   1   8  416.66   22.50
   3   1  -8  391.06   19.10
   3   1  -8  417.96   20.20
  -1  -1   8  383.96   20.60
  -1  -1   8  374.16   20.20
   1  -1  -8  351.06   15.90
  -1  -1   8  407.76   21.50
   1  -1  -8  374.86   21.50
   1  -1  -8  393.06   22.70
   1  -1  -8  393.56   19.40
   1   1  -8  350.46   21.50
   1   1  -8  392.56   19.00
  -1   1   8  347.77   14.60
   1   1  -8  356.56   17.70
  -1   1   8  334.37   19.70
  -1   1   8  387.46   21.40
   1  -1   8   33.20    8.10
  -1  -1  -8   16.20    7.00
   1  -1   8   22.60    6.00
   1  -1   8   25.00    6.70
   1  -1   8   28.70    4.00
   1   1   8   25.00    6.80
   1   1   8   31.70    7.70
  -1   1  -8   18.80    6.90
   1   1   8   14.70    4.00
  -1   1  -8   29.50    6.20
   3  -1   8   44.20    7.90
  -3  -1  -8   27.10    5.40
   3  -1   8   41.00    9.80
  -3  -1  -8   31.90    8.70
   3   1   8   34.20   10.00
  -3   1  -8   32.10    7.00
  -3   1  -8   55.59   11.40
   3   1   8   36.70    6.90
   3   1   8   33.70    8.50
   5  -1   8    6.50    4.30
  -5  -1  -8    3.50    4.00
  -5  -1  -8    6.30    4.80
   5  -1   8    5.20    6.60
  -5  -1  -8    1.90    5.40
  -5   1  -8   -1.30    4.40
   5   1   8   -3.60    3.30
   5   1   8    5.10    4.90
  -5   1  -8   -0.70    6.70
  -5   1  -8   -2.60    5.30
   5   1   8   -0.80    4.80
  -7  -1  -8   75.49   12.40
   7  -1   8   59.59    8.10
  -7  -1  -8   78.69   10.70
   7  -1   8   50.39   12.30
  -7  -1  -8   78.39   15.00
   7   1   8   81.69   15.30
  -7   1  -8   61.19   10.70
  -7   1  -8   59.79   13.20
  -7   1  -8   75.49   12.20
   7   1   8   61.59   10.60
  12  -2  -8   76.99   10.20
 -12  -2   8   94.59   12.00
 -12  -2   8   73.59   11.40
  12  -2  -8   95.79   18.70
  12  -2  -8   91.59   13.50
  12   2  -8  105.69   15.20
  12   2  -8   73.29   12.80
 -12   2   8   71.79    9.70
 -12   2   8   77.89   11.40
 -12   2   8  110.29   17.20
 -10  -2   8   56.99    9.60
 -10  -2   8   69.49   10.70
  10  -2  -8   62.19   12.90
  10  -2  -8   52.49    9.90
  10  -2  -8   55.69    8.10
 -10  -2   8   50.29    9.30
  10   2  -8   63.29   10.90
  10   2  -8   53.09    9.90
 -10   2   8   49.99    7.00
 -10   2   8   55.79    8.80
 -10   2   8   62.59   11.90
  -8  -2   8   49.00    9.10
   8  -2  -8   41.80    8.40
  -8  -2   8   46.90    8.20
   8  -2  -8   51.29    6.70
   8  -2  -8   41.50   10.40
   8   2  -8   48.60    9.70
  -8   2   8   49.60    3.80
  -8   2   8   38.80    9.20
  -8   2   8   48.20    6.30
  -8   2   8   30.40    6.90
   8   2  -8   55.39   10.70
   6  -2  -8   97.69    6.80
   6  -2  -8   88.49    7.20
   6  -2  -8  100.19   11.60
  -6  -2   8  101.09   11.20
  -6  -2   8   99.29   12.40
  -6  -2   8   95.69    6.70
   6  -2  -8  104.29   14.80
   6   2  -8   93.59   11.60
  -6   2   8  118.39   14.70
   6   2  -8   94.09   11.90
  -6   2   8   72.79   10.20
   6   2  -8  109.29   11.40
   6   2  -8   88.09   12.90
  -6   2   8   97.39    7.00
  -4  -2   8  194.18   11.20
   4  -2  -8  185.68    8.90
   4  -2  -8  190.18   16.40
  -4  -2   8  205.98   14.90
   4  -2  -8  193.68   10.20
  -4  -2   8  185.18   13.50
   4  -2  -8  185.68   13.00
  -4   2   8  170.18   13.70
   4   2  -8  174.48   11.70
   4   2  -8  200.18   13.90
   4   2  -8  176.78   13.90
  -4   2   8  194.38   15.10
   4   2  -8  190.98   14.50
  -2  -2   8    7.80    5.10
   2  -2  -8   -2.60    2.00
  -2  -2   8   -1.60    3.50
   2  -2  -8   -0.50    1.70
  -2  -2   8   -2.30    2.10
   2  -2  -8   -1.20    4.80
   2  -2  -8   -1.90    3.30
   2  -2  -8    2.20    2.90
  -2   2   8    2.90    4.30
   2   2  -8   -3.20    2.40
   2   2  -8    5.10    4.80
  -2   2   8    3.20    2.50
  -2   2   8   -1.90    4.00
   2   2  -8    1.60    3.80
   0  -2   8   12.60    2.50
   0  -2   8    7.70    5.50
   0  -2  -8   11.40    6.60
   0  -2   8    7.90    5.00
   0  -2  -8    8.90    3.00
   0   2   8   10.80    5.50
   0   2   8   13.10    6.00
   0   2  -8    6.20    5.20
   0   2  -8   13.50    5.10
   2  -2   8    4.40    5.50
  -2  -2  -8    4.60    4.40
  -2  -2  -8    7.20    6.40
  -2  -2  -8    1.70    2.30
   2  -2   8   -4.70    2.80
  -2   2  -8   -0.10    3.40
   2   2   8   -3.10    4.10
   2   2   8   -0.90    4.30
   4  -2   8   73.69   14.00
  -4  -2  -8   69.89    7.30
   4  -2   8   73.09    9.90
  -4  -2  -8   56.69   11.10
  -4  -2  -8   71.59   11.10
  -4   2  -8   56.99    9.80
   4   2   8   77.39   12.00
   4   2   8   55.19   10.50
  -4   2  -8   72.59   13.50
   6  -2   8  299.37   22.90
  -6  -2  -8  234.98   19.20
  -6  -2  -8  282.07   18.50
  -6  -2  -8  292.47   15.10
   6  -2   8  278.77   17.00
  -6   2  -8  308.87   24.70
   6   2   8  301.37   22.50
   6   2   8  323.87   20.50
   6   2   8  267.47   15.80
  -6   2  -8  266.97   19.80
 -11  -3   8    1.90    4.70
 -11  -3   8    8.80    5.70
  11  -3  -8    9.60    6.00
  11  -3  -8   14.70    5.90
  11  -3  -8    8.80    8.00
  11   3  -8    5.00    5.30
 -11   3   8   15.10    4.70
  11   3  -8   10.80    6.50
 -11   3   8    3.00    5.20
 -11   3   8    5.90    6.50
  -9  -3   8   -4.70    3.00
  -9  -3   8    4.10    5.00
   9  -3  -8    0.00    5.90
   9  -3  -8   -3.50    3.20
  -9  -3   8   -1.80    3.60
   9  -3  -8    2.20    4.80
   9   3  -8    1.50    4.40
  -9   3   8    2.90    5.10
  -9   3   8    0.80    2.50
   9   3  -8    2.70    4.70
   7  -3  -8  208.88   13.10
   7  -3  -8  227.08   19.00
  -7  -3   8  260.67   17.60
   7  -3  -8  227.28   15.60
  -7  -3   8  225.78   11.30
  -7  -3   8  220.08   14.00
   7   3  -8  225.78   15.10
   7   3  -8  217.98   16.40
  -7   3   8  244.18   18.50
   7   3  -8  231.88   17.80
   7   3  -8  245.48   16.30
  -7   3   8  260.57   16.90
   5  -3  -8  570.24   26.40
  -5  -3   8  528.65   30.70
  -5  -3   8  525.25   22.60
   5  -3  -8  566.14   30.90
   5  -3  -8  588.64   23.70
  -5  -3   8  560.94   25.30
   5   3  -8  554.94   26.30
  -5   3   8  559.34   29.20
  -5   3   8  566.94   27.60
   5   3  -8  581.44   24.70
   5   3  -8  590.74   27.40
  -3  -3   8  233.98   16.60
   3  -3  -8  237.18   11.70
  -3  -3   8  246.28   14.00
   3  -3  -8  226.38   15.30
  -3  -3   8  207.78   14.50
   3  -3  -8  242.28   13.30
   3  -3  -8  233.38   13.90
   3  -3  -8  227.48   17.70
  -3   3   8  198.48   15.50
   3   3  -8  227.88   12.90
   3   3  -8  215.78   16.90
  -3   3   8  266.77   18.10
   3   3  -8  219.18   16.10
   3   3  -8  229.58   15.80
   1  -3  -8  305.27   16.00
   1  -3  -8  286.47   11.90
   1  -3  -8  291.67   12.50
   1  -3  -8  295.77   20.30
  -1  -3   8  337.77   19.90
  -1  -3   8  258.57   16.10
  -1  -3   8  315.57   18.70
   1  -3  -8  322.07   10.70
   1   3  -8  274.27   17.80
   1   3  -8  295.77   14.60
  -1   3   8  305.37   19.70
   1   3  -8  322.97   20.30
  -1   3   8  313.37   21.70
  -1  -3  -8   13.50    3.50
   1  -3   8    8.40    2.70
   1  -3   8   11.70    6.00
  -1  -3  -8   17.60    7.10
  -1  -3  -8   13.80    5.70
   1  -3   8   10.70    5.90
   1  -3   8   14.90    6.30
  -1   3  -8   16.20    6.90
   1   3   8    9.40    5.60
   1   3   8   13.30    6.20
  -1   3  -8    2.50    4.30
   3  -3   8   24.80    7.90
  -3  -3  -8   23.40    7.60
   3  -3   8   14.20    6.10
  -3  -3  -8   26.80    5.50
  -3  -3  -8   13.50    6.90
   3  -3   8   39.90    9.40
  -3   3  -8   30.20    8.10
  -3   3  -8   25.40    8.60
   3   3   8   17.40    7.00
   3   3   8   34.30    8.30
   5  -3   8    5.30    6.00
  -5  -3  -8    4.60    4.60
  -5  -3  -8   -3.50    5.40
   5  -3   8   -6.90    3.20
   5  -3   8    3.00    6.50
  -5  -3  -8    4.60    5.40
  -5   3  -8   -0.50    4.60
   5   3   8   10.00    6.70
  -5   3  -8   -2.30    4.40
  -5   3  -8    1.70    6.80
   5   3   8    0.50    5.10
 -10  -4   8   40.30    9.30
  10  -4  -8   25.60    8.10
  10  -4  -8   28.00   11.10
  10  -4  -8   42.90    8.50
  10   4  -8   24.00    6.60
 -10   4   8   55.69   12.90
  10   4  -8   44.70    9.20
 -10   4   8   23.50    7.60
  10   4  -8   23.20    8.60
   8  -4  -8   20.70   10.10
   8  -4  -8   39.60    8.70
  -8  -4   8   29.10    5.00
   8  -4  -8   19.50    8.80
  -8  -4   8   37.60    8.90
   8   4  -8   33.40    8.00
   8   4  -8   22.10    6.10
  -8   4   8   34.00    9.60
   8   4  -8   22.40    7.40
  -8   4   8   31.20    8.50
  -6  -4   8   57.69    7.50
   6  -4  -8   73.99   13.30
   6  -4  -8   66.69    9.90
  -6  -4   8   59.29   10.30
   6  -4  -8   57.89    8.40
  -6  -4   8   40.30    6.60
  -6   4   8   66.19   12.10
  -6   4   8   74.29   11.40
   6   4  -8   46.90    7.70
   6   4  -8   58.59   10.10
  -4  -4   8  140.39   11.20
   4  -4  -8  160.98   12.00
  -4  -4   8  174.78   11.70
   4  -4  -8  189.58   19.90
   4  -4  -8  149.59   12.60
  -4  -4   8  159.18   17.00
   4  -4  -8  142.29    9.50
  -4   4   8  150.08   16.70
   4   4  -8  147.39   12.40
  -4   4   8  133.09   15.00
   4   4  -8  132.39    9.90
   4   4  -8  157.18   13.70
  -2  -4   8    4.70    4.40
  -2  -4   8   -1.20    3.50
  -2  -4   8    1.10    4.80
   2  -4  -8    9.30    6.50
   2  -4  -8    5.10    4.50
  -2   4   8   -1.40    4.50
  -2   4   8   10.70    5.70
   2   4  -8   -2.60    4.20
   2   4  -8    6.20    5.00
   2   4  -8    4.20    4.80
   0  -4   8   -3.90    3.90
   0  -4  -8    2.10    5.30
   0  -4  -8    6.50    4.90
   0  -4   8   -4.90    3.60
   0  -4   8    4.50    2.50
   0  -4  -8   -3.40    3.30
   0   4  -8    9.00    4.90
   0   4   8   16.40    6.90
   0   4   8   -3.50    4.00
   0   4  -8   -4.70    4.20
  -2  -4  -8    1.50    2.30
   2  -4   8    1.60    4.60
   2  -4   8   -4.30    3.50
  -2  -4  -8   -2.50    3.60
   2  -4   8    4.00    4.60
  -2  -4  -8    5.40    6.70
   2  -4   8    1.10    3.00
  -2   4  -8   -0.90    4.90
  -2   4  -8    4.60    5.40
   2   4   8   -5.60    3.80
   2   4   8    0.60    5.50
  -4  -4  -8   36.50    9.70
   4  -4   8   37.80    8.50
   4  -4   8   52.39   10.20
  -4  -4  -8   46.90   10.90
   4  -4   8   47.60    7.80
  -4  -4  -8   49.30    6.90
  -4   4  -8   52.69   12.50
  -4   4  -8   53.29   11.00
   4   4   8   47.20   10.50
   4   4   8   42.30    9.90
   9  -5  -8   -3.40    4.90
  -9  -5   8    0.10    4.60
  -9  -5   8   -1.30    4.00
   9  -5  -8   -0.30    6.70
   9  -5  -8    3.00    5.30
  -9   5   8   -4.00    4.80
   9   5  -8   -2.20    4.40
   9   5  -8   -0.40    3.30
   9   5  -8   -1.60    5.00
  -9   5   8   -1.10    4.60
   7  -5  -8   85.29   11.50
  -7  -5   8  125.39   16.10
  -7  -5   8  132.99   10.20
   7  -5  -8  113.19   13.40
   7  -5  -8  129.59   18.30
  -7   5   8   87.59   14.10
   7   5  -8   99.99   11.40
   7   5  -8  124.99   10.00
   7   5  -8  148.49   16.80
  -7   5   8  124.39   15.60
   5  -5  -8  333.17   17.80
  -5  -5   8  332.87   22.50
   5  -5  -8  342.67   20.10
   5  -5  -8  362.76   24.90
   5  -5  -8  344.17   20.50
  -5   5   8  359.56   23.20
   5   5  -8  348.17   21.90
   5   5  -8  347.07   17.10
   5   5  -8  345.97   18.70
  -5   5   8  375.56   24.10
   3  -5  -8  102.09   12.10
   3  -5  -8   97.39   14.60
  -3  -5   8   96.49   13.80
   3  -5  -8   68.69    9.70
  -3  -5   8   92.89   11.40
  -3   5   8   92.49   13.60
  -3   5   8   90.69   13.20
   3   5  -8   85.59    6.80
   3   5  -8   68.79   10.20
   3   5  -8  102.69   13.50
  -1  -5   8  209.88   15.00
  -1  -5   8  204.08   17.30
  -1  -5   8  189.78   10.10
   1  -5  -8  207.48   15.30
   1  -5  -8  202.78   15.20
  -1  -5   8  194.08   14.80
   1  -5  -8  213.18   18.20
  -1   5   8  242.48   17.90
   1   5  -8  190.48   16.40
  -1   5   8  214.38   17.50
   1   5  -8  206.18   16.60
  -1  -5  -8    8.00    6.00
   1  -5   8    1.60    4.80
   1  -5   8   -3.20    4.40
  -1  -5  -8   -1.70    5.90
   1  -5   8    2.40    3.60
   1   5   8    5.40    5.60
  -1   5  -8    1.50    5.80
  -1   5  -8    5.30    5.50
   1   5   8   -4.90    5.60
   3  -5   8   17.10    8.80
   3  -5   8   21.10    5.60
  -3  -5  -8   29.40   14.80
   3  -5   8    5.40    6.10
   3  -5   8   22.10    8.00
  -3  -5  -8    5.20    5.60
   3   5   8   14.80    7.20
   3   5   8    5.70    7.00
  -3   5  -8   19.90    8.70
  -6  -6   8   14.60    5.70
  -6  -6   8   15.80    7.80
   6  -6  -8   31.10    8.20
   6  -6  -8   37.90    8.90
   6  -6  -8   30.60   11.00
   6   6  -8   28.90    9.10
  -6   6   8   21.80    9.40
  -6   6   8   18.10    8.00
   4  -6  -8   94.09   15.40
   4  -6  -8   91.89   10.80
  -4  -6   8   73.39   10.70
   4  -6  -8   72.79   11.50
  -4   6   8   57.09   13.40
   4   6  -8   88.09   10.10
   4   6  -8   94.29   16.60
   2  -6  -8   18.40    9.00
   2  -6  -8   -0.10    4.50
   2  -6  -8    0.10    4.50
  -2  -6   8    8.00    5.30
   2   6  -8   16.10    8.70
   2   6  -8   -2.00    4.10
   0  -6   8    6.00    4.60
   0  -6   8    1.20    6.20
   0  -6  -8    0.60    6.10
   0  -6  -8   -0.70    4.30
   0   6   8   -8.30    5.30
   0   6  -8   -1.70    5.20
   0   6  -8    1.80    5.80
 -12   0   9   44.50   10.80
  12   0  -9   20.60    8.30
 -12   0   9    6.90    5.00
 -12   0   9   24.10    8.10
  12   0  -9    9.60    9.00
  10   0  -9   21.10    8.90
  10   0  -9   44.20    9.20
  10   0  -9   34.20    4.50
 -10   0   9   30.30    8.20
 -10   0   9   43.80    7.20
 -10   0   9   36.60    9.00
  -8   0   9  144.79   11.70
  -8   0   9  143.09   15.80
   8   0  -9  138.59    5.40
  -8   0   9  162.98   14.00
   8   0  -9  126.69   14.10
   8   0  -9  138.69   16.60
   6   0  -9    2.60    4.10
  -6   0   9    7.90    5.90
  -6   0   9   -5.30    3.40
  -4   0   9   -3.20    3.90
   4   0  -9   -1.70    4.60
   4   0  -9   -3.80    3.40
   4   0  -9    4.50    3.80
  -4   0   9    7.90    4.80
  -2   0   9   28.20    7.20
  -2   0   9   43.00    8.80
  -2   0   9   28.50    7.40
   2   0  -9   29.10    6.10
   2   0  -9   29.80    7.10
   2   0  -9   37.00    9.00
   0   0   9   34.20    8.50
   0   0   9   21.40    6.50
   0   0  -9   10.30    4.40
   0   0   9   15.20    3.10
   0   0  -9    8.50    6.50
  -2   0  -9   61.29    8.50
   2   0   9   73.49   10.00
   2   0   9   71.19   11.30
   2   0   9   61.89   11.60
  -4   0  -9   63.79    9.60
  -4   0  -9   58.19   10.30
   4   0   9   84.59   14.10
   4   0   9   79.79   11.90
   4   0   9   69.49   10.00
  -4   0  -9   81.69   14.00
   6   0   9   73.69    9.40
  -6   0  -9   75.09   11.20
  -6   0  -9   87.19   13.00
 -11  -1   9    6.90    6.00
  11  -1  -9   15.80    7.40
 -11  -1   9   26.50    7.90
  11  -1  -9   31.60    5.70
  11  -1  -9   10.70    7.40
 -11  -1   9   15.40    5.70
  11   1  -9   39.70   10.00
 -11   1   9   18.30    8.00
 -11   1   9    7.40    4.80
  11   1  -9   11.00    6.60
   9  -1  -9  909.11   32.30
  -9  -1   9  926.51   35.80
   9  -1  -9  946.31   40.20
  -9  -1   9  898.01   37.50
   9  -1  -9  991.90   45.30
  -9  -1   9  926.41   40.30
  -9  -1   9  962.70   40.40
  -9   1   9  921.51   37.30
   9   1  -9  965.60   40.30
   9   1  -9  958.00   43.10
  -9   1   9  944.61   42.60
  -7  -1   9   35.80    4.10
   7  -1  -9   29.80    3.80
  -7  -1   9   36.40    8.30
  -7  -1   9   38.50    7.20
   7  -1  -9   42.70   10.20
  -7  -1   9   38.00    8.40
   7  -1  -9   23.60    6.60
  -7   1   9   35.10    8.60
  -7   1   9   34.30    4.20
  -7   1   9   29.60    7.20
   7   1  -9   31.70    9.00
  -5  -1   9  175.68   14.40
  -5  -1   9  186.88   13.40
   5  -1  -9  153.88   12.60
   5  -1  -9  157.38   17.50
  -5  -1   9  161.68    9.80
  -5  -1   9  155.28   13.40
   5   1  -9  189.68   13.00
   5   1  -9  157.58   12.70
  -5   1   9  178.78   15.10
   5   1  -9  165.08   14.90
  -5   1   9  161.68   13.20
   3  -1  -9   71.19   12.30
   3  -1  -9   64.39    8.30
   3  -1  -9   54.59    8.90
   3  -1  -9   61.09    7.80
  -3  -1   9   91.69   12.20
  -3  -1   9   70.89   10.50
  -3  -1   9   83.19   11.60
   3   1  -9   89.79   10.90
  -3   1   9   62.09    9.90
  -3   1   9   56.59   10.30
   3   1  -9   50.39   10.10
   3   1  -9   68.59    9.20
  -1  -1   9  155.08   13.60
   1  -1  -9  180.98   11.20
  -1  -1   9  162.18   14.40
  -1  -1   9  151.08   13.30
   1  -1  -9  181.48   16.20
   1  -1  -9  132.79   11.80
   1   1  -9  162.68   17.90
   1   1  -9  166.28   12.40
  -1   1   9  187.08    9.20
   1   1  -9  164.98   12.20
  -1   1   9  190.28   15.50
  -1   1   9  176.28   14.40
  -1  -1  -9  462.25   28.10
   1  -1   9  495.75   27.50
   1  -1   9  512.15   27.00
  -1  -1  -9  501.15   21.80
   1  -1   9  498.55   18.50
   1  -1   9  498.05   25.40
  -1   1  -9  511.15   24.30
   1   1   9  541.25   28.70
  -1   1  -9  493.05   28.60
   1   1   9  482.05   26.30
  -3  -1  -9  315.27   16.70
  -3  -1  -9  279.67   19.40
   3  -1   9  312.47   22.60
   3  -1   9  318.87   19.20
   3   1   9  332.17   21.30
  -3   1  -9  301.87   22.70
  -3   1  -9  346.27   24.20
   3   1   9  310.07   22.10
   5  -1   9   15.70    7.50
  -5  -1  -9    9.80    5.00
  -5  -1  -9    7.20    6.10
  -5  -1  -9    8.80    8.00
   5  -1   9   11.20    5.40
  -5   1  -9   15.50    6.40
  -5   1  -9   12.20    8.90
   5   1   9    9.80    6.30
  -5   1  -9   -2.90    3.80
   5   1   9    7.80    7.20
   5   1   9   19.70    6.40
  12  -2  -9   13.10    8.20
  12  -2  -9    7.00    5.90
  12  -2  -9   15.10    5.80
 -12  -2   9   27.80    8.20
 -12   2   9   12.70    8.20
 -12   2   9   10.30    5.00
 -12   2   9   10.60    5.90
  12   2  -9   13.30    8.90
  12   2  -9   21.20    8.30
  10  -2  -9   18.60    5.10
 -10  -2   9   23.90    7.40
  10  -2  -9   39.40    8.80
 -10  -2   9   35.80    8.90
 -10  -2   9   28.60    7.50
  10  -2  -9   25.10   10.00
  10   2  -9   17.70    7.00
 -10   2   9   27.40    5.40
 -10   2   9   18.70    6.70
 -10   2   9   27.30    8.80
  10   2  -9   30.20    8.70
   8  -2  -9  140.09   18.20
   8  -2  -9  110.49   13.70
  -8  -2   9  130.19    6.50
  -8  -2   9  135.59   15.80
  -8  -2   9  124.09   14.00
   8  -2  -9  146.89    9.40
  -8   2   9  152.88   13.50
   8   2  -9  133.59   15.10
  -8   2   9  129.59   16.00
  -8   2   9  143.79    8.70
   8   2  -9  112.39   13.50
  -6  -2   9   -0.80    3.70
   6  -2  -9    2.80    4.40
  -6  -2   9   -1.60    4.20
   6  -2  -9   -2.50    2.30
   6  -2  -9   -0.50    2.30
  -6   2   9   -0.30    4.90
   6   2  -9    1.10    3.60
  -6   2   9    0.00    4.90
   6   2  -9    2.00    4.60
   6   2  -9    2.60    5.00
  -4  -2   9   -4.30    4.10
   4  -2  -9    1.40    3.50
  -4  -2   9   -0.60    4.10
   4  -2  -9   -1.10    2.30
   4  -2  -9    1.90    5.60
   4  -2  -9   -4.50    2.90
   4  -2  -9    1.90    2.30
  -4  -2   9   -0.50    2.80
  -4   2   9    5.00    5.70
  -4   2   9   -3.10    3.80
   4   2  -9   -0.60    3.30
   4   2  -9   -5.40    4.30
   4   2  -9   -1.20    4.20
  -2  -2   9   33.10    7.70
  -2  -2   9   28.40    6.50
   2  -2  -9   25.30    8.20
   2  -2  -9   29.60    5.30
   2  -2  -9   23.50    6.60
   2  -2  -9   32.20    4.50
  -2   2   9   18.70    7.30
   2   2  -9   19.30    5.90
   2   2  -9   20.50    5.20
  -2   2   9   20.20    4.30
   2   2  -9   26.60    8.10
  -2   2   9   24.90    7.80
   0  -2   9   11.60    6.50
   0  -2  -9    8.80    3.50
   0  -2  -9   12.40    3.70
   0  -2  -9    5.90    6.50
   0   2  -9    9.70    6.20
   0   2   9   -1.20    4.30
   0   2   9   13.30    6.70
  -2  -2  -9   53.69   11.90
  -2  -2  -9   85.49   11.90
  -2  -2  -9   53.29    6.40
   2  -2   9   42.70   10.10
   2  -2   9   61.79   12.00
  -2   2  -9   55.29    9.80
  -2   2  -9   68.29   12.60
   2   2   9   59.79   10.90
   2   2   9   56.89   10.50
   4  -2   9   47.80    9.00
  -4  -2  -9   62.19    9.10
  -4  -2  -9   61.59   11.20
   4  -2   9   71.49   13.80
   4   2   9   52.09   10.20
  -4   2  -9   56.99   13.00
  -4   2  -9   68.49   11.20
   4   2   9   67.29   12.20
  -6  -2  -9   82.49   12.30
   6  -2   9   74.49   14.10
   6  -2   9   74.89   10.40
  -6  -2  -9   64.19   12.70
  -6  -2  -9   69.89   15.10
   6   2   9   63.99   13.20
  -6   2  -9   76.39   12.00
   6   2   9   79.69   12.70
  -6   2  -9   87.39   16.50
  -6   2  -9   62.99   12.30
 -11  -3   9    5.60    5.60
  11  -3  -9   12.00   11.40
  11  -3  -9   10.20    5.40
 -11  -3   9    7.10    6.20
  11  -3  -9   10.80    9.00
 -11   3   9   20.30    8.70
  11   3  -9   12.30    7.60
  11   3  -9    4.60    5.70
 -11   3   9    8.80    6.50
   9  -3  -9  711.13   33.70
  -9  -3   9  726.63   35.20
   9  -3  -9  685.83   29.40
   9  -3  -9  769.82   40.10
  -9   3   9  718.33   37.50
   9   3  -9  680.33   32.80
  -9   3   9  707.43   33.20
   9   3  -9  767.52   34.40
  -7  -3   9   16.10    5.80
   7  -3  -9   18.50    5.00
   7  -3  -9   14.20    8.00
   7  -3  -9   20.90    7.00
  -7  -3   9    3.00    4.90
  -7  -3   9   17.10    4.10
   7   3  -9   22.60    7.20
  -7   3   9    7.80    6.00
  -7   3   9    8.70    6.70
   7   3  -9   30.10    8.10
   7   3  -9   25.40   10.80
   5  -3  -9   94.29   11.50
   5  -3  -9  102.39    8.80
  -5  -3   9   88.79    9.10
  -5  -3   9   87.69   12.80
   5  -3  -9   97.49   14.70
  -5  -3   9  106.19   12.00
   5   3  -9  141.19   22.10
  -5   3   9  109.29   13.70
   5   3  -9  108.19   11.20
  -5   3   9   95.99   14.00
   5   3  -9  123.29   14.30
   5   3  -9  120.89   13.80
  -3  -3   9   86.39   12.50
   3  -3  -9   62.19   11.70
   3  -3  -9   68.39    7.10
   3  -3  -9   51.49    6.90
  -3  -3   9   64.09    8.60
   3  -3  -9   57.49    9.80
  -3  -3   9   61.19    9.50
   3  -3  -9   64.29    8.20
   3   3  -9   61.69    8.00
   3   3  -9   68.59   10.50
  -3   3   9   58.79   11.10
  -3   3   9   81.29   12.30
   3   3  -9   72.69   11.60
  -1  -3   9  120.99   14.50
  -1  -3   9  129.09   14.70
   1  -3  -9  122.89    7.60
  -1  -3   9  121.39   14.60
   1  -3  -9  127.99    7.10
   1  -3  -9  107.69   15.10
   1   3  -9   95.59   13.60
   1   3  -9  107.59   13.40
  -1   3   9   90.29   12.90
  -1   3   9  114.29   14.70
   1  -3   9  376.66   14.20
   1  -3   9  347.37   20.60
   1  -3   9  398.06   23.10
  -1  -3  -9  386.36   24.70
   1  -3   9  367.56   23.40
  -1  -3  -9  367.76   15.90
  -1  -3  -9  369.36   21.90
  -1  -3  -9  337.07   13.10
  -1   3  -9  360.46   21.90
   1   3   9  382.76   23.90
   1   3   9  363.16   23.00
  -1   3  -9  352.46   24.10
   3  -3   9  198.18   23.30
  -3  -3  -9  264.27   19.40
  -3  -3  -9  229.18   20.20
   3  -3   9  256.47   13.30
   3  -3   9  199.18   16.40
  -3  -3  -9  227.08   13.90
   3  -3   9  262.17   18.00
  -3   3  -9  224.78   20.70
  -3   3  -9  267.07   19.10
   3   3   9  232.58   19.50
   3   3   9  240.78   18.80
   5  -3   9    2.20    5.60
   5  -3   9   11.10    7.60
   5  -3   9    8.90    6.20
  -5  -3  -9    2.80    5.50
  -5   3  -9   -4.90    4.20
   5   3   9   13.50    7.80
  -5   3  -9    1.10    6.80
   5   3   9    4.30    6.50
 -10  -4   9    5.40    6.40
  10  -4  -9   19.40   10.20
  10  -4  -9   13.80    6.00
  10   4  -9   12.50    6.30
 -10   4   9   16.40    7.70
 -10   4   9   12.70    7.50
  10   4  -9   11.80    7.60
  10   4  -9   17.50    7.10
  -8  -4   9   76.49    7.80
   8  -4  -9   61.29   10.50
   8  -4  -9   88.79   16.60
  -8  -4   9   79.39   13.20
   8  -4  -9  108.79   11.80
   8   4  -9   81.69   11.10
  -8   4   9  112.59   17.20
  -8   4   9   89.49   13.30
   8   4  -9   70.79   10.70
   8   4  -9   79.59   12.60
   6  -4  -9    4.30    7.00
   6  -4  -9   -0.90    3.70
   6  -4  -9   -1.30    4.80
  -6  -4   9    3.20    4.50
  -6  -4   9    3.00    3.40
  -6  -4   9    0.30    4.70
   6   4  -9    6.40    6.20
  -6   4   9   -1.80    4.50
  -6   4   9    3.40    6.00
   6   4  -9   -0.60    4.70
   6   4  -9    0.70    4.10
   4  -4  -9   -1.30    2.60
  -4  -4   9   -0.90    3.90
  -4  -4   9   11.50    6.20
   4  -4  -9    5.80    6.10
   4  -4  -9   12.00    5.20
  -4  -4   9    0.80    3.00
   4  -4  -9   -0.30    4.40
  -4   4   9   -5.40    4.30
  -4   4   9    4.00    5.60
   4   4  -9    0.10    4.60
   4   4  -9    0.60    3.70
   4   4  -9    4.30    5.20
  -2  -4   9    8.60    5.50
   2  -4  -9   17.50    5.90
   2  -4  -9    3.50    6.00
  -2  -4   9   14.40    6.90
  -2  -4   9   10.80    5.00
   2   4  -9    8.70    3.80
  -2   4   9   29.00    9.00
   2   4  -9   18.70    7.00
   2   4  -9   19.00    7.20
  -2   4   9   11.50    6.70
   0  -4  -9    9.10    7.40
   0  -4   9    5.40    5.10
   0  -4  -9    8.20    5.60
   0  -4   9    5.70    2.40
   0  -4   9    1.20    5.00
   0  -4   9   -2.80    3.40
   0   4  -9    1.10    4.90
   0   4   9    1.70    5.70
   0   4  -9    1.00    5.80
   0   4   9    7.10    6.00
   2  -4   9   26.10    7.90
  -2  -4  -9   36.30    9.00
   2  -4   9   30.80    8.80
  -2  -4  -9   29.30   10.10
   2  -4   9   44.50    5.90
   2  -4   9   20.70    7.50
   2   4   9   28.00    9.30
   2   4   9    9.60    7.50
  -2   4  -9   31.30   10.00
  -2   4  -9   20.90    7.90
  -4  -4  -9   53.19   12.90
   4  -4   9   40.50    8.90
  -4  -4  -9   44.50   10.60
   4  -4   9   43.80    9.70
   4  -4   9   42.00    7.30
  -4   4  -9   41.00   10.70
   4   4   9   35.40    9.70
  -4   4  -9   29.30   10.10
   7  -5  -9    2.30    5.20
   7  -5  -9   -0.10    6.80
   7  -5  -9    5.10    5.60
  -7  -5   9    6.00    4.70
   7   5  -9    4.80    6.30
   7   5  -9    8.80    5.20
   7   5  -9    5.40    4.80
  -7   5   9    5.80    6.20
   5  -5  -9   50.49    9.90
  -5  -5   9   37.60    7.50
  -5  -5   9   54.99   11.10
   5  -5  -9   46.40    8.70
   5  -5  -9   55.59   12.50
   5   5  -9   57.69    9.50
  -5   5   9   54.89   11.40
   5   5  -9   52.09    7.80
   5   5  -9   55.69   11.10
  -5   5   9   41.60   10.30
   3  -5  -9   33.90    8.10
  -3  -5   9   28.30    7.00
   3  -5  -9   35.30    8.00
   3  -5  -9   33.90   10.50
  -3  -5   9   33.40    9.00
  -3   5   9   33.50    9.30
  -3   5   9   39.70   10.40
   3   5  -9   34.40    9.30
   3   5  -9   40.30    6.00
   3   5  -9   37.40    8.80
  -1  -5   9   47.00   11.10
  -1  -5   9   49.90   11.20
   1  -5  -9   61.89   10.30
   1  -5  -9   54.49    9.90
  -1  -5   9   63.59   10.40
   1  -5  -9   35.40   10.60
   1   5  -9   58.69   11.20
   1   5  -9   47.90   10.30
  -1   5   9   30.50    9.30
  -1   5   9   56.49   11.00
  -1  -5  -9  154.28   19.40
   1  -5   9  175.88   21.30
  -1  -5  -9  200.28   16.60
   1   5   9  154.48   17.80
  -1   5  -9  137.49   20.70
  -1   5  -9  196.08   17.40
   1   5   9  185.68   23.80
 -10   0  10   89.79   13.40
 -10   0  10   86.59   13.70
  10   0 -10   90.29   15.40
 -10   0  10   77.09   10.10
  10   0 -10   81.59   12.50
  -8   0  10   53.99    9.20
  -8   0  10   53.79   10.30
  -8   0  10   54.09   11.10
   8   0 -10   34.80    8.00
   8   0 -10   53.09   11.80
   6   0 -10    7.20    6.60
   6   0 -10   23.50    7.00
  -6   0  10    9.30    6.60
   6   0 -10   21.40    6.90
  -6   0  10    9.30    5.40
  -6   0  10   12.50    6.60
   4   0 -10    0.90    4.10
  -4   0  10    4.60    5.50
  -4   0  10    1.50    4.60
  -4   0  10    0.60    4.90
   4   0 -10   -6.50    4.40
   4   0 -10    0.00    3.60
  -2   0  10   -4.80    3.70
   2   0 -10   -1.40    3.80
  -2   0  10    2.50    4.80
  -2   0  10    2.70    5.20
   2   0 -10   -5.80    3.00
   2   0 -10    4.70    6.20
   0   0 -10    1.70    3.30
   0   0 -10    0.20    6.00
   0   0  10    3.80    2.30
   0   0  10    6.10    6.50
   0   0  10    1.80    6.10
   0   0  10    0.40    4.50
   2   0  10   11.90    6.50
  -2   0 -10   14.20    7.80
   2   0  10   19.70    8.30
  -2   0 -10   22.10    6.30
   2   0  10   46.60   10.20
  -4   0 -10   15.70    8.50
   4   0  10   22.70    7.90
   4   0  10   21.70    6.90
  -4   0 -10   26.70    7.40
  -4   0 -10   11.40    6.70
   4   0  10   25.10    9.80
  11  -1 -10    3.50    7.40
 -11  -1  10   14.20    7.50
  11  -1 -10    9.50    6.00
 -11  -1  10   23.20    8.10
 -11   1  10    0.50    5.80
 -11   1  10   16.10    6.20
  11   1 -10   16.60    8.60
  11   1 -10   21.70    8.10
 -11   1  10    5.00    7.10
   9  -1 -10  172.78   17.90
  -9  -1  10  192.28   13.60
  -9  -1  10  174.28   15.70
   9  -1 -10  144.99   19.30
  -9  -1  10  194.58   17.00
  -9   1  10  214.88   18.20
   9   1 -10  157.58   18.70
   9   1 -10  177.18   18.30
  -7  -1  10    7.90    6.10
   7  -1 -10   12.70    6.20
  -7  -1  10   12.40    6.40
  -7  -1  10   11.50    5.50
  -7  -1  10    7.00    2.90
   7  -1 -10   -4.40    5.40
   7   1 -10    5.60    6.10
  -7   1  10    3.00    5.00
   7   1 -10    7.50    5.60
  -7   1  10    5.80    6.70
   7   1 -10    2.40    4.90
   5  -1 -10  177.48   13.00
  -5  -1  10  170.08   15.10
  -5  -1  10  169.18   10.80
  -5  -1  10  180.88   15.40
   5  -1 -10  150.98   13.10
   5  -1 -10  188.68   20.40
   5   1 -10  169.68   13.90
  -5   1  10  153.28   16.00
   5   1 -10  163.58   13.10
  -5   1  10  173.68   18.70
   5   1 -10  139.69   16.90
   3  -1 -10   82.79    9.70
   3  -1 -10   62.49   12.40
  -3  -1  10   89.49   12.20
  -3  -1  10   83.89   12.30
   3  -1 -10   64.39   10.10
  -3  -1  10  103.89   14.00
   3   1 -10   73.39   10.60
   3   1 -10   67.69   12.30
   3   1 -10   78.29   12.80
  -3   1  10   92.49   12.70
   1  -1 -10  848.32   33.30
  -1  -1  10  870.01   39.80
   1  -1 -10  808.42   41.00
  -1  -1  10  875.91   38.60
  -1  -1  10  813.42   38.30
  -1   1  10  863.11   39.10
   1   1 -10  897.31   42.00
  -1   1  10  891.31   29.30
  -1   1  10  822.62   39.70
   1   1 -10  818.32   37.70
   1   1 -10  885.81   37.90
   1  -1  10   42.30    9.10
  -1  -1 -10   25.10    5.80
   1  -1  10   35.30    9.00
   1  -1  10   29.40    8.90
  -1  -1 -10   38.50   10.80
   1   1  10   38.30    9.30
  -1   1 -10   30.10    7.30
   1   1  10   19.60    7.20
  -1   1 -10   33.20   10.00
   1   1  10   24.20    8.50
  -3  -1 -10   35.20   10.90
   3  -1  10   30.30    7.80
  -3  -1 -10   27.60    8.40
   3  -1  10   32.10   10.00
  -3  -1 -10   28.10    6.40
   3   1  10   21.30    7.60
  -3   1 -10   20.30    9.00
   3   1  10   29.30    8.60
  -3   1 -10   25.70    7.40
   3   1  10   64.09   13.60
 -10  -2  10   85.59   13.20
  10  -2 -10   79.09    8.40
  10  -2 -10   73.39   14.30
 -10  -2  10   74.19   12.10
  10   2 -10   93.69   14.00
 -10   2  10   71.19   11.00
  10   2 -10   82.09   12.70
 -10   2  10   72.49   14.00
  -8  -2  10   56.89   11.40
   8  -2 -10   56.89   13.10
   8  -2 -10   41.40    9.00
  -8  -2  10   45.30    4.70
  -8  -2  10   47.80    9.60
  -8   2  10   62.89   12.30
   8   2 -10   46.60   10.70
   8   2 -10   54.29   10.30
  -8   2  10   49.20    9.90
   8   2 -10   38.30    8.10
  -6  -2  10   11.20    6.60
  -6  -2  10    7.60    3.50
   6  -2 -10   14.60    6.00
   6  -2 -10   13.00    3.70
  -6  -2  10   11.30    6.80
   6  -2 -10   17.00    8.60
   6   2 -10   18.30    7.60
  -6   2  10   10.20    6.20
  -6   2  10   18.30    8.00
   6   2 -10   20.70    7.20
   6   2 -10   14.40    5.70
   4  -2 -10   -2.00    6.00
  -4  -2  10   -1.30    4.50
   4  -2 -10    3.30    3.30
  -4  -2  10    0.10    3.30
  -4  -2  10   -6.40    3.70
   4  -2 -10   -3.40    2.90
   4  -2 -10    0.80    4.30
   4   2 -10   -4.80    4.40
  -4   2  10    0.10    4.70
  -4   2  10    1.30    6.20
   4   2 -10    7.70    5.30
   4   2 -10    5.50    4.10
   2  -2 -10   -6.60    5.60
   2  -2 -10   -1.80    4.60
  -2  -2  10    0.70    4.60
   2  -2 -10    0.60    2.90
  -2  -2  10   -2.40    4.90
  -2  -2  10    3.00    4.20
   2   2 -10    6.60    4.40
   2   2 -10    3.50    6.20
   2   2 -10    1.20    4.40
  -2   2  10   -4.40    4.40
  -2   2  10    7.40    6.10
   0  -2  10   -0.20    5.10
   0  -2 -10   -7.00    5.00
   0  -2 -10   -2.00    2.40
   0  -2  10    5.90    5.70
   0   2  10    2.60    5.30
   0   2 -10    6.20    5.40
   0   2  10   -4.40    5.30
   0   2 -10   -0.20    5.50
  -2  -2 -10   12.70    6.40
   2  -2  10   26.30    8.90
   2  -2  10   30.80    7.80
  -2  -2 -10    7.20    6.80
  -2   2 -10   14.60    8.80
  -2   2 -10   24.00    7.60
   2   2  10   30.90    9.00
   2   2  10   19.50    7.30
  -4  -2 -10   13.30    9.10
   4  -2  10   25.50    9.60
  -4  -2 -10    6.30    6.20
   4  -2  10    9.10    6.10
   4   2  10   11.70    6.80
  -4   2 -10   27.30   10.70
   4   2  10   13.40    8.10
  -4   2 -10   12.30    7.30
   9  -3 -10  130.89   19.70
   9  -3 -10  127.19   10.50
  -9  -3  10  138.89   17.00
  -9   3  10  127.59   17.80
   9   3 -10  124.79   15.40
   9   3 -10  108.59   15.50
   9   3 -10  108.59   13.30
  -9   3  10   91.99   13.60
   7  -3 -10   -3.30    6.90
  -7  -3  10    9.60    6.60
  -7  -3  10    4.90    5.80
   7  -3 -10   -0.50    3.80
   7  -3 -10    1.40    5.10
  -7  -3  10    2.50    3.10
   7   3 -10    1.40    5.50
  -7   3  10    9.30    6.30
  -7   3  10    4.10    6.00
   7   3 -10   -0.70    5.20
   7   3 -10    3.80    4.90
   5  -3 -10   98.09   12.80
   5  -3 -10  126.49   10.30
   5  -3 -10   97.29   15.70
  -5  -3  10  123.09   16.00
   5  -3 -10  112.99    9.20
  -5  -3  10  102.79   10.70
  -5   3  10   85.99   13.30
   5   3 -10   88.59   13.40
  -5   3  10  146.89   17.80
   5   3 -10  106.09   13.90
   3  -3 -10   34.00    8.80
  -3  -3  10   56.19   10.00
  -3  -3  10   47.50    9.40
  -3  -3  10   60.69   11.40
   3  -3 -10   54.39    6.80
   3  -3 -10   50.59   11.90
   3   3 -10   52.89   11.10
   3   3 -10   47.50    9.50
   3   3 -10   53.19    8.40
  -3   3  10   61.79   11.10
  -3   3  10   44.90   10.30
   1  -3 -10  624.84   22.90
  -1  -3  10  673.63   33.00
  -1  -3  10  617.24   32.10
  -1  -3  10  576.74   28.20
   1  -3 -10  612.44   22.20
  -1   3  10  603.14   32.90
  -1   3  10  564.04   31.60
   1  -3  10   20.40    7.30
  -1  -3 -10   21.30    9.70
  -1  -3 -10   31.10    8.80
  -1  -3 -10   23.10    5.40
   1  -3  10   31.60    9.90
   1  -3  10   18.30    7.00
   1   3  10    9.10    6.60
   1   3  10   34.30    9.70
  -1   3 -10   24.00    9.40
  -1   3 -10   14.00    6.70
  -3  -3 -10   19.10    6.00
  -3  -3 -10   14.50    9.00
   3  -3  10   10.70    6.20
   3  -3  10   12.70    8.30
   3  -3  10    1.10    4.50
  -3  -3 -10   24.00    8.40
  -3   3 -10    8.20    7.40
   3   3  10   20.00    9.40
   3   3  10    4.20    7.80
   8  -4 -10   41.90   11.00
  -8  -4  10   38.30   11.60
   8  -4 -10   32.10   11.40
   8  -4 -10   30.90    7.10
  -8   4  10   21.80   10.00
  -8   4  10   20.30    8.20
   8   4 -10   27.00    8.60
   8   4 -10   26.90    8.20
   8   4 -10   24.70    7.70
   6  -4 -10   12.80    8.90
   6  -4 -10    8.80    5.20
  -6  -4  10   17.20    5.60
  -6  -4  10   10.90    7.30
   6  -4 -10   11.00    6.40
   6   4 -10    5.00    5.60
  -6   4  10    2.40    6.10
   6   4 -10    7.80    5.30
  -6   4  10    6.80    7.20
   6   4 -10   10.90    6.10
   4  -4 -10   -4.30    3.70
   4  -4 -10   -0.60    4.50
  -4  -4  10   -2.60    5.00
   4  -4 -10   -1.90    6.30
  -4  -4  10   -4.30    3.20
  -4  -4  10    5.50    5.70
   4  -4 -10   -0.40    4.30
   4   4 -10   -1.70    4.80
   4   4 -10    2.60    5.30
  -4   4  10    4.30    6.90
   4   4 -10    4.00    4.40
  -4   4  10   -5.50    4.40
   2  -4 -10   -6.60    6.30
  -2  -4  10   -2.70    4.80
   2  -4 -10   -5.20    3.80
  -2  -4  10   -0.90    4.50
  -2  -4  10    2.40    5.30
   2   4 -10   -3.40    4.40
   2   4 -10   -2.40    4.70
  -2   4  10   -6.50    4.30
  -2   4  10   -3.30    5.90
   0  -4  10    3.10    6.20
   0  -4  10    2.90    4.70
   0  -4 -10    1.50    5.80
   0  -4  10   -2.40    4.60
   0   4 -10    6.10    9.70
   5  -5 -10   33.80    9.30
   5  -5 -10   46.00    9.40
   5  -5 -10   60.69   14.60
  -5   5  10   55.69   12.30
   5   5 -10   43.40    9.40
   5   5 -10   47.80   10.90
   3  -5 -10   15.90   10.00
  -3  -5  10   16.80    6.70
  -3  -5  10   18.50    8.60
   3  -5 -10   16.10    7.00
   3  -5 -10   17.90    7.20
  -3   5  10   20.00    9.00
  -3   5  10   11.00    7.10
   3   5 -10   30.70    9.30
 -10   0  11   30.20   10.50
  10   0 -11   35.20   11.10
 -10   0  11   34.00    7.80
 -10   0  11   32.80   10.50
  10   0 -11   40.50   10.00
   8   0 -11   66.29   13.60
   8   0 -11   57.29   11.00
  -8   0  11   34.60   10.10
  -8   0  11   71.49   14.90
  -8   0  11   62.59   10.60
   6   0 -11  216.48   16.20
  -6   0  11  216.08   17.00
  -6   0  11  212.48   18.10
   6   0 -11  184.48   20.80
   6   0 -11  203.28   16.00
   4   0 -11    3.50    7.50
   4   0 -11    2.40    5.50
  -4   0  11    1.20    5.30
  -4   0  11    0.30    5.70
   4   0 -11    7.10    5.70
  -4   0  11    6.10    5.50
   2   0 -11  619.64   34.90
  -2   0  11  595.94   32.90
  -2   0  11  577.54   31.10
   2   0 -11  620.74   32.20
  -2   0  11  607.24   31.70
   2   0 -11  556.74   28.60
   0   0 -11    4.40    8.40
   0   0  11   21.00    7.90
   0   0  11    8.20    7.30
   0   0 -11   21.90    6.30
   0   0  11   13.70    6.70
  -2   0 -11   11.50    5.90
   2   0  11   15.50    7.10
  -2   0 -11   13.80    9.00
   2   0  11   24.40    9.50
  -9  -1  11    3.40    4.20
   9  -1 -11    3.30    6.40
  -9  -1  11   -0.40    6.60
  -9  -1  11   -4.10    6.20
  -9   1  11    0.20    7.40
  -9   1  11    3.40    5.70
   9   1 -11    0.70    5.40
   9   1 -11    8.80    6.60
   7  -1 -11  175.98   21.00
  -7  -1  11  137.69   15.20
   7  -1 -11  153.68   13.60
   7  -1 -11  148.19   17.00
  -7  -1  11  155.48   17.40
  -7  -1  11  135.09    9.00
  -7  -1  11  131.19   16.80
   7   1 -11  137.89   17.90
  -7   1  11  151.18   18.60
   7   1 -11  115.29   13.90
  -7   1  11  139.89   15.90
   7   1 -11  132.99   15.80
   5  -1 -11   69.69   11.50
  -5  -1  11   62.59   10.60
   5  -1 -11   55.29   12.00
  -5  -1  11   45.50    9.70
  -5  -1  11   65.69   12.10
   5  -1 -11   52.49   10.90
  -5  -1  11   52.49    7.50
   5   1 -11   63.39   10.90
  -5   1  11   35.20    9.00
   5   1 -11   60.49   12.30
   5   1 -11   41.60    8.80
  -5   1  11   51.99   11.40
  -3  -1  11   -2.10    4.10
   3  -1 -11    0.20    4.90
  -3  -1  11   -3.80    4.90
   3  -1 -11    1.20    4.30
   3  -1 -11   -0.20    6.20
  -3  -1  11    1.50    4.70
   3   1 -11    1.00    4.30
  -3   1  11   -7.20    4.20
  -3   1  11    9.60    6.00
   3   1 -11    1.70    6.10
   3   1 -11   -4.00    4.50
   1  -1 -11   32.40    6.80
   1  -1 -11   44.80   12.00
  -1  -1  11   27.50    8.80
  -1  -1  11   19.40    8.40
  -1  -1  11   53.29   11.00
  -1   1  11   39.70    9.80
   1   1 -11   37.20   10.60
  -1   1  11   28.30    9.30
   1   1 -11   37.70    8.60
  -1   1  11   43.90   10.40
   1  -1  11   17.20    7.40
  -1  -1 -11   13.10    8.70
  -1  -1 -11   11.50    4.80
   1  -1  11   14.70    8.20
  -1   1 -11   11.90    9.20
   1   1  11   33.70    9.90
   1   1  11   26.00    8.60
  -1   1 -11   18.70    7.00
   1   1  11    8.20    8.10
   8  -2 -11   57.09   13.50
  -8  -2  11   69.19   11.70
  -8  -2  11   46.40   10.50
   8   2 -11   25.50    7.90
   8   2 -11   41.50   12.70
   8   2 -11   48.80   10.60
  -8   2  11   37.70    9.40
  -8   2  11   72.19   13.20
   6  -2 -11  178.58   14.40
  -6  -2  11  216.98   21.60
   6  -2 -11  185.88   15.80
   6  -2 -11  204.18   23.10
  -6  -2  11  188.58   12.20
  -6  -2  11  192.78   17.10
  -6   2  11  194.18   17.30
   6   2 -11  205.48   15.40
   6   2 -11  207.98   18.70
  -6   2  11  207.28   19.20
   6   2 -11  190.28   16.50
  -4  -2  11    2.30    5.90
   4  -2 -11    0.80    6.60
   4  -2 -11    0.30    5.40
   4  -2 -11    1.00    4.00
  -4  -2  11    2.90    6.70
  -4  -2  11    6.40    4.90
  -4   2  11    4.50    6.20
   4   2 -11    2.00    4.90
  -4   2  11   -2.90    4.90
   4   2 -11   -3.00    6.10
   4   2 -11   -2.20    4.30
  -2  -2  11  532.65   26.20
   2  -2 -11  528.85   23.60
  -2  -2  11  608.34   31.70
  -2  -2  11  558.04   30.70
   2  -2 -11  562.24   34.10
  -2   2  11  585.74   32.70
   2   2 -11  526.85   32.00
   2   2 -11  519.35   28.20
  -2   2  11  573.74   31.60
   2   2 -11  554.64   26.70
   0  -2  11    6.90    6.90
   0  -2 -11   -4.90    6.20
   0  -2 -11    6.90    3.80
   0  -2  11   23.60    8.00
   0   2 -11    4.30    5.10
   0   2  11   15.30    7.90
   0   2 -11   12.30    8.50
   0   2  11   -1.30    5.50
   2  -2  11   12.50    8.50
  -2  -2 -11   -1.80    7.60
  -2  -2 -11   14.20    7.60
   2  -2  11    5.00    6.20
   2   2  11    6.00    6.50
  -2   2 -11    4.90    6.00
   2   2  11    3.00    6.60
   2   2  11   16.90    8.90
  -2   2 -11    1.50    7.10
  -7  -3  11   83.09   14.00
   7  -3 -11   56.79   10.70
  -7  -3  11  100.09    9.40
   7  -3 -11   95.69   16.90
   7   3 -11  100.49   13.00
   7   3 -11   69.89   12.50
  -7   3  11   91.59   15.90
  -5  -3  11   54.59   11.50
  -5  -3  11   45.30   11.80
   5  -3 -11   55.39   10.80
   5  -3 -11   54.19   13.20
   5  -3 -11   38.80    7.40
   5  -3 -11   36.50    6.50
  -5  -3  11   56.29   11.10
  -5   3  11   50.69   12.00
  -5   3  11   34.00    9.10
   5   3 -11   39.50    8.20
   5   3 -11   52.79   11.00
   5   3 -11   42.20   10.90
  -3  -3  11    3.30    4.50
   3  -3 -11    2.30    3.60
  -3  -3  11   -9.40    4.90
   3  -3 -11   -5.90    3.60
  -3  -3  11    0.70    6.30
   3  -3 -11   -5.40    6.10
  -3   3  11    2.00    6.60
  -3   3  11   -1.50    5.20
   3   3 -11   -8.80    5.70
   3   3 -11    0.40    4.10
   3   3 -11   -3.00    4.80
  -1  -3  11   10.50    7.80
   1  -3 -11   47.00   12.50
  -1  -3  11   32.60    8.00
  -1  -3  11   40.00   10.60
   1   3 -11   24.50    8.10
  -1   3  11   36.10    9.80
   1   3 -11   30.50   11.90
   4  -4 -11   -3.10    5.30
  -4  -4  11   -1.10    4.20
   4  -4 -11    5.80    9.20
  -4  -4  11    3.70    7.10
   4  -4 -11   -6.10    4.40
  -4   4  11    1.20    6.80
   4   4 -11   -2.30    5.50
  -4   4  11   -1.80    5.60
   4   4 -11   -2.80    4.30
   4   4 -11   -3.70    6.20
  -8   0  12   15.70    8.90
   8   0 -12    9.70    7.20
   8   0 -12   13.00    7.60
  -8   0  12    8.80    8.10
   8   0 -12   13.70    8.90
  -8   0  12    0.30    4.90
  -6   0  12  411.86   26.90
   6   0 -12  416.66   24.50
  -6   0  12  402.46   30.20
  -6   0  12  391.06   24.70
  -4   0  12    3.60   10.70
  -4   0  12    2.20    5.10
   4   0 -12    2.40    7.80
  -4   0  12   -0.40    6.50
   4   0 -12    5.90    5.70
   4   0 -12    1.40    4.50
  -2   0  12   -0.30    6.30
   2   0 -12   -4.40    7.40
  -2   0  12    3.10    7.80
   2   0 -12   10.40    6.30
   0   0  12   35.80   11.20
   0   0  12   49.30   11.40
   0   0 -12   45.40    8.80
   0   0 -12   23.50    9.90
   7  -1 -12  470.55   27.00
  -7  -1  12  447.46   28.10
  -7  -1  12  432.06   26.10
   7  -1 -12  517.15   33.10
  -7   1  12  416.96   26.60
   7   1 -12  464.35   30.70
   7   1 -12  508.95   29.70
  -7   1  12  465.55   30.30
  -7   1  12  458.75   28.90
   5  -1 -12    9.40    8.70
  -5  -1  12   -0.20    6.30
  -5  -1  12    7.40    6.20
   5  -1 -12    4.50    5.50
   5   1 -12   -0.90    5.50
  -5   1  12   10.20    7.80
   5   1 -12    0.70    5.40
  -5   1  12   -7.40    5.30
   5   1 -12   -6.10   12.20
  -5   1  12   -6.30    4.60
   3  -1 -12   17.60    6.10
   3  -1 -12    6.70    8.60
   3  -1 -12   11.00    7.10
  -3  -1  12   13.80    7.00
  -3  -1  12    7.50    7.80
   3   1 -12   11.20    6.20
   3   1 -12   10.70    6.20
  -3   1  12   12.20    8.30
   1  -1 -12    6.60    8.70
   1  -1 -12    7.10    5.30
  -1  -1  12   -4.30    5.40
  -1  -1  12    0.90    7.00
  -1   1  12    2.20    6.20
  -1   1  12   -7.90    5.30
   1   1 -12    0.60    5.50
   1   1 -12   -6.30    6.70
  -6  -2  12  318.87   17.70
  -6  -2  12  353.96   25.00
   6  -2 -12  347.27   31.80
  -6  -2  12  345.27   24.30
   6  -2 -12  370.86   23.60
   6  -2 -12  366.76   20.90
   6   2 -12  345.67   21.60
   6   2 -12  358.36   26.50
  -6   2  12  280.07   24.00
   6   2 -12  371.46   24.10
   4  -2 -12   -0.40    6.30
  -4  -2  12    1.80    6.90
  -4  -2  12    0.30    4.60
  -4  -2  12    6.10    6.70
   4  -2 -12   -9.20    6.50
   4  -2 -12    4.40    5.90
   4   2 -12   -1.90    4.20
   4   2 -12    3.20    7.40
   4   2 -12    0.20    5.50
  -4   2  12    5.80    7.80
  -4   2  12    7.60    7.90
  -2  -2  12    1.20    4.50
   2  -2 -12    5.50    4.40
  -2  -2  12    0.90    6.10
   2  -2 -12    6.80    8.70
  -2  -2  12    6.70    7.90
   2   2 -12    0.00    7.90
   2   2 -12   11.10    7.10
  -2   2  12   -1.40    6.40
  -2   2  12    2.90    6.00
   0   0   0    0.00    0.00

_computing_structure_solution     'SHELXT 2014/5 (Sheldrick, 2014)'
;
_shelx_hkl_checksum              15545
loop_
_space_group_symop_operation_xyz
'x, y, z'
'-x, y, -z'
'x+1/2, y+1/2, z'
'-x+1/2, y+1/2, -z'
'-x, -y, -z'
'x, -y, z'
'-x+1/2, -y+1/2, -z'
'x+1/2, -y+1/2, z'
loop_
_atom_site_label
_atom_site_type_symbol
_atom_site_fract_x
_atom_site_fract_y
_atom_site_fract_z
_atom_site_U_iso_or_equiv
_atom_site_adp_type
_atom_site_occupancy
_atom_site_site_symmetry_order
_atom_site_calc_flag
_atom_site_refinement_flags_posn
_atom_site_refinement_flags_adp
_atom_site_refinement_flags_occupancy
_atom_site_disorder_assembly
_atom_site_disorder_group
F1 F 0.76170(8) 0.500000 0.97970(10) 0.0185(2) Uani 1 2 d S T P . .
N1 N 0.02182(13) 0.500000 0.69593(15) 0.0224(3) Uani 1 2 d S T P . .
C1 C 0.13756(14) 0.500000 0.70889(16) 0.0164(3) Uani 1 2 d S T P . .
N2 N 0.33246(13) 0.500000 0.44927(15) 0.0196(3) Uani 1 2 d S T P . .
C2 C 0.30960(14) 0.500000 0.56894(17) 0.0158(3) Uani 1 2 d S T P . .
C3 C 0.28101(13) 0.500000 0.71863(16) 0.0147(3) Uani 1 2 d S T P . .
C4 C 0.38746(13) 0.500000 0.85676(16) 0.0137(3) Uani 1 2 d S T P . .
C5 C 0.52812(13) 0.500000 0.85252(15) 0.0144(3) Uani 1 2 d S T P . .
H5 H 0.548030 0.500000 0.753549 0.017 Uiso 1 2 calc R U P . .
C6 C 0.63143(13) 0.500000 0.98760(16) 0.0142(3) Uani 1 2 d S T P . .
loop_
_atom_site_aniso_label
_atom_site_aniso_U_11
_atom_site_aniso_U_22
_atom_site_aniso_U_33
_atom_site_aniso_U_23
_atom_site_aniso_U_13
_atom_site_aniso_U_12
F1 0.0138(4) 0.0271(5) 0.0168(4) 0.000 0.0077(3) 0.000
N1 0.0184(6) 0.0282(7) 0.0200(6) 0.000 0.0047(5) 0.000
C1 0.0191(6) 0.0181(6) 0.0123(6) 0.000 0.0048(4) 0.000
N2 0.0190(5) 0.0232(6) 0.0173(6) 0.000 0.0061(4) 0.000
C2 0.0149(5) 0.0167(6) 0.0155(6) 0.000 0.0037(4) 0.000
C3 0.0164(6) 0.0147(5) 0.0139(6) 0.000 0.0059(4) 0.000
C4 0.0163(6) 0.0126(5) 0.0136(6) 0.000 0.0067(4) 0.000
C5 0.0158(6) 0.0161(6) 0.0132(6) 0.000 0.0070(5) 0.000
C6 0.0138(6) 0.0159(6) 0.0146(6) 0.000 0.0067(4) 0.000
loop_
_atom_type_symbol
_atom_type_description
_atom_type_scat_dispersion_real
_atom_type_scat_dispersion_imag
_atom_type_scat_source
C C 0.0033 0.0016 'International Tables Vol C Tables 4.2.6.8 and 6.1.1.4'
H H 0.0000 0.0000 'International Tables Vol C Tables 4.2.6.8 and 6.1.1.4'
F F 0.0171 0.0103 'International Tables Vol C Tables 4.2.6.8 and 6.1.1.4'
N N 0.0061 0.0033 'International Tables Vol C Tables 4.2.6.8 and 6.1.1.4'
loop_
_geom_angle_atom_site_label_1
_geom_angle_atom_site_label_2
_geom_angle_atom_site_label_3
_geom_angle
_geom_angle_site_symmetry_1
_geom_angle_site_symmetry_3
_geom_angle_publ_flag
N1 C1 C3 177.81(14) . . ?
N2 C2 C3 179.99(15) . . ?
C4 C3 C2 120.14(15) . . ?
C4 C3 C1 125.25(14) . . ?
C2 C3 C1 114.61(14) . . ?
C3 C4 C5 120.53(14) . . ?
C3 C4 C6 124.00(14) . 5_667 ?
C5 C4 C6 115.47(13) . 5_667 ?
C6 C5 C4 120.24(14) . . ?
C6 C5 H5 119.9 . . ?
C4 C5 H5 119.9 . . ?
C5 C6 F1 118.82(14) . . ?
C5 C6 C4 124.29(14) . 5_667 ?
F1 C6 C4 116.89(13) . 5_667 ?
loop_
_geom_bond_atom_site_label_1
_geom_bond_atom_site_label_2
_geom_bond_distance
_geom_bond_site_symmetry_2
_geom_bond_publ_flag
F1 C6 1.340(2) . ?
N1 C1 1.144(2) . ?
C1 C3 1.430(3) . ?
N2 C2 1.143(2) . ?
C2 C3 1.430(2) . ?
C3 C4 1.374(2) . ?
C4 C5 1.435(2) . ?
C4 C6 1.438(2) 5_667 ?
C5 C6 1.339(2) . ?
C5 H5 0.9500 . ?
loop_
_geom_torsion_atom_site_label_1
_geom_torsion_atom_site_label_2
_geom_torsion_atom_site_label_3
_geom_torsion_atom_site_label_4
_geom_torsion
_geom_torsion_site_symmetry_1
_geom_torsion_site_symmetry_2
_geom_torsion_site_symmetry_3
_geom_torsion_site_symmetry_4
_geom_torsion_publ_flag
C2 C3 C4 C5 0.000(1) . . . . ?
C1 C3 C4 C5 180.000(0) . . . . ?
C2 C3 C4 C6 180.000(1) . . . 5_667 ?
C1 C3 C4 C6 0.000(1) . . . 5_667 ?
C3 C4 C5 C6 180.000(1) . . . . ?
C6 C4 C5 C6 0.000(1) 5_667 . . . ?
C4 C5 C6 F1 180.000(0) . . . . ?
C4 C5 C6 C4 0.000(1) . . . 5_667 ?
