#------------------------------------------------------------------------------
#$Date: 2020-10-04 06:37:09 +0300 (Sun, 04 Oct 2020) $
#$Revision: 257139 $
#$URL: file:///home/coder/svn-repositories/cod/cif/4/03/87/4038757.cif $
#------------------------------------------------------------------------------
#
# This file is available in the Crystallography Open Database (COD),
# http://www.crystallography.net/
#
# All data on this site have been placed in the public domain by the
# contributors.
#
data_4038757
loop_
_publ_author_name
'Zhang, Lili'
'Deng, Kezuan'
'Wu, Gaorong'
'Yang, Jinyue'
'Tang, Shibiao'
'Fu, Xiaopan'
'Xia, Chengcai'
'Ji, Yafei'
_publ_section_title
;
 Ruthenium(II)-Catalyzed \a-Fluoroalkenylation of Oxime Ethers with
 <i>gem</i>-Difluorostyrenes <i>via</i> C-H Activation and C-F Cleavage.
;
_journal_issue                   19
_journal_name_full               'The Journal of organic chemistry'
_journal_page_first              12670
_journal_page_last               12681
_journal_paper_doi               10.1021/acs.joc.0c01842
_journal_volume                  85
_journal_year                    2020
_chemical_formula_sum            'C18 H17 Br F N O2'
_chemical_formula_weight         378.23
_space_group_crystal_system      triclinic
_space_group_IT_number           2
_space_group_name_Hall           '-P 1'
_space_group_name_H-M_alt        'P -1'
_atom_sites_solution_hydrogens   geom
_audit_creation_method           SHELXL-2013
_cell_angle_alpha                78.408(2)
_cell_angle_beta                 89.070(2)
_cell_angle_gamma                86.152(2)
_cell_formula_units_Z            2
_cell_length_a                   6.8494(4)
_cell_length_b                   10.5416(7)
_cell_length_c                   11.8942(8)
_cell_measurement_reflns_used    9837
_cell_measurement_temperature    293(2)
_cell_measurement_theta_max      54.887
_cell_measurement_theta_min      4.723
_cell_volume                     839.39(9)
_computing_cell_refinement       'Bruker SAINT'
_computing_data_collection       'Bruker APEX2'
_computing_data_reduction        'Bruker SAINT'
_computing_molecular_graphics    'Bruker SHELXTL'
_computing_publication_material  'Bruker SHELXTL'
_computing_structure_refinement  'SHELXL-2013 (Sheldrick, 2013)'
_computing_structure_solution    'SHELXS-97 (Sheldrick 2008)'
_diffrn_ambient_temperature      293(2)
_diffrn_measured_fraction_theta_full 0.997
_diffrn_measured_fraction_theta_max 0.998
_diffrn_measurement_device_type  'Bruker APEX-II CCD'
_diffrn_measurement_method       '\f and \w scans'
_diffrn_radiation_type           MoK\a
_diffrn_radiation_wavelength     0.71073
_diffrn_reflns_av_R_equivalents  0.0477
_diffrn_reflns_av_unetI/netI     0.0308
_diffrn_reflns_Laue_measured_fraction_full 0.997
_diffrn_reflns_Laue_measured_fraction_max 0.998
_diffrn_reflns_limit_h_max       8
_diffrn_reflns_limit_h_min       -8
_diffrn_reflns_limit_k_max       12
_diffrn_reflns_limit_k_min       -12
_diffrn_reflns_limit_l_max       14
_diffrn_reflns_limit_l_min       -14
_diffrn_reflns_number            20510
_diffrn_reflns_point_group_measured_fraction_full 0.997
_diffrn_reflns_point_group_measured_fraction_max 0.998
_diffrn_reflns_theta_full        25.242
_diffrn_reflns_theta_max         25.990
_diffrn_reflns_theta_min         2.362
_exptl_absorpt_coefficient_mu    2.467
_exptl_absorpt_correction_T_max  0.7456
_exptl_absorpt_correction_T_min  0.4996
_exptl_absorpt_correction_type   multi-scan
_exptl_absorpt_process_details   sadabs
_exptl_crystal_colour            colorless
_exptl_crystal_density_diffrn    1.497
_exptl_crystal_description       prismatic
_exptl_crystal_F_000             384
_exptl_crystal_size_max          0.160
_exptl_crystal_size_mid          0.140
_exptl_crystal_size_min          0.110
_refine_diff_density_max         0.530
_refine_diff_density_min         -0.463
_refine_diff_density_rms         0.053
_refine_ls_extinction_method     none
_refine_ls_goodness_of_fit_ref   1.039
_refine_ls_hydrogen_treatment    constr
_refine_ls_matrix_type           full
_refine_ls_number_parameters     211
_refine_ls_number_reflns         3284
_refine_ls_number_restraints     0
_refine_ls_restrained_S_all      1.039
_refine_ls_R_factor_all          0.0396
_refine_ls_R_factor_gt           0.0317
_refine_ls_shift/su_max          0.000
_refine_ls_shift/su_mean         0.000
_refine_ls_structure_factor_coef Fsqd
_refine_ls_weighting_details
'w=1/[\s^2^(Fo^2^)+(0.0513P)^2^+0.2265P] where P=(Fo^2^+2Fc^2^)/3'
_refine_ls_weighting_scheme      calc
_refine_ls_wR_factor_gt          0.0855
_refine_ls_wR_factor_ref         0.0905
_reflns_Friedel_coverage         0.000
_reflns_number_gt                2817
_reflns_number_total             3284
_reflns_threshold_expression     'I > 2\s(I)'
_cod_data_source_file            jo0c01842_si_001.cif
_cod_data_source_block           mo_d8v20271_0m
_cod_depositor_comments          'Adding full bibliography for 4038757.cif.'
_cod_database_code               4038757
_shelx_space_group_comment
; 
The symmetry employed for this shelxl refinement is uniquely defined 
by the following loop, which should always be used as a source of 
symmetry information in preference to the above space-group names. 
They are only intended as comments. 
;
_shelx_estimated_absorpt_t_min   0.694
_shelx_estimated_absorpt_t_max   0.773
_shelxl_version_number           2013-4
_shelx_res_file
; 
TITL mo_d8v20271_0m_a.res in P-1 
CELL 0.71073 6.8494 10.5416 11.8942 78.408 89.07 86.152 
ZERR 2 0.0004 0.0007 0.0008 0.002 0.002 0.002 
LATT 1 
SFAC C  H  Br F  N  O 
UNIT 36 34 2 2 2 4 
OMIT 0 1 0 
OMIT  -3.00  52.00 
L.S. 8 
ACTA 
BOND $H 
FMAP 2 
PLAN 20 
LIST 4 
HTAB C18 F1_$5 
EQIV $5 x+1, y, z 
HTAB C17 O1_$4 
EQIV $4 -x+1, -y, -z 
HTAB C16 Br1_$3 
EQIV $3 -x, -y, -z+1 
HTAB C16 O2_$2 
EQIV $2 x-1, y, z 
HTAB C13 O2_$1 
EQIV $1 -x+2, -y+1, -z 
conf 
htab 
mpla c1 > c6 
mpla c9 > c14 
wpdb -1 
size 0.16 0.14 0.11 
HTAB C13 O2_$1 
HTAB C16 O2_$2 
HTAB C16 Br1_$3 
HTAB C17 O1_$4 
HTAB C18 F1_$5 
TEMP 20.24 
WGHT    0.051300    0.226500 
FVAR       0.95246 
BR1   3   -0.291124    0.039419    0.721083    11.00000    0.05934    0.06363 = 
         0.05904   -0.02118    0.01773   -0.02681 
F1    4    0.267349    0.490044    0.388318    11.00000    0.05982    0.04179 = 
         0.08052   -0.01972    0.02914   -0.00279 
O1    6    0.590994    0.102156    0.096701    11.00000    0.04969    0.03876 = 
         0.05851   -0.02361   -0.00245   -0.00481 
O2    6    1.060067    0.590791    0.121507    11.00000    0.05911    0.05144 = 
         0.05658   -0.02306    0.02094   -0.02179 
N1    5    0.679802    0.189180    0.153792    11.00000    0.04524    0.03527 = 
         0.04156   -0.01507    0.00049   -0.00532 
C1    1    0.010914    0.283173    0.470646    11.00000    0.04386    0.04106 = 
         0.04707   -0.00428   -0.00087    0.00011 
AFIX  43 
H1    2   -0.015598    0.362312    0.420795    11.00000   -1.20000 
AFIX   0 
C2    1   -0.134746    0.229038    0.543554    11.00000    0.03769    0.04821 = 
         0.05591   -0.01526    0.00343   -0.00063 
AFIX  43 
H2    2   -0.258655    0.271186    0.542187    11.00000   -1.20000 
AFIX   0 
C3    1   -0.094585    0.112364    0.618030    11.00000    0.04562    0.04562 = 
         0.04013   -0.01744    0.00547   -0.01381 
C4    1    0.086511    0.046414    0.619502    11.00000    0.05029    0.03841 = 
         0.03964   -0.00650   -0.00202   -0.00623 
AFIX  43 
H4    2    0.111900   -0.033026    0.669112    11.00000   -1.20000 
AFIX   0 
C5    1    0.229329    0.101256    0.545458    11.00000    0.04232    0.03926 = 
         0.04536   -0.01108   -0.00003   -0.00063 
AFIX  43 
H5    2    0.351409    0.056983    0.545316    11.00000   -1.20000 
AFIX   0 
C6    1    0.196431    0.220368    0.471241    11.00000    0.04016    0.03958 = 
         0.03643   -0.01338    0.00247   -0.00498 
C7    1    0.358602    0.273356    0.398094    11.00000    0.04441    0.04093 = 
         0.04381   -0.01343    0.00672   -0.00137 
AFIX  43 
H7    2    0.449162    0.212472    0.377109    11.00000   -1.20000 
AFIX   0 
C8    1    0.392585    0.396221    0.358231    11.00000    0.04285    0.03899 = 
         0.04033   -0.01416    0.00452    0.00137 
C9    1    0.558909    0.450629    0.290603    11.00000    0.04432    0.03362 = 
         0.03822   -0.01026    0.00360   -0.00140 
C10   1    0.639764    0.559437    0.316912    11.00000    0.05305    0.04115 = 
         0.04251   -0.01960    0.00841   -0.00380 
AFIX  43 
H10   2    0.579663    0.599016    0.372797    11.00000   -1.20000 
AFIX   0 
C11   1    0.804511    0.610032    0.263357    11.00000    0.05396    0.03665 = 
         0.04451   -0.01626    0.00472   -0.00731 
AFIX  43 
H11   2    0.853957    0.682946    0.282477    11.00000   -1.20000 
AFIX   0 
C12   1    0.896464    0.551455    0.180536    11.00000    0.04575    0.03686 = 
         0.03907   -0.00892    0.00437   -0.00698 
C13   1    0.817710    0.443548    0.151866    11.00000    0.04680    0.03707 = 
         0.03588   -0.01396    0.00568   -0.00305 
AFIX  43 
H13   2    0.879969    0.404146    0.096510    11.00000   -1.20000 
AFIX   0 
C14   1    0.649673    0.393705    0.203556    11.00000    0.04047    0.03160 = 
         0.03434   -0.00944   -0.00084    0.00089 
C15   1    0.563579    0.288539    0.156911    11.00000    0.04215    0.03512 = 
         0.03347   -0.00869    0.00165   -0.00418 
C16   1    0.362487    0.311222    0.106153    11.00000    0.05053    0.05036 = 
         0.06297   -0.01975   -0.01394    0.00420 
AFIX 137 
H16A  2    0.371619    0.320412    0.024321    11.00000   -1.50000 
H16B  2    0.300284    0.388937    0.124425    11.00000   -1.50000 
H16C  2    0.286673    0.238856    0.137180    11.00000   -1.50000 
AFIX   0 
C17   1    0.727977   -0.003958    0.090395    11.00000    0.07010    0.04440 = 
         0.06739   -0.02757   -0.00075    0.00334 
AFIX 137 
H17A  2    0.680578   -0.053498    0.038288    11.00000   -1.50000 
H17B  2    0.744128   -0.058308    0.165180    11.00000   -1.50000 
H17C  2    0.851571    0.028394    0.063465    11.00000   -1.50000 
AFIX   0 
C18   1    1.145486    0.703428    0.143806    11.00000    0.06757    0.04822 = 
         0.06229   -0.01697    0.01624   -0.02299 
AFIX 137 
H18A  2    1.260856    0.719119    0.097530    11.00000   -1.50000 
H18B  2    1.179823    0.689652    0.223471    11.00000   -1.50000 
H18C  2    1.053087    0.777084    0.125378    11.00000   -1.50000 
AFIX   0 
HKLF 4 
  
REM  mo_d8v20271_0m_a.res in P-1 
REM R1 =  0.0317 for    2817 Fo > 4sig(Fo)  and  0.0396 for all    3284 data 
REM    211 parameters refined using      0 restraints 
  
END 
  
WGHT      0.0512      0.2274 
  
REM Instructions for potential hydrogen bonds 
HTAB C13 O2_$1 
HTAB C16 O2_$2 
HTAB C16 Br1_$3 
HTAB C17 O1_$4 
HTAB C18 F1_$5 
  
REM Highest difference peak  0.530,  deepest hole -0.463,  1-sigma level  0.053 
Q1    1  -0.3451  0.0927  0.6541  11.00000  0.05    0.53 
Q2    1  -0.2669 -0.0009  0.8235  11.00000  0.05    0.42 
Q3    1  -0.3978  0.1383  0.7180  11.00000  0.05    0.36 
Q4    1  -0.2013 -0.0361  0.6848  11.00000  0.05    0.33 
Q5    1  -0.2337 -0.0036  0.6552  11.00000  0.05    0.32 
Q6    1  -0.3279  0.0638  0.7984  11.00000  0.05    0.32 
Q7    1   0.6051  0.4160  0.2513  11.00000  0.05    0.26 
Q8    1   0.7325 -0.0134 -0.0923  11.00000  0.05    0.23 
Q9    1  -0.2978  0.0773  0.5686  11.00000  0.05    0.23 
Q10   1   0.4329  0.3419  0.4219  11.00000  0.05    0.21 
Q11   1   0.8601 -0.0165  0.1387  11.00000  0.05    0.20 
Q12   1   0.8741  0.5568  0.2393  11.00000  0.05    0.20 
Q13   1   0.2119  0.1821  0.5372  11.00000  0.05    0.18 
Q14   1  -0.0960  0.1822  0.5999  11.00000  0.05    0.18 
Q15   1   0.6077  0.2617  0.1017  11.00000  0.05    0.17 
Q16   1   0.8332  0.4438  0.0734  11.00000  0.05    0.17 
Q17   1   0.0084  0.0991  0.6400  11.00000  0.05    0.17 
Q18   1   1.0939  0.5655  0.0698  11.00000  0.05    0.17 
Q19   1   0.4664  0.4190  0.3189  11.00000  0.05    0.16 
Q20   1   0.5624  0.1399 -0.0009  11.00000  0.05    0.16 
;
_shelx_res_checksum              96039
_shelx_hkl_file
; 
  -1   0   0  182.78   10.90 
  -1   0   0  190.78   11.00 
  -1   0   0  182.68   10.90 
   1   0   0  208.58   10.90 
  -2   0   0 4494.15  255.47 
  -2   0   0 4282.87  255.27 
  -2   0   0 5144.79  256.27 
  -2   0   0 5089.49  255.47 
  -2   0   0 4411.96  255.27 
   2   0   0 4577.14  255.67 
   2   0   0 4353.06  255.27 
   2   0   0 4349.96  255.47 
   2   0   0 4480.85  255.17 
   2   0   0 4535.65  255.07 
   2   0   0 4562.54  256.07 
  -3   0   0 1524.25   85.99 
  -3   0   0 1485.45   85.79 
   3   0   0 1582.14   86.49 
   3   0   0 1521.75   85.79 
   3   0   0 1566.74   86.19 
   3   0   0 1478.55   85.39 
   3   0   0 1517.25   87.09 
  -5   0   0  261.67   16.90 
  -5   0   0  291.47   18.40 
  -5   0   0  267.87   17.10 
   5   0   0  266.87   16.30 
   5   0   0  249.08   17.60 
   5   0   0  255.87   17.20 
  -6   0   0   12.10    4.00 
  -6   0   0   12.70    4.20 
  -6   0   0   20.30    7.20 
   6   0   0   13.20    3.20 
   6   0   0   13.60    4.50 
   6   0   0   26.00    5.50 
  -7   0   0   57.59   10.50 
  -7   0   0   65.49    7.60 
   7   0   0   65.59    6.60 
   7   0   0   58.79    8.50 
   7   0   0   60.59    7.80 
  -8   0   0    5.00   10.10 
  -8   0   0   17.00    5.50 
   8   0   0    2.90    3.30 
   8   0   0    4.00    6.00 
   8   0   0   14.90    4.80 
   8  -1   0   31.50    7.50 
   8  -1   0   39.40    8.10 
   8  -1   0   33.50    5.10 
  -8   1   0   19.40   11.60 
  -8   1   0   27.30    6.90 
   7  -1   0   59.69    8.40 
   7  -1   0   61.89    6.60 
   7  -1   0   51.59    8.00 
  -7   1   0   49.10    7.30 
  -7   1   0   39.40   10.70 
  -7   1   0   43.60    7.20 
   6  -1   0  115.09    8.80 
   6  -1   0  118.09   10.70 
   6  -1   0  119.29   11.10 
  -6   1   0  110.59   10.70 
  -6   1   0  108.09   10.40 
  -6   1   0  122.69   14.60 
   5  -1   0  718.33   41.40 
   5  -1   0  715.13   40.30 
   5  -1   0  664.63   41.30 
  -5   1   0  740.43   42.50 
  -5   1   0  673.33   40.70 
  -5   1   0  658.13   41.10 
   4  -1   0   98.39    7.30 
   4  -1   0   84.49    7.70 
   4  -1   0   76.29    8.70 
   4  -1   0   91.19    6.40 
   4  -1   0   81.49    5.80 
   4  -1   0   80.49    6.30 
  -4   1   0   74.09    6.30 
  -4   1   0   76.39    6.90 
  -4   1   0   82.99    7.70 
  -4   1   0  103.29    9.30 
  -4   1   0   86.49    7.50 
   3  -1   0  143.39    9.00 
   3  -1   0  141.59    9.40 
   3  -1   0  141.79    9.90 
   3  -1   0  149.69    9.60 
   3  -1   0  145.69   10.70 
   3  -1   0  151.88    8.90 
  -3   1   0  153.68   10.00 
  -3   1   0  127.99    9.40 
  -3   1   0  133.19    9.20 
  -3   1   0  118.09    9.00 
  -3   1   0  172.98   10.80 
   2  -1   0 2267.07  132.99 
   2  -1   0 2362.06  132.69 
   2  -1   0 2383.66  132.89 
   2  -1   0 2448.46  132.59 
  -2   1   0 2575.84  133.39 
  -2   1   0 2373.76  133.09 
  -2   1   0 2294.37  132.99 
  -2   1   0 2239.88  132.79 
   1  -1   0  441.66   24.10 
   1  -1   0  420.26   24.60 
   1  -1   0  430.56   24.10 
   1  -1   0  397.36   24.30 
   1  -1   0  430.56   24.10 
  -1   1   0  422.16   24.10 
   0  -1   0    0.00    0.10 
   0   1   0    0.10    0.20 
  -1  -1   0   77.69    4.80 
  -1  -1   0   78.19    4.80 
  -1  -1   0   88.89    4.90 
  -1  -1   0   84.69    4.70 
  -1  -1   0   88.39    5.30 
   1   1   0   82.19    5.20 
   1   1   0   76.69    4.80 
   1   1   0   76.79    4.80 
  -2  -1   0 1465.95   89.79 
  -2  -1   0 1812.92   90.79 
  -2  -1   0 1591.04   89.69 
  -2  -1   0 1516.65   89.69 
  -2  -1   0 1640.84   89.79 
   2   1   0 1694.63   90.59 
   2   1   0 1518.75   89.79 
   2   1   0 1600.34   89.79 
  -3  -1   0 1295.97   70.19 
  -3  -1   0 1155.38   69.99 
  -3  -1   0 1414.96   71.79 
  -3  -1   0 1208.68   70.09 
  -3  -1   0 1213.38   70.19 
   3   1   0 1245.78   70.89 
   3   1   0 1225.38   71.29 
   3   1   0 1217.88   70.09 
   3   1   0 1251.77   70.19 
  -4  -1   0  875.21   47.90 
  -4  -1   0  744.93   47.40 
  -4  -1   0  839.12   47.70 
  -4  -1   0  837.02   47.70 
  -4  -1   0  917.81   49.80 
   4   1   0  855.61   47.60 
   4   1   0  845.72   47.80 
   4   1   0  764.82   49.10 
   4   1   0  854.01   48.70 
  -5  -1   0  587.64   33.70 
  -5  -1   0  533.15   33.20 
  -5  -1   0  546.65   33.00 
  -5  -1   0  592.84   35.90 
   5   1   0  569.04   33.20 
   5   1   0  583.64   34.50 
   5   1   0  569.44   32.90 
  -6  -1   0  401.96   22.40 
  -6  -1   0  341.47   21.70 
   6   1   0  389.56   24.00 
   6   1   0  344.37   21.30 
   6   1   0  314.67   21.80 
  -7  -1   0  162.78   15.90 
  -7  -1   0  149.79   12.20 
   7   1   0  171.48   14.10 
   7   1   0  154.58   10.70 
   7   1   0  144.19   11.60 
  -8  -1   0   -8.30    8.30 
  -8  -1   0    5.50    4.70 
   8   1   0   -2.10    3.00 
   8   1   0   -7.30    5.60 
   8   1   0    2.20    2.80 
   8  -2   0   39.40    8.60 
   8  -2   0   28.90    5.20 
   8  -2   0   25.80    7.20 
  -8   2   0   44.40    8.20 
  -8   2   0   31.20   13.30 
   7  -2   0   54.19    8.00 
   7  -2   0   47.90    8.40 
   7  -2   0   51.89    6.20 
  -7   2   0   61.99    8.20 
  -7   2   0   32.50    7.50 
  -7   2   0   55.89   12.70 
   6  -2   0   26.50    4.30 
   6  -2   0   23.80    5.40 
   6  -2   0   16.90    2.90 
   6  -2   0   20.80    6.30 
  -6   2   0   20.50    5.10 
  -6   2   0   15.80    5.90 
  -6   2   0   31.50    9.70 
   5  -2   0  229.58   14.80 
   5  -2   0  214.48   16.90 
   5  -2   0  253.37   15.40 
   5  -2   0  250.97   16.30 
  -5   2   0  243.58   16.20 
  -5   2   0  235.38   19.60 
   4  -2   0   20.10    4.80 
   4  -2   0   17.20    3.80 
   4  -2   0   22.70    3.10 
   4  -2   0   16.50    5.10 
   4  -2   0   21.50    3.10 
   4  -2   0   22.60    3.90 
  -4   2   0   31.30    4.40 
  -4   2   0   26.00    4.80 
  -4   2   0   31.80    6.50 
  -4   2   0   21.10    3.40 
  -4   2   0   20.10    3.70 
   3  -2   0  363.26   24.00 
   3  -2   0  399.16   23.20 
   3  -2   0  406.06   23.50 
   3  -2   0  400.36   23.20 
  -3   2   0  452.15   25.50 
  -3   2   0  378.76   23.60 
  -3   2   0  391.06   24.20 
  -3   2   0  381.06   23.50 
   2  -2   0   97.69    6.20 
   2  -2   0   94.29    6.20 
   2  -2   0   92.39    6.20 
   2  -2   0   85.19    7.00 
   2  -2   0   95.19    7.80 
  -2   2   0   91.49    6.40 
  -2   2   0   83.99    6.30 
  -2   2   0   88.19    6.30 
  -2   2   0  101.59    8.70 
   1  -2   0 1959.50  115.39 
   1  -2   0 2048.40  115.89 
   1  -2   0 2031.00  114.99 
   1  -2   0 2070.59  114.79 
   1  -2   0 2045.20  114.99 
  -1   2   0 1991.40  115.49 
  -1   2   0 2266.67  116.19 
  -1   2   0 1994.30  114.99 
   0  -2   0 3945.61  236.78 
   0  -2   0 4475.95  237.18 
   0   2   0 4265.47  237.08 
   0   2   0 4246.98  236.98 
  -1  -2   0  780.12   43.10 
  -1  -2   0  736.03   43.20 
  -1  -2   0  799.02   43.50 
  -1  -2   0  736.43   42.90 
  -1  -2   0  757.02   42.90 
   1   2   0  799.32   43.20 
   1   2   0  743.93   43.10 
   1   2   0  726.33   42.90 
   1   2   0  725.83   42.90 
   1   2   0  814.22   43.00 
  -2  -2   0 7862.11  449.56 
  -2  -2   0 8540.85  449.66 
  -2  -2   0 7680.83  449.46 
  -2  -2   0 8939.01  450.55 
   2   2   0 7492.05  449.46 
   2   2   0 7820.42  450.15 
  -3  -2   0  538.75   30.30 
  -3  -2   0  566.84   30.40 
  -3  -2   0  483.45   30.40 
  -3  -2   0  525.05   30.40 
  -3  -2   0  595.14   32.10 
   3   2   0  532.65   30.50 
   3   2   0  507.95   30.40 
   3   2   0  530.65   31.60 
  -4  -2   0 1279.07   71.69 
  -4  -2   0 1348.37   71.89 
  -4  -2   0 1436.26   74.19 
  -4  -2   0 1162.68   71.59 
  -4  -2   0 1268.27   71.79 
   4   2   0 1246.98   71.79 
   4   2   0 1251.37   71.79 
   4   2   0 1190.38   73.29 
   4   2   0 1283.27   73.09 
  -5  -2   0  990.40   59.99 
  -5  -2   0 1137.79   62.99 
  -5  -2   0 1091.29   60.29 
  -5  -2   0 1040.40   59.69 
   5   2   0 1060.09   59.79 
   5   2   0 1004.40   59.79 
   5   2   0 1069.89   61.59 
  -6  -2   0  450.55   26.00 
  -6  -2   0  493.45   29.50 
  -6  -2   0  408.96   25.20 
   6   2   0  407.96   24.60 
   6   2   0  421.46   27.00 
   6   2   0  366.16   24.70 
  -7  -2   0   35.10    7.50 
  -7  -2   0   32.30    5.00 
   7   2   0   25.30    3.80 
   7   2   0   33.30    4.30 
   7   2   0   32.80    7.00 
  -8  -2   0    3.20    8.10 
  -8  -2   0    4.20    4.00 
   8   2   0    1.10    2.60 
   8   2   0   -1.20    2.30 
   8   2   0   -0.80    6.00 
   8  -3   0    8.70    6.60 
   8  -3   0    2.10    3.80 
   8  -3   0    5.50    6.30 
  -8   3   0   19.90   17.50 
   7  -3   0    0.00    6.30 
   7  -3   0    1.50    3.50 
   7  -3   0    1.20    4.90 
  -7   3   0   -1.20   11.50 
  -7   3   0    5.80    5.50 
  -7   3   0   -3.70    5.40 
   6  -3   0   20.80    5.00 
   6  -3   0   16.10    6.50 
   6  -3   0   21.50    5.40 
   6  -3   0   18.90    3.50 
  -6   3   0   15.40    5.50 
  -6   3   0   13.60    6.20 
   5  -3   0   95.49    7.60 
   5  -3   0   96.19    7.90 
   5  -3   0   83.79   10.90 
   5  -3   0  104.49    8.70 
  -5   3   0  104.59   13.40 
  -5   3   0   85.39   11.20 
  -5   3   0   58.49    9.40 
   4  -3   0  102.89    7.50 
   4  -3   0   90.69    7.30 
   4  -3   0   85.69    9.60 
   4  -3   0  100.29    7.90 
  -4   3   0   91.59   11.60 
  -4   3   0   77.89    7.60 
  -4   3   0   98.19    9.90 
   3  -3   0  635.84   35.20 
   3  -3   0  635.44   35.10 
   3  -3   0  614.64   35.10 
   3  -3   0  558.04   36.00 
   3  -3   0  547.85   36.50 
  -3   3   0  682.63   38.30 
  -3   3   0  580.14   35.40 
  -3   3   0  582.04   35.40 
  -3   3   0  607.74   35.50 
   2  -3   0   64.89    4.70 
   2  -3   0   61.09    4.90 
   2  -3   0   57.39    5.00 
   2  -3   0   59.39    7.00 
   2  -3   0   70.39    6.40 
  -2   3   0   68.89    5.20 
  -2   3   0   59.09    4.90 
  -2   3   0   63.09    5.40 
  -2   3   0   61.99    7.80 
  -2   3   0   52.99    6.40 
   1  -3   0  710.73   42.20 
   1  -3   0  737.73   46.00 
   1  -3   0  756.32   41.70 
   1  -3   0  739.63   41.30 
   1  -3   0  744.43   41.60 
  -1   3   0  779.62   43.40 
  -1   3   0  674.43   41.40 
  -1   3   0  723.33   41.70 
  -1   3   0  713.63   41.80 
  -1   3   0  720.03   42.50 
   0  -3   0 1615.54   90.99 
   0  -3   0 1491.45   91.99 
   0  -3   0 1597.84   91.09 
   0  -3   0 1739.13   92.29 
   0  -3   0 1622.24   91.09 
   0   3   0 1551.14   91.09 
   0   3   0 1580.64   90.89 
   0   3   0 1600.84   91.29 
   0   3   0 1733.13   92.09 
   0   3   0 1675.53   91.79 
  -1  -3   0  395.86   23.10 
  -1  -3   0  420.66   23.50 
  -1  -3   0  399.46   23.20 
  -1  -3   0  405.46   23.60 
   1   3   0  416.96   23.50 
   1   3   0  398.96   23.10 
   1   3   0  385.26   23.20 
   1   3   0  387.66   23.10 
   1   3   0  415.56   23.70 
  -2  -3   0 1953.30  108.49 
  -2  -3   0 2137.89  107.99 
  -2  -3   0 1759.82  107.89 
  -2  -3   0 1895.61  107.69 
  -2  -3   0 1930.71  107.59 
   2   3   0 1804.22  108.09 
   2   3   0 1920.91  107.29 
   2   3   0 1861.41  107.59 
   2   3   0 1999.70  107.99 
  -3  -3   0  439.76   25.60 
  -3  -3   0  398.56   24.00 
  -3  -3   0  439.76   24.00 
  -3  -3   0  426.36   24.20 
   3   3   0  404.16   25.00 
   3   3   0  410.56   24.20 
   3   3   0  400.86   24.00 
  -4  -3   0  914.81   49.90 
  -4  -3   0  861.31   49.80 
  -4  -3   0  910.71   49.80 
  -4  -3   0  856.91   49.90 
  -4  -3   0  987.00   52.29 
   4   3   0  866.71   49.90 
   4   3   0  814.22   49.70 
   4   3   0  823.72   51.19 
  -5  -3   0   35.90    4.10 
  -5  -3   0   25.60    6.30 
  -5  -3   0   34.00    4.30 
   5   3   0   35.40    3.80 
   5   3   0   31.60    4.00 
   5   3   0   38.00    5.80 
  -6  -3   0   24.80    4.30 
  -6  -3   0   15.30    7.00 
  -6  -3   0   19.20    3.50 
   6   3   0   16.50    3.00 
   6   3   0   17.20    2.90 
   6   3   0   13.40    5.30 
  -7  -3   0  229.98   20.00 
  -7  -3   0  189.18   13.80 
  -7  -3   0  225.38   15.40 
   7   3   0  196.38   12.80 
   7   3   0  212.28   16.80 
   7   3   0  189.78   12.60 
  -8  -3   0    6.30    4.10 
  -8  -3   0    6.70    7.50 
   8   3   0    8.20    6.60 
   8  -4   0   11.40    4.60 
   8  -4   0   15.90    6.80 
  -8   4   0   23.80   15.50 
   7  -4   0   96.99    9.20 
   7  -4   0   95.99   10.60 
   7  -4   0   56.79   10.30 
  -7   4   0   56.09   10.20 
  -7   4   0   75.49   16.20 
  -7   4   0   80.19   10.90 
   6  -4   0  101.39   16.50 
   6  -4   0   97.09    9.20 
   6  -4   0  101.59    8.50 
   6  -4   0  106.09    9.90 
  -6   4   0   70.99   11.30 
  -6   4   0   83.49   15.30 
   5  -4   0  290.17   17.80 
   5  -4   0  270.87   17.40 
   5  -4   0  258.57   17.20 
   5  -4   0  233.98   19.50 
  -5   4   0  288.07   19.00 
  -5   4   0  242.08   24.10 
  -5   4   0  267.07   20.40 
   4  -4   0   80.99    7.10 
   4  -4   0   75.09    7.00 
   4  -4   0   90.29    7.30 
   4  -4   0   79.09    9.10 
  -4   4   0   77.49    8.30 
  -4   4   0   65.29   11.40 
   3  -4   0  438.36   30.80 
   3  -4   0  442.86   30.10 
   3  -4   0  500.95   29.00 
   3  -4   0  523.65   29.00 
   3  -4   0  511.65   28.70 
  -3   4   0  524.55   33.00 
  -3   4   0  479.35   29.50 
  -3   4   0  483.15   29.30 
  -3   4   0  464.65   29.10 
  -3   4   0  506.25   30.80 
   2  -4   0  235.38   17.60 
   2  -4   0  249.18   15.10 
   2  -4   0  251.57   14.80 
   2  -4   0  257.87   15.30 
   2  -4   0  210.58   16.10 
  -2   4   0  230.28   15.50 
  -2   4   0  241.38   15.40 
  -2   4   0  256.37   18.80 
  -2   4   0  263.47   17.20 
   1  -4   0  581.94   32.50 
   1  -4   0  598.84   32.80 
   1  -4   0  546.75   34.70 
   1  -4   0  600.74   33.00 
   1  -4   0  538.55   34.50 
  -1   4   0  599.84   35.20 
  -1   4   0  540.55   32.50 
  -1   4   0  547.25   33.10 
  -1   4   0  529.65   33.10 
  -1   4   0  586.44   34.20 
   0  -4   0 1106.39   66.39 
   0  -4   0 1216.28   65.89 
   0  -4   0 1145.19   65.69 
   0  -4   0 1177.78   65.79 
   0  -4   0 1149.08   67.29 
   0   4   0 1134.19   65.99 
   0   4   0 1136.19   65.79 
   0   4   0 1120.69   65.49 
   0   4   0 1224.58   67.19 
   0   4   0 1209.68   66.89 
  -1  -4   0  771.82   45.60 
  -1  -4   0  805.32   45.30 
  -1  -4   0  791.22   45.00 
   1   4   0  762.32   45.00 
   1   4   0  820.92   45.70 
   1   4   0  757.92   45.10 
   1   4   0  757.62   44.90 
   1   4   0  858.21   46.00 
  -2  -4   0 2428.06  139.29 
  -2  -4   0 2556.44  140.29 
  -2  -4   0 2414.36  139.49 
  -2  -4   0 2525.95  139.89 
  -2  -4   0 2608.84  139.89 
   2   4   0 2417.96  139.19 
   2   4   0 2571.74  139.99 
   2   4   0 2561.24  139.39 
   2   4   0 2274.87  139.69 
  -3  -4   0  134.69    8.50 
  -3  -4   0  131.99    8.90 
  -3  -4   0  144.49   10.40 
   3   4   0  117.89    9.20 
   3   4   0  130.49    8.40 
  -4  -4   0  759.12   42.60 
  -4  -4   0  756.22   42.30 
  -4  -4   0  731.43   42.20 
  -4  -4   0  795.12   44.60 
   4   4   0  704.53   42.10 
   4   4   0  674.43   43.40 
   4   4   0  757.12   42.40 
  -5  -4   0  189.68   14.70 
  -5  -4   0  186.98   11.40 
  -5  -4   0  173.48   11.50 
   5   4   0  150.08   10.70 
  -6  -4   0  226.98   14.10 
  -6  -4   0  221.98   18.10 
  -6  -4   0  194.88   13.80 
   6   4   0  207.18   16.20 
   6   4   0  200.18   13.00 
  -7  -4   0   97.29    9.20 
  -7  -4   0  123.39   10.50 
  -7  -4   0  115.39   14.60 
   7   4   0  112.99   12.40 
  -8  -4   0   34.00    5.70 
  -8  -4   0   60.69    7.80 
  -8  -4   0   48.50   12.10 
   8   4   0   36.20    8.60 
   8  -5   0   38.00    6.50 
   8  -5   0   51.19    8.20 
  -8   5   0   28.50   15.60 
   7  -5   0   10.90    4.80 
   7  -5   0   12.00    7.50 
   7  -5   0   12.60    5.40 
  -7   5   0   19.10    7.60 
  -7   5   0    6.00   13.00 
   6  -5   0  170.78   12.60 
   6  -5   0  120.89   15.50 
   6  -5   0  154.18   11.90 
   6  -5   0  168.08   12.60 
  -6   5   0  129.59   19.00 
  -6   5   0  152.18   14.60 
  -6   5   0  158.28   17.00 
   5  -5   0  112.49    9.30 
   5  -5   0   96.69    8.70 
   5  -5   0   98.29    9.00 
   5  -5   0   95.89   11.40 
  -5   5   0   90.29   15.50 
  -5   5   0   91.49   11.00 
   4  -5   0    2.30    5.40 
   4  -5   0    4.50    3.10 
   4  -5   0    1.90    2.70 
   4  -5   0    2.50    2.80 
  -4   5   0    4.10    4.40 
  -4   5   0  -11.10    8.30 
  -4   5   0   -0.30    5.60 
   3  -5   0  370.96   23.20 
   3  -5   0  335.47   23.10 
   3  -5   0  318.27   24.30 
   3  -5   0  378.66   21.00 
  -3   5   0  360.96   22.10 
  -3   5   0  354.06   22.30 
  -3   5   0  319.77   23.90 
  -3   5   0  313.77   22.10 
   2  -5   0   10.90    4.60 
   2  -5   0   18.60    6.00 
   2  -5   0   14.10    3.20 
   2  -5   0   12.20    2.60 
  -2   5   0   20.90    3.70 
  -2   5   0   14.10    3.60 
  -2   5   0   11.80    4.90 
  -2   5   0    8.70    2.90 
  -2   5   0    7.50    6.50 
   1  -5   0  282.47   19.30 
   1  -5   0  290.77   20.90 
   1  -5   0  315.17   17.80 
   1  -5   0  312.67   18.30 
   1  -5   0  302.77   18.00 
  -1   5   0  301.57   21.10 
  -1   5   0  273.77   18.50 
  -1   5   0  271.57   17.60 
  -1   5   0  305.37   20.00 
  -1   5   0  297.27   18.30 
   0  -5   0   72.09    8.50 
   0  -5   0   62.99    6.90 
   0  -5   0   62.49    5.40 
   0  -5   0   65.09    5.30 
   0  -5   0   68.89    5.80 
   0   5   0   65.49    7.60 
   0   5   0   63.09    7.70 
   0   5   0   71.69    5.00 
   0   5   0   63.39    5.50 
   0   5   0   65.49    5.90 
  -1  -5   0  945.31   54.49 
  -1  -5   0  903.91   54.99 
  -1  -5   0  945.41   55.59 
  -1  -5   0  989.70   54.39 
   1   5   0 1045.10   55.59 
   1   5   0  930.21   54.29 
   1   5   0  971.60   55.19 
   1   5   0  921.31   54.39 
   1   5   0  918.51   54.19 
  -2  -5   0  759.12   44.00 
  -2  -5   0  792.82   44.90 
  -2  -5   0  766.02   43.90 
  -2  -5   0  780.72   44.80 
  -2  -5   0  785.12   45.90 
   2   5   0  792.12   44.80 
   2   5   0  768.22   44.10 
   2   5   0  761.12   44.30 
   2   5   0  747.03   43.80 
   2   5   0  707.93   44.00 
  -3  -5   0  212.18   13.50 
  -3  -5   0  211.98   13.70 
  -3  -5   0  204.78   12.90 
  -3  -5   0  211.68   14.60 
  -3  -5   0  202.88   12.80 
   3   5   0  201.78   12.70 
   3   5   0  194.68   13.40 
   3   5   0  203.38   13.40 
  -4  -5   0  142.79   10.00 
  -4  -5   0  153.48   10.70 
  -4  -5   0  154.88   12.40 
  -4  -5   0  147.99    9.80 
   4   5   0  157.38   10.30 
   4   5   0  145.19    9.70 
  -5  -5   0    3.80    2.60 
  -5  -5   0   -0.70    4.80 
  -5  -5   0    2.40    2.90 
  -5  -5   0    2.40    2.20 
   5   5   0   -0.50    1.80 
   5   5   0    4.90    2.30 
  -6  -5   0  183.98   11.90 
  -6  -5   0  168.98   12.00 
  -6  -5   0  182.28   16.70 
   6   5   0  142.79   10.30 
   6   5   0  161.88   14.70 
  -7  -5   0   25.00    5.00 
  -7  -5   0   33.90    5.50 
  -7  -5   0   25.10    9.40 
   7   5   0   25.10    7.50 
  -8  -5   0   21.10    5.10 
   7  -6   0    4.80    4.60 
  -7   6   0   14.10   13.20 
   6  -6   0   13.00    7.60 
   6  -6   0   15.60    4.80 
   6  -6   0   21.70    5.30 
  -6   6   0   15.00    7.00 
  -6   6   0    7.50   12.40 
   5  -6   0    8.70    4.20 
   5  -6   0    7.20    7.30 
   5  -6   0   13.40    4.00 
   5  -6   0    7.80    3.80 
  -5   6   0   -1.90   10.10 
  -5   6   0   18.40    6.20 
  -5   6   0   17.40    8.30 
   4  -6   0  248.98   15.50 
   4  -6   0  211.28   18.70 
   4  -6   0  227.78   16.00 
   4  -6   0  257.47   16.40 
  -4   6   0  239.18   19.70 
  -4   6   0  195.58   23.40 
  -4   6   0  235.08   17.80 
   3  -6   0  481.95   27.30 
   3  -6   0  483.75   27.90 
   3  -6   0  482.05   28.10 
   3  -6   0  406.06   29.50 
  -3   6   0  517.85   31.30 
  -3   6   0  428.36   28.50 
  -3   6   0  422.76   28.70 
  -3   6   0  421.06   33.40 
   2  -6   0   36.30    5.00 
   2  -6   0   18.50    7.30 
   2  -6   0   28.70    4.00 
   2  -6   0   28.80    3.70 
   2  -6   0   23.80    5.80 
  -2   6   0   26.40    8.70 
  -2   6   0   23.60    3.80 
  -2   6   0   20.50    6.00 
  -2   6   0   27.40    4.40 
  -2   6   0   21.80    4.80 
   1  -6   0  704.33   45.70 
   1  -6   0  718.93   47.20 
   1  -6   0  810.62   44.80 
   1  -6   0  837.72   44.40 
   1  -6   0  782.52   44.60 
  -1   6   0  703.13   45.00 
  -1   6   0  798.62   46.70 
  -1   6   0  859.11   47.90 
  -1   6   0  730.43   44.10 
  -1   6   0  738.73   44.80 
   0  -6   0  413.26   27.30 
   0  -6   0  469.55   26.30 
   0  -6   0  450.25   26.20 
   0  -6   0  372.46   29.70 
   0  -6   0  459.45   26.40 
   0   6   0  435.16   26.40 
   0   6   0  425.26   25.70 
   0   6   0  462.65   33.90 
   0   6   0  469.25   28.40 
   0   6   0  431.96   26.70 
  -1  -6   0  536.35   30.40 
  -1  -6   0  507.95   30.40 
  -1  -6   0  505.55   32.20 
   1   6   0  485.55   30.40 
   1   6   0  490.25   29.90 
   1   6   0  529.45   31.40 
   1   6   0  543.95   32.00 
   1   6   0  506.75   30.20 
  -2  -6   0 1449.26   79.59 
  -2  -6   0 1312.57   79.39 
  -2  -6   0 1376.66   78.79 
  -2  -6   0 1436.56   80.09 
  -2  -6   0 1439.26   78.69 
   2   6   0 1411.66   79.79 
   2   6   0 1403.56   78.69 
   2   6   0 1288.87   78.69 
   2   6   0 1325.07   78.69 
   2   6   0 1409.26   79.09 
  -3  -6   0  562.84   31.70 
  -3  -6   0  486.25   30.00 
  -3  -6   0  497.45   30.00 
  -3  -6   0  542.25   31.30 
   3   6   0  454.55   30.20 
   3   6   0  514.65   29.90 
   3   6   0  499.25   29.40 
   3   6   0  532.45   30.90 
  -4  -6   0 2693.43  143.09 
  -4  -6   0 2507.25  141.59 
  -4  -6   0 2476.95  140.69 
  -4  -6   0 2478.05  140.79 
   4   6   0 2249.38  140.39 
   4   6   0 2602.44  141.29 
  -5  -6   0   78.49    8.50 
  -5  -6   0   92.79   11.10 
  -5  -6   0   79.69    6.60 
  -5  -6   0   84.09    7.50 
   5   6   0   77.29    9.20 
   5   6   0   86.29    7.20 
  -6  -6   0  180.48   16.60 
  -6  -6   0  157.88   13.40 
  -6  -6   0  178.38   12.50 
   6   6   0  166.68   11.00 
  -7  -6   0   43.40   10.90 
  -7  -6   0   41.60    6.30 
  -7  -6   0   51.49    6.80 
   7   6   0   35.30    8.30 
  -8  -6   0   26.60    6.00 
  -8  -6   0   37.40   12.30 
  -8  -6   0   35.30    6.60 
   8   6   0   29.30    8.40 
   7  -7   0    7.60    5.20 
   7  -7   0    5.60    5.60 
  -7   7   0   17.80   16.10 
   6  -7   0    9.40    4.80 
   6  -7   0   14.60    4.70 
  -6   7   0   20.20    8.10 
  -6   7   0   -6.60    6.50 
  -6   7   0    6.40   13.70 
   5  -7   0   -7.90   11.10 
   5  -7   0   -1.00    3.80 
   5  -7   0   -3.40    3.30 
  -5   7   0   -4.30   11.00 
  -5   7   0   -2.20    7.80 
  -5   7   0   -7.60    5.30 
   4  -7   0   13.80    3.60 
   4  -7   0   10.90    4.20 
   4  -7   0    9.00    4.40 
   4  -7   0    5.90    6.90 
  -4   7   0    3.30    8.10 
  -4   7   0    4.80   10.20 
  -4   7   0   13.20    6.20 
   3  -7   0  381.16   28.80 
   3  -7   0  433.76   26.80 
   3  -7   0  450.15   25.90 
  -3   7   0  434.46   27.70 
  -3   7   0  437.96   30.50 
  -3   7   0  428.56   33.40 
  -3   7   0  420.86   28.00 
   2  -7   0  414.96   28.90 
   2  -7   0  475.85   26.60 
   2  -7   0  462.85   27.10 
   2  -7   0  393.56   30.70 
   2  -7   0  444.76   27.30 
  -2   7   0  439.96   27.80 
  -2   7   0  412.26   28.00 
  -2   7   0  499.05   30.80 
  -2   7   0  412.46   31.80 
   1  -7   0  353.36   20.80 
   1  -7   0  321.37   22.90 
   1  -7   0  353.46   21.50 
   1  -7   0  305.47   25.10 
  -1   7   0  324.57   21.10 
  -1   7   0  333.47   25.10 
  -1   7   0  339.27   21.70 
  -1   7   0  329.17   22.00 
  -1   7   0  377.86   24.50 
   0  -7   0   51.69    5.80 
   0  -7   0   43.00    6.60 
   0  -7   0   31.70    8.30 
   0  -7   0   60.09    6.00 
   0   7   0   53.99    6.40 
   0   7   0   60.69    8.90 
   0   7   0   58.49    5.10 
   0   7   0   54.19    6.20 
  -1  -7   0  612.24   33.70 
  -1  -7   0  511.15   34.30 
  -1  -7   0  560.64   33.50 
  -1  -7   0  567.34   33.80 
  -1  -7   0  547.15   36.20 
   1   7   0  542.95   33.00 
   1   7   0  566.34   35.00 
   1   7   0  570.24   33.60 
   1   7   0  609.24   35.70 
  -2  -7   0    5.40    2.90 
  -2  -7   0   -0.60    2.10 
  -2  -7   0    2.60    3.30 
   2   7   0    0.30    3.70 
   2   7   0    3.30    2.60 
   2   7   0    3.90    2.50 
   2   7   0    2.00    3.10 
  -3  -7   0  954.50   53.39 
  -3  -7   0  970.80   54.89 
  -3  -7   0  902.21   53.39 
  -3  -7   0  846.52   55.29 
   3   7   0  949.60   54.49 
   3   7   0  900.71   52.99 
   3   7   0  937.11   53.29 
  -4  -7   0    8.10    5.40 
  -4  -7   0    6.20    2.70 
  -4  -7   0    1.10    4.10 
  -4  -7   0    4.10    3.20 
   4   7   0    5.70    3.50 
   4   7   0    7.70    2.90 
  -5  -7   0   90.89    8.40 
  -5  -7   0   87.99   11.00 
  -5  -7   0   89.19   10.10 
  -5  -7   0   94.09    7.80 
   5   7   0   83.09    8.10 
  -6  -7   0  149.69   11.80 
  -6  -7   0  180.08   16.70 
  -6  -7   0  150.58   13.40 
   6   7   0  149.59   10.80 
   6   7   0  143.09   10.40 
  -7  -7   0   21.30    9.90 
  -7  -7   0   38.60    6.00 
  -7  -7   0   30.10    6.40 
   7   7   0   19.70    7.70 
   6  -8   0    2.60    4.40 
   6  -8   0    2.00    4.80 
  -6   8   0   12.80   13.70 
   5  -8   0    3.20    3.60 
   5  -8   0    3.30    4.40 
   5  -8   0   -0.10    7.80 
   5  -8   0    8.10    5.40 
  -5   8   0   -8.90    8.40 
  -5   8   0   -9.80   11.90 
  -5   8   0   -7.30   11.40 
   4  -8   0   13.90    4.30 
   4  -8   0    7.90    4.60 
   4  -8   0    0.60    7.30 
   4  -8   0   10.90    3.80 
  -4   8   0    3.80    8.10 
  -4   8   0   17.60   11.20 
  -4   8   0   12.30    6.50 
   3  -8   0  111.39   10.60 
   3  -8   0  125.49   10.30 
   3  -8   0  121.79    9.20 
   3  -8   0  101.09   12.70 
  -3   8   0   79.89   15.00 
  -3   8   0   92.79   11.90 
  -3   8   0   90.59   14.00 
   2  -8   0    1.40    3.10 
   2  -8   0    1.80    6.10 
   2  -8   0   14.80    8.50 
   2  -8   0    2.80    2.90 
   2  -8   0    2.30    3.50 
  -2   8   0   -2.80    4.30 
  -2   8   0   -6.60    4.30 
  -2   8   0   -1.10    6.70 
  -2   8   0   -0.40    7.30 
   1  -8   0  191.78   14.20 
   1  -8   0  145.49   19.10 
   1  -8   0  202.68   13.20 
   1  -8   0  202.28   13.70 
   1  -8   0  167.78   15.60 
  -1   8   0  189.98   17.80 
  -1   8   0  192.58   14.40 
  -1   8   0  212.78   18.60 
   0  -8   0   78.69   12.10 
   0  -8   0   91.79    8.10 
   0  -8   0   96.39    8.70 
   0  -8   0   86.99    8.00 
   0  -8   0   82.89   12.60 
   0   8   0  103.59   11.80 
   0   8   0  105.79   12.90 
   0   8   0   59.29    8.50 
  -1  -8   0  484.45   29.90 
  -1  -8   0  504.25   30.30 
  -1  -8   0  490.85   29.90 
  -1  -8   0  432.16   33.10 
   1   8   0  483.85   30.00 
   1   8   0  545.65   32.80 
   1   8   0  510.35   31.90 
  -2  -8   0   15.20    6.00 
  -2  -8   0   10.50    3.70 
  -2  -8   0    4.80    3.10 
  -2  -8   0    6.50    4.10 
   2   8   0    4.80    2.90 
   2   8   0    2.80    3.70 
   2   8   0    9.50    5.20 
  -3  -8   0  613.64   36.00 
  -3  -8   0  580.74   35.90 
  -3  -8   0  611.14   37.50 
  -3  -8   0  570.54   38.00 
   3   8   0  612.44   35.80 
   3   8   0  606.84   36.00 
   3   8   0  622.54   37.60 
  -4  -8   0  323.77   22.30 
  -4  -8   0  279.27   19.40 
  -4  -8   0  312.47   20.00 
  -4  -8   0  330.67   22.50 
   4   8   0  311.47   19.60 
   4   8   0  298.27   20.70 
  -5  -8   0  196.18   17.00 
  -5  -8   0  188.88   16.10 
  -5  -8   0  185.48   14.00 
   5   8   0  206.58   14.80 
   5   8   0  178.78   13.80 
  -6  -8   0  227.98   19.60 
  -6  -8   0  201.78   16.80 
  -6  -8   0  189.78   14.80 
   6   8   0  196.28   13.40 
   6   8   0  193.08   13.90 
  -7  -8   0    5.90    5.90 
  -7  -8   0    4.50    4.80 
  -7  -8   0    0.30    8.80 
   7   8   0    3.00    2.80 
   6  -9   0    1.60    5.30 
   6  -9   0    3.20    4.40 
  -6   9   0   -4.40   13.10 
   5  -9   0    3.80    4.90 
   5  -9   0    1.30    4.10 
  -5   9   0   23.70   14.00 
  -5   9   0   -0.10    9.90 
   4  -9   0   11.20    4.20 
   4  -9   0   14.80    8.60 
   4  -9   0    6.40    5.00 
   4  -9   0   14.20    5.50 
  -4   9   0   -4.00   11.60 
  -4   9   0   22.20    9.60 
   3  -9   0   22.80    8.50 
   3  -9   0   36.50    5.30 
   3  -9   0   22.00    5.00 
   3  -9   0   40.20    6.80 
  -3   9   0   11.30    8.90 
  -3   9   0   18.90   11.50 
   2  -9   0   59.19    9.00 
   2  -9   0   66.89   10.10 
   2  -9   0   62.79    7.80 
   2  -9   0   68.69    7.10 
  -2   9   0   33.30   11.30 
  -2   9   0   50.69    7.80 
  -2   9   0   75.39   12.50 
   1  -9   0    6.10    4.30 
   1  -9   0    5.20    3.60 
   1  -9   0   10.40   11.70 
   1  -9   0    7.20    3.80 
  -1   9   0    4.80    7.70 
  -1   9   0    6.10    7.20 
  -1   9   0    1.90    6.70 
   0  -9   0   57.89    7.20 
   0  -9   0   62.79   12.00 
   0  -9   0   66.19    7.30 
   0  -9   0   65.59    7.70 
   0   9   0   63.79    8.10 
   0   9   0   52.19   10.30 
   0   9   0   69.59   10.40 
  -1  -9   0  111.59   10.00 
  -1  -9   0   85.09   13.20 
  -1  -9   0   98.79    9.20 
  -1  -9   0  100.89    9.60 
   1   9   0  104.99    9.90 
   1   9   0  116.59   12.30 
   1   9   0  106.09   13.50 
  -2  -9   0    2.60    3.20 
  -2  -9   0   -1.00    3.50 
  -2  -9   0    1.90    4.40 
  -2  -9   0    0.60    7.20 
   2   9   0   -3.20    2.90 
   2   9   0    0.50    4.70 
   2   9   0   -1.50    4.70 
  -3  -9   0  669.23   40.60 
  -3  -9   0  647.74   43.40 
  -3  -9   0  691.23   42.00 
  -3  -9   0  650.13   41.40 
   3   9   0  723.73   42.80 
   3   9   0  668.13   40.60 
   3   9   0  699.73   40.50 
  -4  -9   0   -6.10    6.20 
  -4  -9   0   -0.30    5.40 
  -4  -9   0   -0.60    3.80 
  -4  -9   0    0.90    3.30 
   4   9   0    0.30    4.10 
   4   9   0    4.80    3.50 
  -5  -9   0   78.99   11.30 
  -5  -9   0   74.99    9.30 
  -5  -9   0   90.79   12.00 
   5   9   0   89.89    9.30 
   5   9   0   81.79    8.70 
  -6  -9   0   60.79    8.10 
  -6  -9   0   64.69   10.50 
  -6  -9   0   91.89   12.80 
   6   9   0   69.19    8.30 
   6   9   0   87.49    8.30 
   5 -10   0    5.50    4.90 
   5 -10   0    6.30    5.10 
  -5  10   0   -5.20   10.20 
  -5  10   0    0.60   13.40 
   4 -10   0    4.40    4.40 
   4 -10   0    4.40    5.50 
  -4  10   0    2.80   11.50 
  -4  10   0   -0.80    9.10 
   3 -10   0   19.70    4.80 
   3 -10   0   10.00    5.20 
   3 -10   0   14.80    6.00 
  -3  10   0   12.40   10.30 
  -3  10   0   17.50   11.50 
   2 -10   0    2.50    4.80 
   2 -10   0    5.20    4.20 
   2 -10   0    5.50    3.90 
  -2  10   0   -3.60    7.40 
  -2  10   0   -5.40    8.50 
  -2  10   0    5.40    5.40 
   1 -10   0   52.09   13.10 
   1 -10   0   61.29    7.60 
   1 -10   0   55.39    6.90 
  -1  10   0   49.80   10.50 
  -1  10   0   42.00    6.90 
  -1  10   0   42.90   11.30 
   0 -10   0   13.60    4.90 
   0 -10   0   12.00    4.30 
   0 -10   0   20.20    5.10 
   0 -10   0   26.70   10.60 
   0  10   0    6.90    7.00 
   0  10   0    1.90    7.10 
   0  10   0   12.60    4.90 
  -1 -10   0   71.59    8.60 
  -1 -10   0   47.80   11.90 
  -1 -10   0   59.79    7.80 
  -1 -10   0   57.59    7.60 
   1  10   0   53.39   10.60 
   1  10   0   55.69    8.00 
   1  10   0   41.40    8.50 
  -2 -10   0   11.10    5.60 
  -2 -10   0   32.80   10.20 
  -2 -10   0   12.10    4.40 
  -2 -10   0   18.30    5.30 
   2  10   0   24.50    5.20 
   2  10   0   18.90    7.30 
   2  10   0   22.30    7.30 
  -3 -10   0   63.59    8.20 
  -3 -10   0   67.29    9.40 
  -3 -10   0   74.09    9.00 
   3  10   0   67.29    8.30 
   3  10   0   55.99    7.70 
   3  10   0   65.49    9.50 
  -4 -10   0    6.10    6.30 
  -4 -10   0    8.20    4.50 
  -4 -10   0   15.60    9.20 
  -4 -10   0   12.90    5.20 
   4  10   0   21.80    6.60 
   4  10   0   17.80    5.00 
  -5 -10   0  165.58   14.30 
  -5 -10   0  168.08   17.50 
  -5 -10   0  159.28   18.90 
   5  10   0  162.88   13.50 
   5  10   0  185.38   14.60 
  -6 -10   0   26.10   10.50 
  -6 -10   0   23.00    6.40 
   6  10   0   18.90    5.30 
   6  10   0   27.20    5.80 
   4 -11   0   11.00    6.00 
  -4  11   0    9.50   11.50 
  -4  11   0   15.60   14.40 
   3 -11   0   11.80    5.20 
   3 -11   0   27.50    5.70 
   3 -11   0    4.60    5.90 
  -3  11   0   19.60   11.80 
  -3  11   0    6.60   10.90 
   2 -11   0   63.99    9.00 
   2 -11   0   54.79    7.70 
   2 -11   0   65.39    7.70 
  -2  11   0   41.40   13.10 
  -2  11   0   46.30   11.30 
   1 -11   0   22.40    6.00 
   1 -11   0   14.00    5.40 
   1 -11   0   25.20    5.70 
  -1  11   0   12.20    9.30 
  -1  11   0    0.20    6.70 
  -1  11   0   12.20    8.70 
   0 -11   0   39.60   19.40 
   0 -11   0   22.10    5.50 
   0 -11   0   27.30    6.40 
   0 -11   0   26.70    6.20 
   0  11   0   31.10    9.00 
   0  11   0   11.90    5.20 
  -1 -11   0    2.60    5.20 
  -1 -11   0   -5.40    4.40 
  -1 -11   0  -15.40    9.90 
  -1 -11   0   -3.20    3.70 
   1  11   0    0.70    7.50 
   1  11   0    8.00    5.00 
   1  11   0    3.10    6.30 
  -2 -11   0    9.40   14.10 
  -2 -11   0   19.30    4.70 
  -2 -11   0   27.00    7.00 
  -2 -11   0    7.20    5.40 
   2  11   0   19.30    5.50 
   2  11   0   20.60    6.60 
   2  11   0   12.90    8.00 
  -3 -11   0    7.30    5.80 
  -3 -11   0   -5.30    3.70 
  -3 -11   0   -0.80    4.60 
   3  11   0   11.20    4.70 
   3  11   0    3.30    6.40 
  -4 -11   0    6.60    5.40 
  -4 -11   0   -7.50    9.90 
  -4 -11   0    4.80    6.60 
   4  11   0    4.90    6.00 
   4  11   0    1.60    4.70 
  -5 -11   0   41.60    7.50 
  -5 -11   0   47.30   10.20 
   5  11   0   38.40    7.50 
   5  11   0   37.70    7.50 
   3 -12   0   13.40    6.80 
   3 -12   0    2.90    5.50 
   3 -12   0    1.60    5.10 
  -3  12   0  -14.20    8.10 
  -3  12   0   -1.50   10.60 
   2 -12   0    5.90    6.10 
   2 -12   0   -2.10    5.10 
   2 -12   0   -1.40    4.70 
  -2  12   0  -13.40    9.30 
   1 -12   0   14.10    5.70 
   1 -12   0   12.20    5.70 
  -1  12   0   -7.40    8.20 
  -1  12   0    4.40    9.20 
   0 -12   0  123.39   12.90 
   0 -12   0  138.19   12.30 
   0 -12   0  106.19   11.90 
   0  12   0   80.69   15.40 
   0  12   0   90.79   16.60 
  -1 -12   0   12.10    5.90 
  -1 -12   0   21.00    8.10 
  -1 -12   0   18.40    6.50 
   1  12   0   16.30    9.70 
  -2 -12   0    8.80    5.60 
  -2 -12   0    6.40    6.20 
   2  12   0    1.90    7.60 
  -3 -12   0    5.90    5.50 
  -3 -12   0   15.50    7.40 
   3  12   0    9.50    7.70 
  -4 -12   0    6.20    7.10 
  -4 -12   0   13.40    6.20 
   4  12   0   14.80    7.00 
   1 -13   0    6.00    6.30 
   1 -13   0    9.30    6.10 
  -1  13   0    3.10    9.70 
   0 -13   0   14.70    6.70 
   0 -13   0   10.60    6.30 
   0  13   0   13.30   10.30 
  -1 -13   0   -1.30    6.40 
  -1 -13   0   -0.50    5.70 
   1  13   0    2.50    9.10 
  -2 -13   0   20.20    7.90 
   2  13   0   12.90    8.90 
   2  13  -1   -8.20    8.40 
  -2 -13   1   -0.90    6.50 
  -2 -13   1    3.20    5.60 
   1  13  -1   21.80   14.10 
  -1 -13   1   28.30    7.30 
  -1 -13   1   18.00    7.30 
   0  13  -1   18.50   11.80 
   0 -13   1   -2.60    5.40 
   0 -13   1    0.80    6.00 
  -1  13  -1  -11.00    9.40 
   4  12  -1   31.90    8.70 
  -4 -12   1   22.10    6.70 
  -4 -12   1   21.80    8.90 
   3  12  -1   24.30    9.40 
  -3 -12   1   33.90    8.60 
   2  12  -1    4.00    8.10 
  -2 -12   1    5.40    6.30 
  -2 -12   1   -1.20    5.10 
   1  12  -1   -0.30    8.40 
  -1 -12   1    1.90    4.70 
  -1 -12   1    1.10    5.60 
  -1 -12   1    4.10    5.50 
   0  12  -1   -1.50    8.40 
   0 -12   1    1.70    5.40 
   0 -12   1    2.70    5.40 
   0 -12   1   12.90    5.60 
  -1  12  -1    7.50    9.70 
   1 -12   1    5.60    5.10 
   1 -12   1    3.50    5.20 
   1 -12   1    6.20    5.90 
  -2  12  -1   23.50   10.80 
   2 -12   1    0.70    5.70 
   2 -12   1   10.70    5.60 
   2 -12   1    4.40    5.10 
  -3  12  -1   36.60   13.90 
  -3  12  -1   23.10   18.90 
   3 -12   1   19.10    7.10 
   3 -12   1   18.40    7.20 
   3 -12   1   30.20   10.10 
   5  11  -1   12.00    5.50 
   5  11  -1    0.50    5.10 
  -5 -11   1   -6.50    7.20 
  -5 -11   1   -0.30    5.00 
   4  11  -1  120.09   14.60 
   4  11  -1  133.19   13.00 
  -4 -11   1  144.19   15.30 
  -4 -11   1  122.59   12.40 
   3  11  -1   18.60    7.60 
   3  11  -1   18.50    6.10 
  -3 -11   1   19.00    5.60 
  -3 -11   1   21.10    7.10 
  -3 -11   1   22.70    6.00 
   2  11  -1   22.00    8.60 
   2  11  -1   32.60    6.80 
   2  11  -1   25.70    7.00 
  -2 -11   1   18.00    5.10 
  -2 -11   1   -5.80   10.20 
  -2 -11   1   20.00    6.50 
  -2 -11   1   30.40    6.40 
   1  11  -1  186.08   18.20 
   1  11  -1  182.88   16.10 
   1  11  -1  174.18   20.20 
  -1 -11   1  234.88   16.00 
  -1 -11   1  162.08   15.00 
  -1 -11   1  161.18   20.20 
  -1 -11   1  194.48   14.90 
   0  11  -1    8.30    7.90 
   0  11  -1    5.40    8.40 
   0  11  -1    8.70    6.00 
   0 -11   1   19.40    5.50 
   0 -11   1   14.90    6.20 
   0 -11   1   17.90   12.40 
   0 -11   1   16.00    5.70 
  -1  11  -1   17.40    9.60 
  -1  11  -1   12.60    9.50 
  -1  11  -1   17.70    7.30 
   1 -11   1   14.60    5.10 
   1 -11   1    9.00    4.70 
   1 -11   1   12.40    5.50 
  -2  11  -1    2.90    9.90 
  -2  11  -1    5.40    9.80 
   2 -11   1    7.20    4.70 
   2 -11   1    7.70    5.60 
   2 -11   1    6.60    5.30 
  -3  11  -1    2.00    9.90 
  -3  11  -1  -10.50   10.50 
   3 -11   1   -3.30    4.10 
   3 -11   1   -0.60    7.20 
   3 -11   1   -0.20    5.40 
  -4  11  -1    6.90   11.50 
  -4  11  -1    1.20   12.00 
   4 -11   1    3.30    5.00 
   6  10  -1   91.49    9.40 
   6  10  -1   88.49   10.20 
  -6 -10   1   87.09   13.10 
  -6 -10   1  100.19   10.80 
   5  10  -1   24.00    5.80 
   5  10  -1   21.80    5.80 
  -5 -10   1   26.70    8.50 
  -5 -10   1   22.40   10.30 
  -5 -10   1   15.80    5.70 
   4  10  -1  186.98   16.20 
   4  10  -1  195.38   14.80 
  -4 -10   1  156.78   20.10 
  -4 -10   1  190.48   17.20 
  -4 -10   1  190.18   14.70 
   3  10  -1   34.00    5.50 
   3  10  -1   39.80    8.10 
   3  10  -1   24.30    5.70 
  -3 -10   1   23.50    9.50 
  -3 -10   1   22.80    5.10 
  -3 -10   1   27.40    7.00 
  -3 -10   1   29.60    6.10 
   2  10  -1  371.96   26.90 
   2  10  -1  343.47   23.70 
   2  10  -1  359.06   24.30 
  -2 -10   1  302.07   27.70 
  -2 -10   1  367.86   23.10 
  -2 -10   1  344.77   23.90 
  -2 -10   1  363.96   23.30 
   1  10  -1  105.59   13.40 
   1  10  -1  137.59   18.80 
   1  10  -1  111.59   11.40 
  -1 -10   1  105.99   10.70 
  -1 -10   1  102.19   15.00 
  -1 -10   1  103.49   10.10 
  -1 -10   1  102.49   10.60 
   0  10  -1   49.20   11.30 
   0  10  -1   35.60    6.60 
   0  10  -1   56.99   11.80 
   0 -10   1   44.60    6.60 
   0 -10   1   45.70    6.70 
   0 -10   1   15.20   11.10 
   0 -10   1   52.99    7.00 
  -1  10  -1   32.90   10.60 
  -1  10  -1   50.09   11.80 
  -1  10  -1   35.90    7.10 
   1 -10   1   38.60    6.00 
   1 -10   1   37.80   12.40 
   1 -10   1   55.99    8.20 
   1 -10   1   53.99    7.40 
  -2  10  -1   11.50    5.10 
  -2  10  -1    7.10    9.80 
  -2  10  -1    3.30   10.10 
   2 -10   1   26.10    5.00 
   2 -10   1   24.20    5.60 
   2 -10   1   20.30    6.00 
  -3  10  -1   38.50   12.20 
  -3  10  -1   44.90   14.40 
   3 -10   1   65.99    9.00 
   3 -10   1   69.69    8.10 
   3 -10   1   54.49    7.60 
  -4  10  -1    7.90   10.80 
  -4  10  -1    2.80   12.60 
   4 -10   1    6.10    5.30 
   4 -10   1   -5.10    3.90 
   4 -10   1    1.40    4.40 
  -5  10  -1   18.40   15.40 
  -5  10  -1   -9.90    9.80 
   5 -10   1    0.90    5.20 
   5 -10   1    0.10    4.50 
   6   9  -1   43.40    5.80 
   6   9  -1   50.89    5.90 
  -6  -9   1   30.70    9.20 
  -6  -9   1   51.29   10.50 
   5   9  -1   28.10    5.60 
   5   9  -1   29.90    5.30 
  -5  -9   1   32.60    8.50 
  -5  -9   1   21.50    5.30 
  -5  -9   1   16.80    8.50 
   4   9  -1  102.49    9.30 
   4   9  -1   84.39   10.30 
  -4  -9   1   62.99   11.50 
  -4  -9   1  107.29   17.50 
  -4  -9   1   84.49    8.40 
  -4  -9   1   85.79    9.00 
   3   9  -1    3.50    4.90 
   3   9  -1   -0.10    3.20 
  -3  -9   1    9.50    7.80 
  -3  -9   1    0.70    4.70 
  -3  -9   1   -0.10    3.50 
  -3  -9   1    2.10    3.30 
   2   9  -1  283.77   19.60 
   2   9  -1  304.07   21.90 
   2   9  -1  269.27   18.80 
  -2  -9   1  290.37   18.70 
  -2  -9   1  265.87   18.40 
  -2  -9   1  242.88   22.90 
  -2  -9   1  271.87   19.40 
   1   9  -1  167.58   16.70 
   1   9  -1  160.58   13.00 
   1   9  -1  168.38   15.10 
  -1  -9   1  155.48   12.20 
  -1  -9   1  157.98   19.70 
  -1  -9   1  157.28   12.40 
  -1  -9   1  158.98   12.60 
   0   9  -1   33.90    9.90 
   0   9  -1   45.20    9.20 
   0   9  -1   66.59    8.30 
   0  -9   1   64.59    7.30 
   0  -9   1   46.90   11.20 
   0  -9   1   54.29    6.90 
   0  -9   1   47.70    5.90 
  -1   9  -1  359.16   26.70 
  -1   9  -1  294.57   27.00 
  -1   9  -1  319.47   23.00 
   1  -9   1  242.68   32.10 
   1  -9   1  342.67   21.90 
   1  -9   1  342.47   22.10 
   1  -9   1  362.66   21.60 
  -2   9  -1    9.90    9.60 
  -2   9  -1    1.30    4.90 
  -2   9  -1    1.70    8.30 
   2  -9   1    2.30    3.80 
   2  -9   1   -1.80    3.20 
   2  -9   1   -7.20    3.80 
  -3   9  -1   -9.00   10.40 
  -3   9  -1   -2.60    8.00 
   3  -9   1   17.30    7.30 
   3  -9   1    4.20    3.60 
   3  -9   1    6.80    4.60 
   3  -9   1   -0.20    4.60 
  -4   9  -1   12.10    9.90 
  -4   9  -1    9.10   12.20 
   4  -9   1    1.00    4.90 
   4  -9   1    4.60    4.60 
   4  -9   1    1.70    3.80 
   4  -9   1   -2.80    7.70 
  -5   9  -1   35.80   12.60 
  -5   9  -1    8.40   14.10 
   5  -9   1   23.70    6.10 
   5  -9   1   22.10    5.40 
  -6   9  -1   19.20   15.50 
   6  -9   1    7.20    5.00 
   6  -9   1   10.70    5.20 
   7   8  -1   95.09   12.60 
  -7  -8   1  101.69   12.00 
  -7  -8   1  111.89   15.40 
  -7  -8   1  132.89   11.20 
   6   8  -1   16.00    3.60 
   6   8  -1    9.80    3.50 
  -6  -8   1   17.70    8.10 
  -6  -8   1   12.10    6.70 
  -6  -8   1   10.30    4.30 
   5   8  -1   91.59    8.80 
   5   8  -1   91.59    8.50 
  -5  -8   1  112.29   12.70 
  -5  -8   1   99.99    9.20 
  -5  -8   1   84.49   10.80 
   4   8  -1  100.49    9.90 
   4   8  -1   99.19    8.70 
  -4  -8   1   91.39   11.20 
  -4  -8   1  106.29   11.80 
  -4  -8   1   97.89    8.80 
  -4  -8   1   92.59    8.30 
   3   8  -1  244.08   16.30 
   3   8  -1  259.07   18.20 
   3   8  -1  237.48   16.50 
  -3  -8   1  204.68   21.50 
  -3  -8   1  251.67   17.90 
  -3  -8   1  249.18   16.20 
  -3  -8   1  245.08   16.20 
   2   8  -1  740.73   43.70 
   2   8  -1  783.02   45.80 
   2   8  -1  741.73   44.30 
  -2  -8   1  702.13   43.40 
  -2  -8   1  736.83   43.40 
  -2  -8   1  736.33   44.20 
   1   8  -1   43.80    7.30 
   1   8  -1   43.60    6.20 
   1   8  -1   36.50    7.90 
  -1  -8   1   36.70    5.30 
  -1  -8   1   44.90    5.50 
  -1  -8   1   28.20    8.70 
  -1  -8   1   44.90    5.80 
   0   8  -1  564.04   35.60 
   0   8  -1  547.15   38.00 
   0   8  -1  600.34   38.20 
   0  -8   1  510.25   38.60 
   0  -8   1  611.24   35.10 
   0  -8   1  605.14   35.40 
   0  -8   1  632.14   35.10 
  -1   8  -1    1.60    7.40 
  -1   8  -1    4.30    7.20 
  -1   8  -1    3.30    3.60 
   1  -8   1    7.20    3.60 
   1  -8   1    6.70    3.10 
   1  -8   1    5.30    7.80 
   1  -8   1    5.60    5.50 
   1  -8   1    1.20    3.60 
  -2   8  -1   68.19   12.70 
  -2   8  -1   59.39   16.20 
  -2   8  -1   58.99    7.90 
   2  -8   1   61.69   11.70 
   2  -8   1   83.39    8.10 
   2  -8   1   70.99    6.70 
   2  -8   1   61.19    7.50 
   2  -8   1   53.89    9.60 
  -3   8  -1  295.67   27.50 
  -3   8  -1  271.37   23.10 
  -3   8  -1  239.58   20.00 
   3  -8   1  276.87   17.30 
   3  -8   1  263.57   18.60 
   3  -8   1  271.97   18.30 
   3  -8   1  224.58   20.80 
  -4   8  -1   27.40    8.20 
  -4   8  -1   36.70   10.90 
  -4   8  -1   53.19   14.50 
   4  -8   1   26.30    5.90 
   4  -8   1   25.40    8.10 
   4  -8   1   31.70    5.10 
   4  -8   1   34.20    6.20 
  -5   8  -1   13.80   16.90 
  -5   8  -1   27.50    8.80 
  -5   8  -1   34.20   11.40 
   5  -8   1   12.40    9.80 
   5  -8   1   16.20    5.60 
   5  -8   1   28.20    5.20 
   5  -8   1   30.20    6.20 
  -6   8  -1  -10.40   13.60 
   6  -8   1    1.80    4.50 
   6  -8   1    7.80    5.40 
   7   7  -1   66.09   10.20 
  -7  -7   1   79.19   13.00 
  -7  -7   1   69.79    8.60 
  -7  -7   1   63.49    7.20 
   6   7  -1    1.80    2.40 
   6   7  -1   -0.50    2.20 
  -6  -7   1    0.90    3.50 
  -6  -7   1   -0.10    6.50 
  -6  -7   1   -4.20    4.40 
   5   7  -1   56.99    6.00 
   5   7  -1   63.29    6.40 
  -5  -7   1   64.29    8.00 
  -5  -7   1   49.50    8.80 
  -5  -7   1   49.10    6.00 
   4   7  -1    8.00    3.40 
   4   7  -1    9.70    3.20 
  -4  -7   1    5.50    4.90 
  -4  -7   1    5.70    2.60 
  -4  -7   1    3.90    5.00 
  -4  -7   1    7.40    3.20 
   3   7  -1  509.35   31.20 
   3   7  -1  557.94   32.70 
   3   7  -1  513.95   30.50 
  -3  -7   1  506.85   31.20 
  -3  -7   1  559.24   32.90 
  -3  -7   1  533.25   31.30 
  -3  -7   1  515.25   33.30 
   2   7  -1  579.64   34.60 
   2   7  -1  547.95   34.00 
   2   7  -1  613.04   35.90 
   2   7  -1  539.05   33.70 
  -2  -7   1  607.34   34.90 
  -2  -7   1  586.34   34.00 
  -2  -7   1  555.44   36.30 
  -2  -7   1  577.74   34.00 
   1   7  -1   -0.90    3.70 
   1   7  -1   -0.60    1.90 
   1   7  -1   -0.30    2.40 
   1   7  -1   -1.80    4.40 
  -1  -7   1   -0.50    2.60 
  -1  -7   1    0.70    2.70 
  -1  -7   1    4.70    5.90 
   0   7  -1   31.30    6.80 
   0   7  -1   51.59    6.10 
   0   7  -1   40.70    4.50 
   0   7  -1   42.30    6.10 
   0   7  -1   49.30    8.40 
   0  -7   1   34.20    4.80 
   0  -7   1   39.50    8.70 
   0  -7   1   47.50    5.40 
   0  -7   1   47.70    5.40 
   0  -7   1   44.40    6.90 
  -1   7  -1  655.23   39.20 
  -1   7  -1  573.74   35.60 
  -1   7  -1  585.04   37.20 
  -1   7  -1  635.74   40.30 
  -1   7  -1  592.74   36.90 
   1  -7   1  625.54   35.80 
   1  -7   1  585.94   39.80 
   1  -7   1  637.74   36.50 
  -2   7  -1   87.39    9.70 
  -2   7  -1   95.59   10.30 
  -2   7  -1  146.19   17.80 
  -2   7  -1   81.49   13.20 
   2  -7   1  106.99    8.80 
   2  -7   1   81.49   12.20 
   2  -7   1  106.09    8.10 
   2  -7   1   82.29   10.60 
   2  -7   1  115.89    9.30 
  -3   7  -1  462.65   30.30 
  -3   7  -1  391.66   27.40 
  -3   7  -1  399.26   26.90 
  -3   7  -1  367.76   32.40 
   3  -7   1  416.36   25.90 
   3  -7   1  441.96   25.10 
   3  -7   1  371.76   28.10 
   3  -7   1  431.36   26.30 
  -4   7  -1   -6.40    5.20 
  -4   7  -1    0.00    7.50 
  -4   7  -1   12.90   11.30 
   4  -7   1    3.40    6.70 
   4  -7   1    2.80    4.00 
   4  -7   1    4.10    3.90 
   4  -7   1   15.40    3.90 
  -5   7  -1   46.60    9.30 
  -5   7  -1   53.49   14.80 
  -5   7  -1   25.30   10.80 
   5  -7   1   50.89   10.60 
   5  -7   1   48.70    6.40 
   5  -7   1   41.30    6.90 
   5  -7   1   70.89   10.00 
  -6   7  -1  -22.30   12.20 
   6  -7   1   -5.60    4.00 
   6  -7   1    2.00    4.30 
  -7   7  -1   -9.40   14.70 
   7  -7   1   -1.50    4.60 
   7  -7   1    4.40    5.90 
   8   6  -1   19.70    7.90 
  -8  -6   1   17.50    5.30 
  -8  -6   1    2.30   10.10 
   7   6  -1  210.28   18.50 
  -7  -6   1  220.78   16.30 
  -7  -6   1  234.88   15.90 
  -7  -6   1  267.57   22.30 
  -6  -6   1   60.69    7.70 
  -6  -6   1   62.09    6.70 
  -6  -6   1   61.29   10.50 
   5   6  -1  190.98   12.20 
   5   6  -1  193.58   11.90 
  -5  -6   1  186.98   13.70 
  -5  -6   1  174.18   12.40 
  -5  -6   1  186.08   15.80 
   4   6  -1  599.34   34.10 
   4   6  -1  478.95   33.10 
  -4  -6   1  588.74   33.30 
  -4  -6   1  604.24   36.00 
  -4  -6   1  606.04   34.70 
  -4  -6   1  583.04   33.50 
   3   6  -1  139.69    9.60 
   3   6  -1  131.39    9.80 
   3   6  -1  146.59   10.70 
  -3  -6   1  138.79   11.60 
  -3  -6   1  132.39    9.50 
  -3  -6   1  145.39   11.40 
  -3  -6   1  146.39    9.70 
   2   6  -1  336.47   20.70 
   2   6  -1  320.07   19.40 
   2   6  -1  302.47   19.10 
   2   6  -1  302.57   19.60 
  -2  -6   1  328.67   19.10 
  -2  -6   1  308.97   21.10 
  -2  -6   1  317.87   19.10 
  -2  -6   1  281.37   19.80 
   1   6  -1  162.88   12.30 
   1   6  -1  137.89   10.00 
   1   6  -1  129.79   10.20 
   1   6  -1  155.18   11.70 
   1   6  -1  144.59    9.40 
  -1  -6   1  144.99   10.10 
  -1  -6   1  151.38   13.30 
  -1  -6   1  141.89   10.00 
  -1  -6   1  138.29   11.10 
   0   6  -1  696.73   39.10 
   0   6  -1  625.14   38.70 
   0   6  -1  695.03   39.70 
   0   6  -1  628.64   37.20 
   0   6  -1  614.54   36.30 
   0  -6   1  635.34   36.70 
   0  -6   1  640.94   37.00 
   0  -6   1  611.04   36.90 
   0  -6   1  604.94   39.60 
   0  -6   1  572.24   37.80 
  -1   6  -1   58.99    6.50 
  -1   6  -1   58.89    7.10 
  -1   6  -1   47.30    7.60 
  -1   6  -1   53.09    5.60 
  -1   6  -1   43.10    8.70 
   1  -6   1   62.89    7.60 
   1  -6   1   59.99    9.50 
   1  -6   1   60.09    5.80 
   1  -6   1   57.49    6.20 
  -2   6  -1   64.49    7.80 
  -2   6  -1   73.89   11.60 
  -2   6  -1   78.49    8.60 
  -2   6  -1   67.29    9.20 
  -2   6  -1   72.39    6.70 
   2  -6   1   76.09   10.60 
   2  -6   1   79.09   10.00 
   2  -6   1   77.69    7.00 
   2  -6   1   82.29    7.50 
   2  -6   1   91.49    6.50 
  -3   6  -1   42.40    8.80 
  -3   6  -1   48.20    6.50 
  -3   6  -1   63.89   12.30 
  -3   6  -1   64.49    7.90 
   3  -6   1   57.79    5.60 
   3  -6   1   55.69    6.70 
   3  -6   1   58.29    7.00 
   3  -6   1   54.99    8.60 
  -4   6  -1   76.19   14.90 
  -4   6  -1   97.29   13.50 
  -4   6  -1  105.89   11.60 
   4  -6   1  109.29   10.00 
   4  -6   1   83.69   11.50 
   4  -6   1  122.99    8.80 
   4  -6   1  113.59    9.60 
  -5   6  -1   23.00    6.80 
  -5   6  -1   19.70    9.40 
  -5   6  -1   12.30   12.50 
   5  -6   1   27.60    4.70 
   5  -6   1   29.10    8.20 
   5  -6   1   27.40    5.20 
   5  -6   1   21.40    5.00 
  -6   6  -1  -12.90    5.90 
  -6   6  -1   -7.00    7.60 
  -6   6  -1    6.40   12.20 
   6  -6   1    4.20    4.20 
   6  -6   1   -5.00    7.60 
   6  -6   1   -1.40    3.90 
   6  -6   1    7.50    4.60 
  -7   6  -1    5.20   14.90 
   7  -6   1   23.40    6.00 
   8   5  -1   16.20    9.00 
  -8  -5   1   31.50   13.90 
  -8  -5   1   23.30    4.80 
   7   5  -1  152.18   14.40 
  -7  -5   1  128.89   16.00 
  -7  -5   1  144.29   11.10 
  -7  -5   1  142.99   11.10 
  -6  -5   1    5.90    3.00 
  -6  -5   1   12.50    3.60 
   5   5  -1  864.91   50.59 
   5   5  -1  871.71   50.39 
  -5  -5   1  886.41   50.99 
  -5  -5   1  961.60   54.29 
  -5  -5   1  891.41   51.39 
   4   5  -1    9.40    2.50 
   4   5  -1    7.60    2.00 
  -4  -5   1    5.80    2.90 
  -4  -5   1    6.50    2.30 
  -4  -5   1    8.50    2.00 
  -4  -5   1    6.70    4.40 
   3   5  -1   82.19    5.90 
   3   5  -1   81.19    6.70 
   3   5  -1   74.19    6.50 
  -3  -5   1   79.09    7.30 
  -3  -5   1   75.59    6.00 
  -3  -5   1   79.59    6.70 
  -3  -5   1   73.99    5.80 
  -3  -5   1   82.79    8.80 
   2   5  -1  347.47   20.70 
   2   5  -1  325.57   19.50 
   2   5  -1  319.67   19.50 
   2   5  -1  311.77   19.60 
   2   5  -1  306.07   19.80 
  -2  -5   1  330.87   19.50 
  -2  -5   1  311.67   20.10 
  -2  -5   1  333.47   20.30 
  -2  -5   1  352.26   21.00 
  -2  -5   1  330.87   19.40 
   1   5  -1  144.09   10.40 
   1   5  -1  140.99    9.20 
   1   5  -1  150.88   10.90 
   1   5  -1  135.19    9.40 
   1   5  -1  126.69    8.80 
  -1  -5   1  142.89    9.10 
  -1  -5   1  121.29    8.90 
  -1  -5   1  129.19   10.10 
  -1  -5   1  142.39    9.30 
   0   5  -1  665.23   40.40 
   0   5  -1  648.24   39.00 
   0   5  -1  637.34   38.70 
   0   5  -1  649.83   38.00 
   0   5  -1  725.73   40.20 
   0  -5   1  694.73   38.50 
   0  -5   1  679.13   38.60 
   0  -5   1  680.83   38.30 
   0  -5   1  631.34   39.30 
   0  -5   1  639.24   40.50 
  -1   5  -1  435.66   27.30 
  -1   5  -1  432.76   26.30 
  -1   5  -1  479.45   28.70 
  -1   5  -1  471.35   30.20 
  -1   5  -1  419.36   27.00 
   1  -5   1  470.05   26.30 
   1  -5   1  467.55   26.90 
   1  -5   1  407.66   27.70 
   1  -5   1  475.05   26.70 
   1  -5   1  457.05   29.70 
  -2   5  -1  155.08   12.40 
  -2   5  -1  175.48   16.80 
  -2   5  -1  186.18   14.40 
  -2   5  -1  161.08   12.10 
   2  -5   1  182.68   11.80 
   2  -5   1  176.48   11.50 
   2  -5   1  185.68   11.70 
   2  -5   1  144.29   14.70 
   2  -5   1  162.18   13.40 
  -3   5  -1  329.07   21.90 
  -3   5  -1  307.17   21.00 
  -3   5  -1  318.37   26.40 
  -3   5  -1  298.97   21.60 
  -3   5  -1  358.06   23.80 
   3  -5   1  361.86   21.20 
   3  -5   1  357.26   20.40 
   3  -5   1  323.17   24.10 
   3  -5   1  317.57   23.00 
   3  -5   1  358.76   21.10 
  -4   5  -1  178.48   14.50 
  -4   5  -1  161.88   20.80 
  -4   5  -1  172.78   16.80 
   4  -5   1  199.28   12.60 
   4  -5   1  208.98   13.30 
   4  -5   1  136.39   15.00 
   4  -5   1  186.08   13.20 
  -5   5  -1    0.90    5.00 
  -5   5  -1    4.40   11.00 
  -5   5  -1    2.10    7.00 
   5  -5   1    5.20    3.60 
   5  -5   1    1.00    3.60 
   5  -5   1    0.00    6.30 
   5  -5   1    1.50    3.30 
  -6   5  -1    3.20   12.00 
  -6   5  -1    2.70    5.80 
   6  -5   1    6.50    6.50 
   6  -5   1    6.70    4.30 
   6  -5   1    1.80    6.90 
   6  -5   1    6.60    4.40 
  -7   5  -1    3.40   13.70 
   7  -5   1    3.30    4.50 
   7  -5   1    4.90    5.10 
   8   4  -1   69.09   10.50 
  -8  -4   1   63.49    6.90 
   7   4  -1  200.58   16.40 
  -7  -4   1  227.88   19.80 
  -7  -4   1  198.48   13.70 
  -7  -4   1  172.38   12.90 
   6   4  -1  154.98   13.80 
  -6  -4   1  175.58   11.40 
  -6  -4   1  156.48   11.30 
  -6  -4   1  196.18   16.30 
  -5  -4   1  502.65   30.80 
  -5  -4   1  458.85   27.00 
  -5  -4   1  450.15   27.30 
   4   4  -1  227.18   13.60 
   4   4  -1  225.28   15.40 
   4   4  -1  234.68   13.90 
  -4  -4   1  237.28   16.50 
  -4  -4   1  223.38   14.20 
  -4  -4   1  237.48   13.90 
   3   4  -1 1526.05   84.39 
   3   4  -1 1509.15   84.89 
   3   4  -1 1391.26   85.29 
  -3  -4   1 1440.06   84.39 
  -3  -4   1 1588.94   84.79 
  -3  -4   1 1502.45   84.69 
  -3  -4   1 1553.54   86.09 
  -3  -4   1 1500.35   84.89 
   2   4  -1 1164.18   65.69 
   2   4  -1 1129.59   65.39 
   2   4  -1 1261.37   66.39 
   2   4  -1 1150.58   65.49 
   2   4  -1 1072.79   65.89 
  -2  -4   1 1176.08   66.49 
  -2  -4   1 1174.98   65.59 
  -2  -4   1 1256.47   66.49 
  -2  -4   1 1149.89   65.69 
  -2  -4   1 1093.99   65.99 
   1   4  -1  887.71   52.89 
   1   4  -1  884.51   52.79 
   1   4  -1 1012.90   53.89 
   1   4  -1  994.60   53.59 
   1   4  -1  895.01   52.99 
  -1  -4   1  948.21   52.89 
  -1  -4   1  915.71   53.39 
  -1  -4   1  932.91   53.09 
  -1  -4   1  913.71   52.79 
   0   4  -1 3745.63  204.08 
   0   4  -1 3615.64  203.38 
   0   4  -1 3478.35  202.68 
   0   4  -1 3725.83  204.58 
   0  -4   1 3711.33  203.08 
   0  -4   1 3427.16  203.68 
   0  -4   1 3575.14  202.88 
   0  -4   1 3607.54  204.58 
   0  -4   1 3727.53  203.18 
  -1   4  -1  141.79    9.90 
  -1   4  -1  160.28   11.20 
  -1   4  -1  122.39    8.70 
  -1   4  -1  164.28   13.10 
  -1   4  -1  140.49   10.20 
   1  -4   1  141.69    8.80 
   1  -4   1  150.78    9.50 
   1  -4   1  125.49   12.00 
   1  -4   1  144.49    9.20 
   1  -4   1  121.19   10.30 
  -2   4  -1 1250.97   75.09 
  -2   4  -1 1338.07   77.79 
  -2   4  -1 1291.17   75.69 
  -2   4  -1 1453.85   76.69 
  -2   4  -1 1339.27   75.59 
   2  -4   1 1394.36   75.19 
   2  -4   1 1424.16   75.39 
   2  -4   1 1375.26   74.79 
   2  -4   1 1108.89   76.09 
   2  -4   1 1233.88   76.79 
  -3   4  -1   19.80    6.20 
  -3   4  -1   25.80    8.50 
  -3   4  -1   37.50    5.00 
  -3   4  -1   19.20    3.60 
  -3   4  -1   31.00    5.60 
   3  -4   1   31.20    3.70 
   3  -4   1   23.10    6.50 
   3  -4   1   27.40    4.00 
   3  -4   1   28.90    5.90 
   3  -4   1   25.40    3.60 
  -4   4  -1   91.69   11.30 
  -4   4  -1   88.59    9.20 
  -4   4  -1   76.29   12.50 
   4  -4   1   76.39    9.80 
   4  -4   1   93.89    7.80 
   4  -4   1   88.19    7.50 
   4  -4   1   89.59    7.80 
  -5   4  -1   96.29   14.90 
  -5   4  -1   92.49   10.40 
   5  -4   1  102.59    8.90 
   5  -4   1   80.09   10.90 
   5  -4   1   99.79    9.10 
   5  -4   1  102.59    8.90 
  -6   4  -1    7.60    6.90 
  -6   4  -1  -10.80   10.60 
   6  -4   1   -3.20    3.50 
   6  -4   1    0.60    4.30 
   6  -4   1    0.20    5.80 
   6  -4   1   -0.80    3.00 
  -7   4  -1    8.20    7.90 
  -7   4  -1   24.90   14.60 
   7  -4   1   28.10    5.60 
   7  -4   1   25.90    8.70 
   7  -4   1   28.80    6.50 
  -8   4  -1   -3.30   13.20 
   8  -4   1   10.90    6.40 
   8  -4   1    5.30    4.60 
   8   3  -1   97.39   12.10 
  -8  -3   1   94.99    9.00 
  -8  -3   1  128.29   13.70 
   7   3  -1    5.90    5.80 
  -7  -3   1   12.60    3.40 
   6   3  -1   56.49    7.40 
  -6  -3   1   46.90    5.80 
  -6  -3   1   61.69    9.90 
  -6  -3   1   41.80    4.60 
   5   3  -1  441.96   28.00 
  -5  -3   1  494.25   29.60 
  -5  -3   1  450.45   26.00 
  -5  -3   1  420.96   25.90 
   4   3  -1   16.40    3.80 
   4   3  -1   23.10    2.30 
  -4  -3   1   28.90    2.70 
  -4  -3   1   26.80    5.20 
   3   3  -1 1211.08   73.59 
   3   3  -1 1288.27   72.69 
   3   3  -1 1304.07   72.39 
  -3  -3   1 1335.07   74.19 
  -3  -3   1 1214.78   72.39 
  -3  -3   1 1309.27   72.59 
  -3  -3   1 1375.16   72.49 
   2   3  -1  180.88   12.10 
   2   3  -1  206.88   12.00 
   2   3  -1  188.88   11.50 
  -2  -3   1  196.68   12.50 
  -2  -3   1  193.98   11.60 
  -2  -3   1  200.68   11.50 
  -2  -3   1  200.28   11.90 
  -2  -3   1  196.58   11.90 
   1   3  -1 1075.99   62.99 
   1   3  -1 1026.20   62.89 
   1   3  -1 1143.99   63.29 
   1   3  -1 1060.59   62.89 
   1   3  -1 1203.98   63.59 
  -1  -3   1 1090.49   62.89 
  -1  -3   1 1108.39   63.19 
  -1  -3   1 1107.59   62.99 
  -1  -3   1 1064.29   63.29 
  -1  -3   1 1299.97   63.89 
   0   3  -1 1155.18   65.89 
   0   3  -1 1123.79   64.59 
   0   3  -1 1219.48   65.39 
   0   3  -1 1117.99   64.79 
   0   3  -1 1127.69   64.89 
   0  -3   1 1175.08   64.79 
   0  -3   1 1034.60   65.09 
   0  -3   1 1121.79   64.49 
   0  -3   1 1240.08   65.99 
   0  -3   1 1146.29   64.59 
  -1   3  -1 2791.62  147.29 
  -1   3  -1 2516.25  145.19 
  -1   3  -1 2594.74  145.69 
  -1   3  -1 2745.93  146.29 
   1  -3   1 2758.22  145.69 
   1  -3   1 2604.74  145.49 
   1  -3   1 2196.48  146.89 
   1  -3   1 2441.16  146.09 
   1  -3   1 2670.33  145.19 
  -2   3  -1  768.92   45.20 
  -2   3  -1  803.92   45.40 
  -2   3  -1  783.32   45.00 
  -2   3  -1  875.91   47.40 
  -2   3  -1  724.83   49.40 
   2  -3   1  828.42   45.90 
   2  -3   1  721.23   45.70 
   2  -3   1  821.92   44.70 
   2  -3   1  805.52   45.00 
   2  -3   1  690.53   46.10 
  -3   3  -1  676.03   40.20 
  -3   3  -1  738.93   42.60 
  -3   3  -1  659.73   40.30 
  -3   3  -1  665.93   40.00 
  -3   3  -1  744.23   41.20 
   3  -3   1  708.93   39.90 
   3  -3   1  714.53   39.80 
   3  -3   1  720.33   39.80 
   3  -3   1  638.14   40.80 
   3  -3   1  595.34   40.90 
  -4   3  -1  193.48   17.80 
  -4   3  -1  192.78   13.70 
  -4   3  -1  185.78   13.20 
   4  -3   1  172.68   14.60 
   4  -3   1  206.48   12.80 
   4  -3   1  194.68   12.90 
   4  -3   1  189.98   12.90 
  -5   3  -1  270.37   18.90 
  -5   3  -1  283.17   20.60 
  -5   3  -1  311.87   23.50 
   5  -3   1  296.07   18.60 
   5  -3   1  232.48   19.80 
   5  -3   1  262.07   17.60 
   5  -3   1  302.77   18.10 
  -6   3  -1    2.70    6.40 
   6  -3   1    2.50    3.00 
   6  -3   1    3.20    4.30 
   6  -3   1    3.20    4.50 
   6  -3   1    2.10    7.90 
  -7   3  -1    5.10   11.70 
  -7   3  -1    7.10    5.70 
  -7   3  -1    0.10    6.80 
   7  -3   1   -2.10    6.20 
   7  -3   1    1.90    3.80 
   7  -3   1   -4.90    5.10 
  -8   3  -1    8.80   17.30 
   8  -3   1   -1.10    5.50 
   8  -3   1    2.20    4.10 
   8   2  -1   55.69    9.40 
  -8  -2   1   46.20    6.30 
  -8  -2   1   61.49   10.20 
   7   2  -1   24.40    6.70 
  -7  -2   1   20.00    4.10 
  -7  -2   1   27.30    6.70 
   6   2  -1   97.69    9.80 
   6   2  -1   77.39    6.00 
   6   2  -1   87.19    5.80 
  -6  -2   1  102.89    8.30 
  -6  -2   1   83.89    7.20 
   5   2  -1 1104.29   64.19 
   5   2  -1 1114.69   61.99 
   5   2  -1  986.60   62.99 
  -5  -2   1 1212.18   65.79 
  -5  -2   1 1064.09   62.39 
  -5  -2   1 1155.48   62.59 
   4   2  -1  124.89    7.90 
   4   2  -1  122.89    7.60 
   4   2  -1  130.59    9.60 
   4   2  -1  130.69   10.10 
  -4  -2   1  135.89   10.70 
   3   2  -1 5195.48  310.47 
  -3  -2   1 5885.41  310.87 
   2   2  -1  156.18   10.30 
   2   2  -1  162.88    9.60 
   2   2  -1  171.58    9.40 
  -2  -2   1  171.58   10.70 
  -2  -2   1  150.68    9.40 
  -2  -2   1  170.58    9.50 
   1   2  -1 4039.10  210.88 
   1   2  -1 3686.43  210.98 
   1   2  -1 3678.33  210.78 
   1   2  -1 4097.99  211.18 
  -1  -2   1 3799.62  210.88 
  -1  -2   1 3569.74  211.08 
  -1  -2   1 3545.35  210.98 
   0   2  -1  912.91   50.09 
   0   2  -1  883.11   49.80 
   0   2  -1  864.61   49.90 
   0   2  -1  862.61   49.40 
   0   2  -1  997.90   50.69 
   0  -2   1  869.21   49.80 
   0  -2   1  807.92   49.99 
   0  -2   1  913.51   50.59 
   0  -2   1  827.82   49.50 
  -1   2  -1  671.73   38.50 
  -1   2  -1  662.13   38.20 
  -1   2  -1  710.73   39.20 
  -1   2  -1  677.43   38.10 
  -1   2  -1  651.63   38.00 
   1  -2   1  628.74   38.40 
   1  -2   1  670.13   37.70 
   1  -2   1  646.24   38.80 
   1  -2   1  682.93   38.60 
   1  -2   1  660.13   38.00 
  -2   2  -1 3107.89  183.28 
  -2   2  -1 3158.68  183.48 
  -2   2  -1 3417.16  183.98 
  -2   2  -1 3205.78  183.58 
  -2   2  -1 3398.36  184.48 
   2  -2   1 3381.06  183.38 
   2  -2   1 3331.07  183.38 
   2  -2   1 3444.66  183.28 
   2  -2   1 3047.60  183.78 
   2  -2   1 3200.88  184.08 
  -3   2  -1  186.28   12.20 
  -3   2  -1  179.78   12.10 
  -3   2  -1  195.18   12.40 
  -3   2  -1  195.08   14.40 
   3  -2   1  168.58   13.40 
   3  -2   1  181.68   13.10 
   3  -2   1  185.08   12.00 
   3  -2   1  176.78   13.00 
   3  -2   1  201.48   12.00 
   3  -2   1  193.78   12.10 
  -4   2  -1  433.86   27.30 
  -4   2  -1  373.76   25.00 
  -4   2  -1  452.85   26.30 
  -4   2  -1  399.06   24.90 
   4  -2   1  383.36   26.70 
   4  -2   1  370.66   25.40 
   4  -2   1  385.86   25.80 
   4  -2   1  440.46   24.50 
   4  -2   1  429.36   25.20 
   4  -2   1  450.25   24.90 
  -5   2  -1   -0.60    6.80 
  -5   2  -1    8.80    3.50 
  -5   2  -1    5.20    5.00 
   5  -2   1    5.00    4.90 
   5  -2   1    6.90    3.10 
   5  -2   1    6.80    4.00 
   5  -2   1    6.10    2.70 
  -6   2  -1  186.68   15.40 
  -6   2  -1  189.58   16.60 
  -6   2  -1  224.38   20.70 
   6  -2   1  194.58   13.10 
   6  -2   1  179.58   16.30 
   6  -2   1  213.28   14.20 
   6  -2   1  226.28   15.50 
  -7   2  -1    8.70   10.90 
  -7   2  -1   16.50    7.10 
   7  -2   1   19.70    4.70 
   7  -2   1   13.60    6.30 
   7  -2   1   25.50    6.20 
  -8   2  -1    0.50    7.30 
  -8   2  -1   13.90   12.80 
   8  -2   1    4.10    4.10 
   8  -2   1   -7.80    6.00 
   8  -2   1    2.20    7.40 
   8   1  -1   12.00    6.80 
   8   1  -1   15.50    3.00 
   8   1  -1   18.40    4.70 
  -8  -1   1   17.30    9.40 
  -8  -1   1   23.10    5.10 
   7   1  -1   85.89    7.20 
   7   1  -1   75.59    9.50 
   7   1  -1   74.69    6.20 
  -7  -1   1   78.19   11.20 
  -7  -1   1   77.79   10.50 
   6   1  -1   78.39    6.30 
   6   1  -1   60.49    5.40 
   6   1  -1   87.29    9.30 
   5   1  -1  396.56   23.30 
   5   1  -1  409.76   25.30 
   5   1  -1  394.06   23.70 
  -5  -1   1  415.26   23.80 
   4   1  -1   44.80    3.90 
   4   1  -1   51.89    6.10 
   4   1  -1   43.30    5.70 
   4   1  -1   45.70    4.00 
  -4  -1   1   52.59    4.00 
  -4  -1   1   47.50    7.40 
   3   1  -1   29.10    3.60 
   3   1  -1   30.50    2.30 
   3   1  -1   29.90    4.00 
   3   1  -1   32.00    2.50 
  -3  -1   1   36.00    4.70 
   2   1  -1  309.27   18.00 
   2   1  -1  295.77   18.20 
  -2  -1   1  309.17   18.40 
   1   1  -1   25.80    1.80 
   1   1  -1   22.20    2.00 
   1   1  -1   24.90    1.60 
  -1  -1   1   23.90    1.70 
  -1  -1   1   24.20    1.50 
   0   1  -1  129.79    7.50 
   0   1  -1  139.79    7.70 
   0  -1   1  101.99    7.40 
   0  -1   1  133.19    7.20 
  -2   1  -1 1050.69   62.49 
  -2   1  -1 1181.08   63.19 
  -2   1  -1 1074.99   62.59 
   2  -1   1 1093.59   62.89 
   2  -1   1 1115.39   62.49 
   2  -1   1 1078.59   63.19 
   2  -1   1 1094.59   62.89 
   2  -1   1 1154.48   62.49 
   2  -1   1 1094.59   62.49 
  -3   1  -1  987.00   59.19 
  -3   1  -1  966.70   58.99 
  -3   1  -1 1179.98   60.09 
  -3   1  -1 1049.99   59.59 
   3  -1   1  990.20   59.29 
   3  -1   1 1078.49   59.29 
   3  -1   1 1042.30   59.09 
   3  -1   1 1093.89   58.89 
   3  -1   1  966.60   59.99 
   3  -1   1 1016.70   59.49 
  -4   1  -1   68.29    6.10 
  -4   1  -1   65.89    5.70 
  -4   1  -1   69.49    6.30 
  -4   1  -1   63.69    7.20 
  -4   1  -1   75.69    8.90 
   4  -1   1   69.09    5.40 
   4  -1   1   61.59    6.00 
   4  -1   1   76.49    6.60 
   4  -1   1   60.79    7.50 
   4  -1   1   66.89    7.50 
   4  -1   1   71.49    6.10 
  -5   1  -1  184.18   19.10 
  -5   1  -1  176.98   13.70 
  -5   1  -1  217.18   16.50 
   5  -1   1  191.48   12.40 
   5  -1   1  193.88   14.70 
   5  -1   1  210.98   13.40 
   5  -1   1  202.68   14.10 
  -6   1  -1   45.40    6.60 
  -6   1  -1   43.90    9.40 
  -6   1  -1   42.30    7.00 
   6  -1   1   40.40    4.40 
   6  -1   1   54.09    7.40 
   6  -1   1   59.59    6.60 
   6  -1   1   59.69    7.70 
  -7   1  -1   29.90    6.50 
  -7   1  -1   31.00   10.20 
  -7   1  -1   33.50    6.50 
   7  -1   1   20.20    6.40 
   7  -1   1   37.00    7.20 
   7  -1   1   29.80    5.00 
  -8   1  -1    9.30    5.50 
  -8   1  -1  -13.20   10.80 
   8  -1   1  -12.20    4.80 
   8  -1   1   -2.40    5.50 
   8  -1   1   -2.50    3.40 
   8   0  -1   24.70    7.70 
   8   0  -1   33.90    5.20 
   8   0  -1   18.20    3.70 
  -8   0   1   26.40    6.20 
  -8   0   1   28.80   10.90 
   7   0  -1   -1.30    3.70 
   7   0  -1    2.00    2.40 
   7   0  -1    2.60    5.00 
  -7   0   1   12.70    8.30 
  -7   0   1    2.50    4.00 
   6   0  -1  184.58   11.50 
   6   0  -1  162.88   12.60 
   6   0  -1  189.68   14.00 
  -6   0   1  182.28   15.70 
  -6   0   1  180.38   12.20 
  -6   0   1  175.08   12.70 
   5   0  -1  109.29    9.80 
   5   0  -1  122.49    9.20 
  -5   0   1  115.29    8.70 
  -5   0   1  125.29    8.80 
   4   0  -1  709.63   42.70 
   4   0  -1  658.93   43.40 
   4   0  -1  757.42   42.20 
   4   0  -1  738.23   41.60 
  -4   0   1  716.73   42.00 
  -4   0   1  797.42   42.50 
  -4   0   1  734.53   41.80 
   3   0  -1 1376.06   77.89 
   3   0  -1 1420.56   78.29 
   3   0  -1 1445.36   78.79 
   3   0  -1 1351.46   79.39 
  -3   0   1 1390.36   77.89 
  -3   0   1 1506.55   78.29 
  -3   0   1 1314.77   78.69 
  -3   0   1 1290.77   77.89 
  -3   0   1 1399.56   78.19 
   2   0  -1   23.50    3.10 
   2   0  -1   16.00    2.20 
   2   0  -1   18.70    2.20 
   2   0  -1   19.30    1.60 
  -2   0   1   18.70    2.30 
  -2   0   1   23.50    1.70 
  -2   0   1   23.30    2.10 
  -2   0   1   21.60    1.60 
   1   0  -1  168.88   10.00 
   1   0  -1  156.58    9.60 
   1   0  -1  161.78    9.60 
   1   0  -1  199.38   10.20 
  -1   0   1  169.08    9.50 
  -1   0   1  155.28    9.60 
  -1   0   1  177.48    9.90 
  -1   0  -1 2323.27  129.99 
  -1   0  -1 2391.76  129.89 
   1   0   1 2234.78  129.79 
   1   0   1 2307.67  129.89 
   1   0   1 2301.57  129.79 
   1   0   1 2321.67  129.79 
   1   0   1 2243.38  129.79 
   1   0   1 2420.66  129.89 
  -2   0  -1  543.15   30.80 
  -2   0  -1  521.05   30.40 
  -2   0  -1  573.44   30.40 
   2   0   1  502.25   30.60 
   2   0   1  524.85   30.30 
   2   0   1  533.35   30.00 
   2   0   1  500.35   30.10 
   2   0   1  499.35   30.30 
   2   0   1  533.35   30.20 
  -3   0  -1 1192.98   68.29 
  -3   0  -1 1283.87   69.19 
  -3   0  -1 1299.27   68.49 
  -3   0  -1 1094.59   67.89 
  -3   0  -1 1171.68   67.99 
   3   0   1 1162.68   68.19 
   3   0   1 1235.78   67.69 
   3   0   1 1182.88   67.99 
   3   0   1 1240.68   68.39 
   3   0   1 1201.78   67.89 
   3   0   1 1137.39   68.79 
  -4   0  -1 1775.52  110.09 
  -4   0  -1 2087.29  110.69 
  -4   0  -1 1906.31  110.79 
   4   0   1 1991.00  110.69 
   4   0   1 2013.30  110.29 
   4   0   1 1909.81  109.79 
   4   0   1 1849.52  111.49 
   4   0   1 1965.60  109.59 
   4   0   1 2072.59  110.99 
  -5   0  -1   39.00    6.30 
  -5   0  -1   22.00    4.40 
  -5   0  -1   21.30    4.90 
   5   0   1   28.10    4.00 
   5   0   1   32.20    5.10 
   5   0   1   22.80    4.70 
  -6   0  -1  161.08   12.80 
  -6   0  -1  176.08   15.60 
  -6   0  -1  157.88   12.90 
   6   0   1  180.08   12.00 
   6   0   1  158.98   13.10 
   6   0   1  162.78   13.40 
  -7   0  -1    1.70    4.60 
  -7   0  -1    5.00    4.40 
  -7   0  -1    3.20    8.00 
   7   0   1    0.30    4.10 
   7   0   1   -0.70    3.10 
   7   0   1    6.60    5.40 
  -8   0  -1   83.69   10.00 
  -8   0  -1   94.79   14.30 
   8   0   1   82.89   10.60 
   8   0   1  104.19   12.10 
   8   0   1   92.49    8.80 
   8  -1  -1    3.00    5.70 
   8  -1  -1   13.60    3.80 
   8  -1  -1   26.10    6.20 
  -8   1   1   12.70    6.10 
  -8   1   1   15.00   11.50 
   7  -1  -1   63.19    8.20 
   7  -1  -1   76.79    9.20 
   7  -1  -1   59.39    6.50 
  -7   1   1   71.59    8.20 
  -7   1   1   55.29   11.90 
   6  -1  -1  496.75   28.60 
   6  -1  -1  455.65   29.80 
   6  -1  -1  495.95   30.50 
  -6   1   1  462.45   29.60 
  -6   1   1  506.35   32.50 
  -6   1   1  489.45   29.60 
   5  -1  -1   87.19    9.10 
  -5   1   1  122.29    9.50 
  -5   1   1  121.19    8.90 
   4  -1  -1  812.92   51.99 
   4  -1  -1  877.01   50.79 
   4  -1  -1  923.21   50.99 
   4  -1  -1  905.81   49.99 
  -4   1   1  989.30   51.59 
  -4   1   1  868.31   50.69 
  -4   1   1  900.41   50.29 
  -4   1   1  806.42   50.79 
  -4   1   1  825.72   50.09 
   3  -1  -1  589.84   34.90 
   3  -1  -1  580.14   34.30 
   3  -1  -1  632.94   35.00 
   3  -1  -1  589.74   36.00 
   3  -1  -1  607.64   34.20 
   3  -1  -1  635.84   34.30 
  -3   1   1  575.94   35.00 
  -3   1   1  595.44   34.50 
  -3   1   1  561.74   35.40 
  -3   1   1  665.53   35.50 
  -3   1   1  580.54   34.90 
   2  -1  -1  503.35   30.60 
   2  -1  -1  512.85   30.20 
   2  -1  -1  536.25   30.50 
   2  -1  -1  532.25   30.20 
   2  -1  -1  540.85   30.60 
  -2   1   1  528.55   30.60 
  -2   1   1  501.05   30.20 
  -2   1   1  599.94   31.10 
  -2   1   1  535.55   30.20 
  -2   1   1  533.75   30.70 
   1  -1  -1 1137.39   61.39 
   1  -1  -1 1071.79   61.09 
   1  -1  -1 1025.60   60.79 
   1  -1  -1 1097.19   60.89 
   1  -1  -1 1055.69   60.79 
  -1   1   1 1138.29   61.39 
  -1   1   1 1104.19   60.99 
  -1   1   1 1045.70   60.79 
   0  -1  -1  193.58   11.70 
   0  -1  -1  225.28   11.60 
   0   1   1  180.58   11.50 
   0   1   1  198.88   11.60 
  -1  -1  -1  345.07   18.40 
  -1  -1  -1  316.27   18.40 
   1   1   1  307.17   18.40 
   1   1   1  310.57   18.40 
   1   1   1  347.27   18.40 
   1   1   1  311.07   18.40 
   1   1   1  303.37   18.50 
  -2  -1  -1   40.20    3.90 
  -2  -1  -1   52.09    3.40 
  -2  -1  -1   39.80    3.20 
  -2  -1  -1   37.80    3.40 
  -2  -1  -1   39.20    3.20 
   2   1   1   42.00    3.20 
   2   1   1   40.50    3.30 
   2   1   1   40.50    3.10 
   2   1   1   35.00    3.70 
   2   1   1   41.20    3.00 
  -3  -1  -1  533.65   27.70 
  -3  -1  -1  533.15   28.80 
  -3  -1  -1  415.96   27.90 
  -3  -1  -1  435.86   27.30 
  -3  -1  -1  467.65   27.60 
   3   1   1  487.35   27.00 
   3   1   1  472.45   27.50 
   3   1   1  477.45   28.00 
   3   1   1  440.16   28.20 
   3   1   1  474.75   27.50 
  -4  -1  -1  136.19    9.50 
  -4  -1  -1  124.59   10.80 
  -4  -1  -1  137.89    9.50 
  -4  -1  -1  131.99    9.00 
  -4  -1  -1  125.99    8.60 
   4   1   1  129.79    9.20 
   4   1   1  134.09    8.90 
   4   1   1  132.89    9.70 
   4   1   1  108.69   10.00 
  -5  -1  -1    0.60    3.20 
  -5  -1  -1    7.70    5.30 
  -5  -1  -1    1.40    2.60 
  -5  -1  -1    8.70    3.60 
   5   1   1    5.70    2.60 
   5   1   1    0.80    2.80 
   5   1   1    4.20    3.60 
  -6  -1  -1  378.46   23.00 
  -6  -1  -1  327.77   22.70 
   6   1   1  376.46   24.20 
   6   1   1  375.86   22.40 
   6   1   1  360.36   23.00 
  -7  -1  -1    9.00    4.20 
  -7  -1  -1    5.40    7.40 
   7   1   1    5.40    5.40 
   7   1   1    5.40    3.30 
   7   1   1    2.80    5.10 
  -8  -1  -1    5.00    9.10 
  -8  -1  -1   -3.20    4.00 
   8   1   1    4.90    3.80 
   8   1   1    7.40    6.40 
   8   1   1    1.10    3.30 
   8  -2  -1   51.89    8.70 
   8  -2  -1   43.50    5.90 
   8  -2  -1   62.39    9.10 
  -8   2   1   64.89    8.80 
  -8   2   1   37.90   13.80 
   7  -2  -1   33.10    7.10 
   7  -2  -1   38.50    6.80 
   7  -2  -1   31.10    4.70 
  -7   2   1   33.90    6.60 
  -7   2   1   28.00    6.30 
  -7   2   1   31.30   11.90 
   6  -2  -1  112.39   10.30 
   6  -2  -1  113.69    8.60 
   6  -2  -1   88.69   11.10 
  -6   2   1   90.19   13.40 
  -6   2   1  111.89   11.00 
  -6   2   1  108.49   10.40 
   5  -2  -1   92.49    7.00 
   5  -2  -1   90.89    8.80 
   5  -2  -1   94.99    7.70 
   5  -2  -1   94.49   10.30 
  -5   2   1  155.48   14.50 
  -5   2   1  109.39    8.90 
  -5   2   1  128.19   10.20 
   4  -2  -1  907.01   58.49 
   4  -2  -1 1026.80   57.09 
   4  -2  -1  898.01   56.69 
   4  -2  -1  990.00   56.19 
   4  -2  -1 1068.89   56.49 
   4  -2  -1  938.31   57.29 
  -4   2   1 1006.40   56.79 
  -4   2   1  970.40   56.69 
  -4   2   1  959.30   57.19 
  -4   2   1 1106.79   58.89 
  -4   2   1 1012.70   57.49 
   3  -2  -1  502.15   31.00 
   3  -2  -1  504.35   31.00 
   3  -2  -1  526.45   31.40 
   3  -2  -1  617.14   32.10 
   3  -2  -1  562.64   31.90 
  -3   2   1  516.55   31.60 
  -3   2   1  535.95   31.30 
  -3   2   1  507.65   31.20 
  -3   2   1  596.84   32.20 
   2  -2  -1  439.26   26.50 
   2  -2  -1  450.35   25.60 
   2  -2  -1  438.26   25.60 
   2  -2  -1  465.05   25.70 
   2  -2  -1  406.06   26.00 
  -2   2   1  439.36   25.90 
  -2   2   1  424.46   25.60 
  -2   2   1  497.35   27.30 
   1  -2  -1  601.84   33.90 
   1  -2  -1  560.54   34.50 
   1  -2  -1  608.04   34.00 
   1  -2  -1  627.24   35.10 
   1  -2  -1  600.74   34.10 
  -1   2   1  577.04   34.00 
  -1   2   1  602.44   34.10 
  -1   2   1  578.84   34.00 
  -1   2   1  636.04   35.10 
   0  -2  -1  975.60   53.49 
   0  -2  -1  957.00   53.19 
   0  -2  -1  928.81   53.39 
   0  -2  -1  911.71   52.99 
   0   2   1  938.31   53.09 
   0   2   1  937.01   52.89 
   0   2   1  920.41   53.39 
   0   2   1  944.71   53.09 
   0   2   1  959.00   53.49 
  -1  -2  -1  470.65   27.50 
  -1  -2  -1  469.65   27.70 
  -1  -2  -1  500.55   27.80 
   1   2   1  470.65   27.50 
   1   2   1  499.15   27.70 
   1   2   1  468.85   27.70 
   1   2   1  496.15   27.70 
  -2  -2  -1  155.88   10.10 
  -2  -2  -1  169.08   10.80 
  -2  -2  -1  166.98   10.20 
  -2  -2  -1  175.48   10.00 
  -2  -2  -1  156.18   10.10 
   2   2   1  163.28   10.10 
   2   2   1  182.48    9.90 
   2   2   1  161.28   10.00 
   2   2   1  160.48    9.90 
  -3  -2  -1 1644.04   94.09 
  -3  -2  -1 1851.41   94.09 
  -3  -2  -1 1717.23   95.19 
  -3  -2  -1 1613.44   94.09 
  -3  -2  -1 1626.24   94.09 
   3   2   1 1660.63   94.09 
   3   2   1 1626.94   94.89 
   3   2   1 1612.14   93.49 
   3   2   1 1677.73   93.99 
  -4  -2  -1  997.30   62.99 
  -4  -2  -1 1067.29   63.19 
  -4  -2  -1 1244.88   65.09 
  -4  -2  -1 1055.69   63.09 
  -4  -2  -1 1238.78   63.39 
   4   2   1 1094.49   63.19 
   4   2   1 1143.79   63.19 
   4   2   1 1014.30   64.19 
   4   2   1 1153.58   64.19 
  -5  -2  -1  163.88   13.80 
  -5  -2  -1  157.48   11.30 
  -5  -2  -1  140.09   10.70 
  -5  -2  -1  157.28   11.00 
   5   2   1  155.78   10.70 
   5   2   1  155.68   10.70 
   5   2   1  172.88   12.40 
  -6  -2  -1  501.05   31.00 
  -6  -2  -1  413.06   27.10 
  -6  -2  -1  455.15   28.00 
  -6  -2  -1  437.16   27.10 
   6   2   1  447.06   26.90 
   6   2   1  455.65   28.80 
  -7  -2  -1    0.60    3.50 
   7   2   1    1.30    3.20 
   7   2   1    4.20    3.30 
   7   2   1    5.20    5.40 
  -8  -2  -1   51.89   10.70 
  -8  -2  -1   38.80    7.20 
   8   2   1   52.09    6.40 
   8   2   1   56.89    9.60 
   8   2   1   42.60    5.70 
   8  -3  -1   -2.30    5.20 
   8  -3  -1   -1.80    3.70 
   8  -3  -1   -6.70    5.90 
  -8   3   1   17.10   14.20 
   7  -3  -1   38.90    8.40 
   7  -3  -1   28.90    5.00 
   7  -3  -1   29.00    6.40 
  -7   3   1   25.40    6.50 
  -7   3   1   34.50    6.90 
  -7   3   1   18.20   12.00 
   6  -3  -1  189.88   14.00 
   6  -3  -1  187.38   12.70 
   6  -3  -1  159.28   15.20 
   6  -3  -1  150.78   11.20 
  -6   3   1  175.38   15.10 
  -6   3   1  186.08   14.90 
  -6   3   1  137.79   19.20 
   5  -3  -1  337.77   20.20 
   5  -3  -1  313.67   22.00 
   5  -3  -1  317.07   19.80 
   5  -3  -1  325.47   20.80 
  -5   3   1  341.47   25.70 
  -5   3   1  335.97   22.30 
  -5   3   1  314.37   21.10 
   4  -3  -1  775.62   42.70 
   4  -3  -1  729.33   42.60 
   4  -3  -1  775.92   43.10 
   4  -3  -1  706.63   43.90 
  -4   3   1  764.52   45.90 
  -4   3   1  668.53   43.00 
  -4   3   1  741.93   43.80 
  -4   3   1  749.23   44.30 
   3  -3  -1   27.80    3.50 
   3  -3  -1   25.10    3.30 
   3  -3  -1   27.30    3.50 
  -3   3   1   37.40    4.30 
  -3   3   1   37.20    4.00 
   2  -3  -1 3327.27  186.18 
   2  -3  -1 3318.57  186.08 
   2  -3  -1 3509.85  186.18 
   2  -3  -1 3252.57  186.78 
   2  -3  -1 3293.27  187.48 
  -2   3   1 3555.84  188.08 
  -2   3   1 3177.38  186.28 
  -2   3   1 3243.28  186.28 
  -2   3   1 3214.48  186.28 
   1  -3  -1 1031.00   56.79 
   1  -3  -1 1009.90   58.09 
   1  -3  -1  993.00   57.49 
   1  -3  -1 1019.90   56.89 
  -1   3   1  979.60   56.89 
  -1   3   1  985.90   57.29 
  -1   3   1 1016.60   57.69 
  -1   3   1 1070.19   58.19 
  -1   3   1  924.61   56.59 
   0  -3  -1 4164.68  240.78 
   0  -3  -1 4297.27  240.98 
   0  -3  -1 4228.88  241.38 
   0  -3  -1 4339.87  241.68 
   0   3   1 4452.45  241.68 
   0   3   1 4323.87  240.88 
   0   3   1 4122.89  240.68 
   0   3   1 4389.66  241.58 
   0   3   1 4439.56  240.98 
  -1  -3  -1  604.74   34.70 
  -1  -3  -1  593.34   34.30 
  -1  -3  -1  611.74   34.50 
   1   3   1  584.64   34.30 
   1   3   1  631.44   34.70 
   1   3   1  601.84   34.70 
   1   3   1  582.14   34.30 
   1   3   1  593.94   34.20 
  -2  -3  -1  147.89   10.00 
  -2  -3  -1  169.78   10.10 
  -2  -3  -1  158.08   10.50 
  -2  -3  -1  169.58    9.80 
  -2  -3  -1  158.38    9.80 
   2   3   1  152.88    9.50 
   2   3   1  153.28    9.70 
   2   3   1  150.88    9.70 
   2   3   1  164.98   10.10 
   2   3   1  146.49   10.10 
  -3  -3  -1 1638.44   91.19 
  -3  -3  -1 1795.62   92.69 
  -3  -3  -1 1680.83   91.39 
  -3  -3  -1 1472.35   91.29 
  -3  -3  -1 1662.23   91.49 
   3   3   1 1515.45   91.99 
   3   3   1 1482.95   91.19 
   3   3   1 1713.83   91.49 
  -4  -3  -1  110.99    7.90 
  -4  -3  -1  112.69    8.00 
  -4  -3  -1  106.09    7.70 
  -4  -3  -1  129.69   10.20 
  -4  -3  -1  119.19    8.00 
   4   3   1  104.69    8.90 
   4   3   1  107.99    7.80 
   4   3   1  110.09    7.70 
  -5  -3  -1  329.57   19.20 
  -5  -3  -1  292.67   18.80 
  -5  -3  -1  313.57   18.90 
  -5  -3  -1  339.37   21.90 
   5   3   1  299.37   18.50 
   5   3   1  289.17   18.70 
   5   3   1  282.47   20.20 
  -6  -3  -1  108.69    9.50 
  -6  -3  -1  163.48   15.00 
  -6  -3  -1  119.39    9.50 
  -6  -3  -1  131.79   10.70 
   6   3   1  131.19    9.50 
   6   3   1  128.99   12.10 
   6   3   1  122.39    9.10 
  -7  -3  -1   30.50    9.30 
  -7  -3  -1   30.00    6.20 
  -7  -3  -1   18.80    4.40 
   7   3   1   27.00    4.30 
   7   3   1   18.00    6.30 
   7   3   1   18.10    3.70 
  -8  -3  -1   31.10    5.70 
   8   3   1   24.50    7.80 
   8   3   1   28.20    4.50 
   8   3   1   28.60    4.30 
   8  -4  -1   11.10    6.10 
   8  -4  -1    8.30    4.80 
  -8   4   1    3.10   12.70 
   7  -4  -1   83.59    9.70 
   7  -4  -1   78.49    8.40 
   7  -4  -1   56.39   10.00 
  -7   4   1   65.29   14.80 
  -7   4   1   69.29   10.10 
  -7   4   1   64.39    9.60 
   6  -4  -1    3.60    3.40 
   6  -4  -1    0.30    6.30 
   6  -4  -1    3.10    3.10 
   6  -4  -1    2.70    3.90 
  -6   4   1   13.50    5.20 
  -6   4   1    4.00    5.50 
  -6   4   1    3.20   10.20 
   5  -4  -1  263.97   17.20 
   5  -4  -1  258.67   16.90 
   5  -4  -1  253.07   16.80 
   5  -4  -1  245.08   19.20 
  -5   4   1  285.97   24.10 
  -5   4   1  272.07   19.70 
   4  -4  -1  634.14   35.30 
   4  -4  -1  630.84   35.40 
   4  -4  -1  548.55   36.60 
   4  -4  -1  637.44   35.30 
  -4   4   1  489.45   37.10 
  -4   4   1  608.94   35.90 
  -4   4   1  635.34   39.70 
   3  -4  -1  744.63   41.40 
   3  -4  -1  747.23   41.70 
   3  -4  -1  679.03   43.30 
   3  -4  -1  727.93   41.60 
   3  -4  -1  698.83   42.70 
  -3   4   1  727.13   44.70 
  -3   4   1  686.73   41.90 
  -3   4   1  784.92   43.50 
  -3   4   1  662.93   41.90 
   2  -4  -1 3136.19  184.38 
   2  -4  -1 3338.57  182.68 
   2  -4  -1 3151.28  183.48 
   2  -4  -1 3477.05  182.88 
   2  -4  -1 3393.96  182.48 
  -2   4   1 3125.19  182.78 
  -2   4   1 3026.00  182.68 
  -2   4   1 3251.97  182.88 
  -2   4   1 3315.77  184.88 
  -2   4   1 3314.07  183.98 
   1  -4  -1 1409.46   78.39 
   1  -4  -1 1324.37   77.59 
   1  -4  -1 1373.56   77.69 
   1  -4  -1 1360.56   77.29 
  -1   4   1 1249.68   77.29 
  -1   4   1 1378.76   78.69 
  -1   4   1 1551.64   79.49 
  -1   4   1 1335.67   77.59 
   0  -4  -1  442.26   25.50 
   0  -4  -1  477.45   26.90 
   0  -4  -1  444.66   25.40 
   0  -4  -1  429.56   26.20 
   0  -4  -1  371.36   25.80 
   0   4   1  435.16   25.40 
   0   4   1  478.85   27.50 
   0   4   1  419.76   25.50 
   0   4   1  428.96   25.20 
   0   4   1  456.35   26.50 
  -1  -4  -1 3740.93  210.08 
  -1  -4  -1 3690.73  209.88 
  -1  -4  -1 3807.42  210.48 
  -1  -4  -1 3797.02  210.58 
   1   4   1 3777.92  209.78 
   1   4   1 3911.81  210.58 
   1   4   1 3579.14  209.78 
   1   4   1 3784.52  210.38 
   1   4   1 3619.74  209.78 
  -2  -4  -1  259.77   15.60 
  -2  -4  -1  256.77   15.90 
  -2  -4  -1  265.67   16.00 
  -2  -4  -1  260.67   15.50 
  -2  -4  -1  251.57   16.10 
   2   4   1  248.88   15.40 
   2   4   1  235.98   15.60 
   2   4   1  271.87   15.60 
   2   4   1  239.88   15.20 
   2   4   1  272.37   16.00 
  -3  -4  -1 2166.48  124.29 
  -3  -4  -1 2283.97  125.39 
  -3  -4  -1 2249.27  124.29 
  -3  -4  -1 2396.26  124.89 
   3   4   1 2178.98  123.49 
   3   4   1 2124.19  123.89 
   3   4   1 2034.00  123.39 
  -4  -4  -1    4.20    2.20 
  -4  -4  -1    6.80    2.40 
  -4  -4  -1    6.80    4.20 
  -4  -4  -1    9.20    2.80 
   4   4   1    9.20    2.30 
   4   4   1   11.80    2.60 
  -5  -4  -1  412.16   24.30 
  -5  -4  -1  365.46   21.30 
  -5  -4  -1  337.87   20.80 
  -5  -4  -1  376.76   21.20 
   5   4   1  283.37   20.40 
   5   4   1  323.57   20.80 
  -6  -4  -1   41.00    8.90 
  -6  -4  -1   42.70    9.50 
  -6  -4  -1   27.60    4.70 
   6   4   1   24.70    3.90 
   6   4   1   30.30    7.10 
   6   4   1   26.20    4.20 
  -7  -4  -1   20.00    8.90 
  -7  -4  -1   11.70    5.10 
  -7  -4  -1   15.60    4.50 
   7   4   1   12.70    3.70 
   7   4   1   14.40    3.50 
   7   4   1   15.10    6.50 
  -8  -4  -1   67.29    7.90 
  -8  -4  -1   77.39   14.20 
  -8  -4  -1   64.19    9.20 
   8   4   1   55.29   10.20 
   8   4   1   78.19    6.70 
   8  -5  -1   16.40    5.30 
   8  -5  -1   23.00    6.90 
  -8   5   1   13.30   14.40 
   7  -5  -1    1.40    7.30 
   7  -5  -1   -0.30    3.80 
   7  -5  -1   -5.00    4.50 
  -7   5   1   -0.80   11.80 
   6  -5  -1   50.79    6.80 
   6  -5  -1   63.79    7.30 
   6  -5  -1   39.50    9.20 
   6  -5  -1   70.49    7.80 
  -6   5   1   66.19    9.10 
  -6   5   1   53.09   14.10 
  -6   5   1   55.79    9.80 
   5  -5  -1  146.69   14.50 
   5  -5  -1  162.38   11.60 
   5  -5  -1  141.59   11.40 
   5  -5  -1  162.58   11.50 
  -5   5   1  114.99   16.40 
  -5   5   1  142.09   13.10 
  -5   5   1  173.68   15.40 
   4  -5  -1  159.88   10.30 
   4  -5  -1  141.69   10.60 
   4  -5  -1  149.79   10.50 
   4  -5  -1  126.49   13.00 
  -4   5   1  116.89   13.30 
  -4   5   1  128.19   11.50 
  -4   5   1  117.69   15.30 
   3  -5  -1 1147.79   61.39 
   3  -5  -1  946.21   63.19 
   3  -5  -1  992.70   62.39 
   3  -5  -1 1087.89   60.99 
   3  -5  -1 1097.79   61.49 
  -3   5   1 1050.79   61.89 
  -3   5   1 1091.89   63.59 
  -3   5   1 1041.20   61.69 
  -3   5   1 1147.09   65.39 
   2  -5  -1 1293.07   70.99 
   2  -5  -1 1241.48   73.39 
   2  -5  -1 1200.28   70.79 
   2  -5  -1 1319.97   71.19 
   2  -5  -1 1211.18   71.99 
  -2   5   1 1220.38   71.19 
  -2   5   1 1251.67   72.69 
  -2   5   1 1222.58   71.39 
  -2   5   1 1241.68   73.89 
   1  -5  -1    3.70    1.70 
   1  -5  -1   11.60    3.60 
   1  -5  -1    4.30    1.80 
   1  -5  -1    5.70    2.30 
  -1   5   1    3.70    2.30 
  -1   5   1    2.00    1.50 
  -1   5   1    7.10    4.20 
  -1   5   1    3.40    3.10 
  -1   5   1    0.80    1.50 
   0  -5  -1 1874.61  113.69 
   0  -5  -1 2042.00  113.09 
   0  -5  -1 2018.50  112.89 
   0  -5  -1 2021.60  114.59 
   0  -5  -1 1990.00  112.99 
   0   5   1 1917.11  113.09 
   0   5   1 1997.10  112.99 
   0   5   1 1908.41  112.69 
   0   5   1 2134.69  114.39 
   0   5   1 2132.19  114.49 
  -1  -5  -1  813.62   48.10 
  -1  -5  -1  836.72   47.10 
  -1  -5  -1  833.92   47.30 
  -1  -5  -1  822.62   47.80 
   1   5   1  777.82   46.90 
   1   5   1  827.12   47.80 
   1   5   1  806.62   46.90 
   1   5   1  767.92   47.00 
   1   5   1  893.21   48.20 
  -2  -5  -1  673.13   38.30 
  -2  -5  -1  678.73   38.20 
  -2  -5  -1  645.44   37.50 
  -2  -5  -1  628.94   37.60 
   2   5   1  683.13   38.30 
   2   5   1  599.84   37.30 
   2   5   1  666.13   37.80 
   2   5   1  649.64   37.40 
   2   5   1  609.84   37.60 
  -3  -5  -1 2150.08  114.59 
  -3  -5  -1 2009.90  114.19 
  -3  -5  -1 2167.48  115.39 
  -3  -5  -1 2063.79  113.99 
   3   5   1 2150.28  114.59 
   3   5   1 1974.60  113.79 
   3   5   1 1974.70  113.59 
   3   5   1 1894.71  113.39 
   3   5   1 1801.12  114.29 
  -4  -5  -1  302.67   18.10 
  -4  -5  -1  284.37   18.20 
  -4  -5  -1  274.87   18.60 
  -4  -5  -1  314.97   20.40 
   4   5   1  321.07   18.50 
   4   5   1  275.17   17.80 
  -5  -5  -1 2580.04  137.09 
  -5  -5  -1 2264.57  134.39 
  -5  -5  -1 2410.26  134.79 
  -5  -5  -1 2290.17  134.09 
   5   5   1 2373.66  134.39 
  -6  -5  -1  109.99   13.20 
  -6  -5  -1  140.29   10.30 
  -6  -5  -1  112.59    9.90 
   6   5   1  101.09    8.90 
   6   5   1  114.89    8.60 
  -7  -5  -1   50.69   10.90 
  -7  -5  -1   42.80    6.80 
  -7  -5  -1   42.50    6.80 
   7   5   1   43.10    8.40 
   7   5   1   47.00    5.30 
   7   5   1   37.70    5.10 
  -8  -5  -1   43.80   21.10 
  -8  -5  -1   63.09    9.60 
  -8  -5  -1   59.09    7.50 
   8   5   1   44.40   15.10 
   8   5   1   50.19    5.20 
   7  -6  -1   10.90    4.90 
   7  -6  -1   15.70    6.90 
  -7   6   1   -6.70   12.90 
   6  -6  -1   -6.50    6.10 
   6  -6  -1    2.90    4.00 
   6  -6  -1   -1.90    3.70 
   6  -6  -1    4.50    4.00 
  -6   6   1    0.80    5.50 
  -6   6   1   -2.90   11.60 
  -6   6   1   -0.90    6.90 
   5  -6  -1  -12.90    5.80 
   5  -6  -1    2.60    3.60 
   5  -6  -1    4.60    3.60 
   5  -6  -1    8.10    3.90 
  -5   6   1   -0.60    6.10 
  -5   6   1   12.30   10.90 
   4  -6  -1   10.80    6.60 
   4  -6  -1    6.30    3.60 
   4  -6  -1   13.20    3.70 
   4  -6  -1   13.20    3.50 
  -4   6   1   18.90    9.90 
  -4   6   1    5.30    4.50 
  -4   6   1   11.40    6.10 
   3  -6  -1    1.90    3.00 
   3  -6  -1   -0.10    2.70 
   3  -6  -1    1.80    2.30 
  -3   6   1    2.10    3.60 
  -3   6   1    1.30    3.10 
  -3   6   1   10.70    5.20 
   2  -6  -1  880.71   47.80 
   2  -6  -1  769.92   48.70 
   2  -6  -1  866.11   47.10 
   2  -6  -1  893.01   47.60 
   2  -6  -1  725.23   50.59 
  -2   6   1  779.92   47.90 
  -2   6   1  759.52   47.20 
  -2   6   1  825.92   50.99 
  -2   6   1  819.92   47.80 
  -2   6   1  817.92   49.60 
   1  -6  -1   24.30    3.80 
   1  -6  -1   19.10    3.50 
   1  -6  -1   16.30    3.00 
  -1   6   1   16.20    2.90 
  -1   6   1   18.80    3.90 
  -1   6   1   24.10    5.70 
  -1   6   1   22.00    3.90 
   0  -6  -1 1500.55   92.89 
   0  -6  -1 1652.63   92.39 
   0  -6  -1 1658.63   92.09 
   0  -6  -1 1539.45   93.89 
   0  -6  -1 1687.93   92.19 
   0   6   1 1586.94   91.99 
   0   6   1 1568.04   92.29 
   0   6   1 1714.43   93.79 
   0   6   1 1682.93   93.79 
  -1  -6  -1 1068.99   61.89 
  -1  -6  -1 1066.29   62.39 
  -1  -6  -1 1034.80   61.09 
  -1  -6  -1 1110.59   61.09 
   1   6   1 1118.19   62.39 
   1   6   1 1091.69   62.09 
   1   6   1 1066.59   60.89 
   1   6   1 1029.60   61.99 
   1   6   1  991.80   62.49 
  -2  -6  -1  250.17   16.20 
  -2  -6  -1  261.07   16.40 
  -2  -6  -1  280.47   17.10 
  -2  -6  -1  259.47   17.10 
   2   6   1  247.68   16.10 
   2   6   1  240.28   16.10 
   2   6   1  254.07   16.00 
   2   6   1  270.17   16.80 
   2   6   1  268.57   17.40 
  -3  -6  -1  680.23   40.60 
  -3  -6  -1  729.93   42.10 
  -3  -6  -1  699.23   40.60 
  -3  -6  -1  701.53   41.50 
   3   6   1  685.23   40.40 
   3   6   1  674.83   40.30 
   3   6   1  714.63   41.40 
  -4  -6  -1  619.04   35.80 
  -4  -6  -1  558.04   34.30 
  -4  -6  -1  566.04   33.40 
  -4  -6  -1  547.15   33.50 
   4   6   1  551.34   33.20 
   4   6   1  571.24   33.90 
  -5  -6  -1  171.18   12.00 
  -5  -6  -1  193.78   15.80 
  -5  -6  -1  154.48   12.60 
  -5  -6  -1  161.08   14.00 
   5   6   1  177.68   11.90 
   5   6   1  147.69   11.10 
  -6  -6  -1   29.50    5.40 
  -6  -6  -1   34.40    5.30 
  -6  -6  -1   16.40    7.90 
   6   6   1   17.90    3.70 
   6   6   1   26.10    4.30 
  -7  -6  -1  157.08   17.20 
  -7  -6  -1  144.49   11.90 
  -7  -6  -1  135.99   12.00 
   7   6   1   92.89   12.60 
   7   6   1  125.69    9.70 
   7   6   1  112.19    9.00 
  -8  -6  -1   79.19   14.20 
  -8  -6  -1   81.99    9.90 
  -8  -6  -1  107.29   11.10 
   8   6   1   64.99   11.50 
   7  -7  -1   -3.40    4.60 
   7  -7  -1   -6.30    4.20 
  -7   7   1   -0.40   15.50 
   6  -7  -1    4.70    4.30 
   6  -7  -1    9.50    4.90 
  -6   7   1    4.30    6.80 
  -6   7   1   15.40   13.30 
   5  -7  -1   81.99   11.50 
   5  -7  -1   77.19    8.90 
   5  -7  -1   94.79    9.90 
   5  -7  -1   86.59    8.50 
  -5   7   1   56.49   17.50 
  -5   7   1   64.19   11.50 
  -5   7   1   91.09   10.90 
   4  -7  -1   -6.30    6.40 
   4  -7  -1   -1.40    2.80 
   4  -7  -1    1.00    2.90 
   4  -7  -1   -4.70    6.20 
  -4   7   1   -6.10    4.40 
  -4   7   1   -8.20    6.00 
  -4   7   1    4.40    9.70 
   3  -7  -1  141.09   10.70 
   3  -7  -1  115.99    9.70 
   3  -7  -1  133.59   11.10 
   3  -7  -1  119.29   13.50 
  -3   7   1  158.08   15.40 
  -3   7   1  189.08   19.10 
  -3   7   1  112.49   11.90 
   2  -7  -1  754.22   44.10 
   2  -7  -1  699.03   45.60 
   2  -7  -1  796.32   43.60 
   2  -7  -1  804.22   44.20 
   2  -7  -1  694.73   47.30 
  -2   7   1  754.72   47.90 
  -2   7   1  709.33   44.70 
  -2   7   1  732.33   44.40 
  -2   7   1  761.02   46.80 
   1  -7  -1   44.20    5.30 
   1  -7  -1   44.60    5.40 
   1  -7  -1   48.70    5.80 
   1  -7  -1   48.90    9.20 
   1  -7  -1   38.30    6.80 
  -1   7   1   59.79    7.50 
  -1   7   1   32.40    7.90 
  -1   7   1   38.30    5.70 
  -1   7   1   39.60    7.00 
   0  -7  -1 1356.96   74.39 
   0  -7  -1 1315.77   74.49 
   0  -7  -1 1209.18   76.89 
   0  -7  -1 1230.48   75.49 
   0  -7  -1 1353.06   74.59 
   0   7   1 1382.36   76.69 
   0   7   1 1246.28   73.79 
   0   7   1 1255.47   74.79 
   0   7   1 1341.17   76.49 
  -1  -7  -1   13.20    3.60 
  -1  -7  -1   18.30    3.70 
  -1  -7  -1   23.10    6.00 
  -1  -7  -1   19.20    3.80 
   1   7   1   16.60    4.90 
   1   7   1   19.50    3.60 
   1   7   1   18.20    4.80 
   1   7   1   15.50    3.00 
   1   7   1    7.90    3.40 
  -2  -7  -1  485.05   29.80 
  -2  -7  -1  502.95   31.40 
  -2  -7  -1  496.45   29.80 
  -2  -7  -1  487.15   30.40 
   2   7   1  526.15   31.30 
   2   7   1  465.95   29.50 
   2   7   1  517.95   30.50 
  -3  -7  -1   55.39    7.50 
  -3  -7  -1   46.50    7.00 
  -3  -7  -1   57.09    6.30 
  -3  -7  -1   44.60    5.50 
   3   7   1   40.00    5.10 
   3   7   1   49.20    5.70 
   3   7   1   57.19    7.00 
  -4  -7  -1   17.50    4.00 
  -4  -7  -1   15.20    5.70 
  -4  -7  -1   20.20    5.30 
  -4  -7  -1   20.60    3.90 
   4   7   1   23.50    3.80 
   4   7   1   22.50    4.60 
  -5  -7  -1  364.56   23.20 
  -5  -7  -1  370.36   23.30 
  -5  -7  -1  364.06   24.20 
   5   7   1  381.56   23.20 
   5   7   1  350.66   22.40 
  -6  -7  -1  126.29   12.00 
  -6  -7  -1  122.29   10.80 
  -6  -7  -1   93.89   13.20 
   6   7   1  104.49    9.00 
   6   7   1  126.49    9.80 
  -7  -7  -1  134.79   12.60 
  -7  -7  -1  183.28   19.10 
  -7  -7  -1  177.68   13.70 
   7   7   1  124.59    9.70 
   7   7   1  122.19   10.30 
   6  -8  -1    2.20    4.30 
   6  -8  -1   -3.20    4.10 
  -6   8   1   19.90   13.50 
   5  -8  -1    1.40    7.60 
   5  -8  -1    7.10    4.50 
   5  -8  -1    6.80    3.90 
   5  -8  -1   -0.30    3.70 
  -5   8   1    8.60   11.40 
  -5   8   1   11.60    8.10 
  -5   8   1    0.60    6.10 
   4  -8  -1   31.70    4.90 
   4  -8  -1   19.10    4.70 
   4  -8  -1   30.30    6.00 
   4  -8  -1   18.10    8.20 
  -4   8   1   22.00    7.00 
  -4   8   1   31.50   11.60 
  -4   8   1   20.90    9.00 
   3  -8  -1    6.70    4.30 
   3  -8  -1    6.60    6.40 
   3  -8  -1    6.10    4.10 
   3  -8  -1   -1.70    2.90 
  -3   8   1   -5.40    8.10 
  -3   8   1  -11.10    6.10 
   2  -8  -1  124.39   10.30 
   2  -8  -1  105.89   15.90 
   2  -8  -1  120.49   10.30 
   2  -8  -1  101.49   13.00 
   2  -8  -1  124.29    9.30 
  -2   8   1  103.19   10.40 
  -2   8   1   97.19   13.70 
  -2   8   1  105.09   11.10 
  -2   8   1  133.09   15.20 
   1  -8  -1    1.30    5.60 
   1  -8  -1    6.70    4.90 
   1  -8  -1   -1.70    7.20 
   1  -8  -1    4.00    2.90 
   1  -8  -1    3.50    3.60 
  -1   8   1   -1.70    5.70 
  -1   8   1    3.60    3.60 
  -1   8   1    0.90    3.70 
  -1   8   1    3.00    8.90 
   0  -8  -1  128.59   12.60 
   0  -8  -1  131.99   15.70 
   0  -8  -1  142.89   10.80 
   0  -8  -1  149.69   11.30 
   0  -8  -1  152.18   10.80 
   0   8   1  141.39   14.00 
   0   8   1  134.89   13.70 
   0   8   1  129.19   10.80 
  -1  -8  -1   41.50    5.60 
  -1  -8  -1   34.90    5.20 
  -1  -8  -1   49.20    9.60 
  -1  -8  -1   31.10    5.20 
   1   8   1   41.20    6.80 
   1   8   1   33.30    6.80 
   1   8   1   27.50    4.70 
  -2  -8  -1  155.58   11.80 
  -2  -8  -1  160.48   14.80 
  -2  -8  -1  164.38   12.80 
  -2  -8  -1  166.88   12.10 
   2   8   1  158.28   11.70 
   2   8   1  152.68   12.80 
   2   8   1  184.18   14.20 
  -3  -8  -1  223.28   16.70 
  -3  -8  -1  243.78   15.70 
  -3  -8  -1  220.08   17.50 
  -3  -8  -1  217.68   15.30 
   3   8   1  205.08   14.80 
   3   8   1  241.38   16.90 
   3   8   1  214.08   15.20 
  -4  -8  -1  510.75   31.50 
  -4  -8  -1  440.56   28.90 
  -4  -8  -1  494.05   31.00 
   4   8   1  468.75   28.80 
  -5  -8  -1  254.37   19.00 
  -5  -8  -1  214.48   15.70 
  -5  -8  -1  206.28   15.00 
  -5  -8  -1  219.88   17.60 
   5   8   1  230.08   15.90 
   5   8   1  209.88   14.90 
  -6  -8  -1   14.30    5.00 
  -6  -8  -1   23.40    8.60 
  -6  -8  -1    1.90    5.80 
   6   8   1   17.60    4.00 
   6   8   1   14.90    4.40 
  -7  -8  -1  148.79   14.20 
  -7  -8  -1  135.49   12.50 
  -7  -8  -1  129.39   19.80 
   7   8   1  106.59    9.40 
   6  -9  -1   -3.20    4.10 
   6  -9  -1    0.70    5.10 
  -6   9   1    7.10   13.30 
   5  -9  -1   20.50    5.10 
   5  -9  -1    9.80    5.00 
  -5   9   1   26.60   13.10 
  -5   9   1   15.50   10.80 
   4  -9  -1   -0.20    3.80 
   4  -9  -1    1.20    3.80 
   4  -9  -1   -4.00    7.20 
   4  -9  -1    1.50    4.50 
  -4   9   1   -7.40    5.80 
  -4   9   1   15.50   11.60 
  -4   9   1   -1.20    7.80 
   3  -9  -1  262.17   17.10 
   3  -9  -1  224.98   21.50 
   3  -9  -1  258.77   18.20 
   3  -9  -1  254.07   18.60 
  -3   9   1  256.87   23.00 
  -3   9   1  248.38   25.30 
   2  -9  -1    0.50    3.30 
   2  -9  -1   -0.30    6.50 
   2  -9  -1    2.70    4.50 
   2  -9  -1    2.50    3.40 
  -2   9   1    7.70    8.20 
  -2   9   1    0.50    4.20 
  -2   9   1    6.40    7.80 
   1  -9  -1  170.78   20.10 
   1  -9  -1  260.47   15.90 
   1  -9  -1  224.78   16.40 
   1  -9  -1  220.58   16.10 
   1  -9  -1  209.38   22.00 
  -1   9   1  302.07   25.40 
  -1   9   1  222.18   16.60 
  -1   9   1  222.98   21.00 
   0  -9  -1  353.46   22.40 
   0  -9  -1  386.56   23.10 
   0  -9  -1  345.37   22.60 
   0  -9  -1  332.87   27.00 
   0   9   1  344.87   26.10 
   0   9   1  315.37   25.30 
   0   9   1  347.97   22.80 
  -1  -9  -1   16.90    4.50 
  -1  -9  -1    6.30    7.40 
  -1  -9  -1    3.60    3.40 
  -1  -9  -1    1.00    4.00 
   1   9   1    8.40    5.40 
   1   9   1    6.60    3.70 
   1   9   1    5.20    5.60 
  -2  -9  -1  462.65   28.10 
  -2  -9  -1  448.66   27.20 
  -2  -9  -1  402.86   30.00 
   2   9   1  412.46   28.00 
   2   9   1  444.16   29.30 
   2   9   1  413.86   26.90 
  -3  -9  -1  119.39   10.80 
  -3  -9  -1  125.99   12.30 
  -3  -9  -1  125.59   12.30 
   3   9   1  123.89   11.00 
   3   9   1  137.09   15.20 
   3   9   1  126.29   14.20 
  -4  -9  -1  132.69   13.70 
  -4  -9  -1  142.39   11.30 
  -4  -9  -1  138.69   11.80 
  -4  -9  -1  125.29   22.10 
   4   9   1  140.39   11.10 
   4   9   1  127.69   12.50 
  -5  -9  -1   64.89   10.80 
  -5  -9  -1   64.59    7.20 
  -5  -9  -1   42.90    7.10 
  -5  -9  -1   60.59    9.70 
   5   9   1   69.19    7.70 
   5   9   1   63.09    7.80 
  -6  -9  -1    5.70    7.20 
  -6  -9  -1   35.90   10.00 
  -6  -9  -1   37.90    6.30 
   6   9   1   30.00    5.70 
   6   9   1   30.00    5.30 
  -7  -9  -1   37.80   11.20 
  -7  -9  -1   43.50    7.60 
   7   9   1   43.00    6.00 
   7   9   1   42.70    5.80 
   5 -10  -1   32.70    6.30 
   5 -10  -1   37.20    7.00 
  -5  10   1   17.50   10.20 
  -5  10   1   57.49   15.70 
   4 -10  -1    6.80    5.10 
   4 -10  -1    3.70    4.90 
   4 -10  -1    6.30    4.40 
  -4  10   1   12.80    9.20 
  -4  10   1   15.40   11.90 
   3 -10  -1  250.17   22.50 
   3 -10  -1  286.67   20.70 
   3 -10  -1  296.37   20.30 
   3 -10  -1  286.77   19.10 
  -3  10   1  268.77   27.40 
  -3  10   1  266.97   25.70 
   2 -10  -1   10.00    4.60 
   2 -10  -1    5.30    3.90 
   2 -10  -1    8.10    5.10 
  -2  10   1    0.50    8.30 
  -2  10   1  -10.50    7.50 
   1 -10  -1   48.80   13.00 
   1 -10  -1   71.39    7.70 
   1 -10  -1   55.29    7.20 
   1 -10  -1   50.89    7.50 
  -1  10   1   48.00   10.00 
  -1  10   1   51.29   10.90 
  -1  10   1   41.70    6.50 
   0 -10  -1  242.38   26.30 
   0 -10  -1  301.07   20.80 
   0 -10  -1  296.77   20.90 
   0 -10  -1  349.07   21.10 
   0  10   1  300.07   24.40 
   0  10   1  328.27   25.10 
   0  10   1  297.67   21.00 
  -1 -10  -1   22.70    5.60 
  -1 -10  -1   17.30    6.30 
  -1 -10  -1   19.50    9.60 
  -1 -10  -1   25.60    5.60 
   1  10   1   33.80    8.40 
   1  10   1   19.50    6.60 
   1  10   1   12.20    4.20 
  -2 -10  -1  139.19   14.70 
  -2 -10  -1  110.79   15.80 
   2  10   1  140.99   11.90 
   2  10   1  155.68   13.60 
  -3 -10  -1    6.70    4.80 
  -3 -10  -1    1.80    3.70 
  -3 -10  -1   -5.70    4.60 
   3  10   1    0.40    4.20 
   3  10   1    2.50    3.90 
   3  10   1   -2.60    4.90 
  -4 -10  -1   10.00    4.20 
  -4 -10  -1    9.80    6.60 
  -4 -10  -1   16.10    5.50 
  -4 -10  -1    6.30    7.80 
   4  10   1    7.20    5.50 
   4  10   1   16.60    4.70 
  -5 -10  -1   64.29    8.60 
  -5 -10  -1   89.39   12.50 
  -5 -10  -1   64.79   11.30 
   5  10   1   72.39    8.90 
   5  10   1   74.59    9.50 
  -6 -10  -1   12.20    6.20 
   6  10   1   14.60    4.80 
   6  10   1   20.50    5.40 
   4 -11  -1   10.80    5.40 
  -4  11   1   -3.80   13.30 
  -4  11   1   27.50   10.80 
   3 -11  -1   15.90    5.20 
   3 -11  -1   22.30    6.30 
   3 -11  -1   14.50    6.20 
  -3  11   1   21.50   11.30 
  -3  11   1   17.20   11.00 
   2 -11  -1    1.30    4.80 
   2 -11  -1    1.10    4.30 
   2 -11  -1    7.40    5.60 
  -2  11   1    1.70    9.20 
  -2  11   1    7.30    8.40 
   1 -11  -1  129.69   12.50 
   1 -11  -1  116.49   11.20 
   1 -11  -1  120.89   11.90 
  -1  11   1  101.99   15.60 
  -1  11   1  105.89   15.10 
  -1  11   1  103.19   12.30 
   0 -11  -1    0.10   10.80 
   0 -11  -1   30.70    6.50 
   0 -11  -1   29.00    6.20 
   0 -11  -1   31.50    5.90 
   0  11   1   16.50    8.50 
   0  11   1   19.10    5.00 
   0  11   1   27.50    9.90 
  -1 -11  -1  381.26   27.40 
  -1 -11  -1  405.36   27.10 
  -1 -11  -1  372.16   31.90 
  -1 -11  -1  469.25   27.90 
   1  11   1  390.96   32.80 
   1  11   1  420.66   31.00 
   1  11   1  427.16   29.60 
  -2 -11  -1  274.97   20.10 
  -2 -11  -1  199.08   23.50 
  -2 -11  -1  268.07   19.30 
   2  11   1  253.97   18.80 
   2  11   1  268.07   20.90 
   2  11   1  270.67   22.40 
  -3 -11  -1   64.29    8.30 
  -3 -11  -1   79.39    9.50 
  -3 -11  -1   93.49   11.60 
  -3 -11  -1   56.49   12.90 
   3  11   1   70.89   11.00 
   3  11   1   79.49    9.70 
   3  11   1   79.69    9.70 
  -4 -11  -1   47.80    9.80 
  -4 -11  -1   30.70   11.10 
  -4 -11  -1   43.50    7.50 
   4  11   1   43.30    8.50 
   4  11   1   44.50    7.20 
  -5 -11  -1    4.90    8.10 
  -5 -11  -1    3.80    5.40 
   5  11   1    2.90    5.10 
   3 -12  -1   57.79    9.10 
   3 -12  -1   48.30    8.50 
   3 -12  -1   58.69    8.00 
  -3  12   1   30.00   12.80 
  -3  12   1   42.00   12.40 
   2 -12  -1    9.20    5.70 
   2 -12  -1   15.60    5.70 
   2 -12  -1   16.70    6.70 
  -2  12   1   -3.20    8.80 
  -2  12   1    9.80    9.60 
   1 -12  -1    6.10    5.70 
   1 -12  -1    4.40    5.00 
   1 -12  -1    6.20    4.90 
  -1  12   1   -8.60    8.30 
  -1  12   1   -3.00    8.20 
   0 -12  -1   12.60    5.90 
   0 -12  -1    9.30    5.30 
   0 -12  -1   11.00    6.10 
   0  12   1    1.80    8.50 
   0  12   1   11.60    8.10 
  -1 -12  -1   29.90    7.10 
  -1 -12  -1   55.29    8.20 
  -1 -12  -1   45.10    8.10 
  -1 -12  -1   31.30   15.30 
   1  12   1   26.70   10.00 
  -2 -12  -1   46.50    8.10 
  -2 -12  -1   48.20    9.10 
   2  12   1   43.10   10.00 
  -3 -12  -1    4.70    6.90 
  -3 -12  -1    5.00    5.60 
   3  12   1   -0.90    6.50 
  -4 -12  -1   23.00    9.00 
  -4 -12  -1   33.00    7.50 
   4  12   1   25.40    7.90 
  -2  13   1   -2.00    9.80 
   1 -13  -1    6.60    5.40 
   1 -13  -1   22.60    7.40 
   1 -13  -1   27.20    7.60 
  -1  13   1   21.40   11.20 
   0 -13  -1    4.30    5.90 
   0 -13  -1    5.40    6.00 
   0  13   1   -4.80    9.00 
  -1 -13  -1   64.99   10.20 
  -1 -13  -1   67.09    9.80 
   1  13   1   66.49   13.30 
  -2 -13  -1    9.20    6.40 
  -2 -13  -1   10.10    8.80 
   2  13   1    6.60    9.00 
  -3 -13  -1   16.40    8.30 
  -3 -13  -1   14.10    6.90 
   3  13   1   20.80    9.00 
   3  12  -2   12.10    8.20 
  -3 -12   2   15.70    6.00 
  -3 -12   2   22.90    7.60 
   2  12  -2   78.19   13.30 
  -2 -12   2   67.59    9.70 
  -2 -12   2   54.39    8.40 
   1  12  -2    4.90    8.80 
  -1 -12   2    9.50    5.80 
  -1 -12   2    8.00    5.70 
   0  12  -2   83.99   14.90 
   0 -12   2   84.89   10.50 
   0 -12   2   86.99   10.80 
   0 -12   2   94.69   10.90 
  -1  12  -2   -5.60    9.20 
   1 -12   2    4.30    4.90 
   1 -12   2    9.00    6.20 
   1 -12   2    4.00    4.90 
  -2  12  -2   14.40   11.60 
   2 -12   2    8.50    6.50 
   2 -12   2   10.80    5.50 
   2 -12   2    8.50    5.40 
   5  11  -2   28.40    7.00 
   5  11  -2   42.10    7.90 
  -5 -11   2   50.39   10.10 
  -5 -11   2   27.90    6.70 
   4  11  -2   -2.90    5.60 
   4  11  -2   11.00    5.70 
  -4 -11   2   -3.60    6.10 
  -4 -11   2    4.00    5.20 
   3  11  -2   21.70    8.40 
   3  11  -2   32.70    7.40 
  -3 -11   2   27.60    7.40 
  -3 -11   2   26.80   15.20 
  -3 -11   2   20.40    6.00 
   2  11  -2   22.90    6.80 
   2  11  -2   41.50   10.20 
  -2 -11   2   11.90   10.20 
  -2 -11   2   28.80    6.10 
  -2 -11   2   22.20    5.50 
  -2 -11   2   20.50    6.60 
   1  11  -2   52.99   12.00 
   1  11  -2   82.29   11.60 
   1  11  -2   55.39    9.20 
  -1 -11   2   73.89    9.20 
  -1 -11   2   63.39    8.00 
  -1 -11   2   61.39    8.30 
  -1 -11   2   65.99   13.70 
   0  11  -2   14.90    9.40 
   0  11  -2   32.20    9.90 
   0  11  -2   29.80    8.20 
   0 -11   2   42.20   12.70 
   0 -11   2   35.30    6.40 
   0 -11   2   26.00    6.40 
   0 -11   2   30.30    6.00 
  -1  11  -2   13.60    9.80 
  -1  11  -2    9.40    9.40 
   1 -11   2    8.00    4.90 
   1 -11   2    9.70    6.60 
   1 -11   2   10.90    5.30 
  -2  11  -2   16.20   10.00 
  -2  11  -2    5.70   10.50 
   2 -11   2    8.50    5.20 
   2 -11   2   13.90    5.00 
   2 -11   2    5.10    5.60 
  -3  11  -2   36.50   11.70 
  -3  11  -2   34.00   14.20 
   3 -11   2   59.29    8.30 
   3 -11   2   38.30    8.20 
   3 -11   2   55.39    7.30 
  -4  11  -2   25.00   14.80 
  -4  11  -2    0.40   11.50 
   4 -11   2   25.90    7.00 
   5  10  -2  125.29   11.60 
  -5 -10   2   97.49   14.80 
  -5 -10   2  139.59   15.30 
  -5 -10   2  116.49   15.60 
   4  10  -2   12.80    6.00 
   4  10  -2   13.40    5.30 
  -4 -10   2   15.50    9.60 
  -4 -10   2    4.50    3.70 
  -4 -10   2   16.00    7.20 
  -4 -10   2    8.60    4.90 
   3  10  -2  113.39   11.20 
   3  10  -2  106.49   12.90 
  -3 -10   2   83.89   14.30 
  -3 -10   2   96.59   10.10 
  -3 -10   2   95.79    9.50 
   2  10  -2   -0.90    4.60 
   2  10  -2    5.60    5.10 
   2  10  -2    3.10    6.40 
  -2 -10   2    2.80    3.70 
  -2 -10   2    2.90    4.60 
  -2 -10   2  -12.50    8.10 
  -2 -10   2    8.40    4.60 
   1  10  -2   55.89   10.50 
   1  10  -2   57.09    9.60 
   1  10  -2   50.49    7.70 
  -1 -10   2   65.89    8.00 
  -1 -10   2   53.39    7.40 
  -1 -10   2   47.40   12.60 
  -1 -10   2   59.89    7.80 
   0  10  -2  172.08   16.30 
   0  10  -2  207.38   21.00 
   0  10  -2  189.98   19.80 
   0 -10   2  175.88   14.90 
   0 -10   2  213.58   14.80 
   0 -10   2  218.48   15.00 
   0 -10   2  175.38   21.80 
  -1  10  -2   23.70    7.50 
  -1  10  -2   24.50   10.60 
  -1  10  -2   19.20    9.60 
   1 -10   2    6.90    9.50 
   1 -10   2   23.60    6.00 
   1 -10   2   22.20    5.70 
   1 -10   2   25.90    5.40 
  -2  10  -2  115.89   16.80 
  -2  10  -2  100.89   17.00 
  -2  10  -2  118.29   13.40 
   2 -10   2   97.59   12.10 
   2 -10   2  117.39   10.30 
   2 -10   2  128.79   11.60 
  -3  10  -2    9.10   12.40 
  -3  10  -2   18.10   11.40 
   3 -10   2    3.40    4.00 
   3 -10   2    0.70    5.30 
   3 -10   2    2.30    4.40 
  -4  10  -2  -11.80    9.40 
  -4  10  -2   -1.20   13.60 
   4 -10   2    3.00    5.30 
   4 -10   2   -0.70    4.40 
   4 -10   2    0.70    4.20 
  -5  10  -2    4.60   10.80 
  -5  10  -2   -7.90   14.00 
   5 -10   2    4.20    4.80 
   5 -10   2    0.40    5.30 
   6   9  -2   37.20    4.80 
   6   9  -2   23.40    4.70 
  -6  -9   2   38.10    5.90 
  -6  -9   2   28.30    9.20 
  -6  -9   2   16.20    9.50 
   5   9  -2  134.59   10.90 
   5   9  -2  130.89   11.20 
  -5  -9   2  126.69   14.40 
  -5  -9   2  116.09   10.90 
  -5  -9   2  122.09   15.00 
   4   9  -2    1.90    4.80 
   4   9  -2    0.80    4.00 
  -4  -9   2    7.40    6.50 
  -4  -9   2   -3.40    7.70 
  -4  -9   2    0.40    3.10 
  -4  -9   2   -2.70    3.50 
   3   9  -2   10.70    4.60 
   3   9  -2   14.70    5.90 
  -3  -9   2   18.90    4.30 
  -3  -9   2   18.20    5.80 
  -3  -9   2   12.00    4.30 
  -3  -9   2    1.70    8.20 
   2   9  -2  424.16   26.30 
   2   9  -2  401.96   26.00 
  -2  -9   2  396.66   25.00 
  -2  -9   2  432.16   26.10 
  -2  -9   2  318.17   28.40 
   1   9  -2    1.20    5.60 
   1   9  -2   -4.20    3.90 
   1   9  -2    6.30    6.50 
  -1  -9   2    2.70    3.80 
  -1  -9   2    0.70    3.70 
  -1  -9   2   -1.80    8.30 
   0   9  -2   73.99   12.40 
   0   9  -2   69.79    9.90 
   0   9  -2   84.69   12.20 
   0  -9   2   74.29    8.70 
   0  -9   2   82.69    8.30 
   0  -9   2   51.19   12.20 
   0  -9   2   84.99    8.30 
  -1   9  -2   22.70   10.10 
  -1   9  -2   33.70   10.10 
  -1   9  -2   36.90    6.50 
   1  -9   2   49.00    6.30 
   1  -9   2   48.80    5.90 
   1  -9   2   58.19   12.90 
   1  -9   2   30.50    6.00 
  -2   9  -2   -5.80    7.70 
  -2   9  -2   -2.40    4.90 
  -2   9  -2   -1.70    9.80 
   2  -9   2   -1.50    4.60 
   2  -9   2    0.90    3.50 
   2  -9   2   -0.20    3.80 
  -3   9  -2   -3.20   10.70 
  -3   9  -2   -5.90    8.60 
   3  -9   2    5.40    5.00 
   3  -9   2   10.20    6.50 
   3  -9   2    5.60    3.90 
  -4   9  -2    0.30   10.00 
  -4   9  -2   -3.70   12.20 
   4  -9   2   10.50    5.10 
   4  -9   2   11.30    5.70 
   4  -9   2   10.50    8.00 
   4  -9   2    7.70    4.20 
  -5   9  -2  -21.80    9.20 
  -5   9  -2    3.10   14.50 
   5  -9   2   -0.20    5.10 
   5  -9   2   -0.80    4.20 
   7   8  -2   99.29   12.60 
  -7  -8   2  134.49   10.70 
  -7  -8   2  109.49   15.60 
  -7  -8   2   97.49   12.20 
  -6  -8   2   69.89    7.90 
  -6  -8   2   48.90    9.50 
  -6  -8   2   59.69   10.60 
   5   8  -2  192.38   13.60 
   5   8  -2  176.28   13.30 
  -5  -8   2  210.68   18.00 
  -5  -8   2  234.68   17.70 
  -5  -8   2  175.88   13.50 
   4   8  -2   63.99    7.50 
   4   8  -2   65.49    7.50 
  -4  -8   2   59.29   10.50 
  -4  -8   2   66.09    8.90 
  -4  -8   2   61.19    7.00 
  -4  -8   2   48.70    6.10 
   3   8  -2   37.30    6.70 
   3   8  -2   33.70    5.40 
  -3  -8   2   26.70    4.60 
  -3  -8   2   28.50    4.50 
  -3  -8   2   35.60    6.40 
  -3  -8   2   34.50    8.50 
   2   8  -2    3.40    3.80 
   2   8  -2    1.20    4.30 
   2   8  -2    6.30    5.50 
  -2  -8   2    6.30    3.40 
  -2  -8   2    4.10    2.80 
  -2  -8   2   -1.60    3.60 
   1   8  -2  614.34   37.10 
   1   8  -2  554.54   36.10 
   1   8  -2  551.34   34.70 
  -1  -8   2  603.24   34.20 
  -1  -8   2  565.64   34.20 
  -1  -8   2  500.55   37.40 
   0   8  -2  142.49   12.30 
   0   8  -2  138.19   16.10 
   0   8  -2  149.69   16.10 
   0  -8   2  149.79   11.10 
   0  -8   2  130.09   16.80 
   0  -8   2  156.88   11.70 
   0  -8   2  153.58   11.20 
  -1   8  -2   88.99   13.80 
  -1   8  -2   90.29   10.60 
  -1   8  -2  127.89   15.60 
   1  -8   2  100.39    8.50 
   1  -8   2  112.29    9.80 
   1  -8   2  107.59    9.20 
   1  -8   2   90.09   14.00 
  -2   8  -2  251.87   20.10 
  -2   8  -2  307.57   24.10 
  -2   8  -2  251.17   26.40 
   2  -8   2  267.87   23.20 
   2  -8   2  274.37   21.50 
   2  -8   2  307.97   19.00 
   2  -8   2  285.87   18.00 
   2  -8   2  274.97   19.10 
  -3   8  -2   25.20   12.40 
  -3   8  -2   40.40   21.10 
   3  -8   2   19.70    9.50 
   3  -8   2   27.80    5.30 
   3  -8   2   24.30    4.40 
   3  -8   2   20.90    5.60 
  -4   8  -2  175.28   20.80 
  -4   8  -2  128.99   20.80 
   4  -8   2  119.19   16.20 
   4  -8   2  158.78   13.40 
   4  -8   2  185.38   12.20 
   4  -8   2  170.18   14.30 
  -5   8  -2   33.70   31.30 
  -5   8  -2   42.60   12.80 
   5  -8   2   33.90    6.80 
   5  -8   2   48.30    6.30 
   5  -8   2   59.19    8.00 
  -6   8  -2   -1.90   15.20 
   6  -8   2   16.20    5.70 
   6  -8   2   18.20    6.30 
   7   7  -2   -7.50    5.20 
  -7  -7   2   -0.20    3.60 
  -7  -7   2   10.00    9.00 
  -7  -7   2   -1.00    5.30 
  -6  -7   2  308.97   20.50 
  -6  -7   2  267.37   22.50 
  -6  -7   2  269.77   18.00 
   5   7  -2  167.38   11.70 
   5   7  -2  175.58   11.60 
  -5  -7   2  169.38   11.90 
  -5  -7   2  153.98   15.30 
  -5  -7   2  178.98   14.90 
   4   7  -2    4.10    3.30 
   4   7  -2    3.50    3.00 
  -4  -7   2    7.00    3.10 
  -4  -7   2    2.20    2.20 
  -4  -7   2   -4.50    4.20 
  -4  -7   2    5.20    5.60 
   3   7  -2  862.91   51.59 
   3   7  -2  910.61   52.79 
  -3  -7   2  865.71   53.89 
  -3  -7   2  853.71   51.29 
  -3  -7   2  928.71   52.99 
  -3  -7   2  923.51   51.49 
   2   7  -2    7.90    3.60 
   2   7  -2    9.00    3.40 
   2   7  -2    6.90    4.90 
   2   7  -2    6.00    2.60 
  -2  -7   2    9.30    3.70 
  -2  -7   2    9.30    2.90 
  -2  -7   2    7.80    6.50 
  -2  -7   2    7.10    3.10 
   1   7  -2  321.37   19.30 
   1   7  -2  312.67   22.00 
   1   7  -2  340.47   22.70 
   1   7  -2  302.37   20.40 
  -1  -7   2  340.37   20.10 
  -1  -7   2  331.77   20.20 
  -1  -7   2  274.37   23.30 
   0   7  -2    6.30    3.80 
   0   7  -2   10.40    6.60 
   0   7  -2   10.10    2.60 
   0   7  -2   14.90    6.60 
   0  -7   2    6.40    3.40 
   0  -7   2   14.40    3.70 
   0  -7   2   12.30    5.40 
   0  -7   2    1.80    7.00 
   0  -7   2   12.00    3.20 
  -1   7  -2  152.68   12.70 
  -1   7  -2  196.68   16.40 
  -1   7  -2  149.79   10.90 
  -1   7  -2  156.48   14.20 
  -1   7  -2  174.98   18.20 
   1  -7   2  179.58   11.20 
   1  -7   2  153.78   11.70 
   1  -7   2  142.99   16.70 
   1  -7   2  159.58   14.20 
   1  -7   2  164.98   12.10 
  -2   7  -2   53.19   11.60 
  -2   7  -2   45.70    9.10 
  -2   7  -2   54.89    7.20 
  -2   7  -2   54.69    8.20 
   2  -7   2   68.79   10.60 
   2  -7   2   63.89    6.10 
   2  -7   2   40.50    8.70 
   2  -7   2   58.19    6.80 
   2  -7   2   66.49    6.90 
  -3   7  -2  155.48   13.80 
  -3   7  -2  136.99   12.60 
  -3   7  -2  153.48   17.30 
  -3   7  -2  110.09   17.20 
   3  -7   2  147.99   11.60 
   3  -7   2  125.09   15.00 
   3  -7   2  155.28   10.40 
   3  -7   2  143.09   12.10 
  -4   7  -2   24.00    7.00 
  -4   7  -2   19.50   12.20 
  -4   7  -2    5.70    8.60 
   4  -7   2    9.50    7.50 
   4  -7   2   17.90    5.10 
   4  -7   2   10.00    4.40 
   4  -7   2   13.40    3.90 
  -5   7  -2   -8.20    9.00 
  -5   7  -2   19.90   13.70 
   5  -7   2    3.30    4.60 
   5  -7   2    5.90    8.10 
   5  -7   2    1.00    3.60 
   5  -7   2   -2.80    5.20 
  -6   7  -2  -20.80   13.40 
  -6   7  -2  -15.10    9.60 
   6  -7   2    6.20    4.60 
   6  -7   2    7.10    5.00 
  -7   7  -2    5.70   16.90 
   7  -7   2    3.50    5.40 
   7  -7   2    3.30    4.90 
   7   6  -2    2.90    6.10 
  -7  -6   2   -1.30    4.10 
  -7  -6   2    9.80    8.60 
  -7  -6   2    3.00    3.30 
   6   6  -2  321.37   23.30 
  -6  -6   2  331.97   20.50 
  -6  -6   2  331.47   21.70 
  -6  -6   2  373.76   25.90 
   5   6  -2  458.55   28.40 
   5   6  -2  498.05   28.60 
  -5  -6   2  488.55   29.10 
  -5  -6   2  537.85   32.50 
  -5  -6   2  498.45   30.40 
   4   6  -2  857.11   54.29 
   4   6  -2  978.00   54.99 
  -4  -6   2  951.40   54.39 
  -4  -6   2  974.70   55.89 
  -4  -6   2 1019.50   56.99 
  -4  -6   2  951.10   54.09 
   3   6  -2 1346.57   76.99 
   3   6  -2 1285.17   77.19 
   3   6  -2 1384.26   77.89 
  -3  -6   2 1391.46   78.39 
  -3  -6   2 1391.26   78.59 
  -3  -6   2 1351.86   76.79 
  -3  -6   2 1335.77   76.79 
   2   6  -2    2.00    3.70 
   2   6  -2    4.80    2.60 
   2   6  -2    2.90    2.50 
   2   6  -2    8.50    2.40 
  -2  -6   2    3.70    2.40 
  -2  -6   2    7.80    5.30 
  -2  -6   2    3.90    3.00 
  -2  -6   2    3.70    2.00 
   1   6  -2  709.83   42.60 
   1   6  -2  696.73   41.40 
   1   6  -2  760.32   43.00 
   1   6  -2  688.03   40.60 
   1   6  -2  713.23   41.60 
  -1  -6   2  738.13   41.30 
  -1  -6   2  646.84   42.00 
  -1  -6   2  714.33   41.20 
  -1  -6   2  699.23   40.90 
  -1  -6   2  718.43   43.60 
   0   6  -2   44.90    4.10 
   0   6  -2   49.30    5.80 
   0   6  -2   39.30    5.40 
   0   6  -2   31.10   11.10 
   0   6  -2   38.00    7.30 
   0  -6   2   37.70    4.50 
   0  -6   2   38.80    7.90 
   0  -6   2   37.90    8.00 
   0  -6   2   53.29    6.90 
   0  -6   2   37.80    4.60 
  -1   6  -2  525.35   33.10 
  -1   6  -2  606.84   35.70 
  -1   6  -2  526.85   37.20 
  -1   6  -2  584.64   35.20 
   1  -6   2  557.94   32.70 
   1  -6   2  604.34   33.30 
   1  -6   2  534.65   36.30 
   1  -6   2  505.35   34.60 
   1  -6   2  589.84   33.60 
  -2   6  -2  239.48   16.60 
  -2   6  -2  262.17   19.20 
  -2   6  -2  232.98   22.00 
  -2   6  -2  237.58   17.00 
  -2   6  -2  220.88   15.20 
   2  -6   2  217.48   17.60 
   2  -6   2  246.38   14.80 
   2  -6   2  237.28   15.90 
   2  -6   2  214.68   19.40 
   2  -6   2  242.88   15.60 
  -3   6  -2  162.98   16.70 
  -3   6  -2  151.18   29.30 
  -3   6  -2  145.79   13.00 
  -3   6  -2  157.08   14.20 
   3  -6   2  175.88   12.50 
   3  -6   2  179.88   12.40 
   3  -6   2  137.39   14.50 
   3  -6   2  177.38   11.30 
  -4   6  -2  287.87   29.60 
  -4   6  -2  328.47   24.20 
  -4   6  -2  358.56   26.70 
   4  -6   2  368.56   22.80 
   4  -6   2  358.86   21.60 
   4  -6   2  367.76   22.60 
   4  -6   2  319.37   25.10 
  -5   6  -2    8.60    8.00 
  -5   6  -2   13.50   12.50 
  -5   6  -2   20.40    6.70 
   5  -6   2   -0.20    7.00 
   5  -6   2   18.80    5.20 
   5  -6   2   14.70    4.90 
   5  -6   2   16.50    4.50 
  -6   6  -2   -6.80    9.10 
  -6   6  -2   17.40    6.80 
  -6   6  -2   14.60   14.60 
   6  -6   2   19.70    8.20 
   6  -6   2   17.60    5.20 
   6  -6   2   11.20    5.00 
  -7   6  -2  -18.50   14.60 
   7  -6   2    0.60    4.80 
   8   5  -2   75.89   11.40 
   7   5  -2   17.50    6.30 
  -7  -5   2   12.30    8.60 
   6   5  -2  267.17   20.70 
  -6  -5   2  261.47   21.60 
  -5  -5   2    1.00    3.20 
  -5  -5   2   -0.20    5.40 
  -5  -5   2    0.00    2.00 
   4   5  -2  240.28   13.80 
   4   5  -2  235.48   14.10 
   4   5  -2  195.88   17.00 
  -4  -5   2  221.98   15.00 
  -4  -5   2  222.28   13.90 
  -4  -5   2  236.68   16.50 
   3   5  -2  378.06   22.60 
   3   5  -2  378.06   23.30 
  -3  -5   2  389.56   24.00 
  -3  -5   2  382.36   22.50 
  -3  -5   2  390.36   22.60 
  -3  -5   2  391.16   24.30 
   2   5  -2  412.56   25.30 
   2   5  -2  446.86   26.50 
   2   5  -2  452.55   25.40 
   2   5  -2  412.46   25.10 
   2   5  -2  431.36   25.40 
  -2  -5   2  440.66   25.30 
  -2  -5   2  425.76   25.20 
  -2  -5   2  472.55   26.20 
  -2  -5   2  391.36   25.80 
   1   5  -2  928.81   53.69 
   1   5  -2  884.71   52.09 
   1   5  -2  899.01   52.69 
   1   5  -2 1019.70   53.99 
  -1  -5   2  947.21   52.59 
  -1  -5   2  911.21   52.59 
  -1  -5   2  833.52   53.19 
  -1  -5   2  924.31   52.39 
   0   5  -2  367.26   22.80 
   0   5  -2  341.27   21.40 
   0   5  -2  345.97   20.40 
   0   5  -2  356.66   23.90 
   0   5  -2  354.46   21.70 
   0  -5   2  371.46   21.30 
   0  -5   2  350.26   23.90 
   0  -5   2  368.16   21.00 
   0  -5   2  330.97   20.70 
   0  -5   2  312.97   22.00 
  -1   5  -2 1238.38   72.39 
  -1   5  -2 1364.86   73.59 
  -1   5  -2 1247.48   72.59 
  -1   5  -2 1313.07   74.99 
  -1   5  -2 1191.58   71.39 
   1  -5   2 1127.59   72.79 
   1  -5   2 1300.27   71.39 
   1  -5   2 1344.67   72.19 
   1  -5   2 1221.38   74.09 
  -2   5  -2  161.78   13.00 
  -2   5  -2  123.19    9.80 
  -2   5  -2  132.89   11.00 
  -2   5  -2  133.69   16.40 
  -2   5  -2  131.29   10.50 
   2  -5   2  139.79    9.00 
   2  -5   2  119.29   13.40 
   2  -5   2  144.69    9.90 
   2  -5   2  117.39   11.70 
   2  -5   2  140.99   10.30 
  -3   5  -2 1101.39   61.09 
  -3   5  -2  893.91   60.89 
  -3   5  -2 1063.19   63.49 
  -3   5  -2 1025.00   59.79 
  -3   5  -2  940.61   58.69 
   3  -5   2 1059.99   58.89 
   3  -5   2 1075.19   58.09 
   3  -5   2  965.50   61.09 
   3  -5   2 1081.69   58.99 
   3  -5   2  931.11   60.19 
  -4   5  -2    9.10   10.60 
  -4   5  -2   23.50    5.80 
  -4   5  -2   15.00    7.60 
   4  -5   2   24.90    4.10 
   4  -5   2   17.00    7.50 
   4  -5   2   25.00    5.10 
   4  -5   2   22.10    4.40 
  -5   5  -2   13.90   11.20 
  -5   5  -2   20.20    6.30 
  -5   5  -2    2.20    8.30 
   5  -5   2   10.50    4.10 
   5  -5   2   11.70    3.90 
   5  -5   2   14.60    7.00 
   5  -5   2   13.00    4.50 
  -6   5  -2   15.40   12.70 
  -6   5  -2    8.10    6.00 
  -6   5  -2    9.00    8.50 
   6  -5   2   21.00    5.20 
   6  -5   2   17.80    7.90 
   6  -5   2   16.60    4.70 
   6  -5   2   11.20    4.90 
  -7   5  -2   19.80   15.50 
   7  -5   2   35.30    6.90 
   7  -5   2   34.20    6.90 
   8   4  -2   53.09    9.50 
   7   4  -2   50.79    8.30 
  -7  -4   2   49.40   10.90 
   6   4  -2  109.69   11.20 
  -6  -4   2  119.79   13.80 
   5   4  -2   12.80    4.50 
  -5  -4   2   26.80    6.50 
   4   4  -2 1057.29   65.69 
  -4  -4   2 1159.78   64.59 
  -4  -4   2 1208.18   66.79 
   3   4  -2  949.11   54.79 
   3   4  -2  994.00   54.49 
   3   4  -2  907.01   55.29 
  -3  -4   2  991.00   56.09 
  -3  -4   2  992.90   54.49 
  -3  -4   2  916.41   54.49 
  -3  -4   2  945.01   54.29 
  -3  -4   2 1013.40   55.09 
   2   4  -2  774.32   41.60 
   2   4  -2  720.13   40.80 
   2   4  -2  657.73   40.90 
  -2  -4   2  714.23   41.40 
  -2  -4   2  698.83   40.70 
  -2  -4   2  640.14   41.00 
  -2  -4   2  801.12   42.00 
   1   4  -2 1977.40  114.19 
   1   4  -2 1975.80  114.59 
   1   4  -2 2190.38  115.39 
   1   4  -2 1980.30  114.59 
   1   4  -2 2173.78  115.39 
  -1  -4   2 2023.40  114.49 
  -1  -4   2 2062.09  114.59 
  -1  -4   2 2063.09  114.39 
  -1  -4   2 1870.81  114.89 
   0   4  -2  339.47   20.20 
   0   4  -2  387.26   22.00 
   0   4  -2  357.66   21.20 
   0   4  -2  343.37   21.00 
   0   4  -2  366.66   23.20 
   0  -4   2  315.87   21.50 
   0  -4   2  345.17   20.90 
   0  -4   2  346.47   20.40 
   0  -4   2  335.87   22.70 
   0  -4   2  358.06   20.70 
  -1   4  -2 3158.98  161.08 
  -1   4  -2 2625.54  159.28 
  -1   4  -2 2839.02  160.28 
  -1   4  -2 3121.59  162.28 
  -1   4  -2 2725.53  160.08 
   1  -4   2 2886.01  159.98 
   1  -4   2 2931.21  159.78 
   1  -4   2 2681.83  161.18 
   1  -4   2 2810.62  159.18 
   1  -4   2 2645.24  160.48 
  -2   4  -2   78.79   10.50 
  -2   4  -2   68.99    7.00 
  -2   4  -2  101.19    8.80 
  -2   4  -2   66.29    8.00 
  -2   4  -2   65.29    5.70 
   2  -4   2   67.39    6.40 
   2  -4   2   67.49    8.90 
   2  -4   2   67.89    7.80 
   2  -4   2   66.49    5.30 
  -3   4  -2  793.42   47.30 
  -3   4  -2  870.11   48.40 
  -3   4  -2  830.32   50.19 
  -3   4  -2  734.23   46.30 
  -3   4  -2  770.52   47.00 
   3  -4   2  869.01   46.70 
   3  -4   2  839.22   46.60 
   3  -4   2  729.83   48.20 
   3  -4   2  685.13   47.80 
   3  -4   2  855.41   46.00 
  -4   4  -2  207.88   15.70 
  -4   4  -2  197.18   20.30 
  -4   4  -2  156.58   17.80 
   4  -4   2  226.88   14.60 
   4  -4   2  219.88   14.10 
   4  -4   2  200.88   16.60 
   4  -4   2  234.58   14.80 
  -5   4  -2   72.69   10.30 
  -5   4  -2   87.09   14.00 
  -5   4  -2   83.19   10.20 
   5  -4   2   79.09    8.30 
   5  -4   2   73.59    8.10 
   5  -4   2   88.39    8.50 
   5  -4   2   74.59   10.10 
  -6   4  -2  190.18   16.50 
  -6   4  -2  139.79   14.10 
  -6   4  -2  112.69   18.10 
   6  -4   2  144.29   15.30 
   6  -4   2  153.08   12.40 
   6  -4   2  136.79   12.20 
  -7   4  -2   31.50   14.60 
  -7   4  -2    9.70    8.70 
  -7   4  -2   10.30    6.50 
   7  -4   2   -1.20    4.30 
   7  -4   2   12.10    7.00 
   7  -4   2    3.40    5.20 
  -8   4  -2   -2.20   14.80 
   8  -4   2    1.60    6.20 
   8  -4   2    3.10    4.90 
   8   3  -2   14.40    7.00 
   7   3  -2  122.89   12.60 
   6   3  -2  441.06   28.20 
  -6  -3   2  430.16   30.20 
   5   3  -2   14.70    4.40 
  -5  -3   2   22.80    6.00 
   4   3  -2  917.21   54.19 
   4   3  -2  872.01   54.19 
  -4  -3   2 1019.20   55.29 
   3   3  -2  484.45   30.80 
   3   3  -2  555.34   29.70 
   3   3  -2  524.45   29.80 
  -3  -3   2  530.15   31.50 
   2   3  -2 2910.81  146.69 
   2   3  -2 2403.16  146.59 
   2   3  -2 2650.93  146.29 
  -2  -3   2 2605.14  146.09 
  -2  -3   2 2524.55  146.39 
  -2  -3   2 2538.65  146.99 
  -2  -3   2 2647.64  146.29 
   1   3  -2   79.89    5.70 
   1   3  -2   81.19    5.70 
   1   3  -2   88.49    6.50 
   1   3  -2   90.79    6.60 
  -1  -3   2   93.19    7.60 
  -1  -3   2   73.79    6.10 
  -1  -3   2   83.69    5.40 
  -1  -3   2   81.19    5.70 
  -1  -3   2   79.19    5.70 
   0   3  -2   19.60    3.30 
   0   3  -2   14.70    4.20 
   0   3  -2   16.40    1.70 
   0   3  -2   17.40    2.70 
   0   3  -2   11.80    2.00 
   0  -3   2   20.80    2.60 
   0  -3   2   12.90    1.90 
   0  -3   2   21.20    3.20 
   0  -3   2   17.90    3.80 
   0  -3   2   16.30    1.90 
  -1   3  -2  146.59    9.70 
  -1   3  -2  161.98   12.50 
  -1   3  -2  150.68   10.00 
  -1   3  -2  148.59    9.00 
   1  -3   2  135.99   10.40 
   1  -3   2  133.69   11.90 
   1  -3   2  146.19    9.70 
   1  -3   2  143.09    9.50 
   1  -3   2  142.89    8.80 
  -2   3  -2  201.38   13.80 
  -2   3  -2  202.68   13.00 
  -2   3  -2  219.78   14.60 
  -2   3  -2  211.08   16.00 
   2  -3   2  212.18   13.50 
   2  -3   2  218.78   12.70 
   2  -3   2  196.28   14.40 
   2  -3   2  222.58   13.40 
   2  -3   2  179.98   14.90 
  -3   3  -2  470.75   29.00 
  -3   3  -2  412.36   27.20 
  -3   3  -2  439.36   27.90 
  -3   3  -2  514.15   30.50 
  -3   3  -2  440.06   27.70 
   3  -3   2  467.25   27.50 
   3  -3   2  492.75   27.10 
   3  -3   2  478.75   27.50 
   3  -3   2  439.66   29.00 
   3  -3   2  432.76   28.50 
  -4   3  -2    8.80    3.10 
  -4   3  -2    2.60    3.40 
  -4   3  -2    7.80    7.40 
  -4   3  -2    8.60    5.40 
   4  -3   2    6.80    3.00 
   4  -3   2    4.60    3.00 
   4  -3   2    1.20    2.70 
   4  -3   2    7.60    4.50 
  -5   3  -2  203.88   20.20 
  -5   3  -2  198.08   15.10 
   5  -3   2  187.78   16.30 
   5  -3   2  191.78   13.50 
   5  -3   2  194.58   14.10 
   5  -3   2  203.28   14.10 
  -6   3  -2   42.70   18.00 
  -6   3  -2   33.70    8.40 
  -6   3  -2   39.20    7.20 
   6  -3   2   52.29    8.90 
   6  -3   2   48.60    7.00 
   6  -3   2   39.30    6.30 
   6  -3   2   44.40    5.70 
  -7   3  -2    2.40    7.30 
  -7   3  -2   24.50    5.70 
  -7   3  -2    5.60   12.40 
   7  -3   2    3.80    6.20 
   7  -3   2    8.60    7.00 
   7  -3   2    6.60    5.70 
   7  -3   2    4.40    4.30 
  -8   3  -2    9.70   13.60 
   8  -3   2   18.70    5.50 
   8  -3   2   23.80    7.30 
   8   2  -2   26.80    7.40 
  -8  -2   2   16.60    4.20 
  -8  -2   2    9.10    8.30 
   7   2  -2   37.70    7.40 
  -7  -2   2   38.50    4.70 
  -7  -2   2   36.50    7.10 
   6   2  -2   -1.70    4.00 
   5   2  -2    4.10    3.40 
  -5  -2   2    1.80    4.70 
   4   2  -2  830.92   50.69 
   4   2  -2  905.31   51.29 
   3   2  -2 1502.65   88.99 
   3   2  -2 1595.54   88.79 
  -3  -2   2 1603.04   89.39 
   2   2  -2 1108.49   55.19 
   2   2  -2 1002.60   54.99 
   2   2  -2  907.41   55.59 
  -2  -2   2  942.11   54.89 
  -2  -2   2  934.01   55.89 
   1   2  -2 1977.50  108.29 
   1   2  -2 1883.41  108.09 
   1   2  -2 1861.21  107.89 
   1   2  -2 1851.71  107.89 
   1   2  -2 2102.69  108.19 
  -1  -2   2 1795.62  108.19 
  -1  -2   2 1890.41  107.89 
  -1  -2   2 1880.91  108.09 
  -1  -2   2 2209.18  108.69 
  -1  -2   2 1825.12  108.09 
   0   2  -2  410.86   23.90 
   0   2  -2  429.26   24.60 
   0   2  -2  464.65   25.70 
   0   2  -2  460.75   25.00 
   0   2  -2  426.96   24.70 
   0  -2   2  413.06   24.60 
   0  -2   2  432.66   25.30 
   0  -2   2  414.06   24.90 
   0  -2   2  377.96   24.10 
  -1   2  -2 4699.83  252.57 
  -1   2  -2 4235.58  252.07 
  -1   2  -2 4681.53  252.97 
  -1   2  -2 4446.06  251.67 
  -1   2  -2 4592.84  252.27 
   1  -2   2 4471.55  252.07 
   1  -2   2 4609.94  252.17 
   1  -2   2 4341.17  252.47 
   1  -2   2 4438.96  252.77 
  -2   2  -2  992.70   57.49 
  -2   2  -2 1067.09   58.09 
  -2   2  -2  958.20   57.49 
  -2   2  -2 1042.30   58.49 
  -2   2  -2  953.20   56.99 
   2  -2   2 1019.50   56.99 
   2  -2   2 1020.40   57.39 
   2  -2   2 1038.60   57.49 
   2  -2   2  979.00   57.89 
   2  -2   2  969.80   58.19 
  -3   2  -2 2297.07  131.29 
  -3   2  -2 2383.36  132.39 
  -3   2  -2 2233.18  130.99 
  -3   2  -2 2464.65  131.89 
  -3   2  -2 2269.77  131.39 
   3  -2   2 2233.98  131.89 
   3  -2   2 2219.88  131.69 
   3  -2   2 2430.06  131.09 
   3  -2   2 2178.08  131.99 
   3  -2   2 2382.86  131.19 
   3  -2   2 2444.76  130.99 
  -4   2  -2   29.70    4.40 
  -4   2  -2   23.00    6.60 
  -4   2  -2   25.00    4.00 
  -4   2  -2   25.40    4.50 
   4  -2   2   23.00    5.50 
   4  -2   2   33.50    5.80 
   4  -2   2   27.30    4.20 
   4  -2   2   30.90    4.20 
   4  -2   2   33.40    4.60 
   4  -2   2   22.00    4.90 
  -5   2  -2   66.69    7.10 
  -5   2  -2   52.09    9.80 
  -5   2  -2   41.00    7.40 
   5  -2   2   46.70    5.70 
   5  -2   2   48.40    6.30 
   5  -2   2   53.59    7.60 
   5  -2   2   55.59    6.70 
  -6   2  -2  295.77   21.10 
  -6   2  -2  289.87   23.80 
   6  -2   2  256.67   17.70 
   6  -2   2  291.07   19.30 
  -7   2  -2   16.30    7.20 
  -7   2  -2   37.20   12.10 
  -7   2  -2   20.90    6.30 
   7  -2   2   13.20    4.30 
   7  -2   2   21.80    5.30 
   7  -2   2   25.30    7.40 
   7  -2   2   24.50    6.40 
  -8   2  -2    0.50   15.50 
   8   1  -2    8.10    6.30 
  -8  -1   2   -3.60    8.60 
   7   1  -2  285.57   20.20 
  -7  -1   2  298.67   21.20 
  -7  -1   2  255.87   17.90 
   6   1  -2   14.20    5.00 
  -6  -1   2   12.00    5.40 
  -6  -1   2   11.90    3.40 
   5   1  -2  260.67   16.90 
  -5  -1   2  239.78   14.90 
  -5  -1   2  252.97   15.90 
   4   1  -2 1601.24   92.89 
   3   1  -2  526.35   30.10 
   3   1  -2  485.25   30.40 
  -3  -1   2  530.25   30.90 
   2   1  -2 3285.97  178.38 
   2   1  -2 3012.00  178.58 
  -2  -1   2 3253.87  178.78 
   1   1  -2 3046.30  179.68 
   1   1  -2 3423.86  179.78 
   1   1  -2 3184.28  179.68 
  -1  -1   2 3068.39  179.68 
  -1  -1   2 3244.78  179.58 
  -1  -1   2 3257.87  179.58 
  -1  -1   2 3495.85  179.88 
  -1  -1   2 2996.70  179.68 
   0   1  -2  464.25   24.80 
   0   1  -2  420.76   24.30 
   0   1  -2  452.65   23.70 
   0   1  -2  443.56   24.50 
   0   1  -2  408.26   24.30 
   0  -1   2  416.96   24.40 
   0  -1   2  361.56   23.70 
   0  -1   2  422.86   24.30 
  -1   1  -2  267.37   17.00 
  -1   1  -2  280.17   16.80 
  -1   1  -2  288.07   16.60 
  -1   1  -2  275.07   16.00 
   1  -1   2  276.27   16.80 
   1  -1   2  288.67   16.00 
   1  -1   2  278.47   16.70 
   1  -1   2  264.17   16.40 
  -2   1  -2  443.76   24.80 
  -2   1  -2  405.16   24.20 
  -2   1  -2  397.86   23.80 
  -2   1  -2  428.76   24.50 
  -2   1  -2  390.86   24.00 
   2  -1   2  392.26   24.40 
   2  -1   2  421.56   24.10 
   2  -1   2  429.46   23.90 
   2  -1   2  406.56   24.10 
   2  -1   2  399.76   24.50 
   2  -1   2  379.26   24.30 
  -3   1  -2  729.33   44.10 
  -3   1  -2  727.63   44.30 
  -3   1  -2  746.43   44.10 
  -3   1  -2  825.42   45.20 
   3  -1   2  806.72   44.20 
   3  -1   2  737.83   44.90 
   3  -1   2  765.82   44.80 
   3  -1   2  776.62   44.00 
   3  -1   2  795.82   44.30 
   3  -1   2  731.63   44.50 
  -4   1  -2   52.79    6.40 
  -4   1  -2   54.19    7.50 
   4  -1   2   51.19    5.70 
   4  -1   2   52.99    6.10 
   4  -1   2   55.09    6.60 
   4  -1   2   46.80    6.80 
   4  -1   2   55.39    5.30 
   4  -1   2   51.69    5.80 
  -5   1  -2  390.56   24.10 
  -5   1  -2  401.86   26.10 
  -5   1  -2  388.16   24.70 
   5  -1   2  379.76   23.60 
   5  -1   2  383.76   24.10 
   5  -1   2  360.46   24.60 
   5  -1   2  363.16   22.80 
  -6   1  -2   34.30    7.20 
  -6   1  -2   39.40    9.50 
  -6   1  -2   44.20    6.60 
   6  -1   2   33.20    6.30 
   6  -1   2   35.20    4.40 
   6  -1   2   34.80    6.90 
   6  -1   2   44.20    5.90 
  -7   1  -2    3.30    7.40 
  -7   1  -2    4.70    5.80 
  -7   1  -2   -9.20    8.80 
   7  -1   2    1.40    5.20 
   7  -1   2    2.90    4.00 
   7  -1   2    7.40    5.50 
  -8   1  -2    1.90    5.30 
  -8   1  -2   14.20   11.20 
   8  -1   2   -0.30    6.10 
   8  -1   2    8.50    4.40 
   8  -1   2   -3.10    5.30 
   8   0  -2   -7.30    5.10 
   8   0  -2    2.00    2.50 
  -8   0   2    4.60    9.80 
  -8   0   2    9.80    5.20 
   7   0  -2   44.80    5.10 
   7   0  -2   55.29    5.90 
   7   0  -2   61.39    8.40 
  -7   0   2   37.70    9.50 
   6   0  -2   88.79    6.30 
   6   0  -2   68.79    7.40 
   6   0  -2   82.29    8.90 
  -6   0   2   83.49    9.90 
  -6   0   2   82.39    7.70 
   5   0  -2  496.55   30.80 
   5   0  -2  503.45   29.10 
   5   0  -2  492.75   29.70 
  -5   0   2  532.35   30.90 
  -5   0   2  506.95   29.40 
   4   0  -2   91.69    6.70 
   4   0  -2   92.09    8.70 
   4   0  -2   79.19    7.70 
   4   0  -2   91.09    5.80 
  -4   0   2   83.09    5.90 
  -4   0   2   92.99    7.80 
   3   0  -2   66.09    4.90 
   3   0  -2   73.19    5.50 
   3   0  -2   54.59    6.10 
   3   0  -2   69.39    4.30 
  -3   0   2   61.99    4.20 
  -3   0   2   62.29    5.20 
  -3   0   2   61.99    4.30 
  -3   0   2   68.69    5.40 
  -3   0   2   72.19    4.30 
   2   0  -2 4889.01  268.77 
   2   0  -2 4952.90  269.07 
   2   0  -2 4927.81  269.57 
   2   0  -2 4823.62  268.57 
  -2   0   2 4738.13  269.07 
  -2   0   2 4664.73  268.57 
  -2   0   2 4685.63  268.47 
   1   0  -2  762.82   43.30 
   1   0  -2  812.52   43.30 
   1   0  -2  773.42   43.30 
   1   0  -2  767.72   43.40 
  -1   0   2  747.23   43.30 
  -1   0   2  786.72   43.30 
  -1   0   2  755.62   43.30 
  -1   0   2  755.32   43.40 
  -1   0   2  769.22   43.30 
   0   0  -2 2726.43  150.08 
   0   0  -2 2698.83  150.18 
   0   0   2 2796.02  149.59 
   0   0   2 2808.22  150.18 
   0   0   2 2371.16  150.58 
  -2   0  -2    7.60    2.00 
  -2   0  -2    8.10    1.80 
  -2   0  -2    4.80    2.00 
  -2   0  -2    5.10    1.20 
   2   0   2    5.50    1.70 
   2   0   2    7.70    1.60 
   2   0   2    3.60    1.80 
   2   0   2    7.60    2.00 
   2   0   2    5.60    1.70 
   2   0   2    8.60    1.70 
  -3   0  -2  976.00   59.99 
  -3   0  -2 1080.29   60.49 
  -3   0  -2 1037.80   60.89 
  -3   0  -2 1106.79   60.69 
   3   0   2 1101.89   60.29 
   3   0   2 1102.99   60.29 
   3   0   2 1059.99   59.99 
   3   0   2 1055.79   60.49 
   3   0   2 1029.70   60.19 
   3   0   2  983.70   60.69 
  -4   0  -2   -1.80    3.10 
  -4   0  -2    2.70    2.40 
  -4   0  -2    0.30    1.40 
   4   0   2    0.60    1.90 
   4   0   2   -0.90    2.00 
   4   0   2    1.60    2.90 
   4   0   2    3.30    3.00 
   4   0   2    9.10    3.10 
   4   0   2   -0.10    1.90 
  -5   0  -2  360.96   25.50 
  -5   0  -2  442.76   27.10 
  -5   0  -2  505.65   29.40 
   5   0   2  382.06   26.00 
   5   0   2  430.06   25.60 
   5   0   2  410.96   26.10 
   5   0   2  410.36   24.40 
  -6   0  -2   83.59   10.10 
  -6   0  -2   68.79    8.50 
  -6   0  -2   97.99   11.20 
   6   0   2   75.19    9.40 
   6   0   2   75.69    6.90 
   6   0   2   81.59    9.50 
   6   0   2   77.89    8.00 
  -7   0  -2   41.60    7.50 
  -7   0  -2   58.09    7.50 
  -7   0  -2   41.20   10.40 
   7   0   2   44.20    7.80 
   7   0   2   56.29    8.50 
   7   0   2   53.39    6.60 
  -8   0  -2   66.79    8.80 
  -8   0  -2   65.09   13.30 
   8   0   2   73.19   10.60 
   8   0   2   57.39    7.40 
   8   0   2   60.69    9.70 
   8  -1  -2   -3.70    5.30 
   8  -1  -2   -0.70    2.80 
   8  -1  -2   -3.10    4.20 
  -8   1   2    0.60    5.20 
  -8   1   2   -0.90   10.40 
   7  -1  -2  117.49    9.30 
   7  -1  -2  133.29   11.40 
   7  -1  -2  142.99   12.40 
  -7   1   2  134.39   11.60 
  -7   1   2  107.29   14.60 
   6  -1  -2   18.40    5.10 
   6  -1  -2    9.20    4.70 
   6  -1  -2   13.90    2.90 
  -6   1   2   11.50    7.80 
  -6   1   2   13.80    3.40 
  -6   1   2   19.40    4.20 
   5  -1  -2  737.13   43.20 
   5  -1  -2  746.73   41.80 
   5  -1  -2  730.53   42.80 
  -5   1   2  721.33   44.20 
  -5   1   2  731.83   42.20 
  -5   1   2  704.33   42.40 
   4  -1  -2  445.36   26.30 
   4  -1  -2  406.36   27.50 
   4  -1  -2  451.65   26.10 
   4  -1  -2  432.06   25.20 
  -4   1   2  486.75   27.40 
  -4   1   2  389.96   26.10 
  -4   1   2  443.76   25.90 
  -4   1   2  411.96   25.30 
  -4   1   2  452.65   25.40 
   3  -1  -2 2420.66  132.29 
   3  -1  -2 2385.46  132.79 
   3  -1  -2 2233.38  133.89 
   3  -1  -2 2434.96  132.89 
  -3   1   2 2571.94  133.39 
  -3   1   2 2253.97  133.39 
  -3   1   2 2260.67  132.89 
  -3   1   2 2283.37  132.29 
  -3   1   2 2389.86  132.29 
   2  -1  -2 1853.91  103.09 
   2  -1  -2 1818.72  103.19 
   2  -1  -2 1824.62  103.39 
   2  -1  -2 1915.61  103.29 
   2  -1  -2 1782.12  102.89 
  -2   1   2 1775.02  103.29 
  -2   1   2 1774.92  103.39 
  -2   1   2 1794.22  102.99 
  -2   1   2 1813.72  102.99 
  -2   1   2 2029.80  103.89 
   1  -1  -2 1181.38   65.29 
   1  -1  -2 1188.68   65.19 
   1  -1  -2 1145.79   66.19 
   1  -1  -2 1096.49   65.49 
   1  -1  -2 1155.78   65.29 
  -1   1   2 1186.58   65.29 
  -1   1   2 1213.78   65.29 
  -1   1   2 1167.98   65.59 
  -1   1   2 1112.89   65.49 
   0  -1  -2  716.73   39.70 
   0  -1  -2  709.13   40.10 
   0  -1  -2  685.83   40.00 
   0  -1  -2  681.63   40.10 
   0  -1  -2  721.23   40.00 
   0   1   2  739.63   39.70 
   0   1   2  696.83   40.00 
   0   1   2  710.73   40.40 
   0   1   2  700.33   40.10 
   0   1   2  694.23   40.00 
  -1  -1  -2  346.37   20.10 
  -1  -1  -2  337.67   20.10 
  -1  -1  -2  351.36   20.10 
  -1  -1  -2  345.07   20.10 
   1   1   2  349.67   20.10 
   1   1   2  348.67   20.10 
   1   1   2  350.86   20.10 
   1   1   2  333.77   20.00 
  -2  -1  -2 1402.36   82.89 
  -2  -1  -2 1443.66   82.59 
  -2  -1  -2 1563.54   82.79 
   2   1   2 1474.55   82.69 
   2   1   2 1454.95   82.59 
   2   1   2 1476.65   82.69 
   2   1   2 1357.46   82.79 
   2   1   2 1526.75   82.59 
  -3  -1  -2  485.45   30.60 
  -3  -1  -2  527.75   30.90 
  -3  -1  -2  486.15   30.50 
  -3  -1  -2  521.85   31.50 
  -3  -1  -2  572.24   31.00 
   3   1   2  496.15   31.20 
   3   1   2  533.25   30.80 
   3   1   2  569.14   30.60 
   3   1   2  530.25   30.80 
   3   1   2  525.65   30.50 
   3   1   2  537.95   31.00 
  -4  -1  -2   70.89    6.00 
  -4  -1  -2   87.19    7.40 
  -4  -1  -2   76.09    6.60 
  -4  -1  -2   69.49    7.00 
  -4  -1  -2   81.49    8.30 
   4   1   2   77.89    6.50 
   4   1   2   80.09    6.90 
   4   1   2   82.09    7.20 
   4   1   2   70.39    7.40 
   4   1   2   76.59    5.80 
   4   1   2   75.29    5.90 
  -5  -1  -2  697.43   40.80 
  -5  -1  -2  662.73   39.20 
  -5  -1  -2  606.74   38.50 
  -5  -1  -2  649.83   38.90 
   5   1   2  672.03   38.60 
   5   1   2  627.74   37.30 
   5   1   2  707.73   39.50 
   5   1   2  625.04   38.80 
  -6  -1  -2   32.40    6.00 
  -6  -1  -2   31.80    5.20 
   6   1   2   29.50    6.10 
   6   1   2   24.10    5.10 
   6   1   2   30.60    4.90 
  -7  -1  -2  126.99   11.80 
  -7  -1  -2  134.89   12.50 
  -7  -1  -2  127.39   15.40 
   7   1   2  134.29   12.00 
   7   1   2  148.39   13.50 
   7   1   2  142.29   11.20 
  -8  -1  -2   36.80    6.90 
  -8  -1  -2   26.30   10.50 
   8   1   2   37.30    5.90 
   8   1   2   34.30    6.40 
   8   1   2   33.80    8.50 
   8  -2  -2    4.80    5.50 
   8  -2  -2    3.00    5.90 
   8  -2  -2    3.10    3.30 
  -8   2   2    0.10    5.30 
  -8   2   2    6.70   14.30 
   7  -2  -2   24.30    6.30 
   7  -2  -2   34.30    7.10 
   7  -2  -2   28.60    4.40 
  -7   2   2   35.70    6.50 
  -7   2   2   51.99   11.80 
   6  -2  -2   38.10    6.30 
   6  -2  -2   55.09    5.80 
   6  -2  -2   47.20    7.30 
  -6   2   2   50.09    6.30 
  -6   2   2   34.40   11.30 
  -6   2   2   42.60    6.30 
   5  -2  -2  299.37   17.80 
   5  -2  -2  279.97   19.40 
   5  -2  -2  302.07   19.00 
  -5   2   2  286.67   18.40 
  -5   2   2  298.57   22.20 
  -5   2   2  282.67   19.10 
   4  -2  -2   -7.20    3.40 
   4  -2  -2    3.30    1.90 
   4  -2  -2    4.40    3.30 
   4  -2  -2   -1.40    2.30 
   4  -2  -2    0.90    1.60 
  -4   2   2    2.60    2.40 
  -4   2   2    6.70    5.10 
  -4   2   2    6.30    3.20 
  -4   2   2    1.70    1.70 
   3  -2  -2  393.56   25.60 
   3  -2  -2  420.26   25.00 
   3  -2  -2  462.75   25.10 
   3  -2  -2  447.76   25.40 
   3  -2  -2  412.86   26.60 
  -3   2   2  423.56   25.10 
  -3   2   2  449.95   25.10 
  -3   2   2  421.96   25.80 
  -3   2   2  411.76   25.60 
  -3   2   2  458.15   27.10 
   2  -2  -2  381.76   22.90 
   2  -2  -2  393.26   22.30 
   2  -2  -2  394.96   22.30 
   2  -2  -2  365.06   23.30 
   2  -2  -2  391.96   22.30 
  -2   2   2  359.76   22.40 
  -2   2   2  397.06   23.00 
  -2   2   2  389.96   23.60 
  -2   2   2  374.16   22.20 
   1  -2  -2  117.19    8.60 
   1  -2  -2  135.99    7.50 
   1  -2  -2  121.59    7.70 
   1  -2  -2  126.09    7.80 
   1  -2  -2  115.19    8.10 
  -1   2   2  124.59    8.50 
  -1   2   2  125.49    7.70 
  -1   2   2  125.19    7.80 
  -1   2   2  116.69    7.50 
  -1  -2  -2  335.97   19.30 
  -1  -2  -2  332.37   19.50 
  -1  -2  -2  340.57   19.40 
  -1  -2  -2  320.47   19.50 
   1   2   2  305.17   19.80 
   1   2   2  331.07   19.20 
   1   2   2  323.07   19.30 
   1   2   2  351.36   19.50 
   1   2   2  328.17   19.50 
  -2  -2  -2  293.27   18.00 
  -2  -2  -2  282.97   18.00 
  -2  -2  -2  327.07   18.00 
  -2  -2  -2  304.17   18.40 
   2   2   2  287.97   18.20 
   2   2   2  293.27   17.90 
   2   2   2  302.37   18.10 
   2   2   2  331.27   17.90 
   2   2   2  300.97   18.00 
  -3  -2  -2  887.01   52.29 
  -3  -2  -2 1003.20   52.39 
  -3  -2  -2  834.92   52.19 
  -3  -2  -2  878.51   52.19 
  -3  -2  -2  920.11   53.09 
   3   2   2  949.71   52.39 
   3   2   2 1007.90   51.99 
   3   2   2  900.01   51.99 
   3   2   2  854.01   52.79 
   3   2   2  900.41   52.19 
  -4  -2  -2   97.19    7.40 
  -4  -2  -2   75.29    6.50 
  -4  -2  -2   82.29    7.30 
  -4  -2  -2   92.29    8.80 
   4   2   2   88.19    6.20 
   4   2   2   78.79    7.90 
   4   2   2   96.19    7.10 
   4   2   2   73.79    6.80 
   4   2   2   87.09    7.70 
   4   2   2   87.49    6.00 
  -5  -2  -2  351.06   21.80 
  -5  -2  -2  330.47   21.60 
  -5  -2  -2  381.16   23.80 
  -5  -2  -2  321.57   21.20 
   5   2   2  355.46   22.50 
   5   2   2  343.87   21.30 
   5   2   2  337.87   21.30 
  -6  -2  -2    3.50    3.20 
  -6  -2  -2    3.00    4.30 
  -6  -2  -2    5.00    6.10 
  -6  -2  -2    1.10    4.20 
   6   2   2    4.60    3.50 
   6   2   2    1.70    3.30 
   6   2   2    6.10    4.80 
  -7  -2  -2  138.69   12.30 
  -7  -2  -2  147.49   12.80 
   7   2   2  163.98   12.10 
   7   2   2  154.88   12.30 
   7   2   2  161.98   14.50 
  -8  -2  -2   14.10    9.10 
  -8  -2  -2   15.40    5.20 
   8   2   2   13.20    7.40 
   8   2   2   22.70    4.80 
   8   2   2   23.40    5.00 
   8  -3  -2   11.90    7.30 
   8  -3  -2    4.40    3.80 
   8  -3  -2    1.30    6.10 
  -8   3   2   16.30    7.60 
  -8   3   2   -9.90   10.70 
   7  -3  -2    9.60    6.40 
   7  -3  -2    7.90    5.20 
   7  -3  -2    9.30    3.70 
  -7   3   2   12.90    5.60 
  -7   3   2   10.10    4.90 
  -7   3   2    7.00   10.10 
   6  -3  -2  138.39   13.90 
   6  -3  -2  150.28   11.10 
   6  -3  -2  151.88   12.50 
  -6   3   2  155.18   13.30 
  -6   3   2  146.59   12.70 
  -6   3   2  182.28   19.20 
   5  -3  -2   70.89    6.40 
   5  -3  -2   89.69    8.00 
   5  -3  -2   90.19   10.40 
   5  -3  -2   77.49    6.90 
  -5   3   2   70.69   10.90 
  -5   3   2   85.59    8.30 
  -5   3   2   88.69    9.60 
   4  -3  -2  102.89    7.90 
   4  -3  -2  109.29    8.40 
   4  -3  -2   96.79    7.80 
  -4   3   2  132.69   10.40 
  -4   3   2  118.79    8.70 
   3  -3  -2  344.97   20.80 
   3  -3  -2  358.16   20.70 
   3  -3  -2  364.66   20.70 
   3  -3  -2  327.57   21.60 
  -3   3   2  325.87   20.70 
  -3   3   2  338.37   21.30 
  -3   3   2  376.26   22.20 
  -3   3   2  336.57   23.30 
   2  -3  -2 2920.11  164.78 
   2  -3  -2 3105.49  165.48 
   2  -3  -2 2878.61  163.88 
   2  -3  -2 2963.40  164.08 
   2  -3  -2 2909.21  164.18 
  -2   3   2 2869.91  163.98 
  -2   3   2 2941.01  164.08 
  -2   3   2 2798.62  164.08 
   1  -3  -2 1995.20  116.69 
   1  -3  -2 2076.89  115.89 
   1  -3  -2 2044.40  116.29 
   1  -3  -2 2087.69  115.39 
  -1   3   2 2035.60  115.69 
  -1   3   2 2149.39  115.69 
  -1   3   2 2081.69  116.49 
  -1   3   2 2066.89  116.69 
  -1   3   2 1978.10  115.49 
   0  -3  -2 3856.71  208.48 
   0  -3  -2 3694.63  208.18 
   0  -3  -2 3607.24  208.88 
   0  -3  -2 3649.53  208.78 
   0  -3  -2 3804.22  208.48 
   0   3   2 3602.44  208.08 
   0   3   2 3832.52  208.38 
   0   3   2 3690.03  208.88 
   0   3   2 3743.13  208.88 
   0   3   2 3712.93  208.28 
  -1  -3  -2 1067.59   57.89 
  -1  -3  -2  980.00   57.99 
  -1  -3  -2 1018.40   57.69 
  -1  -3  -2  977.50   57.99 
   1   3   2 1034.00   57.69 
   1   3   2  993.00   57.59 
   1   3   2 1010.10   57.99 
   1   3   2 1046.90   58.09 
   1   3   2 1021.10   57.59 
  -2  -3  -2 2552.54  145.89 
  -2  -3  -2 2543.05  145.59 
  -2  -3  -2 2527.05  145.39 
  -2  -3  -2 2647.04  145.39 
   2   3   2 2383.06  145.49 
   2   3   2 2742.23  145.29 
   2   3   2 2666.83  145.49 
   2   3   2 2574.24  145.39 
   2   3   2 2645.14  145.69 
  -3  -3  -2   14.10    2.50 
  -3  -3  -2   15.80    2.70 
  -3  -3  -2   19.40    4.00 
  -3  -3  -2   13.40    2.60 
  -3  -3  -2   10.90    2.30 
   3   3   2   13.60    2.70 
   3   3   2   11.40    2.30 
   3   3   2   13.20    2.50 
   3   3   2    9.30    2.60 
   3   3   2   15.40    2.20 
  -4  -3  -2  751.72   40.70 
  -4  -3  -2  646.94   38.80 
  -4  -3  -2  663.53   38.90 
  -4  -3  -2  605.34   38.80 
  -4  -3  -2  746.93   39.10 
   4   3   2  658.63   38.90 
   4   3   2  626.14   39.60 
   4   3   2  676.03   38.80 
   4   3   2  667.33   37.90 
   4   3   2  643.04   38.00 
  -5  -3  -2  140.69   10.50 
  -5  -3  -2  141.79   10.80 
  -5  -3  -2  144.89   11.00 
  -5  -3  -2  164.78   13.40 
   5   3   2  152.78   10.60 
   5   3   2  155.38   12.10 
   5   3   2  128.79   10.20 
  -6  -3  -2   97.09   11.90 
  -6  -3  -2   87.49    8.80 
  -6  -3  -2  103.39    9.80 
  -6  -3  -2   81.69    8.20 
   6   3   2   92.09    8.30 
   6   3   2   85.29   10.00 
   6   3   2   74.99    7.80 
  -7  -3  -2   29.20    6.60 
  -7  -3  -2   26.20    9.00 
  -7  -3  -2   31.20    5.50 
   7   3   2   27.20    5.00 
   7   3   2   29.90    5.10 
   7   3   2   28.00    7.10 
  -8  -3  -2    5.60    4.40 
   8   3   2   -4.00    5.90 
   8   3   2    5.90    3.50 
   8   3   2    3.60    3.90 
   8  -4  -2   13.50    4.60 
   8  -4  -2   10.40    6.00 
  -8   4   2   21.80   13.00 
   7  -4  -2   60.19    9.70 
   7  -4  -2   45.70    6.50 
   7  -4  -2   54.89    7.70 
  -7   4   2   60.39    8.70 
  -7   4   2   57.19    8.70 
  -7   4   2   42.30   13.20 
   6  -4  -2  131.39   13.60 
   6  -4  -2  126.39   10.50 
   6  -4  -2  111.99    9.40 
   6  -4  -2  123.19   10.90 
  -6   4   2  151.38   12.40 
  -6   4   2  208.58   20.50 
  -6   4   2  119.79   12.60 
   5  -4  -2   64.89    6.90 
   5  -4  -2   63.19    9.20 
   5  -4  -2   69.29    7.30 
   5  -4  -2   68.89    6.90 
  -5   4   2  103.69   10.70 
   4  -4  -2    4.70    2.80 
   4  -4  -2    4.70    2.60 
   4  -4  -2    6.90    2.80 
   4  -4  -2   15.30    4.80 
   3  -4  -2   15.00    3.00 
   3  -4  -2    9.00    2.50 
   3  -4  -2   14.40    3.50 
  -3   4   2   21.70    3.50 
  -3   4   2   17.10    2.90 
  -3   4   2   30.50    7.80 
  -3   4   2   11.80    2.90 
   2  -4  -2  195.28   12.40 
   2  -4  -2  209.38   13.10 
   2  -4  -2  186.28   12.70 
  -2   4   2  230.68   13.10 
  -2   4   2  193.08   12.80 
   1  -4  -2  779.52   44.20 
   1  -4  -2  718.13   42.50 
   1  -4  -2  702.63   43.20 
   1  -4  -2  765.32   42.20 
   1  -4  -2  735.33   42.60 
  -1   4   2  762.82   42.60 
  -1   4   2  748.03   42.50 
  -1   4   2  706.73   42.20 
   0  -4  -2  968.80   57.59 
   0  -4  -2  970.30   57.79 
   0  -4  -2 1010.10   56.99 
   0  -4  -2  984.20   56.99 
   0  -4  -2 1008.50   56.69 
   0   4   2 1034.40   56.89 
   0   4   2 1006.70   57.69 
   0   4   2  991.60   56.89 
   0   4   2  964.70   56.59 
   0   4   2 1044.90   57.79 
  -1  -4  -2    4.00    2.30 
  -1  -4  -2    4.90    1.60 
  -1  -4  -2    9.20    2.20 
  -1  -4  -2    7.20    2.40 
  -1  -4  -2    3.60    1.80 
   1   4   2    4.20    2.00 
   1   4   2    4.70    1.70 
   1   4   2    3.60    1.60 
   1   4   2    5.90    1.70 
  -2  -4  -2   97.19    7.00 
  -2  -4  -2   92.39    7.50 
  -2  -4  -2   97.89    7.00 
  -2  -4  -2   99.69    7.40 
   2   4   2   93.39    7.00 
   2   4   2   97.69    6.90 
   2   4   2  101.39    7.10 
   2   4   2   94.79    6.70 
   2   4   2   91.59    7.30 
  -3  -4  -2  621.74   36.30 
  -3  -4  -2  615.74   36.50 
  -3  -4  -2  633.64   36.30 
  -3  -4  -2  639.54   38.30 
  -3  -4  -2  594.94   36.00 
   3   4   2  567.94   36.30 
   3   4   2  638.64   35.60 
   3   4   2  636.14   37.20 
  -4  -4  -2  865.21   45.50 
  -4  -4  -2  874.21   47.20 
  -4  -4  -2  763.92   45.50 
  -4  -4  -2  719.13   45.20 
   4   4   2  726.53   44.30 
   4   4   2  791.82   45.20 
   4   4   2  776.82   45.40 
   4   4   2  761.22   44.40 
  -5  -4  -2  646.04   34.30 
  -5  -4  -2  518.55   33.70 
  -5  -4  -2  560.24   34.00 
  -5  -4  -2  648.94   36.70 
   5   4   2  555.94   33.90 
   5   4   2  526.05   33.60 
  -6  -4  -2  640.14   38.60 
  -6  -4  -2  700.73   46.90 
  -6  -4  -2  618.74   38.80 
  -6  -4  -2  653.73   40.40 
   6   4   2  663.83   38.50 
   6   4   2  652.83   43.50 
  -7  -4  -2   33.80    6.60 
  -7  -4  -2   21.00    8.80 
  -7  -4  -2   23.10    5.10 
   7   4   2   22.40    6.80 
   7   4   2   26.80    5.00 
   7   4   2   27.70    4.60 
  -8  -4  -2   10.00   12.10 
  -8  -4  -2   -8.40    9.80 
   8   4   2   -1.60    3.30 
   8   4   2   -1.40    3.40 
   8   4   2    6.60    8.00 
   8  -5  -2   -1.40    4.10 
   8  -5  -2    1.90    5.30 
  -8   5   2   10.40   12.80 
   7  -5  -2   -0.90    7.30 
   7  -5  -2   -5.40    4.10 
   7  -5  -2    2.20    3.90 
  -7   5   2    1.70   11.40 
   6  -5  -2   72.79    7.30 
   6  -5  -2   80.49    8.20 
   6  -5  -2   55.69    9.40 
   6  -5  -2   59.19    7.80 
  -6   5   2   76.59   14.00 
  -6   5   2   62.89   10.70 
   5  -5  -2  282.67   21.00 
   5  -5  -2  292.07   18.70 
   5  -5  -2  280.27   18.90 
  -5   5   2  300.87   25.70 
  -5   5   2  263.67   21.20 
  -5   5   2  297.07   19.90 
   4  -5  -2    7.10    5.00 
   4  -5  -2   10.40    3.40 
   4  -5  -2    4.20    2.90 
   4  -5  -2    5.40    2.70 
  -4   5   2   15.50    8.10 
  -4   5   2    6.20    3.80 
   3  -5  -2  431.06   26.10 
   3  -5  -2  415.76   28.60 
   3  -5  -2  423.86   25.90 
   3  -5  -2  459.25   27.50 
   3  -5  -2  412.46   25.50 
  -3   5   2  384.26   25.90 
  -3   5   2  522.05   28.70 
  -3   5   2  415.06   26.20 
   2  -5  -2   60.69    6.10 
   2  -5  -2   56.69    5.20 
   2  -5  -2   83.49    7.70 
  -2   5   2   57.39    5.70 
  -2   5   2   72.99    7.90 
   1  -5  -2  915.61   56.59 
   1  -5  -2  974.50   54.89 
   1  -5  -2  968.90   54.89 
   1  -5  -2  926.51   55.69 
  -1   5   2  938.91   54.79 
  -1   5   2  964.90   56.09 
  -1   5   2  987.90   56.59 
   0  -5  -2 1071.09   61.89 
   0  -5  -2 1186.38   62.79 
   0  -5  -2 1060.09   61.59 
   0  -5  -2 1114.39   61.89 
   0   5   2 1070.39   61.79 
   0   5   2 1067.09   61.59 
   0   5   2 1001.00   61.29 
  -1  -5  -2  288.47   18.20 
  -1  -5  -2  321.57   19.20 
  -1  -5  -2  299.07   19.00 
  -1  -5  -2  287.47   18.10 
  -1  -5  -2  304.87   18.20 
   1   5   2  313.77   19.10 
   1   5   2  289.77   17.90 
   1   5   2  262.87   17.70 
   1   5   2  300.87   18.10 
  -2  -5  -2 1438.96   81.29 
  -2  -5  -2 1414.86   80.69 
  -2  -5  -2 1286.17   80.69 
  -2  -5  -2 1437.26   81.29 
   2   5   2 1365.96   80.89 
   2   5   2 1450.15   81.29 
   2   5   2 1457.45   80.59 
   2   5   2 1418.26   80.59 
   2   5   2 1503.05   80.99 
  -3  -5  -2  140.89    9.90 
  -3  -5  -2  144.29   10.00 
  -3  -5  -2  129.09   10.20 
  -3  -5  -2  162.88   10.70 
  -3  -5  -2  158.78   11.40 
   3   5   2  125.99    9.20 
   3   5   2  131.69   10.10 
   3   5   2  147.49   10.40 
   3   5   2  141.39   10.30 
  -4  -5  -2  562.14   34.10 
  -4  -5  -2  595.74   35.50 
  -4  -5  -2  585.44   33.70 
  -4  -5  -2  555.34   33.70 
   4   5   2  581.44   33.50 
   4   5   2  519.35   32.70 
   4   5   2  596.64   34.00 
  -5  -5  -2  242.38   15.30 
  -5  -5  -2  232.78   15.00 
  -5  -5  -2  242.88   17.70 
   5   5   2  201.18   14.40 
   5   5   2  182.98   14.00 
  -6  -5  -2   93.99    9.10 
  -6  -5  -2   89.79    9.40 
  -6  -5  -2  103.39   12.60 
  -6  -5  -2   78.99    8.40 
   6   5   2   80.49    7.70 
  -7  -5  -2   70.99    8.90 
  -7  -5  -2   71.59    8.70 
  -7  -5  -2   85.69   13.00 
   7   5   2   60.99    7.00 
   7   5   2   66.79    7.90 
   7   5   2   61.49    9.90 
  -8  -5  -2   13.00    5.50 
  -8  -5  -2    8.40    6.30 
  -8  -5  -2    2.30   10.10 
   8   5   2   11.20    3.70 
   8   5   2    9.00    7.10 
   7  -6  -2    9.30    4.70 
  -7   6   2    4.10   11.50 
   6  -6  -2   19.00    4.70 
   6  -6  -2   14.10    4.70 
   6  -6  -2   23.10    5.20 
   6  -6  -2    0.70    6.90 
  -6   6   2   15.20    6.30 
  -6   6   2   25.80   12.70 
  -6   6   2   13.50    7.00 
   5  -6  -2   15.50    6.80 
   5  -6  -2    1.60    3.50 
   5  -6  -2    5.50    3.60 
   5  -6  -2    7.60    3.80 
  -5   6   2   -4.90    9.70 
  -5   6   2    7.40    4.80 
   4  -6  -2   16.70    4.20 
   4  -6  -2   19.10    4.10 
   4  -6  -2   21.40    4.10 
  -4   6   2   17.90    8.50 
  -4   6   2   26.10    6.70 
   3  -6  -2   37.10    4.30 
   3  -6  -2   33.00    5.00 
   3  -6  -2   22.10    3.80 
  -3   6   2   28.20    4.30 
  -3   6   2   34.70    7.00 
   2  -6  -2   38.10    4.30 
   2  -6  -2   28.30    4.20 
   2  -6  -2   48.00    5.50 
  -2   6   2   38.70    5.00 
  -2   6   2   24.50    4.40 
  -2   6   2   21.90    4.10 
   1  -6  -2   89.69    7.50 
   1  -6  -2   91.79    6.70 
   1  -6  -2   80.19    7.20 
   1  -6  -2  110.59   11.60 
   1  -6  -2   76.29    9.80 
  -1   6   2   98.09   10.40 
  -1   6   2   80.19    7.30 
  -1   6   2   80.79    9.50 
  -1   6   2   71.99    6.30 
  -1   6   2   78.79    6.90 
   0  -6  -2  181.38   12.10 
   0  -6  -2  185.28   12.00 
   0  -6  -2  166.28   11.80 
   0   6   2  192.38   12.00 
   0   6   2  160.48   11.10 
   0   6   2  154.18   12.20 
  -1  -6  -2 1096.49   68.59 
  -1  -6  -2 1242.48   69.49 
  -1  -6  -2 1149.48   68.59 
  -1  -6  -2 1154.08   68.59 
   1   6   2 1366.76   69.99 
   1   6   2 1390.16   69.89 
   1   6   2 1139.49   69.09 
   1   6   2 1152.28   68.39 
   1   6   2 1117.59   68.19 
  -2  -6  -2 1435.46   82.29 
  -2  -6  -2 1448.46   81.59 
  -2  -6  -2 1477.55   82.19 
  -2  -6  -2 1406.46   82.39 
   2   6   2 1491.75   82.49 
   2   6   2 1349.86   81.29 
   2   6   2 1324.47   81.19 
   2   6   2 1511.15   81.99 
   2   6   2 1428.36   81.29 
  -3  -6  -2   12.70    4.30 
  -3  -6  -2   22.80    4.30 
  -3  -6  -2    6.50    2.90 
  -3  -6  -2    3.80    2.50 
   3   6   2    5.70    3.10 
   3   6   2   14.10    3.00 
   3   6   2    2.90    2.10 
  -4  -6  -2  515.95   32.10 
  -4  -6  -2  531.15   32.90 
  -4  -6  -2  581.74   34.40 
  -4  -6  -2  552.44   32.30 
   4   6   2  500.15   31.20 
   4   6   2  572.64   32.70 
   4   6   2  530.45   31.90 
  -5  -6  -2  559.74   33.30 
  -5  -6  -2  593.34   35.90 
  -5  -6  -2  521.75   32.80 
  -5  -6  -2  553.74   33.80 
   5   6   2  503.45   32.60 
   5   6   2  582.64   33.40 
  -6  -6  -2   68.59    7.90 
  -6  -6  -2   88.39   11.80 
  -6  -6  -2   82.39    9.20 
  -6  -6  -2   61.29    7.50 
   6   6   2   70.59    7.60 
  -7  -6  -2   37.40    6.80 
  -7  -6  -2   44.10    7.00 
  -7  -6  -2   37.00   10.70 
   7   6   2   31.70    5.50 
   7   6   2   44.00    9.00 
   7   6   2   34.20    5.10 
  -8  -6  -2   25.60    6.30 
  -8  -6  -2   21.60   10.90 
  -8  -6  -2   18.70    7.20 
   8   6   2   12.70    3.90 
   8   6   2    9.50    4.20 
   8   6   2   16.50    8.20 
   7  -7  -2   10.70    5.00 
   7  -7  -2   10.10    5.20 
   6  -7  -2   79.59   11.70 
   6  -7  -2   74.99    8.70 
   6  -7  -2   82.99    9.80 
  -6   7   2   63.59   15.40 
  -6   7   2   75.99   11.00 
  -6   7   2   55.99   10.10 
   5  -7  -2    5.20    4.10 
   5  -7  -2   -7.50    6.70 
   5  -7  -2    4.20    3.70 
   5  -7  -2    7.90    4.10 
  -5   7   2    8.00   12.20 
  -5   7   2   10.80    5.90 
  -5   7   2   11.10    6.70 
   4  -7  -2  130.89   14.60 
   4  -7  -2  146.09   11.00 
   4  -7  -2  141.79   11.90 
   4  -7  -2  157.28   12.10 
  -4   7   2  163.18   19.40 
  -4   7   2  138.39   13.10 
  -4   7   2  155.08   16.00 
   3  -7  -2  196.78   15.40 
   3  -7  -2  144.39   11.00 
   3  -7  -2  146.09   11.90 
   3  -7  -2  150.88   12.30 
  -3   7   2  168.78   15.70 
  -3   7   2  162.58   12.90 
   2  -7  -2   57.09    7.00 
   2  -7  -2   72.69    7.50 
   2  -7  -2   53.89    6.10 
  -2   7   2   86.79    8.30 
   1  -7  -2 1034.10   56.69 
   1  -7  -2  887.91   57.49 
   1  -7  -2  866.41   58.89 
   1  -7  -2 1017.30   56.59 
   1  -7  -2 1004.40   56.09 
  -1   7   2 1014.60   58.69 
  -1   7   2 1060.09   59.39 
  -1   7   2  896.91   56.59 
  -1   7   2  968.50   56.49 
   0  -7  -2  192.38   12.70 
   0  -7  -2  191.88   12.40 
   0   7   2  155.78   12.00 
   0   7   2  186.88   12.80 
   0   7   2  159.88   12.00 
  -1  -7  -2  933.41   51.49 
  -1  -7  -2  861.51   51.39 
  -1  -7  -2  924.41   51.49 
  -1  -7  -2  779.12   51.89 
  -1  -7  -2  802.12   52.59 
   1   7   2  883.11   52.39 
   1   7   2  898.91   51.09 
   1   7   2  968.30   52.99 
   1   7   2  876.31   51.29 
  -2  -7  -2  371.36   24.80 
  -2  -7  -2  379.66   24.30 
   2   7   2  444.36   25.20 
   2   7   2  421.36   25.60 
   2   7   2  359.06   23.80 
  -3  -7  -2  178.78   13.40 
  -3  -7  -2  167.68   12.00 
  -3  -7  -2  161.68   12.00 
  -3  -7  -2  170.18   13.10 
   3   7   2  154.98   11.40 
   3   7   2  172.48   12.80 
   3   7   2  152.28   11.70 
  -4  -7  -2  160.98   11.80 
  -4  -7  -2  176.48   12.30 
  -4  -7  -2  171.98   14.30 
   4   7   2  137.29   10.80 
   4   7   2  159.68   11.50 
   4   7   2  181.18   12.70 
  -5  -7  -2   14.80    4.20 
  -5  -7  -2   21.70    5.50 
  -5  -7  -2   15.50    4.50 
  -5  -7  -2   14.30    7.20 
   5   7   2   10.90    3.90 
   5   7   2   12.20    3.50 
  -6  -7  -2  208.58   18.50 
  -6  -7  -2  198.28   14.80 
  -6  -7  -2  191.28   15.50 
   6   7   2  165.78   12.90 
   6   7   2  192.48   13.90 
  -7  -7  -2    4.10    8.60 
  -7  -7  -2    6.10    5.20 
  -7  -7  -2    4.20    5.20 
   7   7   2    3.00    3.30 
   6  -8  -2   26.40    5.70 
   6  -8  -2   33.00    6.50 
  -6   8   2   18.40   12.50 
   5  -8  -2   -0.30    3.70 
   5  -8  -2   -2.00    3.80 
   5  -8  -2   -3.40    3.70 
   5  -8  -2    9.50    7.90 
  -5   8   2   -0.80    6.40 
  -5   8   2    2.50    5.90 
  -5   8   2   -2.00    9.40 
   4  -8  -2   12.90    7.70 
   4  -8  -2   22.20    4.50 
   4  -8  -2   18.30    5.30 
   4  -8  -2   20.90    4.60 
  -4   8   2   10.90    6.10 
  -4   8   2   20.50   10.20 
  -4   8   2   21.50    7.60 
   3  -8  -2   11.00    4.00 
   3  -8  -2   23.60    8.00 
   3  -8  -2   20.10    5.00 
   3  -8  -2   16.80    4.00 
  -3   8   2   24.40    5.90 
  -3   8   2   17.40    8.00 
  -3   8   2   13.40    9.20 
   2  -8  -2   22.50    4.00 
   2  -8  -2   14.30    6.40 
   2  -8  -2   19.10    4.40 
   2  -8  -2   15.60    4.70 
  -2   8   2   20.10    7.10 
  -2   8   2   14.50    6.20 
  -2   8   2    7.80    3.10 
  -2   8   2   14.50    8.00 
   1  -8  -2   62.29    7.60 
   1  -8  -2   81.59    9.80 
   1  -8  -2   36.60    7.40 
   1  -8  -2   55.49    6.10 
   1  -8  -2   47.30   10.60 
  -1   8   2   43.30    5.80 
  -1   8   2   61.29    9.50 
  -1   8   2   53.29    7.00 
  -1   8   2   47.30    9.00 
   0  -8  -2  294.37   19.80 
   0  -8  -2  304.27   23.70 
   0  -8  -2  304.27   19.90 
   0  -8  -2  295.37   21.10 
   0  -8  -2  318.37   19.50 
   0   8   2  300.07   19.60 
   0   8   2  295.87   22.00 
   0   8   2  307.97   22.10 
  -1  -8  -2   86.39   10.90 
  -1  -8  -2   89.89   10.60 
  -1  -8  -2   83.39    8.30 
  -1  -8  -2   82.49    8.30 
   1   8   2   80.69    9.60 
   1   8   2   75.79    7.50 
   1   8   2   92.59   10.70 
  -2  -8  -2  107.79    9.90 
  -2  -8  -2  134.59   12.90 
  -2  -8  -2  107.79   10.70 
   2   8   2  133.69   11.70 
   2   8   2  103.19    9.20 
   2   8   2  138.99   11.10 
  -3  -8  -2  278.67   18.90 
  -3  -8  -2  246.88   17.50 
  -3  -8  -2  242.48   17.30 
   3   8   2  271.87   17.50 
   3   8   2  294.87   18.90 
   3   8   2  235.38   16.90 
  -4  -8  -2  612.54   36.60 
  -4  -8  -2  548.95   35.40 
  -4  -8  -2  541.35   34.00 
  -4  -8  -2  549.25   35.50 
   4   8   2  543.75   33.60 
   4   8   2  563.74   34.50 
   4   8   2  575.34   37.40 
  -5  -8  -2   -2.60    3.80 
  -5  -8  -2    0.90    6.30 
  -5  -8  -2   -4.60    3.40 
  -5  -8  -2    4.90    5.10 
   5   8   2    3.50    3.80 
   5   8   2   -0.90    3.10 
  -6  -8  -2  190.18   15.20 
  -6  -8  -2  202.28   19.30 
  -6  -8  -2  176.88   16.20 
   6   8   2  206.78   14.50 
   6   8   2  168.68   13.40 
  -7  -8  -2   10.80    6.70 
  -7  -8  -2    8.30    5.80 
   7   8   2   15.20    4.20 
   7   8   2   15.90    5.20 
   6  -9  -2   -0.90    4.10 
   6  -9  -2   -1.90    4.80 
  -6   9   2  -14.00   10.90 
   5  -9  -2    0.70    4.30 
   5  -9  -2    7.80    4.50 
  -5   9   2    9.80   11.70 
  -5   9   2    6.00    8.90 
   4  -9  -2   36.80    6.70 
   4  -9  -2   38.90    5.90 
   4  -9  -2   24.80    8.70 
   4  -9  -2   24.90    5.80 
  -4   9   2   29.50   10.20 
  -4   9   2   38.50   12.50 
  -4   9   2   37.90    8.60 
   3  -9  -2   24.40    4.80 
   3  -9  -2   33.80    6.30 
   3  -9  -2   38.30    9.50 
   3  -9  -2   27.40    5.40 
  -3   9   2   19.50    6.60 
  -3   9   2   44.60    8.70 
  -3   9   2   31.40   10.20 
   2  -9  -2 1120.09   65.19 
   2  -9  -2 1120.49   65.09 
   2  -9  -2 1149.19   64.39 
   2  -9  -2  984.50   66.99 
  -2   9   2 1090.69   65.29 
  -2   9   2 1159.88   69.39 
  -2   9   2 1137.09   68.39 
   1  -9  -2   10.70    4.00 
   1  -9  -2   18.90    8.70 
   1  -9  -2    6.50    3.60 
   1  -9  -2   18.20    6.90 
   1  -9  -2    4.40    3.90 
  -1   9   2   13.30    6.80 
  -1   9   2    6.00    4.20 
  -1   9   2    3.70    6.40 
   0  -9  -2  211.88   20.50 
   0  -9  -2  209.18   15.30 
   0  -9  -2  211.08   14.90 
   0  -9  -2  212.18   15.40 
   0   9   2  230.68   18.50 
   0   9   2  187.28   14.90 
   0   9   2  211.78   18.40 
  -1  -9  -2  657.53   37.10 
  -1  -9  -2  538.85   39.60 
  -1  -9  -2  628.64   37.00 
  -1  -9  -2  580.44   36.80 
   1   9   2  583.94   36.50 
   1   9   2  591.24   38.40 
   1   9   2  646.64   39.30 
  -2  -9  -2  112.79   13.50 
  -2  -9  -2   87.99    9.60 
  -2  -9  -2   88.39    9.30 
  -2  -9  -2   54.09    8.20 
   2   9   2   81.79   10.10 
   2   9   2  102.39   11.30 
   2   9   2   66.19    8.00 
  -3  -9  -2  368.46   23.40 
  -3  -9  -2  341.07   23.20 
  -3  -9  -2  356.26   25.50 
  -3  -9  -2  348.27   24.40 
   3   9   2  333.57   22.60 
   3   9   2  388.56   24.90 
   3   9   2  358.36   23.40 
  -4  -9  -2  114.79   12.90 
  -4  -9  -2   89.59    9.40 
  -4  -9  -2  122.09   12.80 
  -4  -9  -2   94.09   10.20 
   4   9   2  100.29   10.80 
   4   9   2   95.19    8.80 
   4   9   2   87.89    9.00 
  -5  -9  -2   19.10    5.70 
  -5  -9  -2   16.00    7.60 
  -5  -9  -2   19.50    5.10 
  -5  -9  -2   44.80    8.20 
   5   9   2   25.70    6.00 
   5   9   2   18.40    4.60 
  -6  -9  -2   86.19   13.10 
  -6  -9  -2   79.89   10.90 
  -6  -9  -2   79.39    9.50 
   6   9   2   84.59    8.70 
   6   9   2   79.79    9.40 
  -7  -9  -2    2.00    5.70 
  -7  -9  -2  -21.20    7.20 
   7   9   2   -0.80    3.90 
   7   9   2    3.20    3.60 
   5 -10  -2    6.60    4.80 
   5 -10  -2    3.40    5.00 
  -5  10   2   14.60   12.70 
  -5  10   2   25.20   12.60 
   4 -10  -2   27.30    6.60 
   4 -10  -2   34.20    6.00 
   4 -10  -2   23.80    6.60 
  -4  10   2    8.10   10.70 
  -4  10   2   26.40   10.30 
   3 -10  -2   75.99    9.50 
   3 -10  -2   69.19    8.40 
   3 -10  -2   81.79   10.30 
   3 -10  -2   65.59   10.80 
  -3  10   2   63.49   13.20 
  -3  10   2  105.39   23.80 
   2 -10  -2   23.20    6.20 
   2 -10  -2   33.10    6.50 
   2 -10  -2   39.30    5.80 
  -2  10   2   57.79   15.40 
  -2  10   2   28.90   10.60 
   1 -10  -2    6.00    4.10 
   1 -10  -2    1.50    3.60 
   1 -10  -2    5.20    4.80 
  -1  10   2   15.70    8.00 
  -1  10   2   -3.90    6.90 
  -1  10   2   10.50    8.00 
   0 -10  -2   27.90    5.90 
   0 -10  -2   35.80   10.90 
   0 -10  -2   27.50    5.50 
   0  10   2   33.50    5.20 
   0  10   2   41.00    9.00 
   0  10   2   23.90    8.10 
  -1 -10  -2   62.39    8.20 
  -1 -10  -2   76.79    9.20 
  -1 -10  -2   54.39   11.80 
   1  10   2   54.49    8.70 
   1  10   2   67.59    9.90 
   1  10   2   65.79    9.50 
  -2 -10  -2  119.09   11.40 
  -2 -10  -2  103.89   11.90 
  -2 -10  -2   82.09   13.00 
  -2 -10  -2  110.69   10.60 
   2  10   2  106.89   10.30 
   2  10   2  118.69   13.80 
   2  10   2  107.49   12.30 
  -3 -10  -2  301.77   25.00 
  -3 -10  -2  332.67   21.90 
  -3 -10  -2  321.77   23.30 
  -3 -10  -2  310.47   22.10 
   3  10   2  318.37   22.00 
   3  10   2  313.97   21.30 
   3  10   2  350.26   24.00 
  -4 -10  -2   -3.30    6.60 
  -4 -10  -2   -0.50    5.60 
  -4 -10  -2    8.20    4.20 
  -4 -10  -2    9.00    5.20 
   4  10   2    7.60    4.10 
   4  10   2   10.30    5.40 
   4  10   2    9.40    3.90 
  -5 -10  -2   39.20    9.30 
  -5 -10  -2   33.20    9.60 
  -5 -10  -2   49.30    7.60 
   5  10   2   40.20    7.10 
   5  10   2   39.80    6.30 
  -6 -10  -2   16.30   10.40 
  -6 -10  -2    8.00    5.90 
   6  10   2    6.00    5.00 
   6  10   2    1.70    4.10 
   4 -11  -2   21.70    5.60 
   4 -11  -2   19.50    6.00 
  -4  11   2   29.00   11.30 
  -4  11   2   19.00   11.60 
   3 -11  -2   -0.60    5.00 
   3 -11  -2   -0.30    4.30 
   3 -11  -2   -0.10    4.20 
  -3  11   2    4.50    9.90 
  -3  11   2    0.60    8.40 
   2 -11  -2  119.99   12.40 
   2 -11  -2  125.29   11.00 
   2 -11  -2  111.29   12.60 
  -2  11   2   78.59   14.50 
  -2  11   2  124.09   17.30 
   1 -11  -2   26.50    6.00 
   1 -11  -2   30.60    6.80 
  -1  11   2   33.30    9.80 
  -1  11   2   19.70    9.30 
  -1  11   2   25.60    6.40 
   0 -11  -2   10.10    5.30 
   0 -11  -2   16.70   10.60 
   0 -11  -2   19.50    5.80 
   0 -11  -2   17.50    5.40 
   0  11   2   22.00    8.50 
   0  11   2    5.10    7.30 
   0  11   2    4.60    4.30 
  -1 -11  -2   29.30    6.50 
  -1 -11  -2   28.00    6.50 
  -1 -11  -2   41.00   11.50 
  -1 -11  -2   34.30    6.30 
   1  11   2   35.10   11.70 
   1  11   2   16.70    5.10 
   1  11   2   19.60    7.60 
  -2 -11  -2   24.50    6.90 
  -2 -11  -2   24.10    5.80 
  -2 -11  -2    4.40    5.30 
   2  11   2   12.70    4.90 
   2  11   2    2.40    6.60 
   2  11   2   15.00    6.60 
  -3 -11  -2  266.47   19.40 
  -3 -11  -2  226.68   23.60 
  -3 -11  -2  274.37   21.20 
  -3 -11  -2  295.47   20.20 
   3  11   2  257.37   19.20 
   3  11   2  268.97   20.00 
   3  11   2  283.27   22.20 
  -4 -11  -2   19.10    7.90 
  -4 -11  -2    7.50    5.50 
   4  11   2    2.60    4.30 
   4  11   2   -1.30    5.80 
  -5 -11  -2   19.80    6.40 
  -5 -11  -2   18.60   14.50 
   5  11   2   13.20    6.20 
   3 -12  -2   -0.60    5.90 
   3 -12  -2   -2.20    9.70 
   3 -12  -2    1.20    4.90 
  -3  12   2    6.70    8.90 
  -3  12   2   -9.10    9.40 
   2 -12  -2    5.10    5.00 
   2 -12  -2   -8.10    4.70 
   2 -12  -2   -6.30    4.70 
  -2  12   2   -1.00    9.30 
  -2  12   2    6.10    8.70 
   1 -12  -2   -2.60    4.40 
   1 -12  -2    5.00    5.50 
   1 -12  -2   -3.40    4.20 
  -1  12   2   -4.00    7.50 
  -1  12   2   11.40    9.00 
   0 -12  -2   15.70    6.20 
   0 -12  -2    4.70    4.60 
   0 -12  -2   12.50    9.80 
   0  12   2   20.10    9.20 
   0  12   2   16.80    9.10 
  -1 -12  -2   28.90    6.50 
  -1 -12  -2   26.60    7.00 
  -1 -12  -2   29.70    7.70 
   1  12   2   23.70    7.90 
   1  12   2   40.40   10.70 
  -2 -12  -2   20.20    6.30 
  -2 -12  -2   31.00    7.20 
  -2 -12  -2   46.70    8.60 
   2  12   2   27.40    8.40 
  -3 -12  -2   35.30    8.80 
  -3 -12  -2   41.80    8.00 
   3  12   2   41.80    9.90 
  -4 -12  -2    4.40    6.00 
   4  12   2    0.60    6.10 
   2 -13  -2   49.80    9.10 
   2 -13  -2   44.50    8.00 
   2 -13  -2   38.90    8.20 
  -2  13   2   19.90   10.90 
   1 -13  -2    8.80    5.30 
   1 -13  -2    4.70    6.30 
   1 -13  -2    6.80    6.00 
  -1  13   2   -5.70    9.10 
   0 -13  -2   10.10    6.20 
   0 -13  -2    9.20    5.60 
   0  13   2   14.30    9.90 
  -1 -13  -2   20.80    8.10 
  -1 -13  -2   18.90    7.20 
   1  13   2   14.50    9.20 
  -2 -13  -2    2.50    6.00 
   2  13   2    3.70    7.60 
  -3 -13  -2   44.20   10.10 
  -3 -13  -2   37.60    8.50 
   3  13   2   51.79   11.00 
   3  12  -3    5.50    7.50 
  -3 -12   3    6.50    5.20 
  -3 -12   3   11.70    6.60 
   2  12  -3    5.60    9.20 
  -2 -12   3   15.00    7.30 
  -2 -12   3   -0.20    5.60 
   1  12  -3   12.70    9.90 
  -1 -12   3   12.50    5.80 
  -1 -12   3   12.50    5.90 
   0  12  -3    5.10   11.10 
   0 -12   3    6.10    5.20 
   0 -12   3   -1.80    5.20 
  -1  12  -3   10.20   11.60 
   1 -12   3    6.70    6.00 
   1 -12   3    3.70    5.00 
  -2  12  -3   -4.80    9.80 
   2 -12   3   -4.50    4.70 
   2 -12   3   -0.50    6.00 
   2 -12   3    9.00    7.40 
   4  11  -3   36.80    8.90 
  -4 -11   3   53.09    9.60 
  -4 -11   3   47.40    7.30 
   3  11  -3   35.30    9.10 
  -3 -11   3   30.60    6.40 
  -3 -11   3   23.50    6.90 
   2  11  -3    4.50    8.00 
  -2 -11   3    1.30    4.60 
  -2 -11   3   -6.60    4.60 
   1  11  -3    2.70    8.50 
  -1 -11   3   -1.40    4.70 
  -1 -11   3    2.80   12.50 
  -1 -11   3    3.80    4.90 
   0  11  -3  -10.20    7.80 
   0 -11   3    0.20    3.90 
   0 -11   3   -0.50   12.10 
   0 -11   3    0.10    4.30 
   0 -11   3    0.90    4.90 
  -1  11  -3   -1.20    9.20 
  -1  11  -3    3.60   10.30 
   1 -11   3    2.60    5.20 
   1 -11   3    2.30    4.60 
   1 -11   3   -1.80    3.90 
  -2  11  -3    5.80   10.20 
  -2  11  -3   -2.50   10.40 
   2 -11   3   -1.90    4.60 
   2 -11   3    1.20    4.20 
   2 -11   3   -3.90    5.10 
  -3  11  -3   19.10   13.90 
   3 -11   3   -1.80    4.20 
   3 -11   3    4.10    5.00 
   3 -11   3   -6.30    5.20 
   5  10  -3    5.60    4.80 
   5  10  -3    2.30    4.50 
  -5 -10   3    1.30    4.30 
  -5 -10   3    0.80    6.50 
   4  10  -3  121.99   13.40 
   4  10  -3  103.89   12.60 
  -4 -10   3  117.69   10.70 
  -4 -10   3   72.59   13.90 
  -4 -10   3  115.09   13.10 
   3  10  -3   84.99   10.80 
   3  10  -3   86.39   11.50 
  -3 -10   3  104.19   11.10 
  -3 -10   3   85.39    9.40 
  -3 -10   3   63.99   13.10 
  -3 -10   3   83.89    9.00 
   2  10  -3   35.40    6.80 
   2  10  -3   29.90    9.00 
   2  10  -3   28.60    8.60 
  -2 -10   3   29.70    6.50 
  -2 -10   3   27.60    5.30 
  -2 -10   3   17.90   10.10 
  -2 -10   3   36.50    6.20 
   1  10  -3  159.38   16.80 
   1  10  -3  156.58   18.90 
   1  10  -3  173.08   15.20 
  -1 -10   3  178.38   13.90 
  -1 -10   3  167.08   20.30 
  -1 -10   3  170.18   13.80 
   0  10  -3   40.80   10.10 
   0  10  -3   49.50    9.00 
   0  10  -3   43.00   10.60 
   0 -10   3   30.00   10.80 
   0 -10   3   39.40    6.30 
   0 -10   3   44.40   10.20 
   0 -10   3   55.49    7.00 
  -1  10  -3   88.89   14.70 
  -1  10  -3   56.99   12.80 
  -1  10  -3   71.79   10.30 
   1 -10   3   74.99   14.10 
   1 -10   3   89.39    9.70 
   1 -10   3   68.29    8.90 
   1 -10   3   87.59    8.80 
  -2  10  -3    5.80   10.50 
  -2  10  -3    3.50   10.40 
  -2  10  -3    3.00    5.50 
   2 -10   3    8.60   10.30 
   2 -10   3   -1.00    3.60 
   2 -10   3   -6.30    4.40 
  -3  10  -3   -7.30   10.60 
  -3  10  -3    1.50   12.00 
   3 -10   3   -4.00    4.20 
   3 -10   3    3.00    3.90 
   3 -10   3    7.60    5.70 
  -4  10  -3   11.20   14.00 
  -4  10  -3    8.20   11.80 
   4 -10   3   13.90    5.10 
   4 -10   3   20.50    6.60 
   4 -10   3    8.40    5.90 
  -6  -9   3  129.29   15.50 
  -6  -9   3  108.39   15.10 
  -6  -9   3  142.99   11.50 
   5   9  -3   16.50    4.60 
   5   9  -3    8.70    4.50 
  -5  -9   3    7.90    4.30 
  -5  -9   3   19.60    9.80 
  -5  -9   3   14.90    7.20 
   4   9  -3  187.58   16.00 
  -4  -9   3  216.38   17.10 
  -4  -9   3  197.88   20.50 
  -4  -9   3  191.88   14.30 
   3   9  -3   61.79    9.30 
   3   9  -3   57.39    7.60 
  -3  -9   3   52.69    6.80 
  -3  -9   3   29.70   11.20 
  -3  -9   3   46.60    6.40 
  -3  -9   3   53.69    8.00 
   2   9  -3   10.50    5.90 
   2   9  -3   15.10    5.30 
   2   9  -3    7.20    6.70 
  -2  -9   3   11.40    3.80 
  -2  -9   3    5.80    4.50 
  -2  -9   3   16.10    4.60 
   1   9  -3   31.40    8.60 
   1   9  -3   42.90    7.10 
   1   9  -3   22.70    7.40 
  -1  -9   3   39.20    5.90 
  -1  -9   3   23.30    9.50 
  -1  -9   3   29.50    5.60 
   0   9  -3   -4.00    7.10 
   0   9  -3    5.10    4.40 
   0   9  -3    8.70    7.40 
   0  -9   3    0.80    4.10 
   0  -9   3    7.40    3.60 
   0  -9   3    1.80    3.60 
   0  -9   3    3.30    8.80 
  -1   9  -3   32.60   10.80 
  -1   9  -3   30.50   10.60 
  -1   9  -3   47.40    7.80 
   1  -9   3   59.39    6.90 
   1  -9   3   59.69   13.10 
   1  -9   3   62.69    6.90 
  -2   9  -3    2.30    9.50 
  -2   9  -3   -2.80   10.50 
  -2   9  -3   -3.80    5.30 
   2  -9   3    8.80    4.30 
   2  -9   3    1.30    4.40 
   2  -9   3    3.30    3.50 
  -3   9  -3   14.70   13.30 
  -3   9  -3   23.20   15.30 
   3  -9   3   12.00    4.90 
   3  -9   3    8.10    5.20 
   3  -9   3   12.20    4.10 
  -4   9  -3  -11.30   10.70 
  -4   9  -3   -0.20   13.60 
   4  -9   3    2.90    6.30 
   4  -9   3   -3.00    3.70 
   4  -9   3    4.10    4.90 
  -5   9  -3  -18.70   10.50 
  -5   9  -3  -24.10   13.50 
   5  -9   3    6.40    4.60 
   5  -9   3    7.60    5.40 
  -6  -8   3   60.09   10.80 
  -6  -8   3   65.39    7.70 
  -6  -8   3   55.69   10.50 
   5   8  -3   40.30    5.40 
   5   8  -3   37.30    5.10 
  -5  -8   3   14.80   10.00 
  -5  -8   3   26.30    4.90 
   4   8  -3  290.67   21.50 
   4   8  -3  285.37   19.60 
  -4  -8   3  317.97   21.10 
  -4  -8   3  257.07   17.90 
  -4  -8   3  275.67   18.20 
  -4  -8   3  296.97   23.30 
   3   8  -3  148.09   12.00 
   3   8  -3  165.08   14.10 
  -3  -8   3  158.08   11.30 
  -3  -8   3  119.59   15.00 
  -3  -8   3  143.79   12.60 
  -3  -8   3  156.88   11.00 
   2   8  -3  244.28   16.40 
   2   8  -3  211.68   18.40 
   2   8  -3  210.98   16.10 
  -2  -8   3  220.68   15.00 
  -2  -8   3  233.88   15.40 
  -2  -8   3  232.68   20.10 
  -2  -8   3  218.18   15.90 
   1   8  -3   81.99   11.20 
   1   8  -3   72.19    9.80 
   1   8  -3   87.99    9.00 
  -1  -8   3   76.79    7.70 
  -1  -8   3   76.89    8.20 
  -1  -8   3   66.19    6.90 
  -1  -8   3   71.59   11.80 
   0   8  -3  158.18   17.70 
   0   8  -3  182.58   14.30 
   0   8  -3  173.38   17.80 
   0  -8   3  145.69   18.10 
   0  -8   3  180.78   13.40 
   0  -8   3  176.48   12.40 
   0  -8   3  178.28   13.70 
  -1   8  -3   18.20    9.90 
  -1   8  -3   21.00    8.60 
  -1   8  -3   38.40    6.90 
   1  -8   3   33.30    4.70 
   1  -8   3   22.50    4.40 
   1  -8   3   33.10    5.80 
   1  -8   3   11.60    8.30 
  -2   8  -3   33.70   10.00 
  -2   8  -3   45.60    8.20 
  -2   8  -3   17.50   11.60 
   2  -8   3   54.89    6.70 
   2  -8   3   60.39   11.20 
   2  -8   3   53.89    7.20 
   2  -8   3   51.39    6.00 
  -3   8  -3  106.89   15.30 
  -3   8  -3   49.60   16.10 
   3  -8   3   96.39   13.10 
   3  -8   3  111.29   12.90 
   3  -8   3  112.29   10.40 
   3  -8   3  124.19    9.30 
  -4   8  -3   11.80   13.80 
   4  -8   3   17.00    8.00 
   4  -8   3   18.20    5.80 
   4  -8   3   16.80    5.60 
   4  -8   3   23.40    4.70 
  -5   8  -3  -29.50   30.10 
  -5   8  -3    3.10   11.10 
   5  -8   3   -0.70    3.80 
   5  -8   3   -4.20    5.00 
   5  -8   3   -6.80    4.40 
  -6   8  -3    9.20   15.90 
   6  -8   3   11.70    8.60 
   6  -8   3   14.30    6.30 
   7   7  -3   18.80    7.20 
  -7  -7   3    0.10    8.70 
   6   7  -3   14.90    6.10 
  -6  -7   3   13.10    7.40 
  -6  -7   3   11.40    7.30 
  -6  -7   3   12.20    3.80 
   5   7  -3  165.58   11.00 
   5   7  -3  167.68   11.00 
  -5  -7   3  163.98   17.80 
  -5  -7   3  147.99   11.30 
  -5  -7   3  165.68   15.10 
   4   7  -3  319.87   21.10 
  -4  -7   3  287.17   19.80 
  -4  -7   3  343.77   22.00 
  -4  -7   3  310.87   22.70 
  -4  -7   3  302.17   18.70 
   3   7  -3  422.46   27.20 
   3   7  -3  408.36   25.80 
  -3  -7   3  445.46   27.00 
  -3  -7   3  423.36   25.20 
  -3  -7   3  415.26   28.80 
  -3  -7   3  411.66   25.30 
   2   7  -3 1062.69   60.49 
   2   7  -3  993.90   59.39 
   2   7  -3 1079.89   61.99 
   2   7  -3 1081.39   60.49 
  -2  -7   3 1106.79   60.59 
  -2  -7   3  954.70   59.99 
  -2  -7   3 1080.09   59.99 
  -2  -7   3  959.70   62.39 
   1   7  -3   20.30    4.60 
   1   7  -3   17.50    5.70 
   1   7  -3    9.70    6.40 
   1   7  -3   13.90    2.80 
  -1  -7   3   20.00    4.60 
  -1  -7   3   21.70    3.30 
  -1  -7   3    8.80    7.30 
  -1  -7   3   15.50    4.00 
   0   7  -3   87.69    6.90 
   0   7  -3   84.39    8.90 
   0   7  -3  106.79   12.90 
   0   7  -3   74.39   11.10 
   0  -7   3   91.69    7.80 
   0  -7   3  109.69   16.10 
   0  -7   3   91.69    7.50 
   0  -7   3   89.69    8.50 
  -1   7  -3  112.89    8.30 
  -1   7  -3  137.69   14.40 
  -1   7  -3   91.09   14.00 
  -1   7  -3  102.89   10.30 
   1  -7   3   95.29   12.40 
   1  -7   3  113.09    8.30 
   1  -7   3  107.19    9.80 
   1  -7   3  109.89    8.90 
   1  -7   3   84.39   11.50 
  -2   7  -3   22.40    8.40 
  -2   7  -3   17.50   10.00 
  -2   7  -3   29.50    6.20 
   2  -7   3   16.90    8.20 
   2  -7   3   22.30    3.90 
   2  -7   3   23.50    3.90 
   2  -7   3   16.80    6.70 
  -3   7  -3    1.70   11.00 
  -3   7  -3   -0.40    5.50 
  -3   7  -3   11.10    8.40 
  -3   7  -3    0.00    3.90 
   3  -7   3    3.80    3.00 
   3  -7   3    2.00    3.80 
   3  -7   3   -1.20    4.10 
  -4   7  -3    6.20   11.90 
  -4   7  -3   11.20    6.60 
  -4   7  -3   17.80    9.60 
   4  -7   3    9.80    3.80 
   4  -7   3   16.20    7.80 
   4  -7   3    8.40    5.00 
   4  -7   3   12.40    5.10 
  -5   7  -3   10.00   10.20 
  -5   7  -3    5.90   13.70 
  -5   7  -3   24.10    7.50 
   5  -7   3   20.00    5.80 
   5  -7   3   11.90    7.40 
   5  -7   3    8.40    8.20 
   5  -7   3   22.00    4.70 
  -6   7  -3   -6.60   13.70 
  -6   7  -3  -13.10    9.40 
   6  -7   3    1.50    5.10 
   6  -7   3    2.80    4.40 
   7   6  -3  119.79   13.50 
  -7  -6   3  161.58   17.80 
   6   6  -3   67.99    9.00 
  -6  -6   3   80.69   11.90 
  -5  -6   3  139.89   13.40 
  -5  -6   3  131.39   12.70 
  -5  -6   3  133.69    9.40 
   4   6  -3  208.68   13.50 
  -4  -6   3  205.58   16.30 
  -4  -6   3  189.18   12.80 
  -4  -6   3  203.38   12.30 
  -4  -6   3  199.28   15.40 
   3   6  -3  235.98   16.10 
   3   6  -3  212.48   14.70 
   3   6  -3  208.38   14.50 
  -3  -6   3  196.68   17.40 
  -3  -6   3  240.88   14.30 
  -3  -6   3  253.47   16.20 
  -3  -6   3  244.38   14.60 
   2   6  -3 1186.98   66.99 
   2   6  -3 1191.38   68.29 
   2   6  -3 1111.69   66.49 
   2   6  -3 1158.58   67.09 
  -2  -6   3 1220.38   67.39 
  -2  -6   3 1185.68   66.89 
  -2  -6   3 1129.09   68.99 
   1   6  -3  128.29    8.60 
   1   6  -3  121.39    9.80 
   1   6  -3  121.29   11.80 
   1   6  -3  141.19   12.40 
  -1  -6   3  128.89    9.70 
  -1  -6   3  129.89   14.30 
  -1  -6   3  129.39    9.10 
  -1  -6   3  133.19    9.40 
   0   6  -3  360.76   23.20 
   0   6  -3  386.96   23.60 
   0   6  -3  364.66   21.80 
   0   6  -3  334.67   26.00 
   0   6  -3  423.86   25.30 
   0  -6   3  371.86   23.00 
   0  -6   3  365.16   22.10 
   0  -6   3  323.07   23.80 
   0  -6   3  354.76   25.90 
   0  -6   3  396.46   22.50 
  -1   6  -3    0.80    7.20 
  -1   6  -3    1.20    5.60 
  -1   6  -3    3.20    3.50 
  -1   6  -3    3.20    3.60 
  -1   6  -3    4.00    2.20 
   1  -6   3    9.10    6.40 
   1  -6   3    3.10    3.30 
   1  -6   3    2.20    2.60 
   1  -6   3    0.80    6.20 
   1  -6   3    1.20    2.00 
  -2   6  -3  104.19   10.10 
  -2   6  -3   91.19   13.70 
  -2   6  -3   98.69   12.50 
  -2   6  -3   89.29    9.30 
  -2   6  -3   76.19    7.40 
   2  -6   3   98.99    8.40 
   2  -6   3   91.19   12.00 
   2  -6   3   87.09   11.00 
   2  -6   3   96.79    7.20 
   2  -6   3   95.69    8.90 
  -3   6  -3   45.40    6.60 
  -3   6  -3   69.49   14.40 
  -3   6  -3   32.90   13.20 
  -3   6  -3   79.89   13.70 
   3  -6   3   57.29    7.30 
   3  -6   3   63.49    5.80 
   3  -6   3   56.99    7.10 
   3  -6   3   49.60    8.70 
  -4   6  -3  281.27   21.70 
  -4   6  -3  325.87   24.40 
  -4   6  -3  303.17   28.20 
   4  -6   3  301.57   18.60 
   4  -6   3  308.27   19.90 
   4  -6   3  250.57   22.20 
   4  -6   3  279.97   19.90 
  -5   6  -3   27.80   10.90 
  -5   6  -3   19.00   13.40 
  -5   6  -3   36.40    8.10 
   5  -6   3   40.70    5.70 
   5  -6   3   37.80    6.60 
   5  -6   3   32.00    8.90 
   5  -6   3   34.30    6.50 
  -6   6  -3   -2.90    5.90 
  -6   6  -3  -11.40    8.20 
  -6   6  -3    1.50   13.90 
   6  -6   3    7.10    5.40 
   6  -6   3    1.40    4.90 
   6  -6   3    4.40    4.40 
  -7   6  -3   12.10   15.40 
   7  -6   3    3.50    5.20 
   7  -6   3    4.70    5.40 
   8   5  -3    8.90    6.60 
   7   5  -3  207.28   17.80 
  -7  -5   3  255.77   21.90 
   6   5  -3    7.20    4.80 
  -6  -5   3   -2.00    6.20 
   5   5  -3   47.40    6.80 
  -5  -5   3   49.60    4.60 
  -5  -5   3   53.59    8.50 
  -5  -5   3   48.70    6.00 
   4   5  -3   68.79    7.10 
   4   5  -3   87.59    6.40 
   4   5  -3   79.99    6.30 
  -4  -5   3   88.79    9.10 
  -4  -5   3   81.39    6.10 
  -4  -5   3   76.49    9.00 
   3   5  -3  354.66   20.40 
   3   5  -3  310.17   20.50 
   3   5  -3  358.76   21.30 
  -3  -5   3  332.17   22.30 
  -3  -5   3  343.87   19.90 
  -3  -5   3  348.87   20.30 
  -3  -5   3  319.87   21.50 
   2   5  -3  654.73   37.00 
   2   5  -3  630.44   36.70 
   2   5  -3  694.03   38.40 
   2   5  -3  648.94   37.40 
   2   5  -3  632.24   36.90 
  -2  -5   3  640.44   39.10 
  -2  -5   3  566.54   37.50 
  -2  -5   3  615.44   36.90 
  -2  -5   3  663.83   37.20 
  -2  -5   3  668.73   37.70 
   1   5  -3  155.48   11.00 
   1   5  -3  156.78   10.00 
   1   5  -3  166.88   12.70 
   1   5  -3  155.38   11.00 
   1   5  -3  164.98   12.60 
  -1  -5   3  168.48   10.40 
  -1  -5   3  166.88   10.60 
  -1  -5   3  154.08   10.90 
  -1  -5   3  152.78   11.80 
   0   5  -3  604.24   33.30 
   0   5  -3  518.95   32.00 
   0   5  -3  514.05   30.70 
   0   5  -3  525.65   32.20 
   0   5  -3  532.85   34.60 
   0  -5   3  551.24   31.90 
   0  -5   3  520.05   33.90 
   0  -5   3  553.44   31.40 
   0  -5   3  542.85   31.00 
   0  -5   3  496.15   32.60 
  -1   5  -3  210.38   18.30 
  -1   5  -3  223.58   15.80 
  -1   5  -3  184.28   12.20 
  -1   5  -3  199.88   14.00 
  -1   5  -3  186.18   14.70 
   1  -5   3  172.88   15.90 
   1  -5   3  195.38   12.10 
   1  -5   3  219.18   13.70 
   1  -5   3  195.08   12.90 
   1  -5   3  172.98   14.50 
  -2   5  -3  105.59   10.20 
  -2   5  -3  150.38   13.10 
  -2   5  -3  107.79   13.70 
  -2   5  -3  113.79    9.80 
  -2   5  -3   99.99    8.40 
   2  -5   3  124.89    9.80 
   2  -5   3  118.79    8.00 
   2  -5   3  113.19   11.10 
   2  -5   3   96.79   11.90 
   2  -5   3  128.89    9.30 
  -3   5  -3   59.69    7.80 
  -3   5  -3   54.09    8.40 
  -3   5  -3   47.80    6.00 
  -3   5  -3   71.79    9.80 
  -3   5  -3   57.99   12.40 
   3  -5   3   62.79    7.00 
   3  -5   3   67.29    5.90 
   3  -5   3   59.59    7.30 
   3  -5   3   57.19    8.50 
   3  -5   3   54.49    9.40 
  -4   5  -3  154.08   18.70 
  -4   5  -3  170.28   16.30 
  -4   5  -3  146.59   13.50 
   4  -5   3  157.38   11.00 
   4  -5   3  142.89   14.40 
   4  -5   3  137.59   12.00 
   4  -5   3  152.08   12.30 
  -5   5  -3    9.00    8.30 
  -5   5  -3    1.60   10.80 
  -5   5  -3    2.00    4.90 
   5  -5   3   12.50    4.60 
   5  -5   3    8.40    4.30 
   5  -5   3    8.30    7.20 
   5  -5   3    9.10    4.00 
  -6   5  -3    3.80    9.20 
  -6   5  -3    4.30    6.00 
  -6   5  -3   -0.70   12.60 
   6  -5   3    2.80    4.60 
   6  -5   3    5.20    7.30 
   6  -5   3   -3.00    3.80 
   6  -5   3    2.60    4.20 
  -7   5  -3   -3.60   14.50 
   7  -5   3   15.00    5.80 
   7  -5   3    2.30    5.10 
   8   4  -3    6.20    6.20 
   7   4  -3  106.69   12.20 
   6   4  -3   12.40    4.90 
  -6  -4   3   11.10    7.20 
   5   4  -3  591.24   36.60 
  -5  -4   3  619.24   38.10 
   4   4  -3  300.27   19.20 
  -4  -4   3  309.07   20.50 
   3   4  -3  839.72   45.20 
   3   4  -3  718.23   45.20 
   3   4  -3  795.62   44.70 
  -3  -4   3  857.31   45.90 
  -3  -4   3  768.42   46.00 
  -3  -4   3  760.82   44.30 
  -3  -4   3  800.42   44.70 
  -3  -4   3  743.93   44.60 
   2   4  -3 1471.95   83.49 
   2   4  -3 1593.44   84.19 
   2   4  -3 1397.66   83.29 
  -2  -4   3 1478.05   83.49 
  -2  -4   3 1333.27   83.59 
  -2  -4   3 1468.95   82.99 
  -2  -4   3 1569.24   84.59 
  -2  -4   3 1500.35   83.89 
   1   4  -3  102.29    8.60 
   1   4  -3   91.59    8.20 
   1   4  -3   82.99    5.80 
   1   4  -3   90.49    6.80 
   1   4  -3   83.69    6.70 
  -1  -4   3   90.39    6.40 
  -1  -4   3   85.09    7.40 
  -1  -4   3   93.19    6.90 
  -1  -4   3   94.29    6.30 
   0   4  -3  925.61   53.99 
   0   4  -3 1078.49   54.99 
   0   4  -3  917.81   52.99 
   0   4  -3  946.91   55.89 
   0   4  -3  919.51   54.09 
   0  -4   3  969.60   54.09 
   0  -4   3  919.91   53.09 
   0  -4   3  950.60   53.59 
   0  -4   3  868.11   55.09 
   0  -4   3  889.91   54.49 
  -1   4  -3 1255.27   71.09 
  -1   4  -3 1187.58   71.09 
  -1   4  -3 1357.76   71.89 
  -1   4  -3 1286.37   73.19 
  -1   4  -3 1207.48   69.99 
   1  -4   3 1133.59   71.49 
   1  -4   3 1248.28   70.59 
   1  -4   3 1244.28   69.79 
   1  -4   3 1203.88   72.19 
   1  -4   3 1254.37   70.89 
  -2   4  -3    9.30    3.20 
  -2   4  -3    4.10    4.30 
  -2   4  -3    9.30    2.50 
  -2   4  -3    6.60    3.40 
  -2   4  -3    7.80    6.90 
   2  -4   3    7.90    3.00 
   2  -4   3    1.40    4.20 
   2  -4   3    6.40    4.80 
   2  -4   3    9.60    2.10 
   2  -4   3    6.80    3.00 
  -3   4  -3  983.40   54.89 
  -3   4  -3  962.30   56.69 
  -3   4  -3  861.41   52.89 
  -3   4  -3  890.31   53.69 
  -3   4  -3  897.21   53.99 
   3  -4   3  975.00   53.39 
   3  -4   3  825.32   55.09 
   3  -4   3  970.60   52.49 
   3  -4   3  825.52   54.39 
   3  -4   3  948.31   53.49 
  -4   4  -3   28.60    7.70 
  -4   4  -3   19.50    5.40 
  -4   4  -3   32.30   10.30 
   4  -4   3   25.90    4.80 
   4  -4   3   32.50    5.90 
   4  -4   3   23.40    4.20 
   4  -4   3   21.70    9.00 
  -5   4  -3    6.30    4.90 
  -5   4  -3   31.40   11.50 
  -5   4  -3   15.10    7.70 
   5  -4   3   23.30    7.20 
   5  -4   3   16.90    4.60 
   5  -4   3   19.00    4.80 
   5  -4   3   19.60    4.60 
  -6   4  -3   11.80    6.00 
  -6   4  -3   12.00   12.10 
  -6   4  -3   15.20    9.60 
   6  -4   3    9.70    5.20 
   6  -4   3    9.90    4.40 
   6  -4   3    3.90    7.10 
   6  -4   3   19.30    5.30 
  -7   4  -3   -2.40    9.60 
  -7   4  -3   -0.80   13.00 
   7  -4   3    5.20    5.10 
   7  -4   3    6.40    5.40 
  -8   4  -3  -29.30   13.70 
   8  -4   3   -6.70    5.50 
   8  -4   3    0.80    5.30 
   8   3  -3   57.59    9.40 
   7   3  -3  139.29   13.10 
   6   3  -3   10.40    4.80 
  -6  -3   3    5.50    6.80 
   5   3  -3  719.13   42.60 
  -5  -3   3  707.13   43.90 
   4   3  -3   12.90    3.50 
   4   3  -3   18.30    3.80 
  -4  -3   3   18.30    5.60 
   3   3  -3  477.25   30.00 
   3   3  -3  531.15   29.10 
   3   3  -3  492.55   29.60 
  -3  -3   3  537.75   29.30 
  -3  -3   3  514.45   30.70 
   2   3  -3 1680.73  102.69 
   2   3  -3 1809.92  102.69 
   2   3  -3 2006.90  103.09 
  -2  -3   3 2014.80  103.49 
  -2  -3   3 1803.72  102.69 
  -2  -3   3 1702.13  102.69 
  -2  -3   3 1791.82  103.19 
  -2  -3   3 1808.52  102.39 
   1   3  -3  832.02   47.70 
   1   3  -3  893.01   48.10 
   1   3  -3  891.41   48.50 
   1   3  -3  828.42   47.50 
   1   3  -3  820.42   47.10 
  -1  -3   3  854.01   47.40 
  -1  -3   3  821.22   47.70 
  -1  -3   3  783.42   47.90 
  -1  -3   3  826.52   47.40 
  -1  -3   3  796.42   48.50 
   0   3  -3  529.35   31.80 
   0   3  -3  535.75   30.80 
   0   3  -3  590.14   32.40 
   0   3  -3  545.35   31.80 
   0   3  -3  570.84   33.40 
   0  -3   3  517.05   32.10 
   0  -3   3  534.95   31.80 
   0  -3   3  530.95   30.90 
   0  -3   3  545.95   32.80 
  -1   3  -3  104.19    6.90 
  -1   3  -3  103.29    8.10 
  -1   3  -3  108.39    7.90 
  -1   3  -3  107.29   10.90 
  -1   3  -3  107.59    9.00 
   1  -3   3  104.09    6.70 
   1  -3   3   99.09    8.70 
   1  -3   3  117.29    8.20 
  -2   3  -3 1313.17   77.59 
  -2   3  -3 1377.76   78.09 
  -2   3  -3 1276.37   76.59 
   2  -3   3 1352.96   77.29 
   2  -3   3 1334.87   77.39 
   2  -3   3 1512.05   79.09 
   2  -3   3 1257.67   78.29 
   2  -3   3 1406.46   76.39 
  -3   3  -3   39.90    5.20 
  -3   3  -3   35.20    5.40 
  -3   3  -3   32.50    4.30 
  -3   3  -3   36.70    8.00 
  -3   3  -3   41.20    6.50 
   3  -3   3   36.70    4.20 
   3  -3   3   34.00    6.00 
   3  -3   3   44.20    5.60 
   3  -3   3   30.70    6.40 
   3  -3   3   40.00    5.10 
  -4   3  -3   80.29    8.60 
  -4   3  -3   71.79   11.30 
  -4   3  -3   73.99    9.80 
  -4   3  -3  101.09   12.10 
   4  -3   3  100.69    8.50 
   4  -3   3   94.49    8.40 
   4  -3   3   93.69    8.00 
   4  -3   3   87.19   10.70 
  -5   3  -3   26.20    5.80 
  -5   3  -3   14.30    7.00 
  -5   3  -3   26.10    9.80 
   5  -3   3   29.90    5.40 
   5  -3   3   24.90    5.00 
   5  -3   3   26.40    4.90 
   5  -3   3   25.20    7.20 
  -6   3  -3   19.40    7.00 
  -6   3  -3    8.90   10.60 
  -6   3  -3   -0.50    4.80 
   6  -3   3    1.50    5.70 
   6  -3   3   -1.00    4.20 
   6  -3   3    3.70    4.90 
   6  -3   3    4.60    4.20 
  -7   3  -3   32.70   13.80 
  -7   3  -3   32.80    9.90 
  -7   3  -3   38.00    7.60 
   7  -3   3   36.10    6.60 
   7  -3   3   23.70    7.80 
   7  -3   3   36.40    7.20 
  -8   3  -3   17.00   13.90 
   8  -3   3    0.20    6.10 
   8  -3   3    5.30    5.10 
   8   2  -3   87.49   10.90 
   7   2  -3  173.68   14.70 
   6   2  -3  165.58   13.40 
   5   2  -3  234.78   16.20 
  -4  -2   3   -1.20    4.00 
   3   2  -3 1699.83   99.39 
   3   2  -3 1811.52   99.29 
  -3  -2   3 1753.62   99.89 
   2   2  -3  186.58   10.60 
   2   2  -3  153.78   10.60 
  -2  -2   3  187.78   11.20 
  -2  -2   3  179.68   10.00 
  -2  -2   3  166.88   10.20 
  -2  -2   3  166.68   11.00 
  -2  -2   3  168.08   10.30 
   1   2  -3 1898.81  108.59 
   1   2  -3 1885.11  108.09 
   1   2  -3 2051.29  109.09 
   1   2  -3 1888.41  108.39 
   1   2  -3 2044.10  108.89 
  -1  -2   3 1905.31  108.49 
  -1  -2   3 1972.90  109.09 
  -1  -2   3 1843.52  108.69 
  -1  -2   3 1905.71  108.59 
   0   2  -3 3871.71  221.08 
   0   2  -3 4179.38  221.38 
   0   2  -3 3792.42  220.98 
   0   2  -3 3792.92  220.18 
   0   2  -3 4355.16  221.98 
   0  -2   3 4029.70  221.18 
   0  -2   3 3784.52  221.28 
   0  -2   3 3785.32  220.18 
   0  -2   3 3918.71  221.58 
  -1   2  -3  146.29    9.40 
  -1   2  -3  155.28   11.80 
  -1   2  -3  165.58   11.10 
  -1   2  -3  150.68   10.40 
   1  -2   3  165.08    9.40 
   1  -2   3  160.98   10.30 
   1  -2   3  155.08   11.40 
   1  -2   3  155.78   10.50 
   1  -2   3  154.68   10.90 
  -2   2  -3  462.85   27.90 
  -2   2  -3  415.16   25.80 
  -2   2  -3  460.65   27.70 
  -2   2  -3  480.45   27.30 
   2  -2   3  465.95   26.50 
   2  -2   3  440.36   26.60 
   2  -2   3  395.96   27.00 
   2  -2   3  413.06   26.60 
   2  -2   3  425.86   27.30 
   2  -2   3  473.95   25.80 
  -3   2  -3  202.38   14.00 
  -3   2  -3  196.88   13.60 
  -3   2  -3  192.28   13.10 
  -3   2  -3  213.48   16.00 
  -3   2  -3  200.98   15.00 
   3  -2   3  206.38   14.80 
   3  -2   3  216.68   13.20 
   3  -2   3  184.98   14.10 
   3  -2   3  223.98   13.90 
   3  -2   3  182.98   14.60 
   3  -2   3  224.78   13.90 
  -4   2  -3  386.06   26.20 
  -4   2  -3  386.46   25.90 
  -4   2  -3  451.95   27.40 
  -4   2  -3  393.56   25.60 
  -4   2  -3  466.95   28.80 
   4  -2   3  441.16   26.10 
   4  -2   3  433.86   25.70 
   4  -2   3  416.06   27.20 
   4  -2   3  473.75   26.00 
   4  -2   3  373.86   26.90 
  -5   2  -3  130.19   11.80 
  -5   2  -3  149.39   15.80 
   5  -2   3  139.99   11.30 
   5  -2   3  127.99   10.60 
   5  -2   3  154.48   11.40 
   5  -2   3  131.99   12.90 
  -6   2  -3   44.10    8.60 
  -6   2  -3   41.90   14.40 
  -6   2  -3   50.99    7.50 
   6  -2   3   35.30    5.30 
   6  -2   3   55.39    9.70 
   6  -2   3   37.50    7.80 
  -7   2  -3  102.29   10.20 
  -7   2  -3   71.19   14.70 
  -7   2  -3   59.69   10.60 
   7  -2   3  101.99   10.50 
   7  -2   3  101.19   11.30 
   7  -2   3   95.29   12.00 
   8  -2   3   -2.80    4.30 
   8  -2   3    7.30    6.90 
   8   1  -3  100.99   11.80 
  -8  -1   3   93.39    9.40 
  -8  -1   3   75.39   11.90 
   7   1  -3   13.90    5.90 
  -7  -1   3   15.10    3.90 
  -7  -1   3    9.80    7.20 
   6   1  -3  266.87   18.70 
  -6  -1   3  271.17   16.40 
   5   1  -3  344.37   21.80 
   4   1  -3  340.27   21.80 
   3   1  -3  537.35   33.20 
   3   1  -3  589.84   32.90 
   2   1  -3  577.04   34.80 
   2   1  -3  630.84   34.30 
   2   1  -3  623.64   34.20 
   2   1  -3  627.24   34.60 
  -2  -1   3  603.74   35.00 
  -2  -1   3  599.64   34.00 
  -2  -1   3  569.84   34.00 
   1   1  -3 9999.00  513.35 
  -1  -1   3 9077.39  513.35 
  -1  -1   3 8501.25  512.95 
   0   1  -3 3003.80  160.78 
   0   1  -3 2777.02  160.38 
   0   1  -3 2894.71  160.58 
   0  -1   3 2913.81  160.48 
   0  -1   3 2707.73  160.48 
  -1   1  -3 9436.06  524.55 
   1  -1   3 9552.14  524.65 
   1  -1   3 9151.78  523.75 
  -2   1  -3 2336.67  156.08 
  -2   1  -3 2953.70  155.48 
  -2   1  -3 2706.83  154.28 
  -2   1  -3 2736.73  154.78 
  -2   1  -3 2816.62  154.98 
   2  -1   3 2826.52  155.28 
   2  -1   3 2794.92  155.38 
   2  -1   3 2597.64  155.48 
   2  -1   3 2775.72  154.88 
   2  -1   3 2939.71  154.38 
  -3   1  -3  291.67   19.70 
  -3   1  -3  315.87   20.30 
  -3   1  -3  303.87   19.30 
   3  -1   3  306.07   19.70 
   3  -1   3  325.77   19.30 
   3  -1   3  295.47   19.60 
   3  -1   3  280.17   19.50 
   3  -1   3  323.57   18.80 
   3  -1   3  316.17   19.10 
  -4   1  -3  253.67   17.00 
  -4   1  -3  256.87   18.70 
  -4   1  -3  236.18   16.40 
   4  -1   3  240.68   17.10 
   4  -1   3  236.78   17.40 
   4  -1   3  252.87   17.50 
   4  -1   3  279.27   17.00 
   4  -1   3  287.57   16.90 
   4  -1   3  255.97   16.40 
  -5   1  -3   35.30    5.20 
  -5   1  -3   17.50    5.90 
  -5   1  -3   27.10    7.50 
   5  -1   3   30.70    4.40 
   5  -1   3   20.80    4.70 
   5  -1   3   20.60    4.70 
   5  -1   3   22.90    5.70 
  -6   1  -3   19.10    7.00 
  -6   1  -3   23.40    8.90 
   6  -1   3   15.10    4.70 
   6  -1   3    7.90    4.70 
   6  -1   3   12.70    3.50 
  -7   1  -3    4.10    5.10 
  -7   1  -3   -1.40    9.60 
  -7   1  -3    0.50    6.90 
   7  -1   3    1.90    2.90 
   7  -1   3    3.00    4.20 
   7  -1   3    4.00    5.30 
   7  -1   3   11.20    5.90 
  -8   1  -3   -0.80   11.70 
   8  -1   3    2.30    8.30 
   8   0  -3   28.10    7.30 
  -8   0   3   36.90   10.40 
  -8   0   3   47.30    6.70 
   7   0  -3    8.10    5.50 
  -7   0   3    5.60    3.90 
  -7   0   3    0.80    7.50 
   6   0  -3   98.49    9.90 
   6   0  -3   98.29    7.50 
   6   0  -3   96.99    6.70 
  -6   0   3   84.09   10.30 
  -6   0   3  102.19    8.00 
   5   0  -3  512.25   30.60 
   5   0  -3  488.45   28.90 
   5   0  -3  532.85   30.80 
  -5   0   3  497.05   29.10 
  -5   0   3  497.65   30.90 
   4   0  -3   62.49    4.60 
   4   0  -3   62.39    7.30 
   4   0  -3   66.19    5.40 
   4   0  -3   88.39    9.50 
  -4   0   3   68.19    7.40 
  -4   0   3   64.29    4.70 
   3   0  -3 2713.53  145.89 
   3   0  -3 2541.65  147.09 
   3   0  -3 2627.84  146.39 
   3   0  -3 2539.25  145.59 
  -3   0   3 2505.35  146.39 
  -3   0   3 2824.62  146.19 
  -3   0   3 2546.45  145.59 
  -3   0   3 2540.45  145.49 
  -3   0   3 2586.44  145.39 
   2   0  -3   89.99    5.90 
   2   0  -3   88.59    5.60 
   2   0  -3   91.89    5.80 
   2   0  -3   89.09    6.60 
  -2   0   3   95.69    5.60 
  -2   0   3   89.49    5.90 
  -2   0   3   84.19    5.60 
  -2   0   3   89.69    6.00 
  -2   0   3   83.59    5.40 
   1   0  -3 1758.32   98.89 
   1   0  -3 1792.42   98.89 
   1   0  -3 1858.31   98.49 
   1   0  -3 1724.83   98.89 
  -1   0   3 1756.52   98.79 
  -1   0   3 1759.22   98.59 
  -1   0   3 1745.33   98.79 
  -1   0   3 1675.43   98.89 
  -1   0   3 1772.52   98.89 
   0   0  -3  341.57   19.50 
   0   0  -3  344.17   19.70 
   0   0  -3  323.17   19.40 
   0   0  -3  341.57   18.70 
   0   0   3  338.37   19.50 
   0   0   3  329.97   18.70 
   0   0   3  316.67   19.40 
   0   0   3  321.37   19.60 
  -1   0  -3  376.66   22.10 
  -1   0  -3  383.46   22.80 
  -1   0  -3  375.36   22.40 
  -1   0  -3  380.56   22.50 
  -1   0  -3  371.06   22.60 
   1   0   3  380.56   22.70 
   1   0   3  389.56   22.60 
   1   0   3  382.46   22.10 
   1   0   3  402.66   22.70 
  -2   0  -3  922.51   55.49 
  -2   0  -3  980.20   55.69 
  -2   0  -3  938.51   55.59 
  -2   0  -3  955.70   55.79 
  -2   0  -3 1005.90   56.09 
   2   0   3  966.10   55.89 
   2   0   3  949.21   55.59 
   2   0   3 1000.90   55.79 
   2   0   3 1007.00   55.29 
   2   0   3 1010.60   55.79 
   2   0   3  962.60   55.79 
  -3   0  -3  135.99    9.70 
  -3   0  -3  145.49   10.50 
  -3   0  -3  129.59    9.30 
  -3   0  -3  144.79   10.50 
   3   0   3  142.79    9.80 
   3   0   3  143.89    9.50 
   3   0   3  128.89    9.90 
   3   0   3  118.99    9.60 
   3   0   3  131.29    9.60 
   3   0   3  140.99   10.10 
  -4   0  -3  372.26   22.60 
  -4   0  -3  312.77   21.20 
  -4   0  -3  350.76   22.30 
  -4   0  -3  353.06   23.10 
   4   0   3  346.77   22.50 
   4   0   3  352.06   21.40 
   4   0   3  374.96   21.90 
   4   0   3  359.36   21.90 
   4   0   3  344.37   22.10 
   4   0   3  326.07   21.50 
  -5   0  -3   -0.10    5.30 
  -5   0  -3    0.40    4.60 
  -5   0  -3    1.70    2.90 
   5   0   3    7.70    3.80 
   5   0   3    4.10    3.30 
   5   0   3   -1.70    2.40 
   5   0   3    1.10    3.70 
  -6   0  -3  339.27   22.40 
  -6   0  -3  300.17   21.30 
  -6   0  -3  319.67   23.80 
   6   0   3  292.97   19.50 
   6   0   3  335.77   21.20 
   6   0   3  363.26   22.20 
   6   0   3  298.57   21.90 
  -7   0  -3   21.00    9.70 
  -7   0  -3   11.20    5.00 
  -7   0  -3   14.50    6.90 
   7   0   3    6.90    5.40 
   7   0   3    8.10    4.50 
   7   0   3    6.20    5.80 
  -8   0  -3   25.80   11.60 
  -8   0  -3   36.80    7.50 
   8   0   3   18.20    5.50 
   8   0   3   26.80    7.70 
   8   0   3   12.30    6.10 
   8  -1  -3   33.70    4.50 
   8  -1  -3   41.10    7.50 
  -8   1   3   32.70    6.70 
  -8   1   3   25.00   10.10 
   7  -1  -3    8.80    3.10 
   7  -1  -3    4.30    4.30 
   7  -1  -3    5.20    5.00 
  -7   1   3   -0.20    8.20 
  -7   1   3    9.70    4.60 
   6  -1  -3   62.99    7.80 
   6  -1  -3   58.39    7.40 
   6  -1  -3   66.49    5.90 
  -6   1   3   62.29   10.00 
  -6   1   3   70.99    7.00 
   5  -1  -3 1415.86   78.19 
   5  -1  -3 1261.57   78.59 
   5  -1  -3 1439.76   79.39 
  -5   1   3 1370.26   78.29 
  -5   1   3 1423.76   78.29 
  -5   1   3 1374.16   80.09 
   4  -1  -3  625.14   34.40 
   4  -1  -3  562.14   36.50 
   4  -1  -3  597.44   35.20 
   4  -1  -3  601.64   34.90 
  -4   1   3  601.54   34.60 
  -4   1   3  608.74   36.00 
  -4   1   3  567.94   34.20 
  -4   1   3  629.04   34.40 
  -4   1   3  579.24   35.30 
   3  -1  -3  687.83   42.90 
   3  -1  -3  722.73   41.80 
   3  -1  -3  742.43   41.40 
   3  -1  -3  753.02   41.80 
  -3   1   3  741.53   41.30 
  -3   1   3  700.03   41.10 
  -3   1   3  755.62   42.40 
  -3   1   3  721.73   42.00 
  -3   1   3  709.13   41.60 
   2  -1  -3  845.02   50.99 
   2  -1  -3  883.81   49.99 
   2  -1  -3  926.91   50.49 
   2  -1  -3  917.21   50.29 
   2  -1  -3  886.11   50.19 
  -2   1   3  932.91   50.09 
  -2   1   3  898.91   50.69 
  -2   1   3  867.21   50.39 
  -2   1   3  874.51   50.39 
  -2   1   3  835.62   50.39 
   1  -1  -3  407.66   23.70 
   1  -1  -3  395.66   23.90 
   1  -1  -3  424.76   23.30 
   1  -1  -3  400.36   23.90 
   1  -1  -3  402.36   23.70 
  -1   1   3  421.66   23.60 
  -1   1   3  423.66   23.40 
  -1   1   3  398.06   23.90 
  -1   1   3  415.16   23.80 
   0  -1  -3    3.50    1.30 
   0  -1  -3    1.90    1.00 
   0  -1  -3    2.00    1.00 
   0  -1  -3    0.00    1.00 
   0   1   3    1.50    1.00 
   0   1   3    2.20    0.70 
   0   1   3    0.50    1.10 
   0   1   3    2.70    1.20 
   0   1   3    4.10    1.20 
  -2  -1  -3  356.26   22.20 
  -2  -1  -3  365.96   22.10 
  -2  -1  -3  363.76   22.20 
  -2  -1  -3  356.76   22.10 
  -2  -1  -3  391.16   22.40 
   2   1   3  344.77   22.10 
   2   1   3  380.86   22.20 
   2   1   3  372.26   22.10 
   2   1   3  400.96   22.30 
   2   1   3  386.16   22.30 
  -3  -1  -3 1848.12   98.79 
  -3  -1  -3 1585.54   98.19 
  -3  -1  -3 1765.02   98.89 
   3   1   3 1784.52   98.59 
   3   1   3 1710.43   98.19 
   3   1   3 1797.72   98.49 
   3   1   3 1619.54   98.59 
   3   1   3 1734.53   98.49 
   3   1   3 1777.12   98.39 
  -4  -1  -3  538.95   31.50 
  -4  -1  -3  562.54   32.20 
  -4  -1  -3  499.85   31.00 
  -4  -1  -3  471.95   30.50 
   4   1   3  489.65   30.40 
   4   1   3  536.65   31.00 
   4   1   3  510.95   30.40 
   4   1   3  527.45   31.10 
   4   1   3  534.75   31.20 
   4   1   3  492.85   31.50 
  -5  -1  -3   32.40    5.80 
  -5  -1  -3   31.60    6.80 
  -5  -1  -3   31.60    5.80 
  -5  -1  -3   25.10    4.50 
   5   1   3   30.30    4.80 
   5   1   3   29.40    4.00 
   5   1   3   41.00    5.70 
   5   1   3   27.30    5.40 
  -6  -1  -3  102.79   11.40 
  -6  -1  -3   93.09    9.80 
   6   1   3  106.49   10.40 
   6   1   3  117.59   10.20 
   6   1   3  122.89   11.10 
  -7  -1  -3    7.30    6.30 
  -7  -1  -3    0.00    4.10 
  -7  -1  -3   -5.60    7.10 
   7   1   3   -2.90    5.10 
   7   1   3   10.20    4.70 
   7   1   3    1.60    4.00 
  -8  -1  -3    0.80    4.90 
  -8  -1  -3  -10.80    8.80 
   8   1   3    4.80    4.50 
   8   1   3    5.40    6.70 
   8  -2  -3    4.60    5.40 
   8  -2  -3    4.20    5.20 
   8  -2  -3    4.30    3.50 
   7  -2  -3   -1.60    4.80 
   7  -2  -3    2.50    3.00 
   7  -2  -3    0.50    5.20 
  -7   2   3    0.60    8.80 
  -7   2   3   -6.80    4.00 
   6  -2  -3   39.00    6.20 
   6  -2  -3   36.70    6.80 
  -6   2   3   30.60   14.30 
  -6   2   3   36.90    5.20 
  -6   2   3   35.90    5.50 
   5  -2  -3    5.50    3.70 
   5  -2  -3    8.50    4.60 
   5  -2  -3   11.60    2.80 
  -5   2   3    7.20    3.30 
  -5   2   3   13.50    6.60 
  -5   2   3    6.70    3.20 
   4  -2  -3  241.18   13.80 
   4  -2  -3  184.08   16.00 
   4  -2  -3  230.58   14.30 
   4  -2  -3  226.58   15.00 
  -4   2   3  206.38   14.50 
  -4   2   3  223.38   14.50 
  -4   2   3  198.98   16.50 
  -4   2   3  221.58   13.80 
   3  -2  -3  257.97   16.10 
   3  -2  -3  218.68   15.70 
   3  -2  -3  282.17   15.40 
   3  -2  -3  269.27   15.50 
   3  -2  -3  252.27   15.10 
  -3   2   3  244.98   15.90 
  -3   2   3  251.17   15.30 
  -3   2   3  248.58   15.80 
  -3   2   3  260.17   17.30 
  -3   2   3  241.68   15.10 
   2  -2  -3   12.20    3.40 
   2  -2  -3    7.90    1.70 
   2  -2  -3    9.80    2.50 
   2  -2  -3   10.60    1.90 
   2  -2  -3   10.00    1.90 
  -2   2   3   18.70    2.10 
  -2   2   3   10.30    2.00 
  -2   2   3    8.70    2.90 
  -2   2   3   11.10    1.80 
  -2   2   3   10.70    2.20 
   1  -2  -3 5725.73  316.77 
   1  -2  -3 5521.15  316.57 
  -1   2   3 5449.15  315.97 
  -1   2   3 5786.62  316.77 
  -1   2   3 5797.62  316.27 
   0  -2  -3 3567.74  200.38 
   0  -2  -3 3662.53  199.98 
   0  -2  -3 3450.15  200.58 
   0  -2  -3 3504.35  200.38 
   0  -2  -3 3482.05  200.58 
   0   2   3 3597.04  200.58 
   0   2   3 3671.03  200.38 
   0   2   3 3664.43  200.18 
   0   2   3 3576.54  200.28 
  -2  -2  -3  960.70   56.29 
  -2  -2  -3  996.50   56.29 
  -2  -2  -3  957.60   56.39 
  -2  -2  -3 1001.10   56.49 
   2   2   3  958.10   56.19 
   2   2   3 1044.10   56.49 
   2   2   3  930.81   56.19 
   2   2   3 1016.90   56.19 
   2   2   3  997.40   56.29 
  -3  -2  -3  347.07   21.20 
  -3  -2  -3  321.77   20.40 
  -3  -2  -3  366.46   20.80 
  -3  -2  -3  317.57   20.50 
   3   2   3  335.87   20.50 
   3   2   3  342.17   20.20 
   3   2   3  354.26   20.70 
   3   2   3  338.87   20.40 
   3   2   3  312.17   20.70 
  -4  -2  -3  300.67   20.30 
  -4  -2  -3  312.07   20.50 
  -4  -2  -3  323.07   20.80 
  -4  -2  -3  351.26   22.00 
  -4  -2  -3  356.86   21.20 
   4   2   3  351.86   20.10 
   4   2   3  342.07   20.70 
   4   2   3  339.37   20.70 
   4   2   3  322.87   21.30 
  -5  -2  -3    1.30    3.70 
  -5  -2  -3   -2.70    4.70 
  -5  -2  -3    5.90    3.90 
  -5  -2  -3    1.50    2.80 
   5   2   3    3.80    2.40 
   5   2   3    8.30    4.30 
   5   2   3   -2.00    2.70 
   5   2   3   10.60    3.40 
  -6  -2  -3   20.10    4.60 
  -6  -2  -3   19.90    5.60 
  -6  -2  -3   24.60    7.30 
  -6  -2  -3   27.50    6.10 
   6   2   3   15.80    4.50 
   6   2   3   18.30    5.70 
   6   2   3   18.10    4.60 
  -7  -2  -3    8.80    4.30 
   7   2   3   10.10    4.40 
   7   2   3   -2.40    5.10 
   7   2   3    2.90    4.20 
  -8  -2  -3   48.80   10.80 
  -8  -2  -3   35.30    6.40 
   8   2   3   24.10    5.50 
   8   2   3   23.50    8.00 
   8   2   3   26.30    5.70 
   8  -3  -3   23.80    7.10 
   8  -3  -3   29.20    7.20 
   8  -3  -3   24.20    5.10 
  -8   3   3   12.40   10.50 
  -8   3   3   10.50    6.50 
   7  -3  -3   40.50    7.00 
   7  -3  -3   16.90    8.60 
   7  -3  -3   43.30    5.50 
  -7   3   3   36.40    7.10 
  -7   3   3   26.90   10.90 
   6  -3  -3  800.12   44.70 
   6  -3  -3  766.02   43.70 
   6  -3  -3  676.13   45.10 
  -6   3   3  734.33   44.70 
  -6   3   3  783.22   44.40 
  -6   3   3  690.33   47.70 
   5  -3  -3  228.18   14.30 
   5  -3  -3  184.98   15.80 
   5  -3  -3  237.18   14.90 
  -5   3   3  229.08   14.90 
  -5   3   3  203.28   18.90 
  -5   3   3  201.78   15.30 
   4  -3  -3  645.84   37.90 
   4  -3  -3  697.53   38.20 
   4  -3  -3  611.24   39.10 
   4  -3  -3  675.23   38.40 
  -4   3   3  652.83   38.20 
  -4   3   3  670.93   39.30 
  -4   3   3  628.24   40.70 
   3  -3  -3  857.91   50.39 
   3  -3  -3  863.51   49.40 
   3  -3  -3  894.81   49.50 
   3  -3  -3  870.81   50.29 
   3  -3  -3  749.23   50.39 
  -3   3   3  944.81   53.29 
  -3   3   3  902.11   50.39 
  -3   3   3  829.72   49.30 
   2  -3  -3   77.69    8.20 
   2  -3  -3   75.59    5.70 
   2  -3  -3   79.39    5.50 
   2  -3  -3   70.69    5.80 
   2  -3  -3   71.39    6.80 
  -2   3   3   75.59    7.80 
  -2   3   3   72.39    5.70 
  -2   3   3   75.39    5.50 
   1  -3  -3  755.72   44.00 
   1  -3  -3  805.52   43.50 
   1  -3  -3  716.43   44.60 
   1  -3  -3  755.82   44.40 
   1  -3  -3  797.42   44.00 
  -1   3   3  775.12   43.90 
  -1   3   3  731.83   43.50 
  -1   3   3  772.02   44.70 
  -1   3   3  775.12   43.80 
   0  -3  -3    3.90    1.50 
   0  -3  -3    2.60    1.80 
   0  -3  -3    3.00    1.50 
   0  -3  -3    3.40    1.30 
   0   3   3    5.10    2.00 
   0   3   3    4.80    1.20 
   0   3   3    3.00    1.30 
   0   3   3    4.60    2.00 
   0   3   3    3.60    2.00 
  -1  -3  -3 3717.33  208.58 
  -1  -3  -3 3592.94  208.78 
  -1  -3  -3 3678.73  208.88 
  -1  -3  -3 3648.03  208.48 
  -1  -3  -3 3887.01  208.48 
   1   3   3 3621.44  208.18 
   1   3   3 3731.13  208.48 
   1   3   3 3866.21  208.48 
   1   3   3 3591.74  208.78 
   1   3   3 3837.12  208.78 
  -2  -3  -3   27.90    3.70 
  -2  -3  -3   32.60    3.60 
  -2  -3  -3   25.80    3.60 
  -2  -3  -3   25.80    3.60 
   2   3   3   37.50    3.90 
   2   3   3   30.30    3.60 
   2   3   3   28.50    3.40 
   2   3   3   31.50    3.40 
   2   3   3   25.70    3.30 
  -3  -3  -3  721.23   43.80 
  -3  -3  -3  782.72   43.80 
  -3  -3  -3  764.22   44.50 
  -3  -3  -3  700.03   43.80 
   3   3   3  776.82   44.00 
   3   3   3  721.13   44.10 
   3   3   3  833.72   44.10 
   3   3   3  739.83   43.60 
   3   3   3  754.22   43.70 
  -4  -3  -3  526.55   31.20 
  -4  -3  -3  470.85   29.70 
  -4  -3  -3  479.25   30.60 
  -4  -3  -3  545.45   30.10 
  -4  -3  -3  465.85   29.80 
   4   3   3  463.75   29.20 
   4   3   3  498.55   29.80 
   4   3   3  506.65   31.10 
   4   3   3  523.95   29.70 
  -5  -3  -3  201.68   13.60 
  -5  -3  -3  204.78   15.30 
  -5  -3  -3  166.38   13.80 
  -5  -3  -3  165.88   13.00 
   5   3   3  162.08   11.40 
   5   3   3  189.58   13.00 
   5   3   3  202.38   14.00 
   5   3   3  166.88   12.60 
  -6  -3  -3  873.61   48.90 
  -6  -3  -3  770.32   48.40 
   6   3   3  818.32   48.40 
  -7  -3  -3   98.19   13.50 
  -7  -3  -3   96.49   11.90 
  -7  -3  -3   87.49    9.50 
  -7  -3  -3   89.49   10.50 
   7   3   3   75.89    8.80 
   7   3   3   93.09   11.10 
   7   3   3   86.39    9.60 
  -8  -3  -3   12.40    5.00 
   8   3   3    4.90    6.80 
   8   3   3   10.30    4.30 
   8   3   3   14.80    5.20 
   8  -4  -3    1.30    5.20 
   8  -4  -3   -4.40    7.30 
   8  -4  -3    3.20    4.10 
  -8   4   3    2.90   10.20 
   7  -4  -3  112.09   10.40 
   7  -4  -3  104.89    9.40 
   7  -4  -3   72.89   11.00 
  -7   4   3   87.39   10.90 
  -7   4   3   90.79   10.70 
  -7   4   3   69.19   13.80 
   6  -4  -3    3.10    3.90 
   6  -4  -3    2.00    3.30 
   6  -4  -3    3.20    6.20 
  -6   4   3    9.40    5.90 
  -6   4   3   -0.80    4.10 
  -6   4   3   -5.20    8.50 
   5  -4  -3   11.20    5.80 
   5  -4  -3    7.80    3.60 
   5  -4  -3   -0.80    2.70 
   5  -4  -3    7.40    3.20 
  -5   4   3    9.80    4.80 
  -5   4   3    8.30    4.00 
  -5   4   3    2.10    7.40 
   4  -4  -3  632.44   35.10 
   4  -4  -3  612.94   34.90 
   4  -4  -3  545.25   36.10 
  -4   4   3  581.64   38.20 
  -4   4   3  583.04   36.40 
   3  -4  -3  172.58   11.20 
   3  -4  -3  154.48   13.50 
   3  -4  -3  151.88   12.30 
   3  -4  -3  181.68   10.80 
   3  -4  -3  164.48   11.00 
  -3   4   3  158.88   10.90 
  -3   4   3  183.88   14.50 
  -3   4   3  163.78   11.10 
  -3   4   3  133.19   11.10 
   2  -4  -3   66.79    5.50 
   2  -4  -3   70.19    5.80 
   2  -4  -3   55.69    6.90 
   2  -4  -3   63.19    8.30 
   2  -4  -3   69.19    5.00 
  -2   4   3   59.19    5.30 
  -2   4   3   61.59    5.60 
  -2   4   3   61.49    5.30 
  -2   4   3   50.39    7.10 
  -2   4   3   61.69    6.60 
   1  -4  -3  968.40   54.29 
   1  -4  -3  905.71   55.79 
   1  -4  -3  955.30   54.79 
   1  -4  -3  925.71   55.39 
   1  -4  -3  935.01   55.29 
  -1   4   3  995.10   55.89 
  -1   4   3  929.51   54.19 
  -1   4   3  988.40   54.59 
  -1   4   3  981.30   54.69 
  -1   4   3  959.40   55.49 
   0  -4  -3  754.12   43.20 
   0  -4  -3  777.52   43.60 
   0  -4  -3  769.72   43.60 
   0  -4  -3  753.72   44.10 
   0  -4  -3  708.93   44.20 
   0   4   3  776.52   43.50 
   0   4   3  740.73   44.10 
   0   4   3  745.73   43.00 
   0   4   3  757.82   44.20 
  -1  -4  -3 2528.35  148.19 
  -1  -4  -3 2717.73  147.89 
  -1  -4  -3 2657.83  147.99 
  -1  -4  -3 2501.55  148.29 
  -1  -4  -3 2613.34  147.89 
   1   4   3 2528.45  147.49 
   1   4   3 2735.63  147.79 
   1   4   3 2666.43  147.69 
   1   4   3 2682.63  148.29 
   1   4   3 2619.34  148.29 
  -2  -4  -3  551.44   34.10 
  -2  -4  -3  567.14   34.20 
  -2  -4  -3  589.64   34.20 
  -2  -4  -3  584.04   33.80 
   2   4   3  610.04   34.30 
   2   4   3  577.34   33.70 
   2   4   3  571.04   33.60 
   2   4   3  528.45   33.60 
   2   4   3  615.64   34.10 
  -3  -4  -3 1225.18   73.69 
  -3  -4  -3 1340.27   74.39 
  -3  -4  -3 1255.87   73.49 
  -3  -4  -3 1368.96   73.59 
   3   4   3 1219.28   73.59 
   3   4   3 1251.37   73.29 
   3   4   3 1312.37   73.79 
   3   4   3 1319.97   73.09 
   3   4   3 1282.67   73.39 
  -4  -4  -3 1405.96   84.09 
  -4  -4  -3 1562.34   84.09 
  -4  -4  -3 1507.85   85.39 
  -4  -4  -3 1414.96   83.99 
   4   4   3 1441.46   83.49 
   4   4   3 1474.95   84.19 
   4   4   3 1488.45   83.89 
  -5  -4  -3    9.50    5.60 
  -5  -4  -3    8.10    3.90 
  -5  -4  -3    0.80    3.50 
  -5  -4  -3    7.70    3.50 
   5   4   3    6.50    2.90 
   5   4   3   10.80    3.60 
   5   4   3    6.00    2.50 
  -6  -4  -3   88.09   11.60 
  -6  -4  -3   74.99    8.70 
  -6  -4  -3   94.79   10.10 
  -6  -4  -3   91.99    9.20 
   6   4   3   67.39    8.40 
   6   4   3   82.89   10.10 
   6   4   3   87.19    8.10 
  -7  -4  -3    0.50    5.00 
  -7  -4  -3    7.30    4.40 
  -7  -4  -3    6.50    7.80 
   7   4   3   12.80    6.20 
   7   4   3    4.10    4.10 
  -8  -4  -3   27.90    6.00 
  -8  -4  -3   10.70    8.50 
  -8  -4  -3   31.40   17.10 
   8   4   3   13.90    4.50 
   7  -5  -3    2.40    4.70 
   7  -5  -3   -3.00    3.40 
   7  -5  -3   -3.90    7.20 
  -7   5   3    0.90   10.00 
  -7   5   3   -9.80    5.40 
   6  -5  -3   64.69    7.80 
   6  -5  -3   62.49    9.90 
   6  -5  -3   86.49    8.40 
   6  -5  -3   64.89    7.90 
  -6   5   3   63.99    8.60 
  -6   5   3   30.40   11.80 
  -6   5   3   57.49    9.00 
   5  -5  -3   83.29    8.10 
   5  -5  -3   93.99    8.00 
   5  -5  -3   66.19    7.70 
   5  -5  -3   65.19    9.30 
  -5   5   3   75.99   12.60 
  -5   5   3  103.39   11.00 
   4  -5  -3  690.63   42.10 
   4  -5  -3  738.63   42.20 
   4  -5  -3  716.13   41.70 
   4  -5  -3  690.13   43.60 
  -4   5   3  715.23   42.40 
  -4   5   3  715.13   45.80 
  -4   5   3  738.03   44.00 
   3  -5  -3   21.20    3.90 
   3  -5  -3   11.00    4.80 
   3  -5  -3   15.60    3.60 
   3  -5  -3   21.40    3.40 
  -3   5   3   16.00    6.30 
  -3   5   3   20.50    3.60 
  -3   5   3   16.00    5.10 
  -3   5   3   19.40    3.70 
   2  -5  -3 2029.40  108.19 
   2  -5  -3 2012.60  108.79 
   2  -5  -3 1787.22  109.49 
   2  -5  -3 1953.20  108.89 
  -2   5   3 1906.01  110.49 
  -2   5   3 1904.51  108.49 
  -2   5   3 1939.61  108.69 
  -2   5   3 1792.72  108.29 
   1  -5  -3  439.96   32.40 
   1  -5  -3  556.64   31.00 
   1  -5  -3  475.65   32.40 
   1  -5  -3  552.34   30.30 
   1  -5  -3  546.75   31.00 
  -1   5   3  524.15   30.60 
  -1   5   3  528.85   32.00 
  -1   5   3  513.75   30.70 
  -1   5   3  503.75   30.20 
  -1   5   3  537.95   32.40 
   0  -5  -3  527.55   31.70 
   0  -5  -3  545.55   31.30 
   0  -5  -3  545.35   31.80 
   0  -5  -3  525.65   32.80 
   0   5   3  546.85   31.50 
   0   5   3  546.65   32.60 
   0   5   3  547.15   32.70 
   0   5   3  517.15   31.10 
   0   5   3  521.75   31.50 
  -1  -5  -3  446.16   29.80 
  -1  -5  -3  501.45   29.30 
  -1  -5  -3  485.25   29.90 
  -1  -5  -3  519.15   29.50 
  -1  -5  -3  483.25   30.00 
   1   5   3  487.65   29.10 
   1   5   3  502.05   30.00 
   1   5   3  501.45   29.90 
   1   5   3  521.45   29.20 
   1   5   3  481.65   28.90 
  -2  -5  -3  381.76   23.20 
  -2  -5  -3  357.96   23.70 
  -2  -5  -3  356.56   23.50 
  -2  -5  -3  409.36   26.90 
   2   5   3  396.56   23.70 
   2   5   3  364.06   22.90 
   2   5   3  394.66   23.50 
   2   5   3  396.86   23.00 
  -3  -5  -3 2467.45  142.29 
  -3  -5  -3 2589.24  142.79 
  -3  -5  -3 2560.64  141.89 
  -3  -5  -3 2524.85  141.99 
   3   5   3 2262.47  141.79 
   3   5   3 2539.85  141.79 
   3   5   3 2506.85  141.39 
   3   5   3 2512.75  141.79 
   3   5   3 2634.04  142.39 
  -4  -5  -3  332.27   19.30 
  -4  -5  -3  290.17   20.40 
  -4  -5  -3  275.07   19.20 
  -4  -5  -3  287.07   18.90 
   4   5   3  306.97   19.20 
   4   5   3  302.37   18.70 
   4   5   3  277.17   18.30 
  -5  -5  -3  574.94   36.80 
  -5  -5  -3  664.73   37.40 
  -5  -5  -3  610.94   37.30 
  -5  -5  -3  634.24   39.20 
   5   5   3  602.14   36.70 
   5   5   3  622.54   37.10 
  -6  -5  -3  482.75   31.20 
  -6  -5  -3  546.95   34.70 
  -6  -5  -3  478.85   31.60 
  -6  -5  -3  542.25   32.10 
   6   5   3  508.15   31.00 
  -7  -5  -3    3.10    5.10 
  -7  -5  -3    4.10    8.00 
  -7  -5  -3   -1.80    4.10 
   7   5   3    3.70    3.60 
   7   5   3   -4.90    5.50 
   7   5   3   -1.80    3.70 
  -8  -5  -3   27.40    7.10 
  -8  -5  -3   39.20    8.50 
  -8  -5  -3   38.80   12.50 
   8   5   3   73.39    8.70 
   8   5   3   43.80    9.60 
   8   5   3   38.20    5.90 
   7  -6  -3   48.50    8.90 
  -7   6   3   25.10   12.80 
   6  -6  -3    6.50    3.60 
   6  -6  -3    4.90    4.10 
   6  -6  -3    0.80    3.90 
   6  -6  -3   11.90   11.60 
  -6   6   3   -1.30   10.00 
  -6   6   3   17.10    6.00 
  -6   6   3   -4.20    4.60 
   5  -6  -3   63.99    9.80 
   5  -6  -3   76.59    7.50 
  -5   6   3   53.99   14.70 
  -5   6   3   55.79    9.00 
  -5   6   3   66.39    8.50 
   4  -6  -3   82.69    7.10 
   4  -6  -3   84.19    8.00 
   4  -6  -3   75.09   10.10 
   4  -6  -3   79.99    8.10 
  -4   6   3   78.89   12.20 
  -4   6   3   54.79    7.60 
  -4   6   3   58.89    8.80 
   3  -6  -3   28.70    4.70 
   3  -6  -3   23.60    6.30 
   3  -6  -3   31.50    4.70 
   3  -6  -3   28.90    4.10 
  -3   6   3   36.00    5.20 
  -3   6   3   32.50    8.40 
   2  -6  -3  410.66   23.20 
   2  -6  -3  392.36   24.00 
   2  -6  -3  389.16   23.80 
   2  -6  -3  430.56   28.20 
   2  -6  -3  321.57   26.20 
  -2   6   3  358.56   23.70 
  -2   6   3  364.06   24.00 
  -2   6   3  405.46   25.80 
  -2   6   3  385.46   26.40 
   1  -6  -3   20.20    3.20 
   1  -6  -3   10.50    5.50 
   1  -6  -3   24.60    5.10 
   1  -6  -3   17.90    4.90 
   1  -6  -3   18.30    3.70 
  -1   6   3   14.10    3.40 
  -1   6   3   18.00    3.30 
  -1   6   3   26.40    7.00 
  -1   6   3   13.50    2.70 
  -1   6   3   19.00    5.20 
   0  -6  -3   52.39    5.60 
   0  -6  -3   63.19    6.20 
   0  -6  -3   69.89    6.60 
   0  -6  -3   66.29    8.30 
   0  -6  -3   63.89    7.80 
   0   6   3   66.19    7.70 
   0   6   3   61.79    6.20 
   0   6   3   65.79    5.90 
   0   6   3   69.59    7.90 
   0   6   3   61.79    5.30 
  -1  -6  -3 1106.99   66.39 
  -1  -6  -3 1213.68   66.39 
  -1  -6  -3 1077.79   66.89 
  -1  -6  -3 1129.79   67.49 
  -1  -6  -3 1147.69   66.19 
   1   6   3 1195.18   66.29 
   1   6   3 1199.28   67.19 
   1   6   3 1095.19   65.69 
   1   6   3 1203.78   67.29 
   1   6   3 1153.88   65.99 
  -2  -6  -3  493.65   28.60 
  -2  -6  -3  455.25   28.70 
  -2  -6  -3  438.36   28.80 
  -2  -6  -3  472.85   28.10 
  -2  -6  -3  463.25   28.00 
   2   6   3  452.95   27.70 
   2   6   3  494.25   28.60 
   2   6   3  494.95   28.90 
   2   6   3  445.56   27.60 
   2   6   3  424.86   27.50 
  -3  -6  -3  653.93   38.20 
  -3  -6  -3  654.93   39.20 
  -3  -6  -3  647.94   38.20 
   3   6   3  628.94   38.60 
   3   6   3  621.74   37.80 
   3   6   3  653.93   38.10 
  -4  -6  -3   18.80    4.30 
  -4  -6  -3   23.00    4.30 
  -4  -6  -3   24.70    6.10 
  -4  -6  -3   19.60    4.80 
   4   6   3   21.50    3.90 
   4   6   3   21.60    4.60 
   4   6   3   28.00    4.10 
  -5  -6  -3  198.48   15.80 
  -5  -6  -3  236.08   18.20 
  -5  -6  -3  244.18   16.00 
  -5  -6  -3  220.68   15.30 
   5   6   3  209.18   14.80 
   5   6   3  213.38   15.40 
  -6  -6  -3   49.60    7.30 
  -6  -6  -3   51.59    7.50 
  -6  -6  -3   66.09   10.40 
  -6  -6  -3   63.59   11.20 
   6   6   3   51.39    6.70 
   6   6   3   50.69    6.30 
  -7  -6  -3   -2.00    5.00 
  -7  -6  -3    4.40    8.50 
  -7  -6  -3    4.60    4.90 
   7   6   3    8.10    3.80 
   7   6   3    1.90    6.30 
   7   6   3    2.30    4.20 
  -8  -6  -3   85.99   14.70 
  -8  -6  -3   71.89   10.40 
   8   6   3   67.49   11.00 
   8   6   3   67.19    8.00 
   8   6   3   81.89    9.40 
   7  -7  -3    5.70    5.00 
   7  -7  -3   10.60    5.00 
  -7   7   3   19.80   11.90 
   6  -7  -3   15.30    4.80 
   6  -7  -3   10.20    7.90 
   6  -7  -3    9.90    4.70 
  -6   7   3   19.00    7.20 
  -6   7   3   11.50    6.80 
  -6   7   3    8.30   10.70 
   5  -7  -3   93.19    9.00 
   5  -7  -3   65.29   10.60 
   5  -7  -3   76.49    8.00 
   5  -7  -3   90.79    9.30 
  -5   7   3   61.19    9.20 
  -5   7   3   68.29   13.50 
  -5   7   3   64.19   13.20 
   4  -7  -3   69.69   11.00 
   4  -7  -3   85.39    9.70 
   4  -7  -3   95.59    9.40 
   4  -7  -3  102.79    9.30 
  -4   7   3  114.99   13.30 
  -4   7   3   67.89   12.50 
  -4   7   3   90.09   10.60 
   3  -7  -3   24.70    4.10 
   3  -7  -3   30.00    5.10 
   3  -7  -3   14.80    5.90 
   3  -7  -3   27.30    5.00 
  -3   7   3   26.60    5.40 
  -3   7   3   41.00    8.10 
   2  -7  -3  421.86   28.40 
   2  -7  -3  419.86   27.70 
   2  -7  -3  448.16   26.20 
   2  -7  -3  446.26   27.20 
  -2   7   3  436.06   27.00 
  -2   7   3  475.65   29.60 
  -2   7   3  395.86   26.60 
   1  -7  -3  317.87   20.30 
   1  -7  -3  302.07   19.40 
   1  -7  -3  364.26   24.00 
   1  -7  -3  295.27   21.30 
   1  -7  -3  304.97   20.10 
  -1   7   3  342.57   22.30 
  -1   7   3  361.76   23.10 
  -1   7   3  276.47   19.80 
  -1   7   3  286.67   19.60 
   0  -7  -3  917.71   57.89 
   0  -7  -3 1033.20   56.89 
   0  -7  -3  883.21   58.69 
   0  -7  -3  968.50   57.09 
   0  -7  -3 1015.20   57.19 
   0   7   3  974.20   56.69 
   0   7   3 1036.90   58.79 
   0   7   3 1012.70   58.59 
  -1  -7  -3    4.00    2.90 
  -1  -7  -3   11.50    4.70 
  -1  -7  -3    3.30    3.20 
  -1  -7  -3    3.70    3.00 
  -1  -7  -3    6.60    3.50 
   1   7   3    1.30    5.30 
   1   7   3    7.50    2.90 
   1   7   3    1.00    2.20 
  -2  -7  -3  190.28   13.90 
  -2  -7  -3  178.98   14.80 
  -2  -7  -3  197.98   13.70 
  -2  -7  -3  193.28   13.50 
   2   7   3  177.58   12.90 
   2   7   3  207.38   14.20 
   2   7   3  193.08   14.40 
  -3  -7  -3  673.33   39.70 
  -3  -7  -3  648.54   39.60 
  -3  -7  -3  623.04   40.30 
  -3  -7  -3  715.53   40.90 
   3   7   3  664.93   39.30 
   3   7   3  635.94   39.60 
   3   7   3  695.53   40.40 
  -4  -7  -3  119.69   12.90 
  -4  -7  -3  132.19   10.90 
  -4  -7  -3  118.59   11.40 
   4   7   3  135.89   11.00 
   4   7   3  123.39    9.90 
   4   7   3  118.29    9.70 
  -5  -7  -3  598.94   38.70 
  -5  -7  -3  676.03   38.30 
  -5  -7  -3  641.54   40.60 
  -5  -7  -3  604.94   37.80 
   5   7   3  605.74   37.40 
   5   7   3  633.64   38.20 
  -6  -7  -3   37.10    9.40 
  -6  -7  -3   28.30    6.60 
  -6  -7  -3   32.00    5.80 
  -6  -7  -3   37.00    6.40 
   6   7   3   27.90    5.10 
   6   7   3   32.70    5.80 
  -7  -7  -3   84.49   10.40 
  -7  -7  -3   95.89   11.60 
  -7  -7  -3   91.79   14.00 
   7   7   3   84.49    8.80 
   6  -8  -3   -4.40    4.30 
   6  -8  -3   11.40    7.60 
  -6   8   3   13.10   11.30 
   5  -8  -3    5.70    4.30 
   5  -8  -3    7.50    7.70 
   5  -8  -3    1.50    3.80 
   5  -8  -3    9.60    4.70 
  -5   8   3    1.90    6.40 
  -5   8   3   -0.30    9.70 
  -5   8   3   -8.40    5.50 
   4  -8  -3   25.50    4.80 
   4  -8  -3   13.20    7.90 
   4  -8  -3   37.70    6.20 
   4  -8  -3   35.60    6.20 
  -4   8   3   33.20   11.10 
  -4   8   3   36.90    7.00 
  -4   8   3   31.60    8.10 
   3  -8  -3   12.30    4.70 
   3  -8  -3    9.10    6.90 
   3  -8  -3   17.10    4.70 
   3  -8  -3   12.30    3.80 
  -3   8   3    1.20    7.00 
  -3   8   3   14.80    5.20 
  -3   8   3   14.60    6.90 
   2  -8  -3  218.98   16.10 
   2  -8  -3  224.88   16.40 
   2  -8  -3  216.48   18.10 
   2  -8  -3  233.98   15.30 
  -2   8   3  233.18   16.60 
  -2   8   3  221.48   20.10 
  -2   8   3  212.78   15.80 
  -2   8   3  250.77   19.30 
   1  -8  -3  222.58   16.90 
   1  -8  -3  216.58   18.50 
   1  -8  -3  276.67   17.30 
   1  -8  -3  270.87   16.40 
   1  -8  -3  238.58   21.30 
  -1   8   3  223.98   19.50 
  -1   8   3  229.98   16.90 
  -1   8   3  236.58   16.50 
  -1   8   3  281.07   19.70 
   0  -8  -3  134.19   14.40 
   0  -8  -3   97.19    9.50 
   0  -8  -3   98.59   11.00 
   0  -8  -3  100.59    9.00 
   0   8   3  133.09   12.50 
   0   8   3  100.49    8.90 
   0   8   3  102.09    9.40 
   0   8   3  127.49   12.20 
  -1  -8  -3    0.60    3.30 
  -1  -8  -3    4.90    5.00 
  -1  -8  -3    4.00    3.70 
  -1  -8  -3    0.90    3.00 
   1   8   3    3.60    4.20 
   1   8   3    1.60    2.60 
  -2  -8  -3   77.89   10.20 
  -2  -8  -3   87.29    8.90 
  -2  -8  -3   90.19    8.60 
  -2  -8  -3   83.29    9.10 
   2   8   3   88.49   10.00 
   2   8   3   80.19    7.90 
   2   8   3   93.39    9.60 
  -3  -8  -3  395.06   26.00 
  -3  -8  -3  423.76   25.20 
  -3  -8  -3  366.56   24.70 
  -3  -8  -3  370.56   26.20 
   3   8   3  385.66   24.90 
   3   8   3  390.96   24.30 
   3   8   3  395.26   25.90 
  -4  -8  -3   98.99   11.40 
  -4  -8  -3  111.49   11.80 
  -4  -8  -3   97.39   11.10 
   4   8   3   97.19   11.50 
   4   8   3  104.49    9.00 
   4   8   3   87.49    8.80 
  -5  -8  -3  134.79   11.40 
  -5  -8  -3  127.09   12.00 
  -5  -8  -3  131.89   14.50 
  -5  -8  -3  129.49   13.40 
   5   8   3  134.39   11.80 
   5   8   3  130.19   10.60 
  -6  -8  -3   28.20    6.40 
  -6  -8  -3   10.50    8.30 
  -6  -8  -3   22.10    5.10 
  -6  -8  -3    2.40    5.60 
   6   8   3   13.30    4.40 
   6   8   3   15.60    5.10 
  -7  -8  -3   67.79    9.30 
  -7  -8  -3   59.89   12.00 
  -7  -8  -3   52.89    9.50 
   7   8   3   49.70    6.70 
   7   8   3   60.39    7.70 
   6  -9  -3    0.90    5.40 
   6  -9  -3    4.70    4.50 
  -6   9   3    1.30   11.60 
   5  -9  -3   11.70    5.30 
   5  -9  -3   16.00    4.90 
  -5   9   3   12.40   11.00 
  -5   9   3   15.50    8.20 
   4  -9  -3   29.60    6.40 
   4  -9  -3   39.90   10.00 
   4  -9  -3   23.50    5.00 
  -4   9   3   19.80   10.00 
  -4   9   3   30.80    8.90 
  -4   9   3   26.00    9.70 
   3  -9  -3   14.70    7.50 
   3  -9  -3    3.80    3.50 
   3  -9  -3    2.10    3.60 
   3  -9  -3    1.10    4.20 
  -3   9   3    5.50    5.40 
  -3   9   3    9.40    8.20 
  -3   9   3   10.50    7.00 
   2  -9  -3  786.42   47.50 
   2  -9  -3  775.02   47.40 
   2  -9  -3  874.81   50.09 
   2  -9  -3  688.03   48.50 
  -2   9   3  866.21   50.69 
  -2   9   3  690.23   47.50 
  -2   9   3  880.91   51.79 
   1  -9  -3  166.78   16.70 
   1  -9  -3  226.58   15.10 
   1  -9  -3  193.68   15.50 
   1  -9  -3  221.48   17.80 
  -1   9   3  251.27   19.30 
  -1   9   3  192.68   15.20 
  -1   9   3  249.97   19.80 
   0  -9  -3  405.86   27.60 
   0  -9  -3  333.17   23.20 
   0  -9  -3  359.46   22.80 
   0  -9  -3  323.97   23.00 
   0   9   3  427.66   26.40 
   0   9   3  385.86   26.00 
   0   9   3  299.27   22.50 
  -1  -9  -3   35.80    6.00 
  -1  -9  -3   47.70    6.60 
  -1  -9  -3   56.19    7.00 
   1   9   3   65.99    8.40 
   1   9   3   54.19    9.70 
   1   9   3   39.50    6.10 
  -2  -9  -3  296.57   25.30 
  -2  -9  -3  304.97   20.90 
  -2  -9  -3  300.27   20.20 
  -2  -9  -3  291.47   20.10 
   2   9   3  286.17   21.00 
   2   9   3  330.97   22.20 
   2   9   3  273.17   19.30 
  -3  -9  -3   32.20    6.00 
  -3  -9  -3   26.30    5.50 
   3   9   3   34.10    6.20 
   3   9   3   29.00    5.10 
  -4  -9  -3  161.88   14.90 
  -4  -9  -3  138.09   12.50 
  -4  -9  -3  162.28   13.50 
   4   9   3  148.79   11.90 
   4   9   3  139.59   11.80 
   4   9   3  161.38   13.70 
  -5  -9  -3  112.89   11.90 
  -5  -9  -3  111.99   10.90 
  -5  -9  -3   96.89   13.80 
  -5  -9  -3  124.29   14.50 
   5   9   3  119.69   10.40 
   5   9   3  127.59   12.00 
  -6  -9  -3   31.40    9.90 
  -6  -9  -3   27.70    8.20 
  -6  -9  -3   36.30    7.10 
   6   9   3   32.10    6.40 
  -7  -9  -3   11.80    6.60 
  -7  -9  -3   27.10   10.20 
   7   9   3   23.30    5.70 
   7   9   3   14.10    4.70 
   5 -10  -3   -1.90    4.30 
   5 -10  -3   -0.90    4.70 
  -5  10   3   -1.70   10.30 
   4 -10  -3    3.30    4.10 
   4 -10  -3   -0.80    4.60 
   4 -10  -3    5.50    4.90 
  -4  10   3    6.10    8.20 
  -4  10   3    5.90    9.80 
   3 -10  -3   49.80   10.80 
   3 -10  -3   60.59    8.60 
   3 -10  -3   72.19    8.10 
   3 -10  -3   48.50    8.10 
  -3  10   3   51.39   11.80 
  -3  10   3   78.79   12.70 
   2 -10  -3  114.99   11.50 
   2 -10  -3  112.69   12.10 
   2 -10  -3  117.79   10.10 
   2 -10  -3   72.39   11.40 
  -2  10   3   96.69   14.60 
  -2  10   3  137.29   15.60 
   1 -10  -3  119.09   12.10 
   1 -10  -3  116.09   12.60 
   1 -10  -3  129.99   10.80 
  -1  10   3  115.89   14.60 
  -1  10   3  118.39   14.90 
  -1  10   3  111.39   11.10 
   0 -10  -3  190.98   14.50 
   0 -10  -3  183.28   15.10 
   0 -10  -3  181.38   14.60 
   0  10   3  213.38   18.60 
   0  10   3  213.38   18.50 
   0  10   3  163.18   14.50 
  -1 -10  -3   32.70    6.40 
  -1 -10  -3   37.00    6.50 
  -1 -10  -3   39.50    6.10 
  -1 -10  -3   49.80   10.40 
   1  10   3   48.00   11.80 
   1  10   3   43.30    7.70 
   1  10   3   32.70    6.20 
  -2 -10  -3   28.90    5.90 
  -2 -10  -3   22.20    6.30 
  -2 -10  -3   35.00    6.60 
  -2 -10  -3   32.00    9.10 
   2  10   3   28.40    7.00 
   2  10   3   35.30    6.90 
   2  10   3   18.80    4.70 
  -3 -10  -3  109.49   11.50 
  -3 -10  -3  131.99   15.40 
  -3 -10  -3   84.59   11.40 
  -3 -10  -3  100.79   10.60 
   3  10   3  111.39   11.50 
   3  10   3  128.79   13.10 
   3  10   3   98.59    9.80 
  -4 -10  -3  200.98   15.60 
  -4 -10  -3  171.38   14.20 
  -4 -10  -3  184.28   16.90 
   4  10   3  180.28   15.80 
   4  10   3  160.68   13.60 
  -5 -10  -3   81.99   12.10 
  -5 -10  -3   65.49   10.90 
  -5 -10  -3   75.69    9.50 
   5  10   3   64.09    8.10 
   5  10   3   66.39    9.50 
  -6 -10  -3   -0.70    5.50 
  -6 -10  -3    4.30    8.70 
   6  10   3   -1.30    4.40 
   4 -11  -3    6.70    5.60 
   4 -11  -3    6.60    4.60 
  -4  11   3   10.00   10.60 
   3 -11  -3    3.10    4.70 
   3 -11  -3    1.30    5.30 
   3 -11  -3   -2.20    4.10 
  -3  11   3    1.00    8.50 
  -3  11   3  -10.90    8.40 
   2 -11  -3    3.40    5.40 
   2 -11  -3    5.00    4.50 
   2 -11  -3    3.00    5.10 
  -2  11   3   10.40    9.50 
  -2  11   3    5.30    8.60 
   1 -11  -3    8.60    5.00 
   1 -11  -3    7.30    5.20 
   1 -11  -3   14.50    5.80 
  -1  11   3    6.30    5.00 
  -1  11   3    7.60    8.30 
  -1  11   3    5.40    7.80 
   0 -11  -3  122.79   19.10 
   0 -11  -3  188.68   14.70 
   0 -11  -3  179.88   15.60 
   0 -11  -3  177.68   15.00 
   0  11   3  174.38   18.60 
   0  11   3  183.58   14.50 
   0  11   3  184.38   18.50 
  -1 -11  -3   23.30    6.20 
  -1 -11  -3    9.70    5.30 
  -1 -11  -3   10.50    5.10 
   1  11   3   -3.20    6.40 
   1  11   3    4.00    4.30 
  -2 -11  -3  203.78   16.80 
  -2 -11  -3  193.78   16.50 
  -2 -11  -3  195.18   22.00 
  -2 -11  -3  224.38   17.80 
   2  11   3  204.68   16.10 
   2  11   3  232.28   19.80 
   2  11   3  235.58   18.80 
  -3 -11  -3   78.99   19.70 
  -3 -11  -3   28.40    6.40 
  -3 -11  -3   54.59    8.20 
  -3 -11  -3   38.30    8.70 
   3  11   3   42.70    7.70 
   3  11   3   22.20    5.30 
   3  11   3   37.10    7.90 
  -4 -11  -3  132.79   15.20 
  -4 -11  -3  104.09   15.90 
  -4 -11  -3  113.79   12.90 
   4  11   3  131.39   14.20 
   4  11   3  121.89   12.40 
  -5 -11  -3   19.90    7.80 
  -5 -11  -3    5.30    9.50 
   5  11   3   19.70    6.70 
   3 -12  -3   48.90    9.00 
   3 -12  -3   55.19    7.80 
   3 -12  -3   49.30    8.30 
  -3  12   3   52.99   12.40 
  -3  12   3   32.30   12.20 
   2 -12  -3   20.60    5.90 
   2 -12  -3    7.40    6.20 
   2 -12  -3   16.70    6.00 
  -2  12   3   10.80    9.20 
  -2  12   3   11.70    9.70 
   1 -12  -3   20.60    6.90 
   1 -12  -3   13.70    5.50 
   1 -12  -3   20.10    5.90 
  -1  12   3   10.90    9.10 
  -1  12   3   22.40    9.80 
   0 -12  -3   15.80    6.40 
   0 -12  -3    4.70    4.60 
   0 -12  -3    3.10    5.30 
   0  12   3   11.40    8.40 
   0  12   3   -4.80    7.00 
  -1 -12  -3    3.10    5.50 
  -1 -12  -3   -5.80   11.00 
  -1 -12  -3   -0.50    4.50 
  -1 -12  -3   13.50    6.50 
   1  12   3    2.40    6.60 
   1  12   3    4.80    8.30 
  -2 -12  -3   44.00    7.20 
  -2 -12  -3   29.40    7.30 
  -2 -12  -3   32.20    8.20 
   2  12   3   49.90   10.70 
  -3 -12  -3    2.80    5.70 
  -3 -12  -3   18.50    8.00 
   3  12   3    3.80    6.60 
  -4 -12  -3   37.30   10.10 
   4  12   3   35.90    8.60 
   2 -13  -3   -7.10    4.40 
   2 -13  -3    5.80    6.10 
   2 -13  -3    0.50    5.40 
  -2  13   3   15.50   12.10 
  -2  13   3    8.40   10.80 
   1 -13  -3   42.00    8.50 
   1 -13  -3   14.80    6.70 
  -1  13   3   55.79   16.90 
   0 -13  -3   17.70    8.60 
   0 -13  -3   15.70    7.10 
   0 -13  -3   26.20    7.20 
   0  13   3   36.30   11.00 
  -1 -13  -3   19.20    7.00 
   1  13   3   19.70    9.70 
  -2 -13  -3   33.50    9.10 
  -2 -13  -3   37.50    8.40 
   2  13   3   24.70    9.90 
  -3 -13  -3    3.00    7.80 
  -3 -13  -3    7.20   10.80 
   3  13   3    4.10    7.60 
   2  12  -4    6.70   10.00 
  -2 -12   4   29.50    6.60 
  -2 -12   4   25.00    7.10 
   1  12  -4    4.10   10.10 
  -1 -12   4   -2.20    8.50 
  -1 -12   4    1.60    4.90 
   0  12  -4   -1.20   10.20 
   0 -12   4    7.40    6.10 
   0 -12   4   13.80    6.00 
  -1  12  -4    7.10   11.30 
   1 -12   4    4.40    6.60 
   1 -12   4   16.50    5.90 
   4  11  -4   10.00    6.60 
  -4 -11   4    4.90    5.00 
  -4 -11   4   -4.80    5.90 
   3  11  -4   29.30    9.20 
  -3 -11   4   28.50    7.40 
  -3 -11   4   35.00    6.50 
   2  11  -4   91.19   14.50 
  -2 -11   4  109.59   11.30 
  -2 -11   4   93.39   11.10 
   1  11  -4   -0.70    8.40 
  -1 -11   4   -1.40    4.70 
  -1 -11   4    4.10    5.30 
   0  11  -4   31.10   11.20 
   0 -11   4   25.90    6.00 
   0 -11   4   40.10    6.50 
   0 -11   4   28.20    6.80 
  -1  11  -4    1.10   10.10 
   1 -11   4   14.20    5.00 
   1 -11   4   14.10    5.10 
   1 -11   4   11.40    6.20 
  -2  11  -4  -11.40    9.40 
   2 -11   4   -3.90    4.00 
   2 -11   4   -3.00    4.70 
   2 -11   4    3.40    5.70 
  -3  11  -4   -9.40   10.10 
   3 -11   4    0.00    5.00 
   3 -11   4   -7.80    5.60 
   3 -11   4    1.60    4.20 
   5  10  -4   59.29    7.10 
   5  10  -4   50.69    7.80 
  -5 -10   4   40.60    6.90 
  -5 -10   4   64.89   10.50 
   4  10  -4   27.90   11.60 
   4  10  -4   21.00    6.00 
  -4 -10   4   -2.00    9.60 
  -4 -10   4   26.50    7.50 
   3  10  -4   30.80    7.00 
   3  10  -4   30.30    8.70 
  -3 -10   4   24.50    7.20 
  -3 -10   4   20.60    5.50 
  -3 -10   4   31.10   10.90 
  -3 -10   4   21.20    6.40 
   2  10  -4    9.70    5.10 
   2  10  -4  -10.70    6.20 
  -2 -10   4    2.40    3.80 
  -2 -10   4    2.10    4.40 
  -2 -10   4   12.10    9.00 
  -2 -10   4    5.00    4.60 
   1  10  -4   22.60    9.20 
   1  10  -4   22.00    6.50 
   1  10  -4   22.90    8.20 
  -1 -10   4    4.10    9.90 
  -1 -10   4   23.50    5.80 
  -1 -10   4   33.40    6.10 
  -1 -10   4   26.40    4.70 
   0  10  -4   67.79   10.80 
   0  10  -4   39.10   11.10 
   0  10  -4   49.99   11.10 
   0 -10   4   33.70   11.80 
   0 -10   4   61.29    7.30 
   0 -10   4   40.50    7.00 
   0 -10   4   51.39    7.20 
  -1  10  -4   15.20   10.60 
  -1  10  -4   22.00   10.90 
  -1  10  -4   13.40    6.00 
   1 -10   4   25.40    5.30 
   1 -10   4   23.60    5.70 
   1 -10   4   16.90   10.90 
  -2  10  -4   49.80   14.80 
  -2  10  -4   59.39   15.90 
   2 -10   4   78.39    8.80 
   2 -10   4   78.99   11.50 
   2 -10   4   91.99   11.10 
  -3  10  -4    9.00   11.80 
  -3  10  -4   21.00   13.90 
   3 -10   4   10.70    4.70 
   3 -10   4   10.20    5.50 
   3 -10   4   11.40    6.10 
  -4  10  -4   20.40   14.90 
  -4  10  -4    7.20   12.00 
   4 -10   4    3.40    4.40 
   4 -10   4    1.50    6.10 
   4 -10   4    3.30    6.80 
  -6  -9   4   -3.20    8.90 
  -6  -9   4    0.90    4.00 
  -6  -9   4   21.60    8.70 
   5   9  -4  109.49   10.00 
   5   9  -4   84.89    9.10 
  -5  -9   4  102.99   10.30 
  -5  -9   4   84.79   15.10 
  -5  -9   4   93.09   12.10 
   4   9  -4   -0.60    4.70 
   4   9  -4    4.60    4.30 
  -4  -9   4    7.90    4.10 
  -4  -9   4   -1.30    5.40 
  -4  -9   4   -0.30    8.80 
   3   9  -4  104.69   12.70 
   3   9  -4  108.19   11.30 
  -3  -9   4   81.59   13.50 
  -3  -9   4  119.29   11.40 
  -3  -9   4  100.99    9.20 
  -3  -9   4  109.29    9.90 
   2   9  -4  300.47   20.30 
   2   9  -4  283.47   20.40 
   2   9  -4  240.88   22.60 
  -2  -9   4  302.37   19.30 
  -2  -9   4  301.17   19.80 
  -2  -9   4  278.87   18.90 
   1   9  -4   29.00    9.10 
   1   9  -4   15.50    5.30 
  -1  -9   4   20.10    5.00 
  -1  -9   4   20.60    5.30 
  -1  -9   4   30.00    4.70 
  -1  -9   4   11.20    8.90 
   0   9  -4   18.40    8.70 
   0   9  -4   15.70    9.40 
   0   9  -4   20.30    6.50 
   0  -9   4   28.40    5.80 
   0  -9   4   35.50   10.60 
   0  -9   4   32.20    5.30 
   0  -9   4   32.20    5.80 
  -1   9  -4   10.30    6.00 
  -1   9  -4   16.90   10.00 
  -1   9  -4   18.10   10.50 
   1  -9   4    7.40    5.00 
   1  -9   4   14.20    4.40 
   1  -9   4   24.20    4.70 
  -2   9  -4    0.60   11.30 
  -2   9  -4    0.60    9.90 
  -2   9  -4    3.20    7.00 
   2  -9   4    1.20    4.10 
   2  -9   4    0.80    4.60 
   2  -9   4    4.80    3.50 
  -3   9  -4   -4.90    9.70 
  -3   9  -4   -0.20   12.30 
   3  -9   4   -2.10    4.90 
   3  -9   4    2.20    3.60 
   3  -9   4   -2.60    4.20 
  -4   9  -4   26.60   16.30 
  -4   9  -4   18.00   11.60 
   4  -9   4   16.80    6.60 
   4  -9   4   28.20    5.40 
   4  -9   4   26.60    6.60 
  -5   9  -4    6.30   12.70 
  -5   9  -4   -4.40   15.70 
   5  -9   4   -3.60    4.70 
   5  -9   4   -0.50    4.30 
   6   8  -4   17.20    6.50 
  -6  -8   4    6.60    8.30 
  -6  -8   4   15.90    7.70 
  -6  -8   4   17.10    6.90 
   5   8  -4   87.69    7.90 
   5   8  -4   85.89    8.20 
  -5  -8   4   77.69    8.20 
  -5  -8   4   99.89   11.60 
  -5  -8   4   88.69   12.30 
   4   8  -4   26.40    6.00 
   4   8  -4   27.50    5.10 
  -4  -8   4   12.90    4.10 
  -4  -8   4   13.50    8.90 
  -4  -8   4   22.30    6.60 
   3   8  -4  242.08   19.00 
   3   8  -4  259.07   17.20 
  -3  -8   4  236.98   16.00 
  -3  -8   4  251.47   17.70 
  -3  -8   4  229.88   20.80 
  -3  -8   4  217.68   15.50 
   2   8  -4    3.00    4.10 
   2   8  -4    4.60    4.20 
  -2  -8   4    3.20    4.10 
  -2  -8   4    4.20    2.90 
  -2  -8   4    5.60    7.50 
   1   8  -4   98.09   13.10 
   1   8  -4  134.79   11.50 
   1   8  -4  140.29   15.60 
   1   8  -4  117.49    8.80 
  -1  -8   4  128.69    9.80 
  -1  -8   4  120.79   10.10 
  -1  -8   4  108.69   14.20 
  -1  -8   4  128.69   10.90 
   0   8  -4  231.78   17.90 
   0   8  -4  260.27   21.70 
   0   8  -4  243.28   15.60 
   0   8  -4  252.37   21.70 
   0  -8   4  248.48   16.40 
   0  -8   4  203.68   21.20 
   0  -8   4  241.68   17.30 
   0  -8   4  251.27   16.10 
  -1   8  -4   -0.50    7.80 
  -1   8  -4   11.10    5.20 
  -1   8  -4    4.50    9.60 
   1  -8   4   11.60    3.50 
   1  -8   4    8.30    4.70 
   1  -8   4   10.00    4.00 
   1  -8   4    6.00    8.40 
  -2   8  -4  136.49   16.40 
  -2   8  -4  118.29   12.50 
  -2   8  -4   78.99   16.10 
   2  -8   4  102.49   15.50 
   2  -8   4  107.89    8.90 
   2  -8   4  104.99   10.10 
   2  -8   4  107.59   11.10 
  -3   8  -4   15.60   13.40 
  -3   8  -4   36.60   12.10 
   3  -8   4   27.70    6.60 
   3  -8   4   47.00    6.90 
   3  -8   4   42.40    5.60 
  -4   8  -4   16.40   10.80 
  -4   8  -4   -4.60   13.50 
   4  -8   4   19.60    4.60 
   4  -8   4   22.20    6.50 
   4  -8   4   22.70    5.50 
  -5   8  -4   12.10   12.50 
   5  -8   4   11.30    5.80 
   5  -8   4   11.40    4.50 
   5  -8   4    4.50    5.60 
  -6   8  -4   -1.70   15.90 
   6  -8   4   -6.00    5.00 
   7   7  -4   35.30    7.90 
  -7  -7   4   21.80   10.00 
   6   7  -4   58.19    8.60 
  -6  -7   4   55.59    6.50 
  -6  -7   4   59.69    9.60 
  -6  -7   4   56.69   10.80 
   5   7  -4  288.17   17.10 
   5   7  -4  288.47   17.30 
  -5  -7   4  234.48   21.30 
  -5  -7   4  277.37   17.60 
  -5  -7   4  290.47   21.20 
   4   7  -4   10.30    4.00 
   4   7  -4   15.70    3.90 
  -4  -7   4    9.40    7.70 
  -4  -7   4   12.70    5.50 
  -4  -7   4   15.80    3.70 
   3   7  -4   77.59    9.80 
   3   7  -4   93.29    8.80 
   3   7  -4  100.79    7.60 
  -3  -7   4   93.49    7.40 
  -3  -7   4   95.49   11.50 
  -3  -7   4   94.39    9.60 
  -3  -7   4   90.39    8.20 
   2   7  -4  409.66   25.80 
   2   7  -4  469.85   29.30 
   2   7  -4  424.56   27.10 
   2   7  -4  421.56   27.30 
  -2  -7   4  460.85   27.20 
  -2  -7   4  437.56   26.30 
  -2  -7   4  420.16   29.70 
  -2  -7   4  465.65   26.90 
   1   7  -4  362.56   22.90 
   1   7  -4  323.37   24.30 
   1   7  -4  364.16   25.00 
   1   7  -4  353.96   21.20 
  -1  -7   4  325.37   25.40 
  -1  -7   4  348.47   22.20 
  -1  -7   4  356.26   21.50 
  -1  -7   4  345.37   21.70 
   0   7  -4  284.67   19.40 
   0   7  -4  276.97   24.00 
   0   7  -4  352.26   23.50 
   0   7  -4  318.67   20.90 
   0  -7   4  321.07   19.40 
   0  -7   4  225.78   24.10 
   0  -7   4  328.77   20.40 
  -1   7  -4   60.39    6.30 
  -1   7  -4   77.09   11.00 
  -1   7  -4   61.49   12.70 
  -1   7  -4   61.69    7.60 
   1  -7   4   62.09    7.00 
   1  -7   4   71.89    8.50 
   1  -7   4   45.30   10.00 
   1  -7   4   67.99    6.20 
  -2   7  -4   30.40    9.50 
  -2   7  -4   32.30    6.80 
  -2   7  -4   19.10   11.70 
   2  -7   4   32.30    9.40 
   2  -7   4   40.50    4.70 
   2  -7   4   14.80   12.20 
   2  -7   4   48.20    6.50 
   2  -7   4   38.90    6.20 
  -3   7  -4    0.00    4.70 
  -3   7  -4    3.60    9.20 
  -3   7  -4    1.30   14.30 
   3  -7   4    2.00    4.00 
   3  -7   4    0.20    4.60 
   3  -7   4    2.20    2.90 
   3  -7   4    2.30    6.30 
  -4   7  -4    8.20    9.50 
  -4   7  -4   14.20   13.70 
   4  -7   4    3.10    3.40 
   4  -7   4   -1.20    4.20 
   4  -7   4   10.60    7.50 
   4  -7   4    0.60    4.70 
  -5   7  -4  -10.00   13.20 
  -5   7  -4    9.50   11.40 
   5  -7   4   11.20    4.40 
   5  -7   4   15.10    5.60 
   5  -7   4    9.40    6.30 
  -6   7  -4   -1.10   15.60 
  -6   7  -4  -17.20   10.90 
   6  -7   4    7.10    5.80 
   6  -7   4    1.70    4.60 
   7   6  -4   28.70    7.10 
  -7  -6   4   38.70   10.90 
   6   6  -4  168.68   15.70 
  -6  -6   4  172.78   11.20 
  -5  -6   4  197.48   16.10 
  -5  -6   4  219.38   16.90 
  -5  -6   4  184.58   12.50 
   4   6  -4    2.20    2.50 
   4   6  -4   -1.70    2.70 
  -4  -6   4    9.70    5.00 
  -4  -6   4    0.10    2.60 
  -4  -6   4    5.20    6.10 
   3   6  -4   57.49    7.20 
   3   6  -4   44.10    5.10 
   3   6  -4   47.00    5.80 
  -3  -6   4   50.99    6.60 
  -3  -6   4   49.99    8.60 
  -3  -6   4   54.49    5.90 
  -3  -6   4   51.19    4.80 
   2   6  -4  316.47   20.40 
   2   6  -4  321.17   19.60 
   2   6  -4  313.77   20.80 
   2   6  -4  342.47   22.50 
  -2  -6   4  329.07   20.50 
  -2  -6   4  311.17   23.30 
  -2  -6   4  345.17   20.00 
  -2  -6   4  349.37   20.80 
   1   6  -4  466.25   27.00 
   1   6  -4  454.85   28.60 
   1   6  -4  500.75   30.20 
   1   6  -4  460.45   30.20 
  -1  -6   4  495.55   27.80 
  -1  -6   4  385.16   31.40 
  -1  -6   4  463.15   27.70 
  -1  -6   4  481.85   28.40 
   0   6  -4  302.97   20.40 
   0   6  -4  291.17   23.70 
   0   6  -4  355.16   22.50 
   0   6  -4  298.07   18.50 
   0  -6   4  299.67   18.80 
   0  -6   4  295.47   22.70 
   0  -6   4  321.57   19.40 
   0  -6   4  315.97   20.10 
  -1   6  -4   61.59    7.60 
  -1   6  -4   52.09    5.40 
  -1   6  -4   49.40   10.80 
  -1   6  -4   73.39    9.90 
   1  -6   4   68.29    9.00 
   1  -6   4   57.09    5.30 
   1  -6   4   59.99    6.40 
   1  -6   4   52.79    9.50 
   1  -6   4   57.39    7.00 
  -2   6  -4  429.16   34.10 
  -2   6  -4  423.96   27.90 
  -2   6  -4  544.45   38.10 
  -2   6  -4  481.05   29.80 
  -2   6  -4  469.55   30.00 
   2  -6   4  479.45   28.70 
   2  -6   4  410.16   30.50 
   2  -6   4  435.26   32.00 
   2  -6   4  500.75   27.60 
   2  -6   4  495.85   29.30 
  -3   6  -4   29.20   12.50 
  -3   6  -4   78.49   10.90 
  -3   6  -4   67.89   11.20 
  -3   6  -4   70.39    8.90 
   3  -6   4   64.19    7.80 
   3  -6   4   74.89    8.90 
   3  -6   4   43.30    8.80 
   3  -6   4   64.89    6.20 
  -4   6  -4   70.39    9.90 
  -4   6  -4   74.09   15.00 
  -4   6  -4   76.89   12.30 
   4  -6   4   72.69    9.10 
   4  -6   4   85.59   11.80 
   4  -6   4  103.39    7.90 
   4  -6   4   93.09    9.70 
  -5   6  -4   10.20   13.40 
  -5   6  -4   25.50    7.30 
  -5   6  -4   15.20   10.30 
   5  -6   4   17.20    5.30 
   5  -6   4   17.00    4.60 
   5  -6   4   18.50    5.70 
   5  -6   4    8.30    7.40 
  -6   6  -4   23.40   11.30 
  -6   6  -4    3.60   15.00 
   6  -6   4   12.70    5.00 
   6  -6   4    9.00    5.80 
  -7   6  -4  -19.90   15.70 
   7  -6   4   -0.50    8.80 
   7  -6   4    1.30    5.00 
   7   5  -4    0.00    5.20 
   6   5  -4  318.57   22.50 
  -6  -5   4  352.56   25.20 
   5   5  -4   22.40    5.10 
  -5  -5   4   40.90    7.70 
   4   5  -4  248.98   15.00 
   4   5  -4  252.77   14.60 
   4   5  -4  198.28   15.40 
  -4  -5   4  252.57   17.60 
  -4  -5   4  241.48   17.30 
  -4  -5   4  248.68   14.90 
   3   5  -4  690.43   42.20 
   3   5  -4  738.23   42.40 
   3   5  -4  739.33   43.10 
  -3  -5   4  701.03   41.70 
  -3  -5   4  724.13   42.20 
  -3  -5   4  788.32   44.20 
  -3  -5   4  756.02   43.40 
   2   5  -4  210.48   13.40 
   2   5  -4  220.58   14.30 
   2   5  -4  218.58   13.80 
   2   5  -4  230.68   15.60 
  -2  -5   4  208.18   16.90 
  -2  -5   4  222.38   14.20 
  -2  -5   4  221.28   13.50 
  -2  -5   4  220.68   14.40 
   1   5  -4  822.22   47.90 
   1   5  -4  898.71   48.90 
   1   5  -4  803.72   46.60 
   1   5  -4  777.72   49.00 
   1   5  -4  808.52   48.10 
  -1  -5   4  721.03   48.10 
  -1  -5   4  847.02   47.20 
  -1  -5   4  843.82   47.80 
  -1  -5   4  861.01   47.20 
   0   5  -4    6.30    6.10 
   0   5  -4    4.00    1.60 
   0   5  -4    2.30    4.90 
   0   5  -4    1.60    2.90 
   0   5  -4   -1.60    2.20 
   0  -5   4    1.10    2.70 
   0  -5   4    1.80    5.20 
   0  -5   4    3.50    1.90 
   0  -5   4    2.90    2.10 
   0  -5   4    2.10    3.70 
  -1   5  -4  545.55   36.20 
  -1   5  -4  509.85   33.80 
  -1   5  -4  529.75   32.80 
  -1   5  -4  511.85   31.10 
   1  -5   4  514.15   33.70 
   1  -5   4  577.84   32.50 
   1  -5   4  549.65   30.90 
   1  -5   4  505.55   34.40 
   1  -5   4  555.34   32.00 
  -2   5  -4  309.47   23.70 
  -2   5  -4  405.56   24.80 
  -2   5  -4  307.97   22.40 
  -2   5  -4  334.67   21.20 
  -2   5  -4  350.76   28.00 
   2  -5   4  343.67   22.40 
   2  -5   4  348.27   20.60 
   2  -5   4  403.36   25.50 
   2  -5   4  334.07   24.80 
   2  -5   4  356.66   22.00 
  -3   5  -4   98.69   10.80 
  -3   5  -4  105.99    8.60 
  -3   5  -4  108.99   10.20 
  -3   5  -4  147.59   14.20 
  -3   5  -4  102.29   14.70 
   3  -5   4  104.29    9.50 
   3  -5   4   83.49   10.90 
   3  -5   4   73.29   11.60 
   3  -5   4   99.59    9.90 
   3  -5   4  125.09    8.20 
  -4   5  -4  504.85   37.40 
  -4   5  -4  433.76   32.10 
  -4   5  -4  514.65   34.40 
   4  -5   4  455.45   33.00 
   4  -5   4  493.55   31.30 
   4  -5   4  535.85   30.00 
   4  -5   4  541.95   31.40 
  -5   5  -4   -5.70    4.80 
  -5   5  -4   20.40   11.80 
  -5   5  -4    4.40    8.60 
   5  -5   4    5.10    4.40 
   5  -5   4    3.90    4.50 
   5  -5   4    2.70    3.60 
   5  -5   4    1.20    6.70 
  -6   5  -4   15.30   14.10 
  -6   5  -4   13.80    6.30 
  -6   5  -4    4.50    9.60 
   6  -5   4   11.50    4.70 
   6  -5   4    9.90    5.10 
   6  -5   4    8.70    4.70 
   6  -5   4   11.20    8.20 
  -7   5  -4  -13.20   14.20 
   7  -5   4   -1.40    4.90 
   7  -5   4    4.40    5.50 
   8   4  -4   18.40    7.30 
   7   4  -4    6.70    5.30 
   6   4  -4   87.79    9.80 
  -6  -4   4   95.89   12.30 
   5   4  -4  148.79   12.00 
  -5  -4   4  157.68   14.30 
   4   4  -4  309.37   19.30 
   4   4  -4  266.57   18.80 
  -4  -4   4  297.27   20.30 
  -4  -4   4  315.47   17.90 
  -4  -4   4  315.67   19.40 
   3   4  -4  313.97   18.30 
   3   4  -4  316.87   19.00 
   3   4  -4  291.67   18.50 
  -3  -4   4  300.57   19.50 
  -3  -4   4  318.37   20.10 
  -3  -4   4  299.27   17.70 
  -3  -4   4  299.37   18.30 
   2   4  -4   -2.00    3.20 
   2   4  -4    2.00    2.00 
   2   4  -4    5.10    1.80 
  -2  -4   4    2.40    2.50 
  -2  -4   4    4.80    2.50 
  -2  -4   4    2.20    4.00 
  -2  -4   4    2.70    2.20 
  -2  -4   4    0.70    1.30 
   1   4  -4  621.54   35.80 
   1   4  -4  693.23   38.30 
   1   4  -4  638.24   36.80 
   1   4  -4  624.94   37.00 
   1   4  -4  597.84   38.10 
  -1  -4   4  627.34   37.10 
  -1  -4   4  651.13   36.30 
  -1  -4   4  636.64   36.50 
  -1  -4   4  593.94   37.30 
   0   4  -4    1.30    1.20 
   0   4  -4    1.70    5.20 
   0   4  -4   -0.10    3.40 
   0   4  -4    1.20    2.80 
   0   4  -4   -0.20    2.10 
   0  -4   4   -2.10    2.80 
   0  -4   4    5.40    1.70 
   0  -4   4    4.90    4.40 
   0  -4   4    2.40    1.50 
   0  -4   4    0.40    2.50 
  -1   4  -4  188.38   13.60 
  -1   4  -4  197.48   13.50 
  -1   4  -4  186.88   12.10 
  -1   4  -4  217.08   14.80 
  -1   4  -4  189.48   17.20 
   1  -4   4  175.88   15.50 
   1  -4   4  199.28   11.80 
   1  -4   4  187.58   14.30 
   1  -4   4  203.08   13.60 
   1  -4   4  202.58   13.10 
  -2   4  -4   92.59    9.90 
  -2   4  -4   60.49    7.20 
  -2   4  -4   70.89    8.00 
  -2   4  -4   77.89   11.30 
  -2   4  -4   74.49    5.90 
   2  -4   4   64.59    7.00 
   2  -4   4   67.29    9.30 
   2  -4   4   68.29    7.60 
   2  -4   4   77.99    5.60 
   2  -4   4   73.19    8.70 
  -3   4  -4  183.58   14.50 
  -3   4  -4  148.09   18.00 
  -3   4  -4  165.88   12.90 
  -3   4  -4  138.39   10.90 
  -3   4  -4  161.98   14.30 
   3  -4   4  165.58   10.60 
   3  -4   4  119.59   13.30 
   3  -4   4  163.58   12.30 
   3  -4   4  157.88   12.00 
  -4   4  -4  421.16   31.50 
  -4   4  -4  363.16   26.40 
  -4   4  -4  431.06   28.20 
   4  -4   4  409.56   25.70 
   4  -4   4  414.86   24.60 
   4  -4   4  376.56   27.60 
   4  -4   4  402.16   25.70 
  -5   4  -4   16.90    8.70 
  -5   4  -4   12.40    5.90 
  -5   4  -4   27.90   11.70 
   5  -4   4   16.60    4.70 
   5  -4   4   16.00    5.00 
   5  -4   4   31.40    6.30 
   5  -4   4   38.50   10.70 
  -6   4  -4   28.20    9.60 
  -6   4  -4   22.90    6.90 
  -6   4  -4    8.20   11.60 
   6  -4   4   29.90    8.10 
   6  -4   4   24.60    5.30 
   6  -4   4   26.90    5.90 
   6  -4   4   26.00    6.20 
  -7   4  -4   20.40   14.50 
   7  -4   4   30.20    6.90 
   7  -4   4   42.40    7.70 
   8   3  -4   33.50    7.60 
   7   3  -4   23.00    6.20 
   6   3  -4  512.85   32.10 
   5   3  -4   30.40    5.20 
  -5  -3   4   27.80    7.00 
  -4  -3   4  870.11   52.59 
   3   3  -4  225.28   13.20 
   3   3  -4  225.18   13.70 
   3   3  -4  226.08   14.00 
   3   3  -4  201.58   13.80 
  -3  -3   4  223.58   14.40 
  -3  -3   4  224.88   13.40 
  -3  -3   4  217.48   14.80 
   2   3  -4 1473.55   84.09 
   2   3  -4 1559.74   84.39 
  -2  -3   4 1478.65   84.59 
  -2  -3   4 1554.54   83.99 
  -2  -3   4 1345.17   84.79 
  -2  -3   4 1546.25   85.09 
   1   3  -4  732.73   42.10 
   1   3  -4  731.63   42.80 
   1   3  -4  802.32   43.60 
   1   3  -4  747.63   44.10 
   1   3  -4  715.33   43.00 
  -1  -3   4  790.82   43.20 
  -1  -3   4  749.03   42.80 
  -1  -3   4  747.73   43.90 
  -1  -3   4  711.13   43.30 
  -1  -3   4  740.63   42.40 
   0   3  -4  308.37   20.00 
   0   3  -4  273.87   16.30 
   0   3  -4  293.57   17.70 
   0   3  -4  306.57   18.40 
   0   3  -4  268.77   17.60 
   0  -3   4  302.07   17.90 
   0  -3   4  278.47   16.40 
   0  -3   4  261.87   18.10 
   0  -3   4  274.37   18.90 
  -1   3  -4  644.44   38.00 
  -1   3  -4  685.33   41.00 
  -1   3  -4  664.53   39.30 
  -1   3  -4  663.03   39.20 
  -1   3  -4  702.13   39.90 
   1  -3   4  688.83   39.00 
   1  -3   4  659.73   37.80 
   1  -3   4  634.94   39.70 
   1  -3   4  715.43   39.40 
   1  -3   4  605.84   40.10 
  -2   3  -4  636.84   38.70 
  -2   3  -4  735.23   42.00 
  -2   3  -4  725.33   40.80 
  -2   3  -4  628.24   39.90 
  -2   3  -4  653.93   39.70 
   2  -3   4  699.33   38.50 
   2  -3   4  655.93   39.80 
   2  -3   4  685.13   39.60 
   2  -3   4  636.74   40.40 
  -3   3  -4  132.79   12.40 
  -3   3  -4  124.99   10.10 
  -3   3  -4  111.09    9.40 
  -3   3  -4  128.99   14.20 
  -3   3  -4  116.49   10.60 
   3  -3   4  117.99   11.80 
   3  -3   4  132.19    8.90 
   3  -3   4  127.19   10.40 
   3  -3   4  133.09   10.10 
   3  -3   4  111.39   11.60 
  -4   3  -4    6.10    4.00 
  -4   3  -4   -2.00    5.70 
  -4   3  -4    5.70    7.70 
   4  -3   4    1.70    3.60 
   4  -3   4    4.10    3.80 
   4  -3   4    3.00    3.10 
   4  -3   4    5.60    5.70 
  -5   3  -4    7.30    6.70 
  -5   3  -4   13.50    5.10 
  -5   3  -4   10.40    9.60 
   5  -3   4   15.00    4.30 
   5  -3   4   18.10    6.70 
   5  -3   4   11.90    4.40 
   5  -3   4    8.90    4.10 
  -6   3  -4   -1.70   10.60 
  -6   3  -4   14.40    6.00 
  -6   3  -4   11.70    9.50 
   6  -3   4   20.00    6.90 
   6  -3   4    8.20    5.10 
   6  -3   4   15.30    4.60 
   6  -3   4   10.90    4.90 
  -7   3  -4  -13.00   11.90 
  -7   3  -4    3.70    8.70 
   7  -3   4    4.50    5.20 
   7  -3   4    6.00    5.60 
  -8   3  -4    1.70   13.70 
   8  -3   4    5.70    6.50 
   8  -3   4   11.70    5.70 
   8   2  -4   37.50    8.10 
   7   2  -4   59.69    8.50 
   6   2  -4   90.59    9.50 
   5   2  -4    6.50    3.70 
   4   2  -4  337.57   22.40 
   4   2  -4  380.06   22.10 
   3   2  -4  126.29    9.60 
   3   2  -4  148.29    9.50 
   3   2  -4  143.69    8.50 
  -3  -2   4  145.09   10.50 
   2   2  -4  475.95   27.00 
   2   2  -4  503.75   27.40 
   2   2  -4  463.85   26.90 
   2   2  -4  430.36   27.30 
  -2  -2   4  490.25   27.70 
  -2  -2   4  474.85   26.80 
  -2  -2   4  455.25   27.30 
  -2  -2   4  445.36   26.90 
  -2  -2   4  470.75   27.00 
   1   2  -4   24.90    2.80 
   1   2  -4   22.50    2.80 
   1   2  -4   26.80    3.60 
   1   2  -4   23.20    1.90 
   1   2  -4   26.20    4.40 
  -1  -2   4   23.00    3.10 
  -1  -2   4   24.20    2.80 
  -1  -2   4   21.60    2.30 
  -1  -2   4   29.00    4.10 
  -1  -2   4   27.20    3.20 
   0   2  -4  217.88   13.30 
   0   2  -4  207.18   14.00 
   0   2  -4  193.08   12.50 
   0   2  -4  188.88   11.30 
   0   2  -4  197.78   12.50 
   0  -2   4  218.38   13.80 
   0  -2   4  187.98   11.30 
   0  -2   4  177.68   12.80 
   0  -2   4  206.58   12.80 
  -1   2  -4 2783.32  147.59 
  -1   2  -4 2685.53  147.89 
  -1   2  -4 2523.95  145.89 
  -1   2  -4 2622.14  147.09 
  -1   2  -4 2597.54  146.99 
   1  -2   4 2718.43  147.19 
   1  -2   4 2386.66  146.29 
   1  -2   4 2641.54  145.79 
   1  -2   4 2631.74  146.99 
   1  -2   4 2477.05  147.29 
  -2   2  -4 1305.27   76.69 
  -2   2  -4 1378.96   77.79 
  -2   2  -4 1469.05   77.39 
  -2   2  -4 1271.67   75.69 
   2  -2   4 1414.16   75.69 
   2  -2   4 1261.07   76.29 
   2  -2   4 1341.47   76.69 
   2  -2   4 1319.17   77.19 
   2  -2   4 1347.47   76.69 
   2  -2   4 1273.37   77.39 
  -3   2  -4  907.21   51.49 
  -3   2  -4  816.32   49.80 
  -3   2  -4  904.41   50.59 
  -3   2  -4  802.52   48.90 
  -3   2  -4  815.82   49.60 
   3  -2   4  806.92   49.80 
   3  -2   4  825.12   50.39 
   3  -2   4  760.22   51.59 
   3  -2   4  893.31   48.90 
   3  -2   4  921.31   49.90 
   3  -2   4  874.61   49.80 
  -4   2  -4  208.18   18.60 
  -4   2  -4  190.98   17.10 
  -4   2  -4  214.88   15.80 
   4  -2   4  177.28   16.70 
   4  -2   4  205.68   16.10 
   4  -2   4  232.48   15.20 
   4  -2   4  243.18   15.60 
   4  -2   4  226.98   14.50 
  -5   2  -4    0.00    7.30 
  -5   2  -4   13.10    6.30 
  -5   2  -4    2.30    4.00 
   5  -2   4    5.90    3.90 
   5  -2   4   -0.40    3.40 
   5  -2   4   -2.10    4.90 
   5  -2   4   -5.40    3.20 
  -6   2  -4   72.59   17.00 
  -6   2  -4  117.29   12.50 
  -6   2  -4   76.29    9.60 
   6  -2   4   87.09    9.90 
   6  -2   4   71.89   10.40 
   6  -2   4   86.49    9.70 
   6  -2   4   75.79    8.60 
  -7   2  -4   -3.70    7.90 
  -7   2  -4   15.80    5.90 
  -7   2  -4   20.40   12.10 
   7  -2   4   10.80    6.50 
   7  -2   4    8.10    5.10 
   7  -2   4   21.20    5.90 
   7  -2   4   17.90    6.30 
  -8   2  -4    3.20   12.80 
   8  -2   4   11.10    5.80 
   8  -2   4    7.80    6.60 
   8   1  -4   35.20    7.60 
  -8  -1   4   34.30    8.00 
   7   1  -4   56.39    8.30 
   6   1  -4  309.97   20.80 
   5   1  -4  105.49    9.00 
   4   1  -4  892.61   54.69 
   4   1  -4  977.50   54.09 
   3   1  -4  595.84   32.10 
   3   1  -4  579.34   32.70 
   3   1  -4  546.35   32.10 
   3   1  -4  529.25   33.10 
   2   1  -4 4756.42  254.37 
   2   1  -4 4529.75  254.17 
   2   1  -4 4656.63  254.27 
  -2  -1   4 4390.46  254.07 
  -2  -1   4 4455.65  254.37 
  -2  -1   4 4392.76  254.07 
  -2  -1   4 4642.94  254.27 
   1   1  -4  519.75   28.60 
   1   1  -4  534.05   28.80 
   1   1  -4  473.65   27.60 
   1   1  -4  495.25   27.50 
   1   1  -4  468.65   28.30 
   1   1  -4  475.85   28.20 
  -1  -1   4  478.95   28.60 
  -1  -1   4  521.05   28.40 
  -1  -1   4  458.05   28.20 
  -1  -1   4  473.05   28.30 
   0   1  -4  542.15   30.60 
   0   1  -4  530.75   30.80 
   0   1  -4  516.75   30.50 
   0   1  -4  533.85   31.20 
   0  -1   4  520.85   30.70 
   0  -1   4  502.95   30.90 
   0  -1   4  526.25   30.70 
  -1   1  -4  291.27   19.00 
  -1   1  -4  332.37   19.30 
  -1   1  -4  308.97   19.50 
  -1   1  -4  312.17   19.90 
   1  -1   4  325.47   18.10 
   1  -1   4  325.67   19.20 
   1  -1   4  286.17   18.30 
   1  -1   4  333.07   19.40 
   1  -1   4  314.67   19.70 
  -2   1  -4  107.39    8.70 
  -2   1  -4   99.89    7.90 
  -2   1  -4  107.79    9.40 
  -2   1  -4  102.29    7.70 
   2  -1   4   83.19    7.30 
   2  -1   4  104.59    8.60 
   2  -1   4  111.49    8.10 
   2  -1   4   96.39    8.50 
   2  -1   4  113.79    7.10 
   2  -1   4   94.29    8.00 
  -3   1  -4  675.03   40.70 
  -3   1  -4  590.14   35.60 
  -3   1  -4  599.94   36.60 
   3  -1   4  636.64   35.70 
   3  -1   4  554.34   35.90 
   3  -1   4  623.54   35.60 
   3  -1   4  532.55   35.40 
   3  -1   4  555.24   35.90 
   3  -1   4  617.34   34.90 
  -4   1  -4  150.78   11.00 
  -4   1  -4  144.99   11.70 
  -4   1  -4  151.68   14.00 
  -4   1  -4  157.98   13.00 
   4  -1   4  158.38   11.80 
   4  -1   4  127.09   11.80 
   4  -1   4  164.68   12.70 
   4  -1   4  144.39   11.40 
   4  -1   4  154.68   11.10 
  -5   1  -4   77.69    8.40 
  -5   1  -4   69.69   10.50 
   5  -1   4   74.29    8.50 
   5  -1   4   55.59    8.40 
   5  -1   4   79.19    8.40 
   5  -1   4   67.69    7.70 
  -6   1  -4   17.70    5.20 
  -6   1  -4   15.80   11.60 
  -6   1  -4   11.90    7.00 
   6  -1   4    4.60    5.20 
   6  -1   4    8.90    4.10 
  -7   1  -4   20.30   11.10 
  -7   1  -4   -7.20    6.90 
   7  -1   4    7.30    5.30 
   7  -1   4   10.90    6.10 
   7  -1   4   23.60    7.20 
   7  -1   4   13.10    5.50 
   8  -1   4    0.30   10.80 
   8  -1   4   -0.60    4.70 
   8   0  -4   -3.60    5.20 
  -8   0   4   10.60    4.40 
  -8   0   4   -0.40    7.40 
   7   0  -4  107.79   11.50 
  -7   0   4  114.99    9.50 
  -7   0   4  114.79   13.70 
   6   0  -4    2.70    4.10 
  -6   0   4    0.10    5.30 
  -6   0   4    4.20    2.80 
   5   0  -4   18.00    2.20 
   5   0  -4   11.40    2.90 
   5   0  -4   12.80    4.10 
  -5   0   4    9.30    4.50 
  -5   0   4   14.50    2.50 
   4   0  -4 1609.94  104.79 
   4   0  -4 1887.31  102.19 
   4   0  -4 1850.31  102.29 
  -4   0   4 1847.92  102.79 
  -4   0   4 1874.91  102.19 
   3   0  -4  193.88   12.60 
   3   0  -4  197.38   13.70 
   3   0  -4  220.68   12.90 
   3   0  -4  218.98   12.40 
  -3   0   4  205.28   12.70 
  -3   0   4  200.68   12.90 
  -3   0   4  201.88   11.90 
  -3   0   4  206.98   12.10 
  -3   0   4  205.88   12.30 
   2   0  -4 2062.49  115.29 
   2   0  -4 2103.89  114.69 
   2   0  -4 2080.49  114.79 
   2   0  -4 2080.99  114.99 
  -2   0   4 2039.90  114.59 
  -2   0   4 2007.70  114.79 
  -2   0   4 1969.30  114.69 
  -2   0   4 1972.90  114.79 
  -2   0   4 2075.19  114.89 
   1   0  -4  412.46   24.60 
   1   0  -4  424.56   23.80 
   1   0  -4  420.06   24.60 
   1   0  -4  439.56   24.70 
  -1   0   4  408.56   24.50 
  -1   0   4  418.06   24.60 
  -1   0   4  437.86   24.60 
  -1   0   4  431.26   24.00 
  -1   0   4  407.46   24.60 
   0   0  -4  819.72   47.00 
   0   0  -4  812.22   46.70 
   0   0  -4  833.92   46.80 
   0   0  -4  836.12   46.70 
   0   0  -4  817.12   45.70 
   0   0   4  817.62   45.60 
   0   0   4  824.32   46.90 
   0   0   4  814.62   46.70 
   0   0   4  728.03   46.50 
   0   0   4  849.61   46.80 
  -1   0  -4  566.94   32.70 
  -1   0  -4  553.54   31.70 
  -1   0  -4  552.24   32.40 
  -1   0  -4  567.84   32.40 
  -1   0  -4  532.15   32.20 
   1   0   4  510.75   32.40 
   1   0   4  596.04   32.50 
   1   0   4  542.95   31.60 
  -2   0  -4  121.19    8.80 
  -2   0  -4  115.09    8.60 
  -2   0  -4  121.49    8.70 
  -2   0  -4  128.39    9.50 
  -2   0  -4  124.09    9.20 
   2   0   4  134.99    9.30 
   2   0   4  125.49    9.20 
   2   0   4  119.49    8.10 
   2   0   4  115.39    8.40 
   2   0   4  125.69    9.00 
   2   0   4  118.99    8.90 
  -3   0  -4  256.67   17.00 
  -3   0  -4  253.07   17.20 
  -3   0  -4  273.97   17.70 
  -3   0  -4  276.97   18.10 
  -3   0  -4  272.77   17.80 
   3   0   4  267.67   17.50 
   3   0   4  255.47   17.30 
   3   0   4  284.67   17.00 
   3   0   4  268.87   17.60 
   3   0   4  265.37   17.30 
   3   0   4  292.47   17.50 
  -4   0  -4   14.30    5.00 
  -4   0  -4    5.70    2.30 
  -4   0  -4   11.90    4.70 
  -4   0  -4   15.50    4.40 
  -4   0  -4   11.40    3.50 
   4   0   4    8.50    3.80 
   4   0   4   11.10    3.60 
   4   0   4   16.90    4.40 
   4   0   4   13.10    3.80 
   4   0   4   10.90    3.50 
  -5   0  -4   42.20    7.10 
  -5   0  -4   41.90    8.50 
  -5   0  -4   35.70    5.60 
   5   0   4   40.90    6.00 
   5   0   4   43.00    5.60 
   5   0   4   43.80    6.90 
   5   0   4   36.60    5.70 
  -6   0  -4  151.98   14.10 
  -6   0  -4  135.99   15.40 
   6   0   4  130.19   12.00 
   6   0   4  159.48   15.10 
   6   0   4  117.69   10.20 
   6   0   4  122.69   12.50 
  -7   0  -4   16.70    6.00 
  -7   0  -4   24.40   10.40 
  -7   0  -4   18.30    7.20 
   7   0   4   23.90    6.70 
   7   0   4   20.90    5.80 
   7   0   4   13.10    3.40 
   7   0   4   20.00    6.40 
  -8   0  -4    2.70   16.70 
   8   0   4   -7.20    7.20 
   8  -1  -4    6.50    5.90 
  -8   1   4   -5.70    4.70 
   7  -1  -4  135.39    9.50 
   7  -1  -4  136.19   12.50 
   7  -1  -4  114.89   10.30 
  -7   1   4  149.79   11.30 
  -7   1   4  152.88   15.70 
   6  -1  -4    4.20    3.80 
   6  -1  -4    3.60    3.90 
   6  -1  -4    5.20    2.50 
  -6   1   4    6.50    3.10 
   5  -1  -4    4.60    3.60 
   5  -1  -4    9.90    2.50 
   5  -1  -4   13.30    3.90 
  -5   1   4    7.70    2.60 
  -5   1   4    9.70    2.10 
  -5   1   4    3.10    5.10 
   4  -1  -4  784.52   43.90 
   4  -1  -4  762.22   44.30 
   4  -1  -4  734.83   46.00 
   4  -1  -4  774.42   44.50 
  -4   1   4  754.52   44.90 
  -4   1   4  741.93   44.70 
  -4   1   4  800.42   43.80 
  -4   1   4  745.03   43.90 
  -4   1   4  788.92   43.90 
   3  -1  -4  241.08   15.30 
   3  -1  -4  250.67   16.60 
   3  -1  -4  250.27   15.40 
   3  -1  -4  255.47   15.10 
  -3   1   4  250.47   15.00 
  -3   1   4  236.88   14.80 
  -3   1   4  247.08   15.90 
  -3   1   4  248.58   15.40 
   2  -1  -4 1444.66   83.69 
   2  -1  -4 1455.75   83.59 
   2  -1  -4 1483.35   83.39 
   2  -1  -4 1529.85   83.19 
  -2   1   4 1497.85   83.49 
  -2   1   4 1503.75   83.19 
  -2   1   4 1462.25   83.69 
  -2   1   4 1461.95   83.39 
  -2   1   4 1459.85   83.39 
   1  -1  -4  311.87   18.00 
   1  -1  -4  321.47   18.90 
   1  -1  -4  305.77   18.80 
   1  -1  -4  307.17   18.90 
   1  -1  -4  324.27   18.70 
  -1   1   4  323.37   18.80 
  -1   1   4  318.77   18.90 
  -1   1   4  313.37   18.20 
  -1   1   4  316.17   18.60 
   0  -1  -4 2929.61  167.78 
   0  -1  -4 3001.90  167.68 
   0  -1  -4 2925.81  167.78 
   0  -1  -4 3078.69  166.98 
   0  -1  -4 3009.90  167.78 
   0   1   4 2919.31  167.58 
   0   1   4 3151.08  167.88 
   0   1   4 2798.62  167.58 
   0   1   4 2929.41  166.78 
   0   1   4 3112.39  167.78 
  -1  -1  -4 1776.52  100.09 
  -1  -1  -4 1698.63   99.29 
  -1  -1  -4 1747.43   99.39 
  -1  -1  -4 1737.43   99.49 
  -1  -1  -4 1738.63   98.79 
   1   1   4 1722.13  100.09 
   1   1   4 1820.32   99.39 
   1   1   4 1753.62   99.29 
   1   1   4 1803.52   99.39 
  -2  -1  -4 1814.02  105.09 
  -2  -1  -4 1861.91  105.39 
  -2  -1  -4 1842.52  104.99 
  -2  -1  -4 1780.42  105.09 
  -2  -1  -4 1882.11  105.29 
   2   1   4 1910.61  105.29 
   2   1   4 1811.02  105.09 
   2   1   4 1977.10  105.39 
   2   1   4 1803.92  104.89 
   2   1   4 1880.01  105.29 
  -3  -1  -4 2413.16  135.19 
  -3  -1  -4 2305.67  134.89 
  -3  -1  -4 2290.67  134.89 
  -3  -1  -4 2481.55  135.39 
  -3  -1  -4 2354.66  135.19 
   3   1   4 2431.86  134.79 
   3   1   4 2488.25  135.29 
   3   1   4 2267.47  134.99 
   3   1   4 2338.67  134.89 
   3   1   4 2441.16  135.19 
   3   1   4 2435.56  135.09 
  -4  -1  -4  218.98   15.80 
  -4  -1  -4  199.68   14.30 
  -4  -1  -4  232.68   15.80 
  -4  -1  -4  207.48   14.60 
   4   1   4  222.68   15.00 
   4   1   4  230.78   15.30 
   4   1   4  226.98   14.80 
   4   1   4  201.48   15.00 
   4   1   4  224.68   14.70 
  -5  -1  -4  389.36   24.90 
  -5  -1  -4  355.36   24.20 
  -5  -1  -4  372.26   25.40 
   5   1   4  361.66   24.00 
   5   1   4  377.66   23.90 
   5   1   4  371.96   24.00 
  -6  -1  -4  134.89   11.20 
  -6  -1  -4  113.99   14.10 
   6   1   4  110.89    9.70 
   6   1   4  128.29   11.80 
   6   1   4  150.88   13.30 
   6   1   4  126.89   12.30 
  -7  -1  -4   -7.80    7.70 
  -7  -1  -4  -15.50    5.80 
  -7  -1  -4    2.70    4.20 
   7   1   4   -0.30    4.40 
   7   1   4    1.30    4.60 
   7   1   4   -5.20    5.30 
  -8  -1  -4   28.70   13.10 
   8   1   4   20.10    6.30 
   8   1   4   24.00    9.90 
   8  -2  -4   23.20    7.30 
   8  -2  -4   13.60    6.40 
  -8   2   4   31.90    6.70 
  -8   2   4    7.80    8.90 
   7  -2  -4   31.80    4.80 
   7  -2  -4   25.40    6.10 
   7  -2  -4   35.00    6.60 
  -7   2   4   24.80    5.50 
  -7   2   4   29.80    9.60 
   6  -2  -4   10.50    9.50 
   6  -2  -4   10.70    4.30 
   6  -2  -4    6.90    3.00 
  -6   2   4    4.50    3.50 
  -6   2   4    8.90    2.90 
  -6   2   4   11.90    7.30 
   5  -2  -4  815.32   46.50 
   5  -2  -4  695.63   46.40 
   5  -2  -4  818.22   45.90 
  -5   2   4  824.92   46.20 
  -5   2   4  831.02   45.80 
  -5   2   4  764.62   47.90 
   4  -2  -4   72.29    5.70 
   4  -2  -4   54.59    6.90 
   4  -2  -4   44.10    7.30 
   4  -2  -4   62.69    6.10 
  -4   2   4   60.99    5.50 
  -4   2   4   64.59    6.00 
  -4   2   4   72.39    8.70 
  -4   2   4   63.99    6.40 
   3  -2  -4  477.55   28.50 
   3  -2  -4  503.95   28.80 
   3  -2  -4  510.85   29.50 
   3  -2  -4  513.15   28.90 
  -3   2   4  500.75   29.90 
  -3   2   4  496.05   29.30 
  -3   2   4  484.05   28.50 
  -3   2   4  465.25   29.10 
  -3   2   4  490.55   29.20 
   2  -2  -4  890.01   53.29 
   2  -2  -4  890.41   52.49 
   2  -2  -4  922.91   52.59 
   2  -2  -4  964.90   52.19 
   2  -2  -4  857.31   52.89 
  -2   2   4  960.00   53.29 
  -2   2   4  925.11   52.49 
  -2   2   4  933.71   52.89 
  -2   2   4  922.21   52.49 
  -2   2   4  946.81   52.39 
   1  -2  -4  174.78   11.40 
   1  -2  -4  172.48   11.00 
   1  -2  -4  175.78   11.00 
   1  -2  -4  182.18   10.40 
   1  -2  -4  167.08   11.50 
  -1   2   4  161.58   10.40 
  -1   2   4  159.48   10.90 
  -1   2   4  186.28   11.50 
  -1   2   4  182.18   10.90 
   0  -2  -4   90.49    6.50 
   0  -2  -4   86.29    6.20 
   0  -2  -4   81.49    5.50 
   0  -2  -4   79.29    6.10 
   0  -2  -4   79.79    6.30 
   0   2   4   82.29    6.00 
   0   2   4   90.59    6.50 
   0   2   4   83.09    5.30 
   0   2   4   79.99    6.20 
   0   2   4   75.19    5.90 
  -1  -2  -4 3251.27  174.28 
  -1  -2  -4 3090.89  174.78 
  -1  -2  -4 2990.40  174.58 
  -1  -2  -4 3029.00  174.78 
  -1  -2  -4 3170.18  174.68 
   1   2   4 3175.78  174.58 
   1   2   4 3201.98  174.78 
   1   2   4 3029.40  173.98 
   1   2   4 3143.09  174.78 
   1   2   4 2974.80  174.48 
  -2  -2  -4  299.17   19.00 
  -2  -2  -4  296.67   19.00 
  -2  -2  -4  304.37   18.90 
  -2  -2  -4  323.87   19.20 
  -2  -2  -4  294.97   18.90 
   2   2   4  309.37   18.90 
   2   2   4  315.27   19.10 
   2   2   4  300.37   18.70 
   2   2   4  330.27   19.10 
   2   2   4  304.17   18.80 
  -3  -2  -4  457.35   29.10 
  -3  -2  -4  508.75   29.60 
  -3  -2  -4  493.35   29.60 
  -3  -2  -4  469.05   29.20 
   3   2   4  519.15   29.40 
   3   2   4  500.25   29.30 
   3   2   4  489.55   29.40 
   3   2   4  466.05   29.20 
   3   2   4  486.55   29.20 
  -4  -2  -4    1.50    2.10 
  -4  -2  -4    2.80    4.00 
  -4  -2  -4    2.00    3.00 
  -4  -2  -4    3.40    3.50 
  -4  -2  -4    2.40    3.30 
   4   2   4    2.40    2.70 
   4   2   4    2.50    3.00 
   4   2   4    5.10    2.70 
  -5  -2  -4  229.78   17.20 
  -5  -2  -4  187.78   14.50 
  -5  -2  -4  195.28   15.40 
  -5  -2  -4  241.58   16.20 
   5   2   4  212.58   15.10 
   5   2   4  213.58   15.20 
   5   2   4  215.48   14.40 
   5   2   4  227.88   15.80 
  -6  -2  -4   13.40    4.40 
  -6  -2  -4   17.30    6.00 
   6   2   4   12.10    4.50 
   6   2   4   16.60    7.40 
   6   2   4   13.40    3.50 
  -7  -2  -4  126.19   13.90 
  -7  -2  -4  191.58   17.80 
   7   2   4  142.09   13.10 
   7   2   4  147.99   14.70 
   7   2   4  132.39   12.50 
  -8  -2  -4    2.80   15.30 
   8   2   4   10.90    5.10 
   8   2   4   17.10    9.40 
   8  -3  -4    3.50    4.00 
   8  -3  -4   -2.20    5.70 
   8  -3  -4   14.60    6.10 
  -8   3   4    8.20    9.60 
  -8   3   4   -2.80    5.80 
   7  -3  -4   46.30    5.90 
   7  -3  -4   40.00    8.10 
   7  -3  -4   37.50    6.70 
  -7   3   4   44.00    7.20 
  -7   3   4   47.20   10.80 
   6  -3  -4   85.29   10.50 
   6  -3  -4   99.09    9.70 
   6  -3  -4  114.69    9.00 
  -6   3   4   97.49   12.70 
  -6   3   4   97.59    9.80 
  -6   3   4   90.79   10.80 
   5  -3  -4  440.46   25.40 
   5  -3  -4  368.26   26.20 
   5  -3  -4  434.26   25.20 
  -5   3   4  421.06   25.90 
  -5   3   4  391.26   25.10 
  -5   3   4  410.66   28.10 
   4  -3  -4  134.59    9.70 
   4  -3  -4  120.19    9.10 
   4  -3  -4  133.29   11.00 
   4  -3  -4  145.19    9.70 
  -4   3   4  119.99   12.40 
  -4   3   4  146.09   12.80 
  -4   3   4  140.29   10.60 
   3  -3  -4 1296.17   75.09 
   3  -3  -4 1173.78   75.99 
   3  -3  -4 1376.06   75.99 
   3  -3  -4 1398.26   75.29 
  -3   3   4 1325.97   75.89 
  -3   3   4 1350.36   76.59 
  -3   3   4 1301.17   74.89 
  -3   3   4 1344.87   75.09 
   2  -3  -4 2409.56  142.29 
   2  -3  -4 2326.27  142.59 
   2  -3  -4 2612.94  141.29 
   2  -3  -4 2506.25  141.79 
   2  -3  -4 2597.24  141.89 
  -2   3   4 2445.66  141.59 
  -2   3   4 2593.24  141.49 
  -2   3   4 2635.34  142.69 
   1  -3  -4    5.20    1.90 
   1  -3  -4    6.10    1.50 
   1  -3  -4    1.20    2.30 
   1  -3  -4    7.50    2.50 
   1  -3  -4    4.60    1.80 
  -1   3   4    5.20    2.50 
  -1   3   4    4.60    1.40 
  -1   3   4    4.90    1.70 
  -1   3   4    5.20    2.20 
  -1   3   4    5.40    1.70 
   0  -3  -4  790.62   47.30 
   0  -3  -4  821.42   47.10 
   0  -3  -4  805.02   47.50 
   0  -3  -4  847.92   46.50 
   0   3   4  815.92   47.30 
   0   3   4  832.42   47.40 
   0   3   4  811.62   46.90 
   0   3   4  823.22   46.90 
   0   3   4  798.52   46.30 
  -1  -3  -4   37.20    4.40 
  -1  -3  -4   41.20    4.40 
  -1  -3  -4   35.60    4.70 
  -1  -3  -4   42.30    4.10 
  -1  -3  -4   63.09    6.50 
   1   3   4   44.70    3.80 
   1   3   4   42.50    4.30 
   1   3   4   41.70    4.60 
   1   3   4   42.00    4.20 
   1   3   4   49.60    4.80 
  -2  -3  -4 2365.66  126.89 
  -2  -3  -4 2137.99  126.89 
  -2  -3  -4 2184.98  126.89 
  -2  -3  -4 2195.28  126.79 
  -2  -3  -4 2248.08  126.69 
   2   3   4 2292.57  126.89 
   2   3   4 2223.88  126.59 
   2   3   4 2134.89  126.39 
   2   3   4 2341.07  126.99 
   2   3   4 2293.07  126.59 
  -3  -3  -4  239.88   16.70 
  -3  -3  -4  269.57   16.90 
   3   3   4  243.68   17.20 
   3   3   4  276.87   16.90 
   3   3   4  268.57   16.40 
   3   3   4  259.67   16.60 
   3   3   4  260.57   16.60 
  -4  -3  -4  345.17   22.20 
  -4  -3  -4  374.76   22.60 
  -4  -3  -4  351.56   23.30 
   4   3   4  352.36   22.20 
   4   3   4  366.96   22.10 
   4   3   4  323.87   21.70 
  -5  -3  -4  480.95   30.90 
  -5  -3  -4  472.15   31.10 
  -5  -3  -4  534.55   31.70 
  -5  -3  -4  554.24   33.10 
   5   3   4  504.35   31.00 
   5   3   4  498.05   30.20 
   5   3   4  512.85   31.20 
  -6  -3  -4    3.00    6.30 
  -6  -3  -4   11.50    5.50 
  -6  -3  -4   13.20    4.30 
  -6  -3  -4    4.90    4.90 
   6   3   4   10.10    4.00 
   6   3   4    4.20    5.10 
   6   3   4    7.00    2.90 
   6   3   4   10.20    4.50 
  -7  -3  -4   70.79   12.10 
  -7  -3  -4   69.79   10.20 
  -7  -3  -4   63.09    8.40 
  -7  -3  -4   75.69    9.40 
   7   3   4   96.19   10.10 
   7   3   4   71.99    8.50 
   7   3   4   87.29   10.70 
  -8  -3  -4   -5.80    8.00 
   8   3   4    1.70    5.50 
   8   3   4   -1.00    3.70 
   8  -4  -4   -1.40    3.50 
   8  -4  -4   -4.40    4.60 
   8  -4  -4    8.60    6.80 
  -8   4   4   -4.80    8.90 
   7  -4  -4   53.09   13.10 
   7  -4  -4   65.39    7.90 
   7  -4  -4   61.39    7.30 
  -7   4   4   46.10    7.90 
  -7   4   4   39.70    7.70 
  -7   4   4   41.70   11.30 
   6  -4  -4   48.00    6.30 
   6  -4  -4   43.40    6.20 
   6  -4  -4   37.30    7.80 
  -6   4   4   47.50    7.30 
  -6   4   4   41.90    6.50 
  -6   4   4   49.50   10.70 
   5  -4  -4   58.79    8.70 
   5  -4  -4   77.99    7.50 
   5  -4  -4   89.19    7.80 
   5  -4  -4   71.19    6.80 
  -5   4   4   75.59   11.00 
  -5   4   4   72.69    8.80 
  -5   4   4   86.19    8.10 
   4  -4  -4   65.89    9.50 
   4  -4  -4   96.69    7.80 
   4  -4  -4   92.49    8.10 
   4  -4  -4  107.19    7.90 
  -4   4   4   99.39   11.30 
  -4   4   4   95.69    8.20 
  -4   4   4  109.89    9.80 
   3  -4  -4  589.94   43.30 
   3  -4  -4  695.13   42.90 
   3  -4  -4  760.72   42.10 
   3  -4  -4  785.32   41.60 
   3  -4  -4  742.43   42.10 
  -3   4   4  735.03   43.80 
  -3   4   4  660.23   42.00 
  -3   4   4  751.22   43.10 
  -3   4   4  734.03   41.70 
   2  -4  -4   87.89    7.20 
   2  -4  -4   82.79   10.40 
   2  -4  -4  101.19    7.30 
   2  -4  -4   89.39    6.40 
   2  -4  -4   85.29    8.10 
  -2   4   4   99.69    6.90 
  -2   4   4   79.89    6.60 
  -2   4   4   88.89    7.00 
  -2   4   4   73.69    7.20 
  -2   4   4   85.49    8.70 
   1  -4  -4  922.91   52.69 
   1  -4  -4  871.51   53.49 
   1  -4  -4  934.81   51.89 
   1  -4  -4  878.71   53.09 
   1  -4  -4  948.51   52.69 
  -1   4   4  884.71   51.89 
  -1   4   4  947.81   52.29 
  -1   4   4  902.01   53.39 
  -1   4   4  909.01   52.39 
   0  -4  -4  564.14   35.30 
   0  -4  -4  593.14   34.70 
   0  -4  -4  563.94   34.60 
   0  -4  -4  571.64   35.20 
   0  -4  -4  613.44   34.20 
   0   4   4  605.84   35.30 
   0   4   4  615.04   34.60 
   0   4   4  588.74   34.00 
   0   4   4  601.44   34.50 
   0   4   4  588.04   35.20 
  -1  -4  -4 1263.57   74.19 
  -1  -4  -4 1333.27   71.89 
  -1  -4  -4 1309.87   72.09 
  -1  -4  -4 1205.28   71.89 
   1   4   4 1219.18   71.79 
   1   4   4 1268.27   72.39 
   1   4   4 1279.27   71.79 
   1   4   4 1206.08   71.39 
   1   4   4 1253.47   72.29 
  -2  -4  -4  105.19    8.80 
  -2  -4  -4  118.19    9.10 
  -2  -4  -4  121.09    8.90 
  -2  -4  -4  123.39    8.80 
  -2  -4  -4  113.99    8.60 
   2   4   4  121.39    9.00 
   2   4   4   97.09    8.00 
   2   4   4  111.39    8.40 
   2   4   4  117.89    8.90 
   2   4   4  118.79    8.30 
  -3  -4  -4    0.20    1.90 
  -3  -4  -4    4.70    2.80 
  -3  -4  -4    3.60    3.20 
  -3  -4  -4    3.90    2.80 
   3   4   4    5.10    2.70 
   3   4   4    1.20    2.00 
   3   4   4    3.10    2.50 
   3   4   4    3.30    2.50 
   3   4   4    2.90    2.20 
  -4  -4  -4  638.94   38.20 
  -4  -4  -4  598.94   38.00 
  -4  -4  -4  688.93   39.50 
   4   4   4  677.93   38.30 
   4   4   4  626.64   37.70 
   4   4   4  608.24   37.70 
  -5  -4  -4  404.46   31.10 
  -5  -4  -4  510.75   31.00 
  -5  -4  -4  504.05   29.40 
  -5  -4  -4  446.56   28.80 
   5   4   4  466.55   28.60 
   5   4   4  480.35   28.90 
   5   4   4  440.26   27.90 
  -6  -4  -4   14.00    4.70 
  -6  -4  -4   14.80    5.40 
  -6  -4  -4   12.10    5.30 
  -6  -4  -4    7.00    6.70 
   6   4   4    9.40    3.80 
   6   4   4   12.60    5.80 
   6   4   4   10.50    4.60 
  -7  -4  -4  263.27   20.20 
  -7  -4  -4  254.07   19.60 
  -7  -4  -4  315.47   24.30 
  -7  -4  -4  304.27   21.60 
   7   4   4  270.17   19.70 
   7   4   4  272.37   19.10 
   7   4   4  289.77   21.50 
  -8  -4  -4   16.30    7.90 
  -8  -4  -4    2.40    9.50 
   8   4   4   18.10    5.90 
   8   4   4   19.00    7.80 
   8   4   4   16.80    5.10 
   7  -5  -4   10.60    5.00 
   7  -5  -4   12.10    4.70 
   7  -5  -4    9.50    8.00 
  -7   5   4   -6.10    5.50 
  -7   5   4   11.50    9.80 
   6  -5  -4   77.29    8.50 
   6  -5  -4   59.49    9.90 
   6  -5  -4   67.49    8.50 
  -6   5   4   83.19   10.50 
  -6   5   4   70.39   12.40 
  -6   5   4   68.99    8.60 
   5  -5  -4   74.69    7.70 
   5  -5  -4   84.29    7.70 
   5  -5  -4   83.69    8.30 
   5  -5  -4   72.99    9.80 
  -5   5   4   90.39   10.50 
  -5   5   4   77.19   11.90 
  -5   5   4   51.59    8.80 
   4  -5  -4    0.40    4.80 
   4  -5  -4    1.60    2.80 
   4  -5  -4    4.60    3.10 
   4  -5  -4   -0.70    2.90 
  -4   5   4   -6.80    3.60 
  -4   5   4    8.30    3.20 
  -4   5   4    4.40    6.60 
   3  -5  -4  518.05   28.80 
   3  -5  -4  451.45   30.50 
   3  -5  -4  475.45   29.50 
   3  -5  -4  507.35   29.60 
  -3   5   4  498.95   29.40 
  -3   5   4  497.65   31.90 
  -3   5   4  455.05   30.50 
   2  -5  -4 1154.68   73.89 
   2  -5  -4 1344.87   71.69 
   2  -5  -4 1299.77   72.49 
   2  -5  -4 1216.58   73.09 
   2  -5  -4 1267.27   72.39 
  -2   5   4 1303.27   73.49 
  -2   5   4 1230.28   73.19 
  -2   5   4 1322.37   74.09 
  -2   5   4 1208.88   71.89 
  -2   5   4 1251.87   72.09 
   1  -5  -4 1521.95   85.29 
   1  -5  -4 1541.45   84.59 
   1  -5  -4 1554.94   85.29 
   1  -5  -4 1361.36   86.19 
   1  -5  -4 1456.25   87.09 
  -1   5   4 1497.45   84.99 
  -1   5   4 1401.66   84.99 
  -1   5   4 1536.95   86.39 
  -1   5   4 1548.65   84.89 
   0  -5  -4 1781.42  104.59 
   0  -5  -4 1870.11  103.79 
   0  -5  -4 1811.72  103.79 
   0  -5  -4 1878.21  103.29 
   0   5   4 1759.22  102.99 
   0   5   4 1858.61  104.59 
   0   5   4 1881.01  104.49 
   0   5   4 1769.72  103.49 
  -1  -5  -4    0.10    2.10 
  -1  -5  -4    4.70    2.50 
  -1  -5  -4    4.60    3.00 
  -1  -5  -4    1.30    2.40 
  -1  -5  -4   -1.50    2.50 
   1   5   4    0.70    2.50 
   1   5   4    3.90    1.90 
   1   5   4    2.70    2.90 
   1   5   4    1.20    2.10 
   1   5   4   -0.80    2.00 
  -2  -5  -4 1416.76   83.99 
  -2  -5  -4 1389.96   83.99 
  -2  -5  -4 1463.55   83.59 
  -2  -5  -4 1461.45   83.49 
  -2  -5  -4 1589.24   83.99 
   2   5   4 1515.05   83.89 
   2   5   4 1437.66   83.29 
   2   5   4 1369.06   83.09 
   2   5   4 1459.05   83.39 
   2   5   4 1518.45   84.09 
  -3  -5  -4    0.30    2.90 
  -3  -5  -4   -0.30    3.20 
  -3  -5  -4    4.00    3.00 
  -3  -5  -4   -0.50    2.20 
   3   5   4    1.50    2.40 
   3   5   4    1.50    2.20 
   3   5   4    2.50    2.60 
  -4  -5  -4  223.48   16.80 
  -4  -5  -4  210.68   15.30 
  -4  -5  -4  217.28   15.60 
   4   5   4  233.08   15.70 
   4   5   4  232.18   15.20 
   4   5   4  230.58   16.80 
  -5  -5  -4   -3.60    3.20 
  -5  -5  -4    0.50    5.20 
  -5  -5  -4    3.20    3.60 
  -5  -5  -4    2.60    3.90 
   5   5   4    5.50    3.10 
   5   5   4    3.10    3.10 
   5   5   4   -3.10    3.00 
  -6  -5  -4   71.99   10.60 
  -6  -5  -4   57.09    7.90 
  -6  -5  -4   64.59    7.80 
  -6  -5  -4   64.59    8.50 
   6   5   4   61.19    7.70 
  -7  -5  -4   18.50    8.80 
  -7  -5  -4   13.90    5.60 
  -7  -5  -4   23.00    6.10 
  -7  -5  -4   24.40    7.00 
   7   5   4   11.40    6.80 
   7   5   4   18.40    5.50 
   7   5   4   15.30    4.60 
  -8  -5  -4    3.60    9.60 
  -8  -5  -4   -4.50    6.50 
   8   5   4    2.10    5.00 
   8   5   4    3.40    6.70 
   8   5   4    8.20    4.30 
   7  -6  -4    9.40    5.70 
   6  -6  -4   10.20    4.60 
   6  -6  -4   15.40    7.70 
   6  -6  -4   16.90    4.60 
   6  -6  -4    7.70    4.10 
  -6   6   4    1.80    8.90 
  -6   6   4    0.20    5.30 
   5  -6  -4  147.19   11.70 
   5  -6  -4  117.49   14.60 
   5  -6  -4  125.79   11.10 
   5  -6  -4  157.78   10.90 
  -5   6   4  135.09   13.70 
  -5   6   4  123.79   12.10 
  -5   6   4  119.79   15.70 
   4  -6  -4   83.49    8.60 
   4  -6  -4   89.49    8.40 
   4  -6  -4   83.99    7.40 
   4  -6  -4   59.29    9.20 
  -4   6   4   92.59   12.50 
  -4   6   4   82.29    8.70 
   3  -6  -4  178.58   12.80 
   3  -6  -4  149.09   14.20 
   3  -6  -4  180.58   11.80 
   3  -6  -4  182.68   12.80 
  -3   6   4  182.28   14.70 
  -3   6   4  178.78   16.50 
  -3   6   4  152.48   13.20 
   2  -6  -4   19.10    4.00 
   2  -6  -4   12.80    6.30 
   2  -6  -4   16.30    3.80 
   2  -6  -4   11.80    4.70 
   2  -6  -4   13.90    3.10 
  -2   6   4   22.50    3.90 
  -2   6   4   24.10    4.20 
  -2   6   4   15.20    6.80 
  -2   6   4   24.30    5.60 
   1  -6  -4  508.55   36.90 
   1  -6  -4  604.94   35.60 
   1  -6  -4  624.44   35.70 
   1  -6  -4  556.84   36.30 
   1  -6  -4  621.54   34.90 
  -1   6   4  593.24   35.10 
  -1   6   4  622.14   36.90 
  -1   6   4  635.04   37.20 
  -1   6   4  598.94   35.30 
  -1   6   4  568.14   34.60 
   0  -6  -4  672.33   42.80 
   0  -6  -4  726.03   42.30 
   0  -6  -4  740.33   41.70 
   0  -6  -4  709.43   42.20 
   0  -6  -4  679.83   43.30 
   0   6   4  688.93   41.30 
   0   6   4  695.03   41.80 
   0   6   4  752.02   43.30 
   0   6   4  724.23   41.80 
   0   6   4  756.92   43.30 
  -1  -6  -4  306.27   19.20 
  -1  -6  -4  323.27   19.30 
  -1  -6  -4  269.67   19.90 
  -1  -6  -4  290.47   19.80 
  -1  -6  -4  295.07   18.90 
   1   6   4  292.37   19.00 
   1   6   4  293.17   18.30 
   1   6   4  296.47   18.80 
   1   6   4  312.07   20.00 
   1   6   4  297.17   19.80 
  -2  -6  -4   36.50    5.40 
  -2  -6  -4   43.60    6.30 
  -2  -6  -4   34.40    4.70 
  -2  -6  -4   36.70    5.20 
  -2  -6  -4   31.30    5.10 
   2   6   4   46.20    5.70 
   2   6   4   38.80    4.70 
   2   6   4   35.70    7.00 
   2   6   4   41.40    4.90 
   2   6   4   36.20    5.50 
  -3  -6  -4    9.30    3.60 
  -3  -6  -4    6.70    3.60 
  -3  -6  -4    4.50    3.90 
   3   6   4    8.80    3.30 
   3   6   4   10.10    3.10 
   3   6   4    3.50    3.10 
  -4  -6  -4  175.68   13.20 
  -4  -6  -4  182.98   15.20 
  -4  -6  -4  191.18   13.60 
   4   6   4  189.08   12.80 
   4   6   4  174.78   13.40 
   4   6   4  161.48   12.60 
  -5  -6  -4   14.10    4.60 
  -5  -6  -4   15.40    5.20 
  -5  -6  -4   12.10   10.30 
  -5  -6  -4   19.00    5.10 
   5   6   4   18.30    4.00 
   5   6   4   25.30    5.50 
   5   6   4   13.60    4.00 
  -6  -6  -4  276.17   20.40 
  -6  -6  -4  311.07   20.80 
  -6  -6  -4  265.87   19.70 
  -6  -6  -4  322.17   23.20 
   6   6   4  277.07   19.90 
   6   6   4  290.77   19.40 
  -7  -6  -4   -4.60    7.50 
  -7  -6  -4    1.40    5.50 
  -7  -6  -4    5.20    5.00 
   7   6   4    9.40    6.70 
   7   6   4   -1.80    4.30 
  -8  -6  -4   -2.00    9.00 
  -8  -6  -4    3.60    6.60 
   8   6   4    1.70    4.00 
   8   6   4   -0.20    5.10 
   8   6   4    6.70    7.40 
   7  -7  -4   24.50    6.20 
   7  -7  -4   18.30    5.60 
  -7   7   4   24.30   12.20 
   6  -7  -4  -13.90    9.60 
   6  -7  -4    0.50    4.00 
   6  -7  -4   -0.40    4.20 
  -6   7   4   -0.70    6.00 
  -6   7   4    0.00    5.70 
  -6   7   4    2.00    9.70 
   5  -7  -4   93.59   12.80 
   5  -7  -4  145.09   10.80 
   5  -7  -4  130.19   11.90 
  -5   7   4  121.79   13.20 
  -5   7   4  156.18   18.10 
   4  -7  -4    5.60    5.30 
   4  -7  -4    0.70    3.40 
   4  -7  -4    2.10    3.60 
   4  -7  -4   -1.70    6.30 
  -4   7   4   -5.20    7.30 
  -4   7   4   -9.30    4.30 
  -4   7   4   12.50    4.90 
   3  -7  -4  276.17   22.40 
   3  -7  -4  308.37   20.70 
   3  -7  -4  326.97   19.60 
   3  -7  -4  336.37   20.80 
  -3   7   4  339.67   24.60 
  -3   7   4  296.97   20.50 
  -3   7   4  290.57   22.50 
   2  -7  -4   14.10    8.60 
   2  -7  -4   16.30    3.60 
   2  -7  -4   14.20    4.20 
   2  -7  -4   15.50    3.70 
  -2   7   4    8.60    3.80 
  -2   7   4    8.90    3.10 
  -2   7   4   12.50    6.00 
  -2   7   4   16.60    6.70 
   1  -7  -4  963.30   55.39 
   1  -7  -4  856.31   56.09 
   1  -7  -4  990.10   55.39 
   1  -7  -4  843.02   57.69 
   1  -7  -4  988.60   54.69 
  -1   7   4  914.41   54.99 
  -1   7   4 1031.60   57.39 
  -1   7   4  952.70   56.79 
  -1   7   4  940.41   54.79 
   0  -7  -4   57.89    7.10 
   0  -7  -4   82.09   10.10 
   0  -7  -4   46.70    6.90 
   0  -7  -4   69.89    7.50 
   0  -7  -4   80.89    6.90 
   0   7   4   82.49    9.30 
   0   7   4   66.29    6.70 
   0   7   4   61.19    8.30 
   0   7   4   72.99    8.80 
  -1  -7  -4  366.66   22.60 
  -1  -7  -4  321.87   23.40 
  -1  -7  -4  327.77   23.90 
  -1  -7  -4  337.97   22.60 
   1   7   4  367.86   22.30 
   1   7   4  390.06   23.90 
   1   7   4  380.76   22.50 
  -2  -7  -4  544.75   35.20 
  -2  -7  -4  576.34   34.40 
  -2  -7  -4  537.05   33.90 
  -2  -7  -4  584.34   34.10 
   2   7   4  570.84   34.90 
   2   7   4  564.84   34.50 
   2   7   4  547.75   33.60 
  -3  -7  -4   23.20    5.50 
  -3  -7  -4   16.10    4.60 
  -3  -7  -4   12.90    5.10 
   3   7   4   21.70    4.70 
   3   7   4   22.50    5.10 
   3   7   4   28.10    4.30 
  -4  -7  -4 1024.20   61.09 
  -4  -7  -4  985.80   59.59 
  -4  -7  -4 1072.09   59.89 
   4   7   4  978.80   59.09 
   4   7   4 1034.90   60.09 
   4   7   4 1003.40   59.19 
  -5  -7  -4   -0.20    6.00 
  -5  -7  -4    4.10    4.60 
  -5  -7  -4    3.10    4.00 
  -5  -7  -4    0.90    4.40 
   5   7   4   -0.90    3.10 
   5   7   4   -1.90    3.40 
  -6  -7  -4   95.99   11.80 
  -6  -7  -4  120.09   14.50 
  -6  -7  -4  118.79   12.10 
  -6  -7  -4  112.69   11.20 
   6   7   4   98.19    9.70 
   6   7   4  106.79   10.70 
  -7  -7  -4   62.39    9.10 
  -7  -7  -4   82.99   13.90 
  -7  -7  -4   58.69    9.70 
   7   7   4   47.00    7.00 
   6  -8  -4   25.60    6.60 
  -6   8   4   31.50   12.50 
   5  -8  -4   13.60    7.80 
   5  -8  -4   -3.70    3.90 
   5  -8  -4    3.50    3.80 
   5  -8  -4    1.60    4.20 
  -5   8   4    6.20    6.10 
  -5   8   4   -0.60    5.70 
  -5   8   4   18.60    9.90 
   4  -8  -4  131.59   10.30 
   4  -8  -4  124.89   11.60 
   4  -8  -4  136.49   12.20 
   4  -8  -4   96.69   15.20 
  -4   8   4  125.59   14.60 
  -4   8   4  148.19   18.00 
  -4   8   4  119.89   12.90 
   3  -8  -4  104.79   10.10 
   3  -8  -4   64.59    9.90 
   3  -8  -4   91.19    9.60 
   3  -8  -4   85.79    9.40 
  -3   8   4   77.89    9.90 
  -3   8   4   64.19   10.00 
  -3   8   4   90.89   12.40 
   2  -8  -4   57.19    7.40 
   2  -8  -4   55.09    6.30 
   2  -8  -4   44.20    5.80 
   2  -8  -4   27.30    7.60 
  -2   8   4   65.79   10.00 
  -2   8   4   41.50    7.80 
  -2   8   4   40.00    6.20 
   1  -8  -4  676.33   39.00 
   1  -8  -4  563.04   39.70 
   1  -8  -4  583.34   41.60 
   1  -8  -4  602.04   38.60 
   1  -8  -4  699.33   38.20 
  -1   8   4  614.04   38.50 
  -1   8   4  697.03   41.00 
  -1   8   4  672.33   41.10 
   0  -8  -4  369.66   23.20 
   0  -8  -4  393.36   22.60 
   0  -8  -4  294.27   25.00 
   0  -8  -4  364.66   23.00 
   0  -8  -4  332.97   24.00 
   0   8   4  352.36   24.50 
   0   8   4  363.16   29.80 
   0   8   4  333.77   22.50 
  -1  -8  -4  712.73   43.90 
  -1  -8  -4  665.93   45.40 
  -1  -8  -4  731.43   46.00 
  -1  -8  -4  759.42   44.10 
  -1  -8  -4  762.42   43.90 
   1   8   4  778.42   45.20 
   1   8   4  748.83   45.30 
   1   8   4  706.53   43.30 
  -2  -8  -4  298.57   19.20 
  -2  -8  -4  276.87   19.40 
  -2  -8  -4  294.37   19.30 
  -2  -8  -4  247.48   20.50 
   2   8   4  257.17   19.50 
   2   8   4  302.57   20.40 
   2   8   4  280.27   18.40 
  -3  -8  -4   97.69   11.10 
  -3  -8  -4  100.89   10.00 
  -3  -8  -4   86.79   10.60 
   3   8   4  106.29   10.40 
   3   8   4   88.59    8.40 
   3   8   4   84.99    9.50 
  -4  -8  -4  178.38   15.30 
  -4  -8  -4  172.18   15.80 
  -4  -8  -4  180.98   13.50 
  -4  -8  -4  133.79   13.80 
   4   8   4  159.08   12.80 
   4   8   4  179.98   12.80 
  -5  -8  -4   -0.10    4.30 
  -5  -8  -4   -1.30    5.90 
  -5  -8  -4    7.20    5.10 
  -5  -8  -4    4.10    5.30 
   5   8   4   -0.50    3.30 
   5   8   4    2.10    4.20 
   5   8   4    2.70    3.40 
  -6  -8  -4   47.30   10.70 
  -6  -8  -4   56.39    8.00 
  -6  -8  -4   48.60    8.50 
  -6  -8  -4   38.70   11.80 
   6   8   4   44.70    6.70 
   6   8   4   50.79    7.60 
  -7  -8  -4    2.30    5.90 
  -7  -8  -4   -0.10    8.30 
   7   8   4   -1.30    4.50 
   7   8   4    3.80    4.00 
   6  -9  -4   11.30    6.30 
   6  -9  -4    5.40    4.60 
  -6   9   4    6.80   10.70 
   5  -9  -4    4.60    4.30 
   5  -9  -4    9.00    5.10 
  -5   9   4    3.40    7.40 
  -5   9   4    7.80    9.60 
   4  -9  -4   16.60    9.20 
   4  -9  -4   17.40    5.70 
   4  -9  -4   24.90    7.80 
   4  -9  -4   18.30    4.90 
  -4   9   4   18.60    7.20 
  -4   9   4   17.00    6.80 
   3  -9  -4   -5.70    5.90 
   3  -9  -4    4.10    3.40 
   3  -9  -4    0.70    4.40 
   3  -9  -4    3.20    4.00 
  -3   9   4    3.20    5.10 
  -3   9   4    7.10    7.80 
  -3   9   4   -8.30    5.90 
   2  -9  -4   55.29    7.20 
   2  -9  -4   76.59    9.00 
   2  -9  -4   71.49    8.70 
  -2   9   4   53.29    7.90 
   1  -9  -4  779.82   45.20 
   1  -9  -4  635.44   46.00 
   1  -9  -4  717.43   46.20 
   1  -9  -4  796.32   44.30 
  -1   9   4  780.62   47.80 
   0  -9  -4    7.00    4.00 
   0  -9  -4    9.50    4.30 
   0  -9  -4   13.00    4.70 
   0   9   4   13.70    6.40 
   0   9   4    9.00    3.70 
   0   9   4   10.70    5.50 
  -1  -9  -4  654.23   37.30 
  -1  -9  -4  576.64   37.10 
  -1  -9  -4  617.84   37.30 
  -1  -9  -4  523.65   39.00 
   1   9   4  583.84   36.40 
   1   9   4  611.24   38.60 
   1   9   4  654.83   39.20 
  -2  -9  -4  302.77   19.80 
  -2  -9  -4  289.67   20.70 
  -2  -9  -4  277.67   20.10 
  -2  -9  -4  237.78   21.20 
   2   9   4  263.87   20.20 
   2   9   4  298.27   21.20 
   2   9   4  277.87   18.80 
  -3  -9  -4   28.00    7.40 
  -3  -9  -4   18.90    5.50 
  -3  -9  -4   23.30    6.70 
   3   9   4   21.40    5.50 
   3   9   4   26.50    4.90 
   3   9   4   30.90    6.70 
  -4  -9  -4  162.18   16.20 
  -4  -9  -4  211.58   17.30 
  -4  -9  -4  194.98   15.20 
  -4  -9  -4  161.38   14.10 
   4   9   4  171.98   13.50 
   4   9   4  183.38   14.10 
   4   9   4  188.38   15.30 
  -5  -9  -4   21.20    6.40 
  -5  -9  -4   15.50    6.80 
  -5  -9  -4   20.40    5.60 
  -5  -9  -4   17.90    8.10 
   5   9   4   23.60    6.10 
   5   9   4   14.40    4.70 
  -6  -9  -4  173.88   20.40 
  -6  -9  -4  182.88   20.30 
  -6  -9  -4  204.28   17.30 
   6   9   4  201.98   15.20 
   6   9   4  205.48   16.30 
   5 -10  -4   -1.30    4.20 
   5 -10  -4    9.60    5.60 
  -5  10   4  -11.10    9.40 
   4 -10  -4   -2.50    3.70 
   4 -10  -4    3.50    5.00 
   4 -10  -4   11.40    5.30 
  -4  10   4   10.20    7.50 
  -4  10   4    0.80    9.40 
   3 -10  -4    1.90    4.60 
   3 -10  -4   20.30   11.60 
   3 -10  -4    1.60    4.80 
  -3  10   4   19.00    7.90 
  -3  10   4   35.20   10.10 
   2 -10  -4    8.60    5.30 
   2 -10  -4   11.00   11.10 
   2 -10  -4   16.70    4.70 
   2 -10  -4   14.40    5.90 
  -2  10   4   11.40    8.50 
  -2  10   4   17.90    8.10 
   1 -10  -4    1.70    4.10 
   1 -10  -4    4.20    4.40 
   1 -10  -4    5.60    5.20 
  -1  10   4   10.70    7.60 
  -1  10   4   11.50    7.20 
  -1  10   4    7.80    4.80 
   0 -10  -4  244.38   17.40 
   0 -10  -4  215.68   16.40 
   0 -10  -4  182.48   21.70 
   0 -10  -4  220.88   17.00 
   0  10   4  202.18   16.10 
   0  10   4  255.07   20.20 
   0  10   4  249.78   20.10 
  -1 -10  -4  291.07   20.50 
  -1 -10  -4  304.97   20.60 
  -1 -10  -4  255.57   23.90 
  -1 -10  -4  314.67   20.70 
   1  10   4  297.27   22.70 
   1  10   4  287.47   22.20 
   1  10   4  263.27   19.50 
  -2 -10  -4    7.90    7.40 
  -2 -10  -4    7.10    4.90 
  -2 -10  -4    8.90    5.30 
  -2 -10  -4    3.10    5.20 
   2  10   4   13.30    5.90 
   2  10   4   -0.10    5.30 
   2  10   4   -0.10    3.60 
  -3 -10  -4  316.47   22.90 
  -3 -10  -4  238.38   32.10 
  -3 -10  -4  301.07   21.50 
   3  10   4  301.27   21.50 
   3  10   4  304.77   22.70 
   3  10   4  302.47   20.30 
  -4 -10  -4  117.29   11.70 
  -4 -10  -4   91.09   12.70 
  -4 -10  -4  131.99   13.00 
  -4 -10  -4  111.09   13.60 
   4  10   4  110.59   10.80 
   4  10   4  127.79   11.50 
   4  10   4  117.19   13.00 
  -5 -10  -4   28.50    9.60 
  -5 -10  -4   56.99   12.10 
  -5 -10  -4   45.00    8.40 
   5  10   4   38.90    7.40 
   5  10   4   44.60    6.90 
  -6 -10  -4   56.89   12.10 
  -6 -10  -4   51.59    9.40 
   6  10   4   69.29    9.60 
   4 -11  -4   10.40    5.00 
   4 -11  -4    9.50    5.30 
  -4  11   4    8.60   10.40 
  -4  11   4   -3.60    7.90 
   3 -11  -4   12.70    5.00 
   3 -11  -4   20.00    6.60 
  -3  11   4    3.70    8.70 
  -3  11   4   18.00   10.10 
   2 -11  -4  306.37   22.60 
   2 -11  -4  325.17   21.60 
   2 -11  -4  301.87   23.00 
  -2  11   4  331.27   27.00 
  -2  11   4  320.07   27.80 
   1 -11  -4    4.60    4.20 
   1 -11  -4    7.30    5.60 
   1 -11  -4    3.20    4.50 
  -1  11   4    7.50    7.50 
  -1  11   4   13.80   11.20 
   0 -11  -4    3.20    5.20 
   0 -11  -4    3.20    5.10 
   0 -11  -4   11.70    5.10 
   0  11   4    8.50    4.80 
   0  11   4    5.80    7.10 
   0  11   4    6.50    7.10 
  -1 -11  -4   95.29   11.70 
  -1 -11  -4   98.79   11.30 
  -1 -11  -4   84.89   15.10 
  -1 -11  -4  110.29   11.50 
   1  11   4  108.99   13.60 
   1  11   4  112.99   14.50 
   1  11   4  113.39   11.00 
  -2 -11  -4   49.60    8.80 
  -2 -11  -4   24.40    6.00 
  -2 -11  -4   46.00   10.80 
  -2 -11  -4   27.30    6.50 
   2  11   4   41.50    8.30 
   2  11   4   40.40    8.90 
  -3 -11  -4   71.69   11.10 
  -3 -11  -4   64.29   11.20 
  -3 -11  -4   49.60    8.50 
   3  11   4   63.79   10.80 
   3  11   4   69.49    8.90 
  -4 -11  -4   87.19   12.80 
  -4 -11  -4   93.29   11.50 
   4  11   4  130.49   13.70 
  -5 -11  -4   11.30    7.30 
  -5 -11  -4   13.20    8.80 
   5  11   4    9.50    6.40 
   3 -12  -4    4.30    5.20 
   3 -12  -4    4.60    5.10 
  -3  12   4   24.90   11.50 
  -3  12   4   15.30    9.70 
   2 -12  -4    6.70    5.60 
   2 -12  -4   12.40    6.40 
   2 -12  -4   12.80    6.50 
  -2  12   4    7.20    9.60 
  -2  12   4    3.10    8.50 
   1 -12  -4   -2.90    5.40 
   1 -12  -4    1.00    4.80 
   1 -12  -4   -3.00    4.10 
  -1  12   4    0.60    7.90 
  -1  12   4   -2.00    6.80 
   0 -12  -4   31.10    6.90 
   0 -12  -4   33.80    7.40 
   0 -12  -4   31.10    6.60 
   0  12   4   29.60    9.50 
  -1 -12  -4    0.30   11.40 
  -1 -12  -4   27.00    7.30 
  -1 -12  -4   17.70    5.70 
  -1 -12  -4   17.40    6.70 
   1  12   4   22.40    8.00 
   1  12   4   18.90    9.10 
  -2 -12  -4   18.70    5.90 
  -2 -12  -4   18.80    7.50 
  -2 -12  -4   27.10    7.40 
   2  12   4   35.20    9.30 
  -3 -12  -4   84.39   12.30 
  -3 -12  -4  101.79   12.10 
   3  12   4  102.99   13.80 
  -4 -12  -4   -1.70    7.30 
  -4 -12  -4    6.40   10.00 
   4  12   4    4.00    6.50 
   2 -13  -4   -7.90    4.40 
   2 -13  -4   -1.40    5.20 
   2 -13  -4    5.90    6.10 
  -2  13   4   11.00    9.40 
  -2  13   4  -10.80    8.10 
   1 -13  -4    4.00    5.20 
   1 -13  -4    1.10    5.80 
   1 -13  -4   11.00    6.00 
  -1  13   4    4.60    8.00 
   0 -13  -4    5.90    4.90 
   0 -13  -4    1.90    5.60 
   0 -13  -4    3.70    6.00 
   0  13   4    1.00    7.20 
  -1 -13  -4   81.19   11.50 
  -1 -13  -4   78.79   12.90 
  -1 -13  -4   60.19   10.10 
   1  13   4   82.79   14.10 
  -2 -13  -4   14.30    6.80 
  -2 -13  -4   16.60    8.00 
   2  13   4    2.80    7.50 
  -3 -13  -4  117.89   14.60 
   3  13   4   84.49   13.70 
   3  11  -5   25.00    8.70 
  -3 -11   5   20.30    6.30 
  -3 -11   5   41.90    8.00 
   2  11  -5   -4.80    7.60 
  -2 -11   5    2.10    8.80 
   1  11  -5   -0.20    9.30 
  -1 -11   5   -0.70    4.90 
  -1 -11   5   -0.90    5.10 
   0  11  -5    6.20   10.20 
   0 -11   5    1.60    5.20 
   0 -11   5   -0.40    4.90 
  -1  11  -5   17.20   12.10 
   1 -11   5   13.70    6.50 
   1 -11   5   15.20    5.20 
  -2  11  -5    0.30   11.80 
   2 -11   5   -0.20    5.70 
   2 -11   5    2.40    6.30 
   2 -11   5    9.00    4.90 
   4  10  -5   19.90    6.10 
   4  10  -5    6.90    6.00 
  -4 -10   5   13.80    5.20 
  -4 -10   5   20.70    6.90 
   3  10  -5   26.30    6.80 
   3  10  -5   15.30    8.30 
  -3 -10   5   23.00    5.70 
  -3 -10   5   32.30    7.10 
   2  10  -5   20.50    6.30 
   2  10  -5   18.90    9.40 
  -2 -10   5   20.60    5.40 
  -2 -10   5   32.20    9.70 
  -2 -10   5   31.40    6.60 
   1  10  -5  193.98   17.40 
   1  10  -5  211.48   22.10 
  -1 -10   5  205.58   16.10 
  -1 -10   5  217.88   15.40 
  -1 -10   5  202.98   15.10 
  -1 -10   5  165.48   21.80 
   0  10  -5    0.10    9.50 
   0 -10   5  -14.90    8.60 
   0 -10   5    1.50    4.90 
   0 -10   5    7.10    4.40 
   0 -10   5    4.10    4.30 
  -1  10  -5   14.30   11.50 
  -1  10  -5    9.40    9.90 
   1 -10   5    6.80   12.00 
   1 -10   5    1.50    3.90 
   1 -10   5    3.00    5.10 
   1 -10   5    6.00    4.50 
  -2  10  -5    3.60   11.30 
  -2  10  -5    8.40   12.10 
   2 -10   5    0.00    7.10 
   2 -10   5   -1.40    3.60 
   2 -10   5    5.40    4.90 
  -3  10  -5   13.10   13.90 
  -3  10  -5    9.80   12.50 
   3 -10   5    2.20    5.50 
   3 -10   5   -1.90    5.40 
   3 -10   5    6.50    4.30 
   5   9  -5   43.50    8.50 
   5   9  -5   52.89    6.70 
  -5  -9   5   60.09    9.70 
  -5  -9   5   37.90   10.60 
  -5  -9   5   45.90    6.40 
   4   9  -5   76.69    9.90 
   4   9  -5   78.29    9.40 
  -4  -9   5   67.69   12.50 
  -4  -9   5   79.49    8.60 
  -4  -9   5   70.89   10.00 
   3   9  -5   27.90    7.90 
   3   9  -5   28.50    6.40 
  -3  -9   5   23.70    5.10 
  -3  -9   5   14.20    9.30 
  -3  -9   5   14.10    5.70 
  -3  -9   5   20.90    6.10 
   2   9  -5  119.99   11.50 
   2   9  -5  116.69   12.00 
   2   9  -5   94.79   13.30 
  -2  -9   5  133.29   11.50 
  -2  -9   5  117.39   10.00 
  -2  -9   5  135.39   11.20 
   1   9  -5   10.80    5.40 
   1   9  -5    2.30    6.70 
   1   9  -5    5.30    8.50 
  -1  -9   5   18.70    5.70 
  -1  -9   5   18.80    9.40 
  -1  -9   5    7.80    3.70 
  -1  -9   5   18.80    4.50 
   0   9  -5   26.00    6.60 
   0   9  -5   33.60    9.80 
   0   9  -5   17.40   10.00 
   0  -9   5   32.60    5.20 
   0  -9   5   33.00    6.60 
   0  -9   5   38.10   10.40 
   0  -9   5   25.40    5.00 
  -1   9  -5   79.29   18.00 
  -1   9  -5   62.79    9.70 
  -1   9  -5   69.19   13.80 
   1  -9   5   83.89    8.10 
   1  -9   5   75.59   15.50 
   1  -9   5   82.29    9.80 
   1  -9   5   83.79    9.10 
  -2   9  -5   34.50   11.70 
  -2   9  -5    2.50   11.30 
  -2   9  -5    8.60    8.00 
   2  -9   5   12.60    5.20 
   2  -9   5   23.10    4.50 
   2  -9   5   13.10    6.00 
  -3   9  -5  -21.10   12.20 
  -3   9  -5   23.60   11.30 
   3  -9   5   16.30    4.30 
   3  -9   5    0.60    5.60 
   3  -9   5    3.10    4.70 
  -4   9  -5   28.90   13.10 
  -4   9  -5   29.30   16.30 
   4  -9   5   35.40    6.00 
   4  -9   5   26.50    6.30 
   4  -9   5   35.00    7.80 
   6   8  -5   45.00    8.00 
  -6  -8   5   44.00    5.80 
  -6  -8   5   52.99   10.50 
  -6  -8   5   50.49    9.80 
   5   8  -5    2.30    3.20 
  -5  -8   5   11.50    6.30 
  -5  -8   5    2.90    3.60 
  -5  -8   5   -2.90    7.70 
   4   8  -5  203.38   16.00 
   4   8  -5  196.28   14.50 
  -4  -8   5  208.48   19.30 
  -4  -8   5  191.98   14.00 
  -4  -8   5  211.58   16.30 
   3   8  -5  106.59   12.70 
   3   8  -5   97.69   10.10 
  -3  -8   5   85.19   12.80 
  -3  -8   5  107.29    9.60 
  -3  -8   5   94.09    8.40 
  -3  -8   5  118.29   10.80 
   2   8  -5   14.60    6.70 
   2   8  -5   27.70    5.60 
   2   8  -5   27.90    3.80 
   2   8  -5   24.80    8.00 
  -2  -8   5   25.50    5.30 
  -2  -8   5   26.70    5.40 
  -2  -8   5   23.10    8.50 
  -2  -8   5   22.70    4.20 
   1   8  -5  189.78   12.60 
   1   8  -5  171.68   17.20 
   1   8  -5  214.78   15.50 
  -1  -8   5  195.28   16.40 
  -1  -8   5  156.68   18.60 
  -1  -8   5  208.78   13.70 
  -1  -8   5  193.28   13.60 
   0   8  -5   -1.50    2.40 
   0   8  -5    4.40    4.50 
   0   8  -5   -0.20    7.50 
   0   8  -5   -5.30    7.60 
   0  -8   5   -4.60    4.00 
   0  -8   5    2.70    7.50 
   0  -8   5    2.30    3.20 
   0  -8   5    0.90    3.00 
  -1   8  -5  199.08   23.70 
  -1   8  -5  260.87   22.00 
  -1   8  -5  228.48   18.10 
   1  -8   5  231.18   17.10 
   1  -8   5  227.68   16.20 
   1  -8   5  200.28   21.80 
   1  -8   5  236.38   15.30 
  -2   8  -5   -2.90   10.50 
  -2   8  -5   -0.50    4.20 
  -2   8  -5   -2.50    9.20 
   2  -8   5    1.30    3.60 
   2  -8   5   -3.10    2.80 
   2  -8   5   -6.80    4.20 
  -3   8  -5   -8.00   12.50 
  -3   8  -5   -2.80    9.90 
   3  -8   5    2.60    3.50 
   3  -8   5   -2.50    4.20 
   3  -8   5   -1.50    4.90 
  -4   8  -5   22.40   12.60 
  -4   8  -5   35.50   16.30 
   4  -8   5   23.30    6.20 
   4  -8   5    7.60    5.90 
   4  -8   5   19.80    4.60 
  -5   8  -5   -1.50   27.80 
  -5   8  -5    5.70   12.20 
   5  -8   5   -3.60    5.20 
   5  -8   5    3.90    4.40 
   6   7  -5  157.38   13.60 
  -6  -7   5  138.09   10.30 
  -6  -7   5  158.68   16.30 
  -6  -7   5  117.49   14.20 
  -5  -7   5   44.90    9.10 
  -5  -7   5   51.69    8.70 
  -5  -7   5   42.40    5.20 
   4   7  -5  437.16   29.00 
   4   7  -5  467.35   28.10 
  -4  -7   5  444.26   27.90 
  -4  -7   5  502.25   30.10 
  -4  -7   5  470.25   31.30 
   3   7  -5    5.80    3.70 
   3   7  -5    6.30    2.70 
   3   7  -5   -0.60    5.20 
  -3  -7   5    7.50    2.60 
  -3  -7   5    9.00    3.70 
  -3  -7   5   13.50    4.70 
  -3  -7   5    6.70    7.30 
   2   7  -5   26.50    4.90 
   2   7  -5   30.00    5.40 
   2   7  -5   13.60    6.80 
   2   7  -5   23.30    4.00 
  -2  -7   5   21.80    4.70 
  -2  -7   5   22.30    3.70 
  -2  -7   5   17.20    7.40 
  -2  -7   5   23.60    4.80 
   1   7  -5  185.48   14.10 
   1   7  -5  196.98   16.80 
   1   7  -5  175.28   11.60 
  -1  -7   5  183.08   12.60 
  -1  -7   5  185.58   12.60 
  -1  -7   5  171.28   17.30 
  -1  -7   5  180.58   13.70 
   0   7  -5   65.69   11.90 
   0   7  -5   68.19    9.00 
   0   7  -5   78.79    6.50 
   0   7  -5   74.49   10.70 
   0  -7   5   69.49    7.30 
   0  -7   5   75.99    8.90 
   0  -7   5   88.19    7.00 
   0  -7   5   89.09   12.30 
  -1   7  -5  166.48   14.00 
  -1   7  -5  191.18   17.90 
  -1   7  -5  152.88   11.30 
  -1   7  -5  123.09   17.20 
   1  -7   5  177.08   11.20 
   1  -7   5  172.68   13.50 
   1  -7   5  151.38   12.10 
   1  -7   5  137.39   18.10 
  -2   7  -5   34.10   10.00 
  -2   7  -5   45.80    7.30 
  -2   7  -5   18.50   11.60 
   2  -7   5   47.20    7.40 
   2  -7   5   44.20    6.00 
   2  -7   5   49.10    5.50 
   2  -7   5   36.00   10.30 
  -3   7  -5  131.79   14.10 
  -3   7  -5  195.58   22.20 
   3  -7   5  142.39   14.00 
   3  -7   5  152.48   13.20 
   3  -7   5  171.08   11.30 
  -4   7  -5   -1.60   13.40 
  -4   7  -5  -15.90    9.70 
   4  -7   5   -1.90    4.30 
   4  -7   5   -1.60    5.00 
   4  -7   5    5.20    3.50 
   4  -7   5    7.20    7.50 
  -5   7  -5    4.60   14.70 
  -5   7  -5   14.10   13.00 
   5  -7   5    8.20    6.00 
   5  -7   5   11.70    5.80 
   5  -7   5   16.70    4.70 
  -6   7  -5  -13.50   15.10 
   6  -7   5   13.50    6.70 
   6  -7   5   26.10    5.90 
   7   6  -5   56.09    8.80 
  -6  -6   5   33.60    9.90 
   5   6  -5  117.69   10.80 
  -5  -6   5  122.79   12.90 
  -5  -6   5  107.59    8.50 
  -5  -6   5  109.79   12.80 
   4   6  -5  114.79    8.30 
   4   6  -5   96.59    8.40 
   4   6  -5  107.79   11.60 
  -4  -6   5  107.89   10.90 
  -4  -6   5  110.59    8.70 
  -4  -6   5   98.19   12.50 
   3   6  -5   19.10    5.60 
   3   6  -5    8.90    3.30 
   3   6  -5    6.60    2.80 
  -3  -6   5    7.50    2.40 
  -3  -6   5    9.90    4.30 
  -3  -6   5   10.60    3.50 
  -3  -6   5    6.90    6.30 
   2   6  -5  101.19    9.00 
   2   6  -5  102.99    7.50 
   2   6  -5  114.79    9.50 
   2   6  -5  115.09   11.70 
  -2  -6   5   95.59   11.50 
  -2  -6   5  112.69    8.10 
  -2  -6   5  119.99    9.10 
  -2  -6   5  114.59    9.30 
   1   6  -5   22.90    6.90 
   1   6  -5   28.80    7.10 
   1   6  -5   36.30    3.70 
   1   6  -5   38.40    5.70 
  -1  -6   5   37.60    4.50 
  -1  -6   5   28.90    5.00 
  -1  -6   5   36.50    4.50 
  -1  -6   5   33.60    7.10 
   0   6  -5  102.09   14.30 
   0   6  -5  152.28    9.90 
   0   6  -5  180.08   15.30 
   0   6  -5  142.79   12.10 
   0  -6   5  167.58   16.00 
   0  -6   5  154.18   10.20 
   0  -6   5  159.28   12.10 
   0  -6   5  150.98   10.90 
  -1   6  -5   53.39    7.20 
  -1   6  -5   66.69   10.50 
  -1   6  -5   31.30   10.40 
  -1   6  -5   40.50    5.10 
   1  -6   5   54.79    7.10 
   1  -6   5   58.29    6.50 
   1  -6   5   48.70    5.00 
   1  -6   5   48.50    9.80 
  -2   6  -5  108.69   13.00 
  -2   6  -5   73.79    7.20 
  -2   6  -5   62.99   13.90 
  -2   6  -5   73.79    9.10 
   2  -6   5   84.39    9.60 
   2  -6   5   89.59   10.90 
   2  -6   5   80.99    6.70 
   2  -6   5   85.59    8.60 
   2  -6   5   96.59   18.00 
  -3   6  -5  156.98   14.50 
  -3   6  -5  134.39   19.70 
  -3   6  -5  234.08   22.70 
   3  -6   5  182.68   11.90 
   3  -6   5  187.28   14.60 
   3  -6   5  176.38   13.90 
   3  -6   5  162.88   16.30 
  -4   6  -5   50.69   15.90 
  -4   6  -5   77.99   13.40 
   4  -6   5   84.79   10.10 
   4  -6   5   93.09   15.90 
   4  -6   5   85.39    7.90 
   4  -6   5   84.79   10.60 
  -5   6  -5   40.50   11.90 
  -5   6  -5   24.10   15.30 
   5  -6   5   31.20    6.70 
   5  -6   5   32.90    9.10 
   5  -6   5   31.90    5.30 
   5  -6   5   29.00    6.80 
  -6   6  -5    2.20   11.20 
  -6   6  -5   32.10   16.20 
   6  -6   5   21.10    5.80 
   6  -6   5   31.50    7.40 
   7   5  -5   83.19   10.10 
   6   5  -5   95.49   10.20 
  -6  -5   5   73.19   11.80 
   5   5  -5   76.99    8.60 
  -5  -5   5   77.49   10.20 
   4   5  -5  512.45   32.60 
   4   5  -5  564.14   32.50 
   4   5  -5  529.25   31.80 
   4   5  -5  538.35   33.00 
  -4  -5   5  572.24   34.00 
  -4  -5   5  568.94   34.30 
  -4  -5   5  576.54   32.30 
   3   5  -5   97.09    7.30 
   3   5  -5   94.69    9.60 
   3   5  -5   92.39    7.60 
  -3  -5   5  100.19    8.90 
  -3  -5   5   88.59   11.10 
  -3  -5   5  103.89    8.00 
  -3  -5   5  102.59    6.90 
   2   5  -5 1073.99   61.29 
   2   5  -5 1034.80   60.59 
   2   5  -5 1076.89   61.79 
   2   5  -5 1142.89   62.59 
  -2  -5   5 1086.99   60.99 
  -2  -5   5 1083.19   61.49 
  -2  -5   5 1051.79   61.69 
  -2  -5   5 1019.60   63.19 
   1   5  -5  166.68   10.50 
   1   5  -5  157.58   14.90 
   1   5  -5  175.58   12.40 
   1   5  -5  202.78   14.40 
  -1  -5   5  173.78   11.20 
  -1  -5   5  165.98   12.40 
  -1  -5   5  172.98   11.50 
   0   5  -5  362.76   21.90 
   0   5  -5  308.17   18.40 
   0   5  -5  300.07   23.80 
   0   5  -5  329.37   20.40 
   0  -5   5  272.87   21.20 
   0  -5   5  330.77   20.40 
   0  -5   5  313.67   19.50 
   0  -5   5  304.77   18.50 
   0  -5   5  281.87   22.30 
  -1   5  -5   64.49   11.00 
  -1   5  -5   51.29    4.90 
  -1   5  -5   50.99   10.60 
  -1   5  -5   58.29    8.50 
  -1   5  -5   63.59    8.90 
   1  -5   5   48.70    6.70 
   1  -5   5   53.29    4.60 
   1  -5   5   44.90    7.40 
   1  -5   5   51.89    9.00 
   1  -5   5   58.89    6.50 
  -2   5  -5  134.19   11.70 
  -2   5  -5  145.69   16.90 
  -2   5  -5  150.58   14.50 
  -2   5  -5  131.79    9.80 
  -2   5  -5  138.79   12.30 
   2  -5   5  161.28   12.20 
   2  -5   5  144.79   14.00 
   2  -5   5  140.29    9.30 
   2  -5   5  119.69   14.60 
   2  -5   5  140.09   11.20 
  -3   5  -5   42.00   11.70 
  -3   5  -5   43.10    5.40 
  -3   5  -5   47.40    9.20 
  -3   5  -5   49.99    7.60 
  -3   5  -5   40.40    6.30 
   3  -5   5   35.80    6.60 
   3  -5   5   49.40    5.30 
   3  -5   5   45.20    8.60 
   3  -5   5   37.30    6.50 
  -4   5  -5    7.70   11.40 
  -4   5  -5   12.40    5.50 
  -4   5  -5   17.90    8.70 
   4  -5   5   10.90    4.50 
   4  -5   5    7.10    3.40 
   4  -5   5    7.20    6.90 
   4  -5   5   10.70    5.20 
  -5   5  -5  132.39   14.10 
  -5   5  -5  117.29   15.80 
  -5   5  -5   87.29   17.10 
   5  -5   5  129.19   11.10 
   5  -5   5  131.49   12.70 
   5  -5   5  126.29   12.20 
   5  -5   5  116.39   14.30 
  -6   5  -5   -3.50    8.90 
  -6   5  -5    0.70    6.00 
  -6   5  -5   14.50   14.80 
   6  -5   5    2.20    4.40 
   6  -5   5    0.70    5.70 
   6  -5   5    6.20    5.40 
  -7   5  -5   -4.10   15.70 
   7  -5   5    6.60    5.80 
   7  -5   5   11.10    6.60 
   7   4  -5   67.79    8.90 
   6   4  -5   49.80    7.20 
   5   4  -5  384.46   25.50 
  -5  -4   5  436.56   27.50 
   4   4  -5  421.86   25.40 
   4   4  -5  388.16   24.70 
  -4  -4   5  413.06   24.00 
  -4  -4   5  406.36   25.20 
   3   4  -5    3.20    2.10 
   3   4  -5    5.90    3.50 
  -3  -4   5    1.90    1.40 
  -3  -4   5    5.70    3.50 
  -3  -4   5    0.10    4.30 
  -3  -4   5    2.50    2.60 
   2   4  -5 1053.49   58.09 
   2   4  -5  995.80   57.49 
   2   4  -5  964.70   56.59 
  -2  -4   5 1010.20   57.59 
  -2  -4   5  985.10   57.29 
  -2  -4   5  982.90   58.59 
  -2  -4   5 1016.00   56.89 
   1   4  -5  110.89    8.70 
   1   4  -5  115.19    8.50 
   1   4  -5  100.69   11.70 
   1   4  -5   97.29    7.50 
   1   4  -5  142.09   10.60 
  -1  -4   5  106.69    9.20 
  -1  -4   5  119.99    7.60 
  -1  -4   5  121.19    9.10 
  -1  -4   5  112.69    8.10 
  -1  -4   5  114.29   10.80 
   0   4  -5  286.07   18.30 
   0   4  -5  294.67   21.50 
   0   4  -5  252.17   17.00 
   0   4  -5  279.17   18.30 
   0   4  -5  349.57   20.00 
   0  -4   5  305.77   18.60 
   0  -4   5  296.97   18.00 
   0  -4   5  255.07   18.90 
   0  -4   5  284.97   16.70 
   0  -4   5  275.97   20.30 
  -1   4  -5   26.40    8.20 
  -1   4  -5   26.20    5.00 
  -1   4  -5   34.00    6.30 
  -1   4  -5   35.00    5.00 
  -1   4  -5   27.90    3.40 
   1  -4   5   33.10    6.10 
   1  -4   5   32.70    5.20 
   1  -4   5   33.60    4.60 
   1  -4   5   20.60    6.70 
   1  -4   5   27.00    3.10 
  -2   4  -5    2.50    7.20 
  -2   4  -5    7.10    5.80 
  -2   4  -5    3.70    2.90 
  -2   4  -5    0.10    1.90 
   2  -4   5    1.20    4.70 
   2  -4   5   -2.40    2.90 
   2  -4   5    4.60    2.00 
   2  -4   5   -1.50    3.30 
  -3   4  -5  336.27   22.40 
  -3   4  -5  381.66   26.80 
  -3   4  -5  359.66   24.00 
  -3   4  -5  309.37   20.30 
  -3   4  -5  323.47   25.60 
   3  -4   5  318.57   23.50 
   3  -4   5  356.86   21.80 
   3  -4   5  299.57   21.50 
   3  -4   5  291.97   21.60 
   3  -4   5  353.76   20.00 
   3  -4   5  298.17   23.10 
  -4   4  -5   13.10   10.00 
  -4   4  -5    0.60    4.40 
  -4   4  -5    5.40    7.40 
   4  -4   5    1.80    6.00 
   4  -4   5   -2.90    2.80 
   4  -4   5    3.90    3.50 
   4  -4   5   -2.90    4.10 
  -5   4  -5    5.40    5.30 
  -5   4  -5    8.20    8.00 
  -5   4  -5   -1.40   10.60 
   5  -4   5   14.40    5.00 
   5  -4   5   10.80    4.30 
   5  -4   5    7.70    4.80 
   5  -4   5    8.60    6.70 
  -6   4  -5  -10.00    5.10 
  -6   4  -5   -6.50    8.60 
  -6   4  -5  -12.80   10.90 
   6  -4   5   -3.30    4.40 
   6  -4   5    1.60    7.00 
   6  -4   5    1.90    5.10 
   6  -4   5    4.20    4.50 
  -7   4  -5  -21.20   11.90 
   7  -4   5   -7.50    4.60 
   7  -4   5   -3.30    5.30 
   8   3  -5   -0.90    5.80 
   7   3  -5  193.08   16.00 
   6   3  -5   -6.20    3.50 
   5   3  -5  163.08   12.30 
   4   3  -5  544.75   31.10 
   4   3  -5  459.45   30.90 
  -4  -3   5  563.24   32.40 
   3   3  -5  478.05   27.50 
   3   3  -5  483.35   27.60 
   3   3  -5  427.46   27.40 
   3   3  -5  472.05   27.20 
  -3  -3   5  466.35   26.60 
  -3  -3   5  477.95   28.40 
  -3  -3   5  464.05   27.40 
  -3  -3   5  479.45   28.30 
   2   3  -5 1555.64   88.99 
   2   3  -5 1722.73   90.09 
  -2  -3   5 1514.95   89.49 
  -2  -3   5 1568.04   89.19 
  -2  -3   5 1617.64   89.69 
  -2  -3   5 1512.65   89.39 
  -2  -3   5 1583.44   90.29 
   1   3  -5  197.88   11.40 
   1   3  -5  207.88   13.00 
   1   3  -5  178.08   14.80 
   1   3  -5  224.98   14.20 
   1   3  -5  198.28   12.70 
  -1  -3   5  200.28   12.60 
  -1  -3   5  195.58   13.20 
  -1  -3   5  207.58   13.30 
  -1  -3   5  168.68   13.70 
   0   3  -5 1167.68   67.79 
   0   3  -5 1254.07   72.09 
   0   3  -5 1360.86   70.19 
   0   3  -5 1181.38   69.29 
   0   3  -5 1245.88   70.89 
   0  -3   5 1112.89   70.09 
   0  -3   5 1195.88   68.19 
   0  -3   5 1128.79   69.69 
   0  -3   5 1246.08   69.59 
  -1   3  -5   98.59    6.90 
  -1   3  -5  114.49   11.90 
  -1   3  -5  102.19   10.20 
  -1   3  -5  111.59    8.80 
  -1   3  -5  107.39    8.60 
   1  -3   5  116.19    9.10 
   1  -3   5   99.59    9.40 
   1  -3   5  105.09    6.60 
   1  -3   5  105.29    8.40 
  -2   3  -5 1653.63   90.39 
  -2   3  -5 1512.45   89.49 
  -2   3  -5 1729.83   91.59 
  -2   3  -5 1442.86   88.19 
  -2   3  -5 1560.24   89.79 
   2  -3   5 1469.65   90.19 
   2  -3   5 1421.86   90.49 
   2  -3   5 1644.84   89.79 
   2  -3   5 1674.23   89.59 
   2  -3   5 1674.53   87.99 
   2  -3   5 1397.06   88.89 
  -3   3  -5   21.10    8.30 
  -3   3  -5   30.00    4.40 
  -3   3  -5   28.60    5.40 
  -3   3  -5   39.60    7.60 
  -3   3  -5   17.40    3.70 
   3  -3   5   30.40    6.40 
   3  -3   5   37.20    5.70 
   3  -3   5   28.50    4.00 
   3  -3   5   29.80    6.00 
   3  -3   5   29.00    5.10 
  -4   3  -5  356.36   26.30 
  -4   3  -5  342.77   23.70 
  -4   3  -5  303.97   21.90 
   4  -3   5  339.37   21.70 
   4  -3   5  319.97   21.70 
   4  -3   5  269.67   22.50 
   4  -3   5  331.97   20.40 
  -5   3  -5   12.30    7.40 
  -5   3  -5   10.50    9.80 
  -5   3  -5   10.10    5.30 
   5  -3   5   19.30    4.60 
   5  -3   5    8.60    5.00 
   5  -3   5    0.90    6.30 
   5  -3   5   14.70    5.20 
  -6   3  -5    8.90   10.60 
  -6   3  -5   -0.60    7.90 
  -6   3  -5    8.60    5.60 
   6  -3   5    6.50    4.60 
   6  -3   5   15.20    7.50 
   6  -3   5   11.90    5.20 
   6  -3   5   10.70    5.80 
  -7   3  -5   11.90   13.50 
   7  -3   5    9.50    5.90 
   7  -3   5    2.10    5.50 
   8   2  -5   10.40    6.40 
   7   2  -5  142.49   12.90 
   6   2  -5   37.10    6.00 
   5   2  -5  482.25   29.40 
   4   2  -5   17.00    3.50 
   4   2  -5   19.40    3.90 
   3   2  -5  858.91   54.29 
   3   2  -5  962.90   54.29 
   3   2  -5  979.30   53.99 
   3   2  -5  995.00   54.19 
  -3  -2   5  961.50   53.39 
  -3  -2   5  943.51   53.99 
   2   2  -5 1679.43   95.19 
   2   2  -5 1797.72   95.49 
   2   2  -5 1677.63   94.69 
   2   2  -5 1599.14   94.69 
  -2  -2   5 1720.83   95.29 
  -2  -2   5 1709.33   94.99 
  -2  -2   5 1618.74   94.99 
   1   2  -5  155.58   10.40 
   1   2  -5  166.78   12.40 
   1   2  -5  151.68   10.50 
   1   2  -5  172.48   11.20 
  -1  -2   5  144.29   10.60 
  -1  -2   5  162.98   10.40 
  -1  -2   5  173.18   10.90 
   0   2  -5 1034.70   56.09 
   0   2  -5  995.90   56.59 
   0   2  -5  920.91   55.49 
   0  -2   5  904.71   56.09 
   0  -2   5  979.00   55.79 
   0  -2   5  957.10   55.89 
  -1   2  -5  713.93   42.50 
  -1   2  -5  763.92   43.90 
  -1   2  -5  732.33   42.70 
  -1   2  -5  711.13   41.10 
  -1   2  -5  775.02   43.30 
   1  -2   5  720.33   43.00 
   1  -2   5  745.83   41.00 
   1  -2   5  673.23   43.20 
   1  -2   5  761.82   42.90 
   1  -2   5  671.23   41.50 
  -2   2  -5    8.50    5.70 
  -2   2  -5    4.40    5.30 
  -2   2  -5    9.70    2.10 
  -2   2  -5    9.90    3.10 
  -2   2  -5    5.20    3.00 
   2  -2   5    6.70    2.00 
   2  -2   5    7.50    3.40 
   2  -2   5    3.60    2.50 
   2  -2   5    8.60    4.00 
   2  -2   5   12.50    4.20 
   2  -2   5    6.50    2.90 
  -3   2  -5  393.46   26.00 
  -3   2  -5  366.36   25.00 
  -3   2  -5  416.46   27.60 
   3  -2   5  357.76   24.50 
   3  -2   5  386.66   26.00 
   3  -2   5  449.76   27.40 
   3  -2   5  404.76   23.80 
   3  -2   5  409.66   25.20 
   3  -2   5  388.36   25.10 
  -4   2  -5  199.08   16.20 
  -4   2  -5  173.98   14.20 
  -4   2  -5  188.38   17.80 
   4  -2   5  199.88   13.20 
   4  -2   5  201.28   14.40 
   4  -2   5  183.08   14.30 
   4  -2   5  148.89   18.30 
  -5   2  -5   99.59   11.00 
  -5   2  -5  104.59   13.80 
  -5   2  -5  102.19   12.10 
   5  -2   5  101.59   10.20 
   5  -2   5   90.99   12.10 
   5  -2   5  111.29   10.80 
   5  -2   5  116.09   10.00 
  -6   2  -5    7.20    9.90 
  -6   2  -5   10.80    7.40 
  -6   2  -5    4.40    4.90 
   6  -2   5   -5.90    5.50 
   6  -2   5    6.90    5.00 
   6  -2   5    4.00    4.80 
   6  -2   5   -2.40    3.90 
  -7   2  -5   -8.20   10.90 
  -7   2  -5   24.70    9.20 
  -7   2  -5   16.60    7.40 
   7  -2   5    6.50    5.90 
   7  -2   5   15.60    6.30 
  -8   2  -5   -4.80   12.90 
   8  -2   5    1.70    5.70 
   8  -2   5    3.20    6.40 
   8   1  -5    7.50    6.10 
   7   1  -5  104.49   10.90 
   6   1  -5    7.40    4.20 
   5   1  -5  380.66   23.80 
   4   1  -5    9.50    3.00 
   4   1  -5    5.50    3.30 
  -4  -1   5    6.50    1.80 
   3   1  -5 1217.68   68.09 
   3   1  -5 1287.87   67.99 
   3   1  -5 1130.69   68.59 
   3   1  -5 1192.88   67.99 
  -3  -1   5 1226.38   67.99 
  -3  -1   5 1201.58   67.99 
  -3  -1   5 1175.28   67.49 
  -3  -1   5 1177.28   67.49 
   2   1  -5 2307.97  124.99 
   2   1  -5 2252.67  124.39 
   2   1  -5 2272.87  124.89 
   2   1  -5 2106.39  124.59 
  -2  -1   5 2185.38  125.09 
  -2  -1   5 2181.18  124.69 
  -2  -1   5 2139.69  124.69 
  -2  -1   5 2310.97  124.99 
   1   1  -5 3093.49  168.08 
   1   1  -5 2954.00  167.68 
   1   1  -5 3182.68  168.28 
   1   1  -5 2999.00  167.88 
  -1  -1   5 2909.11  167.78 
  -1  -1   5 2830.42  168.08 
  -1  -1   5 3003.50  167.98 
  -1  -1   5 2922.41  167.78 
   0   1  -5 2296.47  130.19 
   0   1  -5 2403.16  130.49 
   0   1  -5 2302.77  130.19 
   0   1  -5 2395.16  130.79 
   0  -1   5 2222.58  130.29 
   0  -1   5 2332.37  130.39 
   0  -1   5 2197.68  130.59 
  -1   1  -5  277.07   18.70 
  -1   1  -5  282.27   18.20 
  -1   1  -5  283.57   17.60 
  -1   1  -5  299.07   17.80 
   1  -1   5  291.17   17.80 
   1  -1   5  291.87   16.40 
   1  -1   5  256.87   19.10 
   1  -1   5  283.47   18.00 
   1  -1   5  265.57   16.60 
   1  -1   5  285.37   18.00 
  -2   1  -5 2615.04  148.09 
  -2   1  -5 2580.34  147.89 
  -2   1  -5 2645.04  148.59 
   2  -1   5 2760.12  147.99 
   2  -1   5 2720.63  146.79 
   2  -1   5 2655.43  148.09 
   2  -1   5 2442.56  147.09 
   2  -1   5 2508.65  148.09 
   2  -1   5 2586.64  148.39 
  -3   1  -5   50.19    5.90 
  -3   1  -5   38.90    5.80 
  -3   1  -5   70.99    8.20 
  -3   1  -5   52.99    7.90 
   3  -1   5   80.69    9.10 
   3  -1   5   48.40    6.00 
   3  -1   5   57.09   10.50 
   3  -1   5   60.89    5.60 
   3  -1   5   61.39    7.00 
  -4   1  -5  313.17   20.70 
  -4   1  -5  256.97   20.40 
  -4   1  -5  257.37   18.10 
  -4   1  -5  236.78   18.10 
   4  -1   5  259.77   18.90 
   4  -1   5  265.07   18.00 
   4  -1   5  279.07   18.40 
   4  -1   5  274.37   17.40 
   4  -1   5  242.58   18.10 
  -5   1  -5  111.69   12.30 
  -5   1  -5  129.49   14.10 
   5  -1   5  109.29   10.40 
   5  -1   5   97.89   11.70 
   5  -1   5  104.39    9.90 
   5  -1   5  108.99   10.90 
  -6   1  -5    4.70    4.60 
  -6   1  -5    2.70    9.20 
  -6   1  -5    8.10    4.70 
   6  -1   5   -0.30    5.00 
   6  -1   5   -1.20    4.60 
   6  -1   5    0.20    3.80 
   6  -1   5    4.00    4.80 
  -7   1  -5   74.29   11.20 
  -7   1  -5   82.19   10.40 
  -7   1  -5   78.59   14.40 
   7  -1   5   93.79   10.70 
   7  -1   5   97.79   11.30 
   7  -1   5   65.19   10.70 
  -8   1  -5  -15.80   10.80 
   8  -1   5   -3.60    6.00 
   8  -1   5   -5.00    5.00 
   8   0  -5   70.29    9.60 
  -8   0   5   71.29    8.50 
   7   0  -5   12.10    5.30 
  -7   0   5   21.90    4.10 
  -7   0   5   13.40    6.00 
   6   0  -5  183.88   14.00 
  -6   0   5  188.88   12.10 
  -6   0   5  193.98   15.30 
   5   0  -5   21.00    4.30 
  -5   0   5   23.50    3.00 
  -5   0   5   18.00    4.10 
   4   0  -5   -1.50    2.30 
   4   0  -5    1.60    1.70 
  -4   0   5   -0.80    1.60 
  -4   0   5   -1.50    2.30 
   3   0  -5  690.83   41.60 
   3   0  -5  753.12   40.70 
   3   0  -5  735.03   40.90 
   3   0  -5  721.23   40.70 
  -3   0   5  703.73   40.40 
  -3   0   5  697.63   40.80 
  -3   0   5  704.33   40.60 
  -3   0   5  699.83   40.20 
  -3   0   5  679.53   40.90 
   2   0  -5   69.99    4.70 
   2   0  -5   63.19    5.20 
   2   0  -5   60.49    5.40 
   2   0  -5   61.09    5.50 
   2   0  -5   73.99    5.50 
   2   0  -5   71.29    5.50 
  -2   0   5   68.89    5.00 
  -2   0   5   65.19    5.00 
  -2   0   5   64.49    4.80 
  -2   0   5   78.99    5.60 
  -2   0   5   66.79    5.50 
   1   0  -5 1273.77   72.99 
   1   0  -5 1314.07   74.09 
   1   0  -5 1327.17   74.19 
   1   0  -5 1287.27   74.19 
  -1   0   5 1283.77   73.09 
  -1   0   5 1278.07   73.99 
  -1   0   5 1348.57   74.09 
  -1   0   5 1330.97   74.19 
   0   0  -5 1765.52   99.39 
   0   0  -5 1758.22   99.79 
   0   0  -5 1747.43   99.49 
   0   0  -5 1798.12   99.49 
   0   0   5 1712.73   99.39 
   0   0   5 1706.43   98.09 
   0   0   5 1795.72   99.39 
   0   0   5 1806.02   99.59 
   0   0   5 1709.13   99.59 
  -1   0  -5   78.79    7.20 
  -1   0  -5   73.79    5.40 
  -1   0  -5   81.39    6.90 
  -1   0  -5   71.89    6.30 
   1   0   5   83.09    6.70 
   1   0   5   73.89    5.10 
   1   0   5   74.69    5.20 
   1   0   5   74.99    6.70 
   1   0   5   72.49    6.50 
  -2   0  -5  582.94   34.60 
  -2   0  -5  580.04   35.10 
  -2   0  -5  624.44   35.90 
   2   0   5  598.74   35.30 
   2   0   5  563.84   35.30 
   2   0   5  625.14   34.20 
   2   0   5  589.84   35.30 
   2   0   5  587.44   35.20 
   2   0   5  566.84   34.40 
  -3   0  -5   19.80    4.70 
  -3   0  -5   26.90    4.70 
  -3   0  -5   23.00    4.20 
  -3   0  -5   15.90    3.70 
  -3   0  -5   22.80    4.80 
   3   0   5   21.70    3.90 
   3   0   5   20.20    4.20 
   3   0   5   19.20    4.10 
   3   0   5   25.60    3.80 
   3   0   5   28.70    4.70 
  -4   0  -5  426.36   27.10 
  -4   0  -5  393.86   26.20 
  -4   0  -5  461.25   27.80 
  -4   0  -5  429.66   27.30 
  -4   0  -5  395.36   26.30 
   4   0   5  442.16   26.80 
   4   0   5  403.26   27.00 
   4   0   5  443.26   26.60 
   4   0   5  449.66   26.20 
   4   0   5  382.06   26.50 
  -5   0  -5   10.90    7.00 
  -5   0  -5    6.30    3.90 
   5   0   5    8.20    4.90 
   5   0   5    8.40    4.20 
   5   0   5   11.70    4.50 
   5   0   5    3.40    3.90 
  -6   0  -5   57.09    9.30 
  -6   0  -5   62.29   14.70 
  -6   0  -5   54.49    7.50 
   6   0   5   58.49    7.10 
   6   0   5   53.69    8.50 
   6   0   5   68.69    9.00 
  -7   0  -5   71.49   17.20 
  -7   0  -5  154.18   17.10 
  -7   0  -5  117.39   12.30 
   7   0   5  128.09   12.90 
   7   0   5  112.59   10.20 
   7   0   5  144.79   13.50 
  -8   0  -5    8.50   12.50 
   8   0   5    1.50    5.50 
   8   0   5    2.90    6.30 
   8  -1  -5   13.10    6.10 
  -8   1   5   25.10    5.70 
  -8   1   5   36.20    8.60 
   7  -1  -5   38.60    7.00 
  -7   1   5   36.00    8.30 
  -7   1   5   54.39    6.20 
   6  -1  -5  107.59   10.10 
   6  -1  -5  138.69    9.20 
   6  -1  -5  128.99   11.10 
  -6   1   5  143.39    9.70 
  -6   1   5  127.49   12.60 
   5  -1  -5  391.16   23.00 
   5  -1  -5  309.37   23.60 
   5  -1  -5  371.86   21.90 
  -5   1   5  367.06   23.50 
  -5   1   5  363.76   21.30 
  -5   1   5  388.16   21.90 
   4  -1  -5   57.59    6.40 
   4  -1  -5   56.29    4.90 
   4  -1  -5   56.79    5.60 
   4  -1  -5   50.89    7.20 
  -4   1   5   45.30    5.60 
  -4   1   5   57.79    6.60 
  -4   1   5   50.59    5.00 
  -4   1   5   52.79    4.50 
   3  -1  -5  643.94   38.30 
   3  -1  -5  677.33   38.00 
   3  -1  -5  611.44   39.00 
   3  -1  -5  694.03   37.80 
  -3   1   5  672.03   37.80 
  -3   1   5  646.54   38.30 
  -3   1   5  659.03   37.50 
  -3   1   5  662.73   37.90 
  -3   1   5  639.24   38.10 
   2  -1  -5   66.69    6.50 
   2  -1  -5   85.79    6.10 
   2  -1  -5   81.09    6.40 
   2  -1  -5   75.99    7.90 
   2  -1  -5   80.49    5.40 
  -2   1   5   82.99    6.00 
  -2   1   5   79.39    6.40 
  -2   1   5   76.19    6.00 
  -2   1   5   81.89    5.70 
  -2   1   5   82.59    5.80 
   1  -1  -5  897.81   53.39 
   1  -1  -5  930.71   53.49 
   1  -1  -5  928.81   52.39 
   1  -1  -5  909.11   53.49 
   1  -1  -5  945.71   53.39 
  -1   1   5  939.71   52.49 
  -1   1   5  963.70   53.49 
  -1   1   5  966.30   53.59 
  -1   1   5  903.41   53.19 
   0  -1  -5  472.15   26.00 
   0  -1  -5  451.75   27.10 
   0  -1  -5  445.56   27.10 
   0  -1  -5  441.96   27.20 
   0  -1  -5  456.15   27.10 
   0   1   5  431.06   27.00 
   0   1   5  466.15   25.90 
   0   1   5  469.65   27.20 
   0   1   5  474.25   27.10 
   0   1   5  445.16   26.90 
  -1  -1  -5  835.22   47.50 
  -1  -1  -5  800.52   47.30 
  -1  -1  -5  836.92   48.70 
  -1  -1  -5  817.92   46.50 
  -1  -1  -5  797.02   47.20 
   1   1   5  797.72   47.20 
   1   1   5  833.52   47.30 
   1   1   5  855.01   47.40 
   1   1   5  797.22   46.20 
   1   1   5  778.92   47.20 
  -2  -1  -5 1413.76   78.69 
  -2  -1  -5 1363.46   78.79 
  -2  -1  -5 1335.17   78.39 
  -2  -1  -5 1371.56   77.99 
  -2  -1  -5 1318.87   78.29 
   2   1   5 1339.67   78.39 
   2   1   5 1337.87   77.79 
   2   1   5 1476.15   78.69 
   2   1   5 1377.06   78.49 
  -3  -1  -5  117.99   10.20 
  -3  -1  -5  112.49    9.20 
  -3  -1  -5  109.19   10.10 
  -3  -1  -5  104.49    8.90 
  -3  -1  -5  117.49    9.70 
   3   1   5  134.89    9.00 
   3   1   5  121.29    9.60 
   3   1   5  116.09    9.60 
   3   1   5  131.29    9.60 
   3   1   5  112.99    9.10 
   3   1   5  120.29   12.50 
  -4  -1  -5  612.14   45.70 
  -4  -1  -5  751.42   43.30 
  -4  -1  -5  662.03   42.50 
  -4  -1  -5  715.63   43.30 
  -4  -1  -5  777.82   43.70 
   4   1   5  746.83   42.80 
   4   1   5  661.33   42.80 
   4   1   5  757.82   43.10 
   4   1   5  714.73   43.10 
   4   1   5  755.22   42.60 
  -5  -1  -5    2.20    5.20 
  -5  -1  -5   -1.20    3.00 
  -5  -1  -5   13.00    4.10 
  -5  -1  -5    6.50    5.20 
   5   1   5    6.90    4.20 
   5   1   5    1.90    3.60 
   5   1   5    2.30    4.00 
   5   1   5    1.20    3.60 
  -6  -1  -5  106.49   10.10 
  -6  -1  -5   96.79   11.80 
   6   1   5  121.89   17.00 
   6   1   5   86.99   10.50 
   6   1   5   94.99    9.30 
   6   1   5   91.69   10.60 
  -7  -1  -5   25.30   10.70 
  -7  -1  -5   32.10    8.50 
   7   1   5   37.00    7.20 
   7   1   5   22.20    6.30 
   7   1   5   21.10    7.10 
   7   1   5   22.20    4.40 
  -8  -1  -5   19.50   12.70 
   8   1   5   34.70   10.60 
   8   1   5   38.50    7.80 
   8  -2  -5   61.09   11.90 
   8  -2  -5   41.50    6.20 
   8  -2  -5   57.99    7.00 
  -8   2   5   62.49    8.20 
  -8   2   5   38.40   10.10 
   7  -2  -5    6.20    4.70 
   7  -2  -5    1.60    4.70 
   7  -2  -5   -0.50    2.90 
  -7   2   5    0.00    6.50 
   6  -2  -5   45.00    6.50 
   6  -2  -5   45.80    5.80 
   6  -2  -5   45.50    6.90 
  -6   2   5   48.30    5.70 
  -6   2   5   53.49    8.60 
   5  -2  -5   35.50    6.30 
   5  -2  -5   54.49    5.60 
   5  -2  -5   53.49    6.10 
  -5   2   5   50.49    5.80 
  -5   2   5   40.70    7.10 
  -5   2   5   49.40    5.40 
   4  -2  -5  274.37   18.30 
   4  -2  -5  296.27   17.60 
   4  -2  -5  262.17   19.80 
   4  -2  -5  303.57   17.60 
  -4   2   5  269.47   18.00 
  -4   2   5  285.07   17.60 
  -4   2   5  260.47   18.70 
  -4   2   5  282.27   17.30 
   3  -2  -5  438.96   25.40 
   3  -2  -5  421.76   25.90 
   3  -2  -5  363.46   25.50 
   3  -2  -5  445.36   25.00 
   3  -2  -5  460.85   25.00 
  -3   2   5  426.86   24.90 
  -3   2   5  428.56   25.20 
  -3   2   5  414.86   25.40 
  -3   2   5  429.96   26.10 
   2  -2  -5  346.37   20.00 
   2  -2  -5  306.37   20.60 
   2  -2  -5  346.07   19.30 
   2  -2  -5  308.37   20.30 
   2  -2  -5  330.67   20.00 
  -2   2   5  334.77   20.20 
  -2   2   5  330.77   19.80 
  -2   2   5  330.27   19.70 
  -2   2   5  330.67   19.70 
  -2   2   5  336.07   20.50 
   1  -2  -5 2908.41  159.88 
   1  -2  -5 2910.01  160.78 
   1  -2  -5 2803.32  160.98 
   1  -2  -5 2933.71  160.68 
   1  -2  -5 2834.22  160.98 
  -1   2   5 2893.21  160.98 
  -1   2   5 2712.13  159.88 
  -1   2   5 2944.11  160.58 
  -1   2   5 2756.82  160.48 
   0  -2  -5  100.39    7.50 
   0  -2  -5   94.79    7.60 
   0  -2  -5  100.09    7.70 
   0  -2  -5  104.19    6.60 
   0  -2  -5  111.09    8.00 
   0   2   5   96.19    7.30 
   0   2   5   99.19    7.30 
   0   2   5  104.79    7.80 
   0   2   5  100.69    6.40 
  -1  -2  -5    6.10    2.00 
  -1  -2  -5    8.50    2.10 
  -1  -2  -5    9.10    2.70 
  -1  -2  -5   12.30    2.90 
  -1  -2  -5   14.70    3.90 
   1   2   5    4.90    1.90 
   1   2   5   11.40    2.70 
   1   2   5   13.90    2.90 
   1   2   5    9.00    2.10 
   1   2   5   14.00    2.10 
  -2  -2  -5  989.80   61.39 
  -2  -2  -5 1048.60   61.59 
  -2  -2  -5 1090.49   61.79 
  -2  -2  -5 1110.99   61.29 
   2   2   5 1024.70   61.39 
   2   2   5 1122.69   61.69 
   2   2   5 1050.49   60.89 
   2   2   5 1107.29   61.69 
   2   2   5 1057.39   61.39 
  -3  -2  -5  172.48   12.00 
  -3  -2  -5  169.28   12.20 
  -3  -2  -5  161.18   11.90 
  -3  -2  -5  143.29   11.10 
  -3  -2  -5  152.68   11.50 
   3   2   5  155.48   11.50 
   3   2   5  155.68   11.30 
   3   2   5  169.08   11.80 
   3   2   5  156.08   11.30 
   3   2   5  170.78   11.80 
  -4  -2  -5  216.98   16.40 
  -4  -2  -5  247.18   17.50 
  -4  -2  -5  265.57   17.70 
   4   2   5  253.87   16.80 
   4   2   5  262.27   17.00 
  -5  -2  -5   19.10    5.80 
  -5  -2  -5   32.00    6.90 
  -5  -2  -5   18.00    4.40 
  -5  -2  -5   21.40    5.60 
   5   2   5   25.00    5.20 
   5   2   5   37.50    6.10 
   5   2   5   15.90    4.50 
   5   2   5   22.60    5.00 
  -6  -2  -5   41.90    8.40 
  -6  -2  -5   63.39   10.40 
  -6  -2  -5   40.20    7.60 
   6   2   5   61.89    8.70 
   6   2   5   64.99    8.30 
   6   2   5   53.59    6.60 
  -7  -2  -5   10.10    4.80 
  -7  -2  -5    7.20    6.60 
   7   2   5   12.70    5.10 
   7   2   5   20.10    7.10 
   7   2   5   14.40    5.80 
  -8  -2  -5   12.70   10.20 
   8   2   5   -0.20    6.60 
   8   2   5    4.80    5.50 
   8  -3  -5   24.70    6.40 
   8  -3  -5   21.80    7.90 
   8  -3  -5   21.10    4.70 
  -8   3   5   38.50   10.40 
   7  -3  -5   11.30    6.50 
   7  -3  -5   15.60    4.30 
   7  -3  -5   11.70    5.10 
  -7   3   5   12.20    8.20 
  -7   3   5   20.10    5.60 
   6  -3  -5   53.59    8.90 
   6  -3  -5   83.19    8.50 
   6  -3  -5   89.09    8.10 
  -6   3   5   90.39    8.20 
  -6   3   5   82.29    8.50 
  -6   3   5   79.49   11.30 
   5  -3  -5 1540.65   87.59 
   5  -3  -5 1371.16   88.19 
   5  -3  -5 1582.34   87.89 
  -5   3   5 1561.14   87.59 
  -5   3   5 1646.34   88.29 
  -5   3   5 1511.65   89.59 
   4  -3  -5  149.39   10.40 
   4  -3  -5  146.89   12.30 
   4  -3  -5  178.98   11.40 
   4  -3  -5  159.98   10.90 
  -4   3   5  156.68   11.00 
  -4   3   5  167.88   11.80 
  -4   3   5  142.49   13.10 
   3  -3  -5  371.56   25.10 
   3  -3  -5  323.47   24.70 
   3  -3  -5  428.36   24.10 
   3  -3  -5  394.56   23.70 
   3  -3  -5  414.76   24.30 
  -3   3   5  395.46   23.50 
  -3   3   5  419.16   25.20 
  -3   3   5  411.96   24.50 
  -3   3   5  388.56   24.10 
  -3   3   5  401.46   23.80 
   2  -3  -5  127.39    9.10 
   2  -3  -5  111.49   10.80 
   2  -3  -5  134.59    8.30 
   2  -3  -5  128.99    9.10 
   2  -3  -5  126.09    9.70 
  -2   3   5  134.49    9.50 
  -2   3   5  116.29    8.50 
  -2   3   5  126.69   10.00 
  -2   3   5  121.49    8.80 
   1  -3  -5  378.16   21.50 
   1  -3  -5  370.16   22.90 
   1  -3  -5  374.36   22.30 
   1  -3  -5  359.16   22.70 
   1  -3  -5  372.76   22.40 
  -1   3   5  348.37   21.40 
  -1   3   5  368.36   22.10 
  -1   3   5  355.66   22.10 
  -1   3   5  372.26   22.80 
  -1   3   5  379.16   22.60 
   0  -3  -5  293.07   18.30 
   0  -3  -5  292.47   18.70 
   0  -3  -5  289.17   18.60 
   0  -3  -5  290.67   18.30 
   0  -3  -5  289.77   17.50 
   0   3   5  319.57   18.80 
   0   3   5  296.07   18.50 
   0   3   5  289.17   17.30 
   0   3   5  305.47   18.50 
   0   3   5  278.17   18.00 
  -1  -3  -5  974.40   57.19 
  -1  -3  -5  970.00   57.59 
  -1  -3  -5 1006.00   57.39 
  -1  -3  -5  930.31   57.39 
  -1  -3  -5 1037.90   56.79 
   1   3   5  968.00   56.99 
   1   3   5 1085.49   57.69 
   1   3   5  986.30   56.99 
   1   3   5  975.30   56.39 
  -2  -3  -5  210.98   14.30 
  -2  -3  -5  213.48   14.50 
  -2  -3  -5  237.28   14.30 
  -2  -3  -5  205.78   14.50 
  -2  -3  -5  193.88   14.20 
   2   3   5  226.68   15.00 
   2   3   5  205.98   13.50 
   2   3   5  203.58   14.00 
   2   3   5  216.28   13.90 
   2   3   5  227.68   14.40 
  -3  -3  -5   26.70    4.40 
  -3  -3  -5   30.90    4.90 
  -3  -3  -5   20.10    3.70 
  -3  -3  -5   30.90    5.10 
   3   3   5   27.90    4.30 
   3   3   5   29.70    4.10 
   3   3   5   33.80    4.80 
   3   3   5   32.20    4.40 
  -4  -3  -5  181.78   13.70 
  -4  -3  -5  190.08   13.50 
  -4  -3  -5  140.19   12.30 
   4   3   5  164.18   12.50 
   4   3   5  178.98   12.90 
   4   3   5  173.98   12.50 
  -5  -3  -5    8.30    4.90 
  -5  -3  -5    4.70    4.20 
  -5  -3  -5    7.70    5.60 
  -5  -3  -5    9.90    3.30 
   5   3   5    1.50    4.00 
   5   3   5    9.60    4.00 
   5   3   5    6.30    4.10 
   5   3   5    5.00    3.50 
  -6  -3  -5  285.57   21.20 
  -6  -3  -5  277.77   22.20 
  -6  -3  -5  295.57   20.40 
  -6  -3  -5  251.77   19.50 
   6   3   5  272.17   19.60 
   6   3   5  332.57   20.60 
   6   3   5  298.97   21.00 
   6   3   5  268.97   18.40 
  -7  -3  -5    9.40    4.80 
  -7  -3  -5   11.20    7.00 
  -7  -3  -5   -2.40    6.10 
  -7  -3  -5   12.60    8.40 
   7   3   5    4.20    4.50 
   7   3   5   -1.90    5.60 
   7   3   5    3.70    5.30 
   8   3   5   31.60    7.60 
   8   3   5   28.80    8.50 
   7  -4  -5   -0.50    3.50 
   7  -4  -5   -3.40    4.30 
   7  -4  -5    3.60    6.50 
  -7   4   5   -1.30    7.60 
  -7   4   5   -6.00    4.80 
   6  -4  -5   97.29   12.30 
   6  -4  -5  114.29    9.80 
   6  -4  -5  108.29    9.80 
  -6   4   5  115.69   10.70 
  -6   4   5   85.49   10.10 
  -6   4   5  106.29   13.20 
   5  -4  -5    4.10    2.70 
   5  -4  -5    3.70    5.30 
   5  -4  -5    2.00    3.30 
   5  -4  -5   -1.10    3.10 
  -5   4   5    5.90    6.30 
  -5   4   5    3.00    4.10 
  -5   4   5    2.00    3.60 
   4  -4  -5  190.58   16.20 
   4  -4  -5  237.08   15.30 
   4  -4  -5  243.08   14.70 
   4  -4  -5  214.78   14.70 
  -4   4   5  234.28   16.10 
  -4   4   5  220.68   15.00 
  -4   4   5  235.88   17.70 
   3  -4  -5  113.89    9.10 
   3  -4  -5  119.09    9.00 
   3  -4  -5  123.69    8.30 
   3  -4  -5  104.49   10.20 
  -3   4   5  112.69    9.70 
  -3   4   5  117.09   11.10 
  -3   4   5  110.39    8.90 
   2  -4  -5  149.59    9.20 
   2  -4  -5  134.29   12.00 
   2  -4  -5  127.79   10.70 
   2  -4  -5  135.99   10.00 
  -2   4   5  134.29    9.80 
  -2   4   5  155.38   10.60 
  -2   4   5  123.09    9.40 
  -2   4   5  139.69    9.60 
   1  -4  -5 1446.56   84.49 
   1  -4  -5 1508.15   83.69 
   1  -4  -5 1366.56   84.89 
   1  -4  -5 1448.06   85.29 
   1  -4  -5 1552.64   84.59 
  -1   4   5 1466.25   84.29 
  -1   4   5 1545.75   85.29 
  -1   4   5 1498.85   84.19 
  -1   4   5 1445.86   83.69 
  -1   4   5 1531.05   85.49 
   0  -4  -5    7.70    2.60 
   0  -4  -5    7.80    2.70 
   0  -4  -5    6.10    3.00 
   0  -4  -5    8.80    3.30 
   0  -4  -5    5.00    2.00 
   0   4   5    5.00    2.40 
   0   4   5    4.30    1.70 
   0   4   5    2.20    1.60 
   0   4   5    5.10    2.90 
   0   4   5    4.90    2.20 
  -1  -4  -5 3982.20  223.48 
  -1  -4  -5 3786.92  223.78 
  -1  -4  -5 3812.42  223.78 
  -1  -4  -5 3954.40  223.48 
  -1  -4  -5 4092.89  223.08 
   1   4   5 4115.89  223.88 
   1   4   5 4049.09  223.28 
   1   4   5 3986.90  223.18 
   1   4   5 4100.29  223.78 
   1   4   5 3832.12  222.58 
  -2  -4  -5  360.56   21.90 
  -2  -4  -5  340.77   21.80 
  -2  -4  -5  334.47   22.00 
  -2  -4  -5  346.77   21.90 
  -2  -4  -5  337.77   22.20 
   2   4   5  349.87   22.00 
   2   4   5  320.87   21.10 
   2   4   5  352.86   21.50 
   2   4   5  412.46   24.10 
   2   4   5  344.77   21.60 
  -3  -4  -5  332.47   22.70 
  -3  -4  -5  368.26   22.90 
  -3  -4  -5  347.47   22.80 
  -3  -4  -5  380.46   23.30 
  -3  -4  -5  355.96   22.70 
   3   4   5  361.46   22.40 
   3   4   5  362.86   22.20 
   3   4   5  390.46   23.00 
   3   4   5  336.27   22.20 
   3   4   5  354.96   22.60 
  -4  -4  -5  112.99    9.60 
  -4  -4  -5  120.49   10.60 
  -4  -4  -5  112.89    9.90 
  -4  -4  -5  123.29   11.20 
   4   4   5  106.59    9.30 
   4   4   5  115.29    9.90 
   4   4   5  116.19    9.90 
  -5  -4  -5    5.50    4.10 
  -5  -4  -5    3.60    5.40 
  -5  -4  -5    1.60    4.30 
   5   4   5    2.90    3.60 
   5   4   5    3.00    3.50 
   5   4   5    1.40    3.10 
  -6  -4  -5    6.40    4.90 
  -6  -4  -5    6.50    5.40 
  -6  -4  -5    3.70    6.80 
  -6  -4  -5   -2.40    3.90 
   6   4   5    3.30    3.60 
   6   4   5    8.40    5.60 
   6   4   5    3.70    4.60 
  -7  -4  -5    2.80    7.90 
  -7  -4  -5    1.70    4.60 
  -7  -4  -5    3.60    6.40 
  -7  -4  -5   12.60    6.50 
   7   4   5   13.70    5.80 
   7   4   5    3.00    6.30 
   7   4   5   10.90    4.50 
  -8  -4  -5   18.50   10.30 
  -8  -4  -5   22.00    8.50 
   8   4   5    4.60    6.70 
   8   4   5   13.30    6.00 
   7  -5  -5   11.80    5.80 
   7  -5  -5   12.60    5.10 
   7  -5  -5   13.60    8.10 
  -7   5   5    3.80    9.10 
  -7   5   5    6.70    6.90 
   6  -5  -5   77.59    8.50 
   6  -5  -5   75.79    8.10 
   6  -5  -5   40.90    9.00 
  -6   5   5   69.09   11.70 
  -6   5   5   82.59    9.60 
  -6   5   5   61.89    9.20 
   5  -5  -5    9.50    3.70 
   5  -5  -5    6.50    4.80 
   5  -5  -5   12.20    6.40 
   5  -5  -5   13.90    3.70 
  -5   5   5    1.70    6.40 
  -5   5   5    8.90    4.50 
  -5   5   5    8.00    4.00 
   4  -5  -5  206.38   13.40 
   4  -5  -5  192.98   13.80 
   4  -5  -5  180.98   15.60 
   4  -5  -5  207.78   14.30 
  -4   5   5  198.78   15.30 
  -4   5   5  195.98   17.30 
   3  -5  -5  126.39   10.10 
   3  -5  -5  128.39   10.00 
   3  -5  -5  135.79    9.20 
   3  -5  -5  112.59   11.50 
  -3   5   5  142.59   13.00 
  -3   5   5  122.49    9.90 
   2  -5  -5   22.50    4.00 
   2  -5  -5   16.90    3.80 
   2  -5  -5   17.20    4.30 
   2  -5  -5   21.70    3.20 
   2  -5  -5    8.60    5.00 
  -2   5   5   18.00    3.20 
  -2   5   5   10.60    2.90 
  -2   5   5   19.10    3.60 
  -2   5   5   23.30    5.30 
  -2   5   5   23.80    4.90 
   1  -5  -5  810.22   47.50 
   1  -5  -5  723.33   48.40 
   1  -5  -5  805.92   48.20 
   1  -5  -5  859.01   47.60 
  -1   5   5  777.82   46.60 
  -1   5   5  835.32   48.30 
  -1   5   5  808.72   47.20 
  -1   5   5  836.12   48.50 
  -1   5   5  842.12   47.10 
   0  -5  -5    6.60    3.30 
   0  -5  -5    3.10    2.60 
   0  -5  -5    3.00    2.20 
   0  -5  -5    7.80    3.50 
   0  -5  -5    7.40    3.00 
   0   5   5    5.80    3.40 
   0   5   5    1.40    2.20 
   0   5   5    3.30    3.00 
   0   5   5    4.20    2.00 
   0   5   5    6.00    3.40 
  -1  -5  -5 4257.17  241.08 
  -1  -5  -5 4397.56  240.48 
  -1  -5  -5 4493.05  240.58 
  -1  -5  -5 4144.49  240.88 
   1   5   5 3910.61  239.98 
   1   5   5 4259.57  240.78 
   1   5   5 4341.27  240.18 
   1   5   5 4386.76  240.88 
   1   5   5 4251.57  240.08 
  -2  -5  -5    3.60    3.00 
  -2  -5  -5    0.30    2.20 
  -2  -5  -5    2.70    2.70 
  -2  -5  -5   -1.60    2.80 
   2   5   5    3.10    2.90 
   2   5   5    0.10    2.40 
   2   5   5    3.20    2.30 
   2   5   5    1.40    2.70 
   2   5   5    4.90    2.60 
  -3  -5  -5  447.36   27.90 
  -3  -5  -5  412.66   28.20 
  -3  -5  -5  459.35   28.10 
  -3  -5  -5  414.86   28.10 
  -3  -5  -5  478.15   28.50 
   3   5   5  455.25   27.90 
   3   5   5  443.66   27.60 
   3   5   5  503.95   28.40 
  -4  -5  -5  720.63   40.30 
  -4  -5  -5  583.64   39.00 
  -4  -5  -5  616.34   38.90 
  -4  -5  -5  649.14   39.10 
   4   5   5  621.94   38.60 
   4   5   5  659.73   38.70 
   4   5   5  676.93   39.30 
  -5  -5  -5    0.00    3.80 
  -5  -5  -5   -5.20    3.90 
  -5  -5  -5    7.70    6.10 
   5   5   5    2.90    3.80 
   5   5   5   -2.30    3.00 
   5   5   5    4.90    3.70 
  -6  -5  -5  304.47   22.40 
  -6  -5  -5  366.06   25.60 
  -6  -5  -5  360.26   23.70 
  -6  -5  -5  362.16   22.90 
   6   5   5  295.87   20.50 
   6   5   5  317.97   22.00 
  -7  -5  -5   20.70    6.30 
  -7  -5  -5   19.30    7.30 
  -7  -5  -5   11.10    6.50 
  -7  -5  -5   41.40   10.00 
   7   5   5   15.20    4.90 
   7   5   5    9.80    6.90 
   7   5   5   17.20    6.10 
  -8  -5  -5    1.50    7.10 
  -8  -5  -5    1.60    8.90 
   8   5   5    0.00    4.90 
   8   5   5    6.50    7.20 
   7  -6  -5   26.90    6.10 
   7  -6  -5   17.10    5.60 
  -7   6   5   14.80   10.40 
   6  -6  -5    7.80    4.40 
   6  -6  -5   13.40    7.40 
   6  -6  -5    3.10    4.20 
  -6   6   5   13.90    9.20 
  -6   6   5   16.60    8.90 
  -6   6   5   12.70    5.80 
   5  -6  -5    1.00    3.40 
   5  -6  -5    2.60    3.60 
   5  -6  -5    2.70    3.60 
   5  -6  -5   -5.80    6.30 
  -5   6   5    1.20    7.30 
  -5   6   5    5.50    4.90 
   4  -6  -5  296.97   22.20 
   4  -6  -5  357.96   19.80 
   4  -6  -5  310.67   20.60 
   4  -6  -5  343.47   20.90 
  -4   6   5  322.27   24.10 
  -4   6   5  245.38   21.40 
  -4   6   5  299.37   20.50 
   3  -6  -5   17.30    3.60 
   3  -6  -5   18.90    4.30 
   3  -6  -5   17.30    4.20 
   3  -6  -5   13.30    5.80 
  -3   6   5   12.30    3.90 
  -3   6   5   12.30    5.90 
  -3   6   5   18.40    5.50 
   2  -6  -5  189.68   15.60 
   2  -6  -5  223.88   13.50 
   2  -6  -5  188.58   16.30 
   2  -6  -5  205.98   14.40 
  -2   6   5  212.08   15.70 
  -2   6   5  205.98   16.40 
  -2   6   5  202.08   13.80 
  -2   6   5  197.68   14.10 
   1  -6  -5  206.28   16.60 
   1  -6  -5  229.48   15.00 
   1  -6  -5  179.08   15.50 
   1  -6  -5  230.98   14.00 
   1  -6  -5  221.18   14.80 
  -1   6   5  200.28   14.30 
  -1   6   5  219.68   14.30 
  -1   6   5  206.48   16.10 
  -1   6   5  198.68   13.50 
  -1   6   5  227.68   16.00 
   0  -6  -5  878.61   49.70 
   0  -6  -5  862.21   48.90 
   0  -6  -5  781.42   50.49 
   0  -6  -5  847.42   49.60 
   0   6   5  885.21   50.49 
   0   6   5  829.72   49.10 
   0   6   5  797.32   48.40 
   0   6   5  874.51   49.20 
   0   6   5  822.32   50.29 
  -1  -6  -5  305.57   22.10 
  -1  -6  -5  335.07   21.30 
  -1  -6  -5  354.66   21.10 
  -1  -6  -5  343.47   21.50 
  -1  -6  -5  305.67   21.70 
   1   6   5  323.67   20.30 
   1   6   5  353.66   21.00 
   1   6   5  358.56   22.20 
   1   6   5  315.37   21.80 
  -2  -6  -5    2.40    2.60 
  -2  -6  -5    2.70    3.20 
  -2  -6  -5    7.80    3.70 
  -2  -6  -5    1.40    3.10 
  -2  -6  -5    1.50    3.50 
   2   6   5    2.70    2.80 
   2   6   5    3.80    2.40 
   2   6   5    1.80    3.30 
   2   6   5    4.60    3.30 
  -3  -6  -5  461.65   28.80 
  -3  -6  -5  407.76   29.10 
  -3  -6  -5  467.55   28.90 
  -3  -6  -5  506.25   29.60 
   3   6   5  466.35   28.80 
   3   6   5  457.55   28.40 
   3   6   5  471.45   29.20 
  -4  -6  -5  363.06   24.00 
  -4  -6  -5  384.66   25.20 
  -4  -6  -5  374.66   23.90 
  -4  -6  -5  339.97   24.20 
   4   6   5  364.06   23.50 
   4   6   5  358.16   23.30 
   4   6   5  382.36   24.10 
  -5  -6  -5  172.58   14.80 
  -5  -6  -5  235.98   17.90 
   5   6   5  188.78   19.90 
   5   6   5  215.58   15.20 
   5   6   5  187.58   14.20 
  -6  -6  -5   58.99    8.10 
  -6  -6  -5   50.69    8.00 
  -6  -6  -5   65.19    8.90 
  -6  -6  -5   49.10    9.80 
   6   6   5   57.39    7.30 
   6   6   5   48.60    7.40 
  -7  -6  -5   59.79   11.70 
  -7  -6  -5   41.00    8.10 
  -7  -6  -5   46.40    8.80 
   7   6   5   43.50    7.90 
   7   6   5   47.50    7.10 
   7   6   5   39.40    9.20 
   7  -7  -5    5.40    4.70 
   7  -7  -5   13.20    5.60 
  -7   7   5   -4.80    9.10 
   6  -7  -5    7.40    4.30 
   6  -7  -5    5.00    4.30 
  -6   7   5    4.00    8.50 
   5  -7  -5    0.00    3.80 
   5  -7  -5   -0.90    3.60 
   5  -7  -5   11.00    7.40 
   5  -7  -5    3.00    4.20 
  -5   7   5   -0.90    5.00 
  -5   7   5    3.10    5.00 
  -5   7   5    2.30    8.10 
   4  -7  -5   38.50    6.30 
   4  -7  -5   30.60    7.50 
   4  -7  -5   43.60    6.50 
   4  -7  -5   46.80    5.80 
  -4   7   5   27.20    7.30 
  -4   7   5   35.90    6.50 
  -4   7   5   39.10    9.80 
   3  -7  -5   11.50    3.70 
   3  -7  -5   16.80    4.50 
   3  -7  -5   13.00    4.40 
   3  -7  -5   13.20    6.70 
  -3   7   5   12.50    4.40 
  -3   7   5    9.20    6.60 
  -3   7   5    9.40    4.90 
   2  -7  -5  118.69   12.70 
   2  -7  -5  147.89   10.10 
   2  -7  -5  137.29   11.10 
   2  -7  -5  139.49   11.50 
  -2   7   5  148.79   13.10 
  -2   7   5  108.69   10.60 
  -2   7   5  125.89   13.50 
   1  -7  -5   81.39   11.40 
   1  -7  -5  103.99    9.50 
   1  -7  -5  114.19    8.50 
   1  -7  -5   99.19    9.40 
  -1   7   5  102.39    9.60 
  -1   7   5  109.09   11.50 
  -1   7   5   90.19    8.90 
  -1   7   5   89.49   10.50 
   0  -7  -5   50.09    5.70 
   0  -7  -5   37.60    5.50 
   0  -7  -5   38.60    5.90 
   0  -7  -5   35.20    7.40 
   0  -7  -5   30.20    5.90 
   0   7   5   36.10    5.80 
   0   7   5   46.90    7.10 
   0   7   5   43.40    7.10 
   0   7   5   37.20    4.80 
  -1  -7  -5  430.76   29.30 
  -1  -7  -5  472.35   27.80 
  -1  -7  -5  420.56   28.70 
  -1  -7  -5  427.76   29.20 
   1   7   5  457.25   27.50 
   1   7   5  480.05   29.10 
   1   7   5  441.56   27.50 
  -2  -7  -5   84.89    8.90 
  -2  -7  -5   76.39    8.50 
  -2  -7  -5   88.19   10.00 
  -2  -7  -5   70.29    8.30 
   2   7   5   87.39    7.90 
   2   7   5   83.19    9.20 
   2   7   5   81.69    8.90 
  -3  -7  -5  643.14   40.20 
  -3  -7  -5  619.04   39.20 
  -3  -7  -5  677.83   39.60 
  -3  -7  -5  665.63   40.10 
   3   7   5  624.64   38.80 
   3   7   5  677.73   40.00 
   3   7   5  634.24   39.40 
  -4  -7  -5   29.70    5.90 
  -4  -7  -5   28.60    7.20 
  -4  -7  -5   44.10    6.30 
  -4  -7  -5   30.20    6.40 
   4   7   5   24.10    7.20 
   4   7   5   28.50    5.90 
   4   7   5   37.10    5.60 
  -5  -7  -5  320.87   24.80 
  -5  -7  -5  387.96   23.60 
   5   7   5  319.57   22.00 
   5   7   5  353.06   23.20 
   5   7   5  304.57   21.80 
  -6  -7  -5  133.49   14.00 
  -6  -7  -5  174.48   17.20 
  -6  -7  -5  139.49   13.70 
  -6  -7  -5  186.88   15.40 
   6   7   5  143.39   12.50 
   6   7   5  161.58   13.80 
  -7  -7  -5    7.10   14.70 
   7   7   5    8.20    4.40 
   6  -8  -5    2.10    4.50 
   6  -8  -5    3.50    4.30 
  -6   8   5    4.20    9.10 
   5  -8  -5   11.30    5.10 
   5  -8  -5   13.70    8.40 
   5  -8  -5    2.10    4.20 
  -5   8   5   19.60    6.40 
  -5   8   5   20.80   10.00 
   4  -8  -5   33.30    5.20 
   4  -8  -5   14.40    7.80 
   4  -8  -5   30.60    6.20 
   4  -8  -5   21.60    5.40 
  -4   8   5   21.60    6.00 
  -4   8   5    3.60    9.00 
   3  -8  -5   62.29    7.60 
   3  -8  -5   76.59    8.80 
   3  -8  -5   73.89    8.70 
   3  -8  -5   63.99   10.30 
  -3   8   5   58.49    7.70 
  -3   8   5   60.99    9.30 
  -3   8   5   58.29   10.60 
   2  -8  -5   58.79   11.60 
   2  -8  -5   63.29    7.70 
   2  -8  -5   40.80    6.80 
   2  -8  -5   44.90    5.60 
  -2   8   5   35.60    6.20 
  -2   8   5   39.80    7.50 
  -2   8   5   37.30    8.50 
   1  -8  -5  392.86   26.40 
   1  -8  -5  448.06   25.80 
   1  -8  -5  383.86   27.70 
  -1   8   5  450.55   28.60 
  -1   8   5  402.56   26.40 
  -1   8   5  421.16   25.90 
  -1   8   5  388.26   28.40 
   0  -8  -5  440.26   28.60 
   0  -8  -5  434.56   28.60 
   0  -8  -5  434.76   29.90 
   0  -8  -5  497.05   28.10 
   0   8   5  404.56   29.70 
   0   8   5  439.16   28.10 
   0   8   5  493.55   28.20 
   0   8   5  456.55   30.10 
  -1  -8  -5  264.47   18.00 
  -1  -8  -5  292.57   18.60 
  -1  -8  -5  239.88   19.50 
  -1  -8  -5  262.57   18.50 
  -1  -8  -5  233.38   19.90 
   1   8   5  255.77   19.50 
   1   8   5  274.87   19.80 
   1   8   5  271.07   17.70 
  -2  -8  -5  381.86   25.70 
  -2  -8  -5  422.66   26.10 
  -2  -8  -5  412.46   26.20 
  -2  -8  -5  380.56   26.90 
   2   8   5  401.76   26.30 
   2   8   5  396.26   26.50 
   2   8   5  380.16   24.90 
  -3  -8  -5  397.06   25.40 
  -3  -8  -5  352.36   26.70 
  -3  -8  -5  372.86   25.90 
  -3  -8  -5  387.76   25.20 
   3   8   5  398.86   25.40 
   3   8   5  383.96   24.60 
   3   8   5  393.36   26.00 
  -4  -8  -5   32.00    7.10 
  -4  -8  -5   34.40    7.80 
  -4  -8  -5   27.90    5.60 
   4   8   5   31.90    5.40 
   4   8   5   28.40    5.70 
  -5  -8  -5   76.59    9.70 
  -5  -8  -5   73.49   11.40 
  -5  -8  -5   72.79    9.50 
   5   8   5   76.29    8.70 
   5   8   5   71.09    9.30 
   5   8   5   74.69    8.70 
  -6  -8  -5   20.30    6.80 
  -6  -8  -5   19.50    6.70 
  -6  -8  -5   -1.00    7.50 
   6   8   5   16.90    5.70 
   6   8   5   21.20    5.20 
  -7  -8  -5   27.50    9.90 
  -7  -8  -5    6.30    6.70 
   7   8   5    9.80    5.80 
   6  -9  -5    3.00    4.70 
   6  -9  -5    1.40    4.80 
  -6   9   5    5.20   10.50 
   5  -9  -5  127.49   11.40 
   5  -9  -5  138.99   13.30 
  -5   9   5  113.99   16.60 
   4  -9  -5   15.30    4.90 
   4  -9  -5   23.80    6.00 
   4  -9  -5   10.70    8.50 
   4  -9  -5   26.20    5.40 
  -4   9   5   11.30    6.40 
  -4   9   5   21.60    9.00 
  -4   9   5   23.00    8.30 
   3  -9  -5    7.00    4.60 
   3  -9  -5   -0.90    6.20 
   3  -9  -5   12.20    5.10 
   3  -9  -5    4.00    3.70 
  -3   9   5    7.30    9.00 
  -3   9   5   13.40    8.20 
  -3   9   5   12.50    7.10 
   2  -9  -5   14.50    6.80 
   2  -9  -5   18.60    4.60 
   2  -9  -5   13.70    5.30 
   2  -9  -5   20.20    5.70 
  -2   9   5   14.70    5.20 
  -2   9   5   11.90    6.60 
  -2   9   5   18.10    7.70 
   1  -9  -5  712.13   39.00 
   1  -9  -5  644.84   39.70 
   1  -9  -5  657.13   39.70 
   1  -9  -5  538.85   40.50 
  -1   9   5  679.63   41.90 
  -1   9   5  589.44   46.50 
   0  -9  -5   -0.30    4.60 
   0  -9  -5    4.20    4.30 
   0  -9  -5    0.20    3.80 
   0  -9  -5    3.30    3.60 
   0  -9  -5    0.90    6.60 
   0   9   5   12.50    5.50 
   0   9   5    1.60    4.00 
   0   9   5    3.40    5.60 
  -1  -9  -5   -0.80    4.10 
  -1  -9  -5   -3.60    6.00 
  -1  -9  -5    5.90    4.60 
  -1  -9  -5    1.70    3.70 
   1   9   5    2.20    3.50 
   1   9   5    1.70    5.10 
   1   9   5   -3.80    4.00 
  -2  -9  -5   48.70    7.40 
  -2  -9  -5   58.79    9.80 
  -2  -9  -5   50.19    9.50 
  -2  -9  -5   72.39    8.70 
   2   9   5   62.69    9.00 
   2   9   5   78.49    9.40 
   2   9   5   55.99    8.10 
  -3  -9  -5   89.69    9.80 
  -3  -9  -5   76.69   10.40 
  -3  -9  -5   69.19   10.40 
  -3  -9  -5   82.49   10.40 
   3   9   5   81.89    8.80 
   3   9   5   80.29   10.10 
   3   9   5   86.99   10.70 
  -4  -9  -5   83.89   11.50 
  -4  -9  -5   67.09    9.00 
  -4  -9  -5   65.49    8.70 
  -4  -9  -5   73.19   10.40 
   4   9   5   83.79   10.40 
   4   9   5   65.79    8.40 
   4   9   5   77.49    9.50 
  -5  -9  -5   59.49    9.00 
  -5  -9  -5   56.59    7.90 
  -5  -9  -5   67.19    9.30 
  -5  -9  -5   46.20   10.40 
   5   9   5   56.99    7.70 
   5   9   5   57.09    7.60 
   5   9   5   62.89    9.20 
  -6  -9  -5    6.40    6.10 
   6   9   5    3.60    5.70 
   5 -10  -5   10.20    4.90 
   5 -10  -5    5.90    5.80 
  -5  10   5   -4.70    9.10 
   4 -10  -5   11.10    5.10 
   4 -10  -5   14.40    4.60 
  -4  10   5    4.00    6.60 
  -4  10   5   -3.70    8.30 
   3 -10  -5   19.60    6.10 
   3 -10  -5   22.50    8.00 
   3 -10  -5   42.40    7.50 
   3 -10  -5   39.90    6.30 
  -3  10   5   39.20   10.80 
  -3  10   5   17.20    7.50 
   2 -10  -5  164.08   16.80 
   2 -10  -5  104.69   11.90 
   2 -10  -5  107.59   10.40 
  -2  10   5  105.89   15.20 
  -2  10   5  103.59   16.30 
   1 -10  -5  286.37   20.60 
   1 -10  -5  301.67   19.90 
   1 -10  -5  274.57   20.70 
  -1  10   5  280.17   23.60 
  -1  10   5  281.57   23.00 
   0 -10  -5   30.90    6.80 
   0 -10  -5   33.20    6.30 
   0 -10  -5   23.30    6.20 
   0  10   5   19.30    4.70 
   0  10   5   24.50    7.00 
   0  10   5   34.70    8.60 
  -1 -10  -5   35.40    6.90 
  -1 -10  -5   40.80    7.40 
  -1 -10  -5   39.70    7.10 
   1  10   5   32.40    8.20 
   1  10   5   44.60    8.10 
   1  10   5   32.00    7.50 
  -2 -10  -5   53.59   10.40 
  -2 -10  -5   62.29    8.90 
  -2 -10  -5   58.39    8.40 
  -2 -10  -5   71.29    9.30 
   2  10   5   70.19    9.50 
   2  10   5   69.19    9.30 
   2  10   5   51.89    7.20 
  -3 -10  -5  106.29   12.40 
  -3 -10  -5   83.99   10.60 
  -3 -10  -5   81.09   12.20 
  -3 -10  -5  101.79   11.50 
   3  10   5   87.19    9.60 
   3  10   5   80.29   10.10 
   3  10   5   95.29   11.40 
  -4 -10  -5   18.90    8.40 
  -4 -10  -5   33.60    7.40 
  -4 -10  -5   38.20    9.00 
  -4 -10  -5   23.00    5.80 
   4  10   5   43.00    8.40 
   4  10   5   39.50    7.10 
   4  10   5   36.60    6.00 
  -5 -10  -5  154.08   17.70 
  -5 -10  -5  168.08   16.10 
   5  10   5  170.18   15.50 
  -6 -10  -5   30.00   10.70 
  -6 -10  -5   13.40    6.80 
   6  10   5   26.20    7.00 
   4 -11  -5   -1.90    4.40 
   4 -11  -5   -0.20    5.20 
  -4  11   5  -11.70    9.00 
  -4  11   5    5.30    7.70 
   3 -11  -5   30.20    6.10 
   3 -11  -5   30.30    7.40 
   3 -11  -5   25.10    6.70 
  -3  11   5   25.10   10.40 
  -3  11   5   18.80    9.10 
   2 -11  -5  100.29   11.90 
   2 -11  -5  107.59   10.80 
   2 -11  -5  105.39   13.70 
  -2  11   5   67.69   13.40 
  -2  11   5   84.29   12.20 
   1 -11  -5   11.00    6.00 
   1 -11  -5   15.80    5.20 
   1 -11  -5   18.80    5.40 
  -1  11   5   10.70    8.30 
  -1  11   5   18.80    7.80 
   0 -11  -5   97.49   11.10 
   0 -11  -5   81.89    9.80 
   0 -11  -5   94.69   11.00 
   0  11   5   82.39   12.20 
   0  11   5   60.39   10.10 
   0  11   5   73.09    9.40 
  -1 -11  -5    0.60    5.00 
  -1 -11  -5   12.80    8.90 
  -1 -11  -5   -3.30    4.60 
  -1 -11  -5    5.20    4.70 
   1  11   5   -2.90    6.30 
   1  11   5   -2.70    3.80 
   1  11   5    5.30    5.50 
  -2 -11  -5   35.50    7.40 
  -2 -11  -5   31.60   10.30 
  -2 -11  -5   40.70    7.30 
  -2 -11  -5   30.60    7.70 
   2  11   5   33.90    8.20 
   2  11   5   52.79    9.90 
   2  11   5   24.20    5.60 
  -3 -11  -5   22.10    7.00 
  -3 -11  -5   10.00    5.20 
  -3 -11  -5   17.30    8.90 
  -3 -11  -5   20.00    7.80 
   3  11   5   24.80    6.20 
   3  11   5   13.50    6.50 
   3  11   5   26.80    7.70 
  -4 -11  -5   18.70    8.50 
  -4 -11  -5   21.10    7.20 
   4  11   5   28.90    7.90 
  -5 -11  -5   36.50    8.70 
  -5 -11  -5   30.40   10.20 
   5  11   5   38.60    8.40 
   3 -12  -5   16.20    7.10 
   3 -12  -5   15.40    5.60 
  -3  12   5   18.10   10.30 
  -3  12   5   26.50    9.40 
   2 -12  -5   80.09   10.70 
   2 -12  -5   57.29    9.20 
  -2  12   5   61.79   12.30 
  -2  12   5   56.89   12.70 
   1 -12  -5   22.00    7.20 
   1 -12  -5   41.50    8.00 
   1 -12  -5   47.80    7.50 
  -1  12   5   38.40    9.80 
  -1  12   5   51.39   11.80 
   0 -12  -5   24.60    6.90 
   0 -12  -5   32.40    7.10 
   0 -12  -5   22.10    7.00 
   0  12   5   19.90    9.00 
   0  12   5   37.60   10.30 
  -1 -12  -5    1.00    5.10 
  -1 -12  -5    1.10    5.50 
  -1 -12  -5    3.90    5.70 
   1  12   5   -4.70    5.80 
   1  12   5   -1.80    6.80 
  -2 -12  -5   75.69   10.40 
  -2 -12  -5   87.99   11.30 
  -2 -12  -5   55.79    9.40 
   2  12   5   57.79   10.10 
  -3 -12  -5   -0.50    6.00 
   3  12   5   -5.20    6.30 
  -4 -12  -5  152.98   21.90 
  -4 -12  -5  171.68   18.30 
   4  12   5  178.58   17.90 
   1 -13  -5   10.00    5.50 
   1 -13  -5    9.50    6.40 
   1 -13  -5   13.90    6.10 
  -1  13   5   21.00   10.90 
  -1  13   5    8.70    7.50 
   0 -13  -5    6.70    5.60 
   0 -13  -5    1.60    6.10 
   0 -13  -5    5.20    6.10 
   0  13   5    7.90    7.90 
  -1 -13  -5   16.20    7.50 
  -1 -13  -5    7.40    6.30 
  -1 -13  -5   11.10    6.80 
   1  13   5    7.00    7.50 
  -2 -13  -5   43.30    9.10 
  -2 -13  -5   50.99   10.40 
   2  13   5   34.10   10.40 
  -3 -13  -5    8.80    8.00 
  -3 -13  -5   -0.70    7.40 
   3  13   5    4.70    7.40 
   2  11  -6   21.10   10.00 
  -2 -11   6   32.80    6.60 
  -2 -11   6   28.30    6.60 
   1  11  -6   28.30   12.00 
  -1 -11   6   35.50    9.50 
  -1 -11   6   45.10    7.30 
   0  11  -6    2.90   11.20 
   0 -11   6   25.40    5.90 
   0 -11   6   23.70    6.80 
  -1  11  -6   41.60   14.30 
   1 -11   6   38.60    6.50 
   1 -11   6   28.90    7.50 
   4  10  -6   46.00    8.90 
  -4 -10   6   31.40    6.40 
  -4 -10   6   48.10    9.10 
   3  10  -6    2.00    7.90 
  -3 -10   6    3.70    4.40 
  -3 -10   6    6.20    5.20 
   2  10  -6    6.80    8.40 
  -2 -10   6    4.80    5.00 
  -2 -10   6   -0.30    4.40 
   1  10  -6    8.10    9.90 
  -1 -10   6   -4.60    3.90 
  -1 -10   6   -4.70    4.90 
   0  10  -6    7.20   11.10 
   0 -10   6   14.70    6.10 
   0 -10   6   -0.50    4.10 
   0 -10   6    5.70    4.10 
  -1  10  -6   -4.90   11.10 
   1 -10   6   -1.50    4.40 
   1 -10   6    8.30    5.90 
   1 -10   6   -3.00    3.80 
  -2  10  -6  -11.60   10.40 
   2 -10   6    4.60    5.10 
   2 -10   6    4.80    6.20 
   2 -10   6   -0.80    4.50 
  -3  10  -6   15.10   13.20 
   3 -10   6   18.50    6.10 
   3 -10   6   17.30    6.70 
   3 -10   6    7.70    4.50 
   5   9  -6   10.90    4.90 
  -5  -9   6   34.40    9.40 
  -5  -9   6   20.90    5.10 
   4   9  -6   49.70    6.90 
  -4  -9   6   41.40    8.10 
  -4  -9   6   29.40   10.70 
  -4  -9   6   39.80    7.70 
   3   9  -6   46.80    9.40 
   3   9  -6   44.70    7.30 
  -3  -9   6   43.70    7.50 
  -3  -9   6   62.19   11.80 
  -3  -9   6   52.99    7.00 
   2   9  -6   97.29   14.20 
   2   9  -6  118.69   12.60 
  -2  -9   6  131.59   12.20 
  -2  -9   6  147.69   11.00 
  -2  -9   6  137.39   11.60 
   1   9  -6   -3.80    8.40 
   1   9  -6    0.00    7.10 
   1   9  -6   -2.40    4.30 
  -1  -9   6    0.60    3.90 
  -1  -9   6   -2.70    3.30 
  -1  -9   6    2.20    4.90 
   0   9  -6   31.40    6.80 
   0   9  -6   44.10   11.30 
   0   9  -6   12.10    9.10 
   0  -9   6    3.90    9.70 
   0  -9   6   30.30    5.20 
   0  -9   6   40.10    5.70 
   0  -9   6   34.10    7.10 
  -1   9  -6   -3.20   11.60 
  -1   9  -6  -11.30    9.20 
  -1   9  -6    0.40    5.80 
   1  -9   6   -3.30    3.30 
   1  -9   6   -5.50    9.10 
   1  -9   6    2.20    3.50 
   1  -9   6   -1.50    5.10 
  -2   9  -6   16.50   13.00 
  -2   9  -6   32.80   12.60 
   2  -9   6   46.80    8.30 
   2  -9   6   44.30    5.70 
   2  -9   6   34.20    5.80 
  -3   9  -6  -12.60   11.40 
  -3   9  -6   -1.90   14.20 
   3  -9   6   -7.00    5.30 
   3  -9   6    1.50    4.90 
   3  -9   6    2.30    3.70 
  -4   9  -6    4.30   11.80 
  -4   9  -6  -10.90   14.10 
   4  -9   6    4.10    4.20 
   4  -9   6    4.30    5.10 
   4  -9   6    7.30    6.10 
   5   8  -6   44.10    5.70 
   5   8  -6   39.10    6.80 
   5   8  -6   42.10    5.20 
  -5  -8   6   34.60    9.60 
  -5  -8   6   35.90    8.60 
   4   8  -6    0.40    3.60 
   4   8  -6    8.40    5.70 
  -4  -8   6    4.80    4.10 
  -4  -8   6   -1.00    4.80 
  -4  -8   6    3.00    8.30 
   3   8  -6   98.99   12.90 
   3   8  -6  110.89   10.10 
   3   8  -6  144.89   11.90 
  -3  -8   6  142.29   10.40 
  -3  -8   6  113.69   14.30 
  -3  -8   6  117.19   11.60 
  -3  -8   6  144.29   11.40 
   2   8  -6    6.20    4.40 
   2   8  -6    7.00    7.50 
   2   8  -6    7.50    2.60 
   2   8  -6    4.20    4.50 
  -2  -8   6    2.30    3.90 
  -2  -8   6    7.10    3.60 
  -2  -8   6    7.90    4.80 
  -2  -8   6   19.50    8.80 
   1   8  -6   -3.70    2.30 
   1   8  -6    9.70    7.20 
   1   8  -6    1.20    3.90 
   1   8  -6    5.70    7.70 
  -1  -8   6    4.30    4.60 
  -1  -8   6   -1.00    2.90 
  -1  -8   6   -0.30    3.40 
  -1  -8   6    3.80    8.10 
   0   8  -6   12.30    3.40 
   0   8  -6   14.20    9.10 
   0   8  -6    7.90    8.20 
   0   8  -6   16.40    5.80 
   0  -8   6   16.40    3.60 
   0  -8   6   16.60    3.80 
   0  -8   6   17.60    9.30 
  -1   8  -6   39.80   15.00 
  -1   8  -6   67.09    9.70 
  -1   8  -6   68.09   12.50 
   1  -8   6   69.09    8.00 
   1  -8   6   55.49    6.40 
   1  -8   6   47.80   11.20 
   1  -8   6   40.10    7.70 
  -2   8  -6   19.40   12.70 
  -2   8  -6   25.70   14.70 
  -2   8  -6   20.70    5.80 
   2  -8   6   13.50    6.30 
   2  -8   6   24.60    4.40 
   2  -8   6   27.20    6.00 
  -3   8  -6   25.00   18.20 
  -3   8  -6   11.60   10.60 
   3  -8   6    3.90    3.60 
   3  -8   6   -1.00    5.80 
   3  -8   6  -11.50    4.00 
  -4   8  -6   -6.70   11.30 
  -4   8  -6   -5.60   13.60 
   4  -8   6    1.60    5.10 
   4  -8   6   10.40    6.10 
   4  -8   6    3.50    3.80 
  -5   8  -6    3.50   11.90 
  -5   8  -6    4.20   15.40 
   5  -8   6   -0.70    4.10 
   5  -8   6   -4.60    5.20 
   6   7  -6   10.00    5.10 
  -6  -7   6   -8.50    6.30 
  -6  -7   6    8.20    7.30 
   5   7  -6  178.78   11.70 
   5   7  -6  170.08   13.90 
  -5  -7   6  178.48   12.50 
  -5  -7   6  189.68   16.50 
  -5  -7   6  153.48   16.80 
   4   7  -6   -3.00    4.60 
  -4  -7   6    7.60    5.10 
  -4  -7   6   -0.20    7.00 
  -4  -7   6   -2.10    3.40 
   3   7  -6  118.19    9.30 
   3   7  -6  125.59   13.80 
   3   7  -6  146.99   11.40 
  -3  -7   6  144.19   11.70 
  -3  -7   6  146.09   12.80 
  -3  -7   6  139.29   15.60 
  -3  -7   6  138.19   11.20 
   2   7  -6  100.89   13.00 
   2   7  -6  104.49   10.10 
   2   7  -6   99.49    7.40 
  -2  -7   6  103.59   13.20 
  -2  -7   6   96.79    8.30 
  -2  -7   6  114.49    9.30 
  -2  -7   6  111.79    9.80 
   1   7  -6    9.30    2.50 
   1   7  -6   -0.10    6.70 
   1   7  -6    5.70    4.30 
   1   7  -6    7.90    6.40 
  -1  -7   6    7.80    3.30 
  -1  -7   6    5.80    2.70 
  -1  -7   6    7.70    4.40 
  -1  -7   6   10.80    7.70 
   0   7  -6   37.60    6.90 
   0   7  -6   35.70    9.00 
   0   7  -6   16.40    9.10 
   0   7  -6   27.40    4.00 
   0  -7   6   25.70    4.60 
   0  -7   6   38.00    6.30 
   0  -7   6   40.70    4.60 
   0  -7   6   41.40    9.80 
  -1   7  -6   -2.20    4.10 
  -1   7  -6  -10.60    7.30 
  -1   7  -6   -1.30    2.60 
  -1   7  -6   -4.10    9.60 
   1  -7   6   -5.40    3.90 
   1  -7   6    3.00    3.50 
   1  -7   6   -3.20    3.40 
   1  -7   6   -3.10    7.40 
  -2   7  -6   -3.80   10.20 
  -2   7  -6    7.00    4.20 
  -2   7  -6   -6.00    9.10 
   2  -7   6    1.10    7.70 
   2  -7   6    2.70    3.60 
   2  -7   6    0.10    4.60 
   2  -7   6    3.70    3.00 
  -3   7  -6   10.10   14.40 
  -3   7  -6    2.00    9.90 
  -3   7  -6   23.50    8.10 
   3  -7   6   17.30    4.00 
   3  -7   6   23.10    5.80 
   3  -7   6   13.80    6.20 
  -4   7  -6   39.00   16.60 
  -4   7  -6   49.20   12.40 
   4  -7   6   67.19    8.80 
   4  -7   6   40.60    8.40 
   4  -7   6   62.59    7.10 
  -5   7  -6   14.40   14.90 
  -5   7  -6   -9.60   10.70 
   5  -7   6   -3.60    5.40 
   5  -7   6   -4.00    4.50 
   5  -7   6   -1.30    3.80 
   6   6  -6   12.80    5.40 
  -6  -6   6   17.50    8.00 
   5   6  -6   85.39    9.20 
  -5  -6   6  100.79   11.40 
  -5  -6   6   89.89    8.10 
  -5  -6   6   95.59   10.70 
   4   6  -6   30.20    5.80 
   4   6  -6   30.90    4.20 
   4   6  -6   29.30    5.00 
   4   6  -6   30.50    4.20 
  -4  -6   6   30.60    7.60 
  -4  -6   6   24.90    6.10 
  -4  -6   6   17.90    4.20 
   3   6  -6  242.78   19.20 
   3   6  -6  251.57   15.20 
   3   6  -6  244.48   16.40 
  -3  -6   6  220.48   19.30 
  -3  -6   6  239.68   15.30 
  -3  -6   6  257.77   16.70 
  -3  -6   6  252.57   16.80 
   2   6  -6   19.80    5.80 
   2   6  -6   28.80    4.90 
   2   6  -6   29.70    3.20 
   2   6  -6   34.00    7.40 
  -2  -6   6   22.30    7.50 
  -2  -6   6   29.70    4.60 
  -2  -6   6   23.80    3.50 
  -2  -6   6   31.20    5.20 
   1   6  -6  151.98   14.80 
   1   6  -6  144.49    9.30 
   1   6  -6  128.89   11.70 
   1   6  -6  116.49   14.30 
  -1  -6   6  155.48   12.10 
  -1  -6   6  160.88   15.00 
  -1  -6   6  151.48   10.50 
  -1  -6   6  148.89   10.20 
   0   6  -6  243.78   17.30 
   0   6  -6  267.87   19.80 
   0   6  -6  205.78   21.90 
   0   6  -6  223.48   14.60 
   0  -6   6  243.08   16.00 
   0  -6   6  240.58   14.90 
   0  -6   6  228.08   20.50 
   0  -6   6  256.17   17.30 
  -1   6  -6    0.40    3.60 
  -1   6  -6   -2.90    8.90 
  -1   6  -6   -0.20    6.60 
  -1   6  -6   -0.20    2.40 
   1  -6   6   -2.00    2.00 
   1  -6   6   -3.20    4.00 
   1  -6   6    0.90    2.90 
   1  -6   6   -2.10    6.20 
  -2   6  -6   44.00    5.30 
  -2   6  -6   51.49    9.80 
  -2   6  -6   24.60   12.20 
  -2   6  -6   47.90    6.90 
   2  -6   6   52.39    6.80 
   2  -6   6   49.10   10.30 
   2  -6   6   59.09    7.90 
   2  -6   6   41.10    4.70 
  -3   6  -6   11.60   12.40 
  -3   6  -6    4.30    9.20 
  -3   6  -6    9.30    5.60 
   3  -6   6    9.90    5.60 
   3  -6   6    8.30    4.80 
   3  -6   6    8.60    3.10 
  -4   6  -6   18.40   14.40 
  -4   6  -6   30.50   13.00 
   4  -6   6   25.00    4.50 
   4  -6   6   15.00    6.00 
   4  -6   6   25.20    8.20 
   4  -6   6   21.70    6.00 
  -5   6  -6   -1.30   13.50 
  -5   6  -6    7.10   10.60 
   5  -6   6   -7.60    4.90 
   5  -6   6   -1.10    8.40 
   5  -6   6   -0.10    3.80 
  -6   6  -6   -1.40   15.60 
  -6   6  -6    1.90   12.60 
   6  -6   6    4.80    5.90 
   6  -6   6    1.20    4.70 
   7   5  -6   19.50    6.00 
   6   5  -6   67.59    8.30 
   5   5  -6  349.87   22.00 
  -5  -5   6  320.17   20.30 
  -5  -5   6  347.47   23.90 
  -5  -5   6  333.57   22.10 
   4   5  -6  185.18   11.90 
   4   5  -6  180.68   12.30 
   4   5  -6  184.18   13.50 
   4   5  -6  188.08   13.20 
  -4  -5   6  189.58   14.50 
  -4  -5   6  185.38   15.30 
  -4  -5   6  184.48   14.90 
   3   5  -6  697.13   40.70 
   3   5  -6  689.63   42.30 
  -3  -5   6  722.03   41.70 
  -3  -5   6  722.33   41.90 
  -3  -5   6  706.13   40.60 
  -3  -5   6  713.33   43.30 
   2   5  -6  174.98   12.80 
   2   5  -6  161.38   12.50 
   2   5  -6  172.28   11.00 
   2   5  -6  200.18   14.80 
  -2  -5   6  182.98   12.20 
  -2  -5   6  219.78   17.40 
  -2  -5   6  193.28   13.20 
  -2  -5   6  178.78   11.80 
   1   5  -6 1061.99   63.79 
   1   5  -6 1056.39   61.79 
   1   5  -6 1225.58   64.99 
  -1  -5   6 1090.19   63.79 
  -1  -5   6 1090.89   62.99 
  -1  -5   6 1075.09   62.39 
   0   5  -6  176.18   11.00 
   0   5  -6  213.98   15.60 
   0   5  -6  155.58   17.90 
   0   5  -6  178.08   13.30 
   0  -5   6  168.48   11.00 
   0  -5   6  194.98   12.60 
   0  -5   6  157.48   13.40 
   0  -5   6  168.38   16.20 
  -1   5  -6   59.29    5.70 
  -1   5  -6   81.59    9.90 
  -1   5  -6   95.19   11.00 
  -1   5  -6   57.89   12.10 
   1  -5   6   67.19    7.50 
   1  -5   6   79.39    8.80 
   1  -5   6   70.79    5.50 
   1  -5   6   76.49   10.70 
  -2   5  -6  191.88   15.30 
  -2   5  -6  195.58   13.10 
  -2   5  -6  196.48   21.40 
  -2   5  -6  212.28   18.00 
   2  -5   6  204.38   14.70 
   2  -5   6  192.28   15.60 
   2  -5   6  187.28   16.50 
   2  -5   6  207.88   12.60 
  -3   5  -6   75.49    9.40 
  -3   5  -6   51.19   13.40 
  -3   5  -6   56.19    6.50 
   3  -5   6   72.49    6.30 
   3  -5   6   71.09    9.00 
   3  -5   6   63.49   10.20 
   3  -5   6   49.50    8.50 
  -4   5  -6    1.50   11.70 
  -4   5  -6   10.20    8.80 
   4  -5   6   10.90   12.60 
   4  -5   6    6.70    5.30 
   4  -5   6    6.20    3.40 
   4  -5   6    5.30    4.90 
  -5   5  -6   -7.50   13.10 
  -5   5  -6  -11.90    9.10 
   5  -5   6   -5.10    6.20 
   5  -5   6    0.30    5.00 
   5  -5   6    0.30    4.60 
  -6   5  -6    8.10    9.60 
  -6   5  -6   -3.20   14.40 
   6  -5   6    0.30    5.90 
   6  -5   6   -4.20    4.10 
   7   4  -6   10.40    5.80 
   6   4  -6  150.88   12.60 
   5   4  -6   56.09    6.90 
   4   4  -6   23.60    4.10 
   4   4  -6   22.60    2.90 
   4   4  -6   26.30    4.00 
   4   4  -6   13.90    3.90 
  -4  -4   6   34.30    5.80 
  -4  -4   6   29.40    5.90 
  -4  -4   6   20.60    3.80 
   3   4  -6  134.59   10.50 
   3   4  -6  159.88   10.60 
   3   4  -6  167.68   12.20 
   3   4  -6  161.98   10.30 
  -3  -4   6  156.48   11.60 
  -3  -4   6  160.08   13.20 
  -3  -4   6  165.28    9.90 
  -3  -4   6  165.28   11.30 
   2   4  -6  137.59   10.10 
   2   4  -6  138.89    8.70 
   2   4  -6  162.88   11.70 
  -2  -4   6  138.69   10.60 
  -2  -4   6  135.49   12.70 
  -2  -4   6  137.69    9.40 
  -2  -4   6  140.49    9.70 
   1   4  -6  570.74   31.80 
   1   4  -6  453.65   32.40 
   1   4  -6  492.25   28.70 
   1   4  -6  485.75   30.60 
  -1  -4   6  513.25   30.10 
  -1  -4   6  520.65   30.90 
  -1  -4   6  509.85   29.10 
   0   4  -6   97.09    6.30 
   0   4  -6   96.89    8.60 
   0   4  -6  121.39   11.10 
   0   4  -6   89.49   11.80 
   0  -4   6  101.19    9.30 
   0  -4   6   86.09    9.40 
   0  -4   6  101.09    6.40 
   0  -4   6   98.09    8.10 
   0  -4   6   89.49   11.60 
  -1   4  -6  200.18   12.80 
  -1   4  -6  196.18   19.40 
  -1   4  -6  206.88   16.90 
  -1   4  -6  253.97   17.30 
   1  -4   6  205.48   14.40 
   1  -4   6  212.28   15.30 
   1  -4   6  198.58   15.70 
   1  -4   6  210.18   12.60 
  -2   4  -6   45.20    8.50 
  -2   4  -6   36.70    4.30 
  -2   4  -6   45.70    6.50 
  -2   4  -6   29.10    5.70 
  -2   4  -6   43.50   10.30 
   2  -4   6   42.40    6.60 
   2  -4   6   43.20    7.30 
   2  -4   6   40.00    7.30 
   2  -4   6   37.20    5.00 
   2  -4   6   36.90    4.00 
   2  -4   6   34.60    5.20 
  -3   4  -6  284.07   18.90 
  -3   4  -6  284.27   20.70 
  -3   4  -6  310.47   25.30 
  -3   4  -6  302.37   21.30 
  -3   4  -6  344.67   23.30 
   3  -4   6  275.57   22.50 
   3  -4   6  280.67   20.80 
   3  -4   6  303.67   22.30 
   3  -4   6  335.37   18.60 
   3  -4   6  338.67   20.90 
   3  -4   6  272.07   20.20 
  -4   4  -6   48.10    8.00 
  -4   4  -6   52.79   10.60 
  -4   4  -6   83.89   13.60 
   4  -4   6   64.89    8.80 
   4  -4   6   37.70    8.40 
   4  -4   6   62.79    6.70 
   4  -4   6   61.59    8.40 
  -5   4  -6    5.60    8.50 
  -5   4  -6    4.70   11.80 
  -5   4  -6   -1.70    4.60 
   5  -4   6    9.10    5.60 
   5  -4   6    1.60    6.50 
   5  -4   6    0.50    4.70 
   5  -4   6    6.60    4.10 
  -6   4  -6   21.10   13.80 
  -6   4  -6    6.90    6.60 
  -6   4  -6   14.40   10.10 
   6  -4   6   10.60    5.50 
   6  -4   6    6.60    5.50 
   6  -4   6   11.90    5.00 
  -7   4  -6   21.00   15.70 
   7  -4   6    7.80    5.90 
   7  -4   6    2.60    6.20 
   7   3  -6    3.40    5.20 
   6   3  -6  217.18   15.90 
   5   3  -6   18.60    4.30 
   4   3  -6  161.88   11.90 
   4   3  -6  169.58   12.20 
   4   3  -6  194.08   11.10 
  -4  -3   6  184.28   12.40 
  -4  -3   6  178.28   11.60 
   3   3  -6  249.97   15.40 
   3   3  -6  242.58   15.40 
   3   3  -6  264.37   16.40 
   3   3  -6  253.47   15.60 
  -3  -3   6  255.17   15.90 
  -3  -3   6  248.88   14.90 
   2   3  -6  470.55   27.30 
   2   3  -6  438.56   26.00 
   2   3  -6  449.46   26.20 
   2   3  -6  476.75   28.00 
  -2  -3   6  454.55   27.40 
  -2  -3   6  456.45   26.80 
   1   3  -6 1788.12  107.79 
   1   3  -6 1860.71  106.39 
   1   3  -6 1890.61  106.79 
   1   3  -6 2087.59  107.39 
  -1  -3   6 1896.51  106.89 
  -1  -3   6 1770.52  106.79 
  -1  -3   6 1856.11  106.39 
   0   3  -6   34.80    6.10 
   0   3  -6   31.70    4.60 
   0   3  -6   34.70    7.10 
   0   3  -6   38.80    5.10 
   0  -3   6   35.70    4.70 
   0  -3   6   34.20    5.10 
   0  -3   6   38.20    6.10 
  -1   3  -6  698.73   44.70 
  -1   3  -6  880.51   48.30 
  -1   3  -6  742.63   45.80 
  -1   3  -6  809.12   46.10 
   1  -3   6  717.33   44.50 
   1  -3   6  826.22   45.90 
   1  -3   6  754.72   47.10 
   1  -3   6  763.52   43.90 
   1  -3   6  763.02   46.90 
   1  -3   6  851.21   46.50 
  -2   3  -6  582.64   34.90 
  -2   3  -6  680.63   38.10 
  -2   3  -6  554.04   36.40 
  -2   3  -6  596.54   38.60 
  -2   3  -6  656.83   39.20 
   2  -3   6  582.64   37.30 
   2  -3   6  558.54   35.60 
   2  -3   6  649.83   34.70 
   2  -3   6  624.04   36.70 
   2  -3   6  558.74   37.70 
   2  -3   6  611.54   37.00 
  -3   3  -6   92.79    9.90 
  -3   3  -6   96.69   13.10 
  -3   3  -6  146.29   15.10 
   3  -3   6   93.59    9.70 
   3  -3   6   84.89   10.70 
   3  -3   6   82.99    9.60 
   3  -3   6   85.99   10.80 
   3  -3   6   74.69    9.20 
   3  -3   6  109.89    7.70 
  -4   3  -6  465.15   30.70 
  -4   3  -6  441.76   33.70 
  -4   3  -6  511.15   32.40 
   4  -3   6  434.86   31.50 
   4  -3   6  497.65   28.80 
   4  -3   6  500.45   30.60 
   4  -3   6  463.05   30.40 
  -5   3  -6   39.00   11.70 
  -5   3  -6   36.70    9.60 
  -5   3  -6   39.60    7.60 
   5  -3   6   62.09    7.10 
   5  -3   6   55.69    8.10 
   5  -3   6   57.49    8.30 
   5  -3   6   50.99    9.60 
  -6   3  -6   22.00   11.60 
  -6   3  -6   16.70    6.60 
  -6   3  -6   15.10    8.60 
   6  -3   6   19.40    5.70 
   6  -3   6   12.00    7.70 
   6  -3   6   22.20    5.70 
   6  -3   6   22.60    6.50 
  -7   3  -6   -4.50   12.50 
   7  -3   6   -2.20    5.20 
   7  -3   6   -7.00    5.00 
   8   2  -6    0.90    5.50 
   7   2  -6    8.40    5.30 
   6   2  -6  218.48   15.70 
   5   2  -6    5.10    3.50 
   4   2  -6  311.07   19.70 
   4   2  -6  300.77   20.10 
  -4  -2   6  333.17   19.50 
  -4  -2   6  336.67   19.30 
   3   2  -6   53.29    4.60 
   3   2  -6   47.50    4.90 
   3   2  -6   56.49    4.90 
   3   2  -6   48.70    5.90 
  -3  -2   6   49.10    5.90 
  -3  -2   6   52.89    4.10 
  -3  -2   6   51.59    5.10 
   2   2  -6  192.88   12.50 
   2   2  -6  208.68   13.20 
   2   2  -6  191.18   11.30 
   2   2  -6  186.18   11.40 
  -2  -2   6  185.28   12.10 
  -2  -2   6  200.28   12.70 
  -2  -2   6  182.08   12.20 
  -2  -2   6  195.98   13.30 
   1   2  -6  505.55   30.40 
   1   2  -6  529.05   30.90 
   1   2  -6  535.95   31.70 
   1   2  -6  494.55   30.20 
  -1  -2   6  492.35   30.20 
  -1  -2   6  532.55   30.70 
  -1  -2   6  495.95   30.50 
  -1  -2   6  521.15   31.10 
   0   2  -6  408.86   25.20 
   0   2  -6  418.66   26.80 
   0   2  -6  402.36   25.20 
   0   2  -6  441.96   26.00 
   0  -2   6  409.06   26.10 
   0  -2   6  409.46   25.70 
   0  -2   6  394.36   25.10 
   0  -2   6  439.46   25.70 
  -1   2  -6  248.38   17.90 
  -1   2  -6  232.78   15.80 
  -1   2  -6  244.28   15.70 
  -1   2  -6  258.37   16.80 
   1  -2   6  240.58   16.20 
   1  -2   6  235.98   13.70 
   1  -2   6  224.48   14.20 
   1  -2   6  237.08   16.30 
   1  -2   6  243.28   15.70 
   1  -2   6  202.08   16.40 
  -2   2  -6  131.49   10.70 
  -2   2  -6  127.39   10.40 
  -2   2  -6  138.39   14.40 
  -2   2  -6  145.09   12.30 
   2  -2   6  114.99    9.40 
   2  -2   6  142.29   11.30 
   2  -2   6  133.59   10.80 
   2  -2   6  144.39    8.90 
   2  -2   6  136.49   12.10 
   2  -2   6  133.29   11.60 
  -3   2  -6  112.69   14.60 
  -3   2  -6  127.19   10.50 
  -3   2  -6  119.59   10.90 
  -3   2  -6  142.59   13.00 
   3  -2   6  123.89   12.10 
   3  -2   6  111.49   10.20 
   3  -2   6  146.19    9.50 
   3  -2   6  153.98   11.50 
   3  -2   6  116.09   12.20 
   3  -2   6  125.99   11.30 
  -4   2  -6  119.39   11.60 
  -4   2  -6  135.29   17.00 
  -4   2  -6  119.79   13.90 
   4  -2   6  135.79   10.40 
   4  -2   6  121.89   13.20 
   4  -2   6  156.08   12.50 
   4  -2   6  127.19   12.00 
  -5   2  -6    7.70    7.70 
  -5   2  -6   22.00    9.80 
  -5   2  -6   22.10    5.80 
   5  -2   6   12.20    5.40 
   5  -2   6   19.70    4.90 
   5  -2   6   20.80    5.80 
   5  -2   6    9.60    6.00 
  -6   2  -6   -1.50    4.70 
  -6   2  -6   10.70    8.80 
  -6   2  -6   12.40   10.50 
   6  -2   6    8.20    5.10 
   6  -2   6    8.20    6.70 
   6  -2   6   14.40    5.40 
   6  -2   6    7.00    5.40 
  -7   2  -6    7.70   11.90 
   7  -2   6    4.90    5.90 
   7  -2   6   -4.00    5.40 
   8   1  -6   36.50    7.50 
   7   1  -6   19.80    5.80 
   6   1  -6  268.77   18.30 
   5   1  -6   44.60    5.70 
  -5  -1   6   43.70    5.20 
  -5  -1   6   48.50    4.60 
   4   1  -6  203.78   13.10 
   4   1  -6  210.38   12.60 
   4   1  -6  176.48   13.70 
  -4  -1   6  201.48   12.60 
  -4  -1   6  199.58   12.70 
   3   1  -6  334.37   21.60 
   3   1  -6  367.16   21.50 
   3   1  -6  376.86   21.60 
   3   1  -6  375.56   21.10 
  -3  -1   6  358.56   21.50 
  -3  -1   6  344.77   21.50 
  -3  -1   6  349.37   20.90 
   2   1  -6  137.19   10.70 
   2   1  -6  159.18   10.80 
   2   1  -6  155.48   10.40 
   2   1  -6  155.38    9.60 
   2   1  -6  160.28    9.30 
  -2  -1   6  172.88   10.70 
  -2  -1   6  149.29   10.10 
  -2  -1   6  143.79   10.70 
  -2  -1   6  160.28   10.10 
   1   1  -6  458.85   28.30 
   1   1  -6  479.65   28.20 
   1   1  -6  443.16   27.80 
   1   1  -6  453.05   27.60 
  -1  -1   6  467.85   27.50 
  -1  -1   6  478.55   27.90 
   0   1  -6  321.77   21.30 
   0   1  -6  338.17   21.30 
   0   1  -6  365.16   21.90 
   0   1  -6  354.66   22.50 
   0  -1   6  372.46   21.50 
   0  -1   6  350.86   21.60 
   0  -1   6  326.47   21.80 
   0  -1   6  353.06   21.70 
  -1   1  -6  674.13   40.30 
  -1   1  -6  717.03   40.80 
  -1   1  -6  648.94   40.10 
  -1   1  -6  707.53   41.30 
   1  -1   6  675.33   38.80 
   1  -1   6  618.54   40.60 
   1  -1   6  681.23   40.60 
   1  -1   6  689.83   38.60 
   1  -1   6  693.63   40.60 
   1  -1   6  716.03   40.40 
  -2   1  -6  134.39   11.20 
  -2   1  -6  135.59   11.00 
  -2   1  -6  166.18   12.50 
  -2   1  -6  149.39   13.30 
   2  -1   6  148.59   11.90 
   2  -1   6  167.48   11.70 
   2  -1   6  144.89   11.70 
   2  -1   6  162.58    9.80 
   2  -1   6  138.29   11.90 
   2  -1   6  150.78   10.30 
  -3   1  -6  332.17   21.70 
  -3   1  -6  301.27   20.70 
  -3   1  -6  334.67   22.70 
  -3   1  -6  296.77   20.40 
   3  -1   6  324.37   19.50 
   3  -1   6  305.27   21.40 
   3  -1   6  330.37   21.20 
   3  -1   6  293.57   20.00 
   3  -1   6  311.57   21.40 
   3  -1   6  337.37   21.10 
  -4   1  -6   20.20    7.80 
  -4   1  -6   42.00    7.80 
  -4   1  -6   36.50    6.00 
   4  -1   6   25.20    5.60 
   4  -1   6   42.60    7.20 
   4  -1   6   27.30    4.80 
   4  -1   6   28.40    5.20 
  -5   1  -6   27.40    6.00 
  -5   1  -6   46.10   11.00 
  -5   1  -6   37.00   10.00 
   5  -1   6   43.80    7.00 
   5  -1   6   31.90    6.90 
   5  -1   6   37.00    7.00 
   5  -1   6   43.40    6.30 
  -6   1  -6   21.80   10.50 
  -6   1  -6   16.50    5.60 
  -6   1  -6   17.90    7.90 
   6  -1   6   34.50    6.40 
   6  -1   6   10.60    6.40 
   6  -1   6   25.80    6.80 
   6  -1   6   11.30    5.00 
  -7   1  -6    1.20   10.60 
  -7   1  -6   11.90    8.90 
   7  -1   6   14.40    6.40 
   7  -1   6    7.50    6.20 
  -8   1  -6   17.60   13.60 
   8  -1   6   27.30    7.90 
   8  -1   6   25.90    8.00 
   8   0  -6   15.90    6.20 
  -8   0   6   19.10    5.80 
   7   0  -6   70.69    8.50 
  -7   0   6   67.49    7.10 
  -7   0   6   76.79    9.20 
   6   0  -6  217.88   15.80 
  -6   0   6  227.28   14.30 
  -6   0   6  234.98   15.70 
   5   0  -6   66.99    6.60 
   5   0  -6   76.99    7.50 
   5   0  -6   79.39    6.10 
  -5   0   6   81.49    6.30 
  -5   0   6   77.39    7.40 
   4   0  -6 1195.78   76.29 
   4   0  -6 1472.45   75.49 
   4   0  -6 1341.77   75.69 
  -4   0   6 1320.27   75.69 
  -4   0   6 1296.17   74.79 
  -4   0   6 1345.17   75.39 
   3   0  -6    4.30    2.00 
   3   0  -6    8.60    3.00 
   3   0  -6    5.90    2.40 
   3   0  -6    7.90    2.50 
  -3   0   6    4.30    1.60 
  -3   0   6    1.30    2.00 
  -3   0   6    7.90    2.50 
   2   0  -6  118.79    7.20 
   2   0  -6  103.69    8.70 
   2   0  -6  108.09    8.10 
   2   0  -6  121.29    8.50 
   2   0  -6  130.59    8.60 
   2   0  -6  126.69    9.10 
  -2   0   6  108.89    8.50 
  -2   0   6  114.59    7.50 
  -2   0   6  113.79    8.00 
  -2   0   6  112.89    8.00 
  -2   0   6  126.69    8.60 
   1   0  -6  213.18   13.80 
   1   0  -6  216.58   13.90 
   1   0  -6  211.68   12.20 
   1   0  -6  211.38   13.70 
  -1   0   6  210.78   13.60 
  -1   0   6  206.28   13.50 
  -1   0   6  212.88   12.30 
  -1   0   6  223.48   13.90 
   0   0  -6  168.38   11.00 
   0   0  -6  153.68   11.00 
   0   0  -6  157.68   11.30 
   0   0  -6  159.88   11.70 
   0   0   6  148.09   10.80 
   0   0   6  163.08   11.40 
   0   0   6  165.18   11.30 
  -1   0  -6  631.64   37.40 
  -1   0  -6  584.54   37.90 
  -1   0  -6  613.94   36.10 
  -1   0  -6  610.24   37.50 
  -1   0  -6  652.73   38.00 
   1   0   6  637.94   37.50 
   1   0   6  652.03   37.60 
   1   0   6  575.74   37.40 
   1   0   6  660.93   35.90 
   1   0   6  647.64   35.90 
   1   0   6  655.13   37.50 
  -2   0  -6  455.85   27.10 
  -2   0  -6  423.76   26.50 
  -2   0  -6  445.26   27.50 
  -2   0  -6  414.76   26.30 
  -2   0  -6  412.76   25.80 
   2   0   6  421.36   26.80 
   2   0   6  418.76   25.50 
   2   0   6  412.26   26.80 
   2   0   6  445.76   26.80 
   2   0   6  434.66   25.30 
   2   0   6  456.15   26.90 
  -3   0  -6  300.97   19.90 
  -3   0  -6  308.77   20.40 
  -3   0  -6  281.27   19.10 
  -3   0  -6  283.77   19.10 
  -3   0  -6  250.07   18.60 
   3   0   6  275.07   19.40 
   3   0   6  292.37   19.40 
   3   0   6  271.07   18.50 
   3   0   6  292.57   19.70 
   3   0   6  320.17   18.40 
   3   0   6  322.57   19.70 
  -4   0  -6  171.78   14.00 
  -4   0  -6  183.78   15.00 
   4   0   6  188.58   14.90 
   4   0   6  206.68   14.60 
   4   0   6  189.38   14.40 
   4   0   6  143.29   17.20 
   4   0   6  203.48   13.50 
  -5   0  -6    7.70    5.80 
  -5   0  -6   15.70    8.00 
  -5   0  -6   -0.10    3.60 
   5   0   6   12.00    5.30 
   5   0   6    8.70    4.30 
   5   0   6    7.80    5.00 
   5   0   6    0.60    4.10 
  -6   0  -6    4.00    8.60 
   6   0   6    4.90    5.10 
   6   0   6   12.50    5.30 
   6   0   6   10.10    5.50 
   6   0   6    5.10    4.60 
  -7   0  -6    8.20    8.00 
  -7   0  -6   -4.20    9.50 
  -7   0  -6    3.30    5.10 
   7   0   6    1.50    5.50 
   7   0   6   -2.50    5.10 
   7   0   6   -1.80    5.60 
  -8   0  -6   26.90   12.70 
   8   0   6    5.10    6.50 
   8   0   6   11.50    6.50 
   8  -1  -6   27.10    7.00 
  -8   1   6   35.80    7.70 
  -8   1   6   30.00    5.70 
   7  -1  -6   83.79    9.20 
  -7   1   6   84.69    8.30 
  -7   1   6   74.39    9.50 
   6  -1  -6  168.38   13.80 
   6  -1  -6  176.58   13.10 
   6  -1  -6  207.08   12.50 
  -6   1   6  198.58   13.50 
  -6   1   6  199.58   14.80 
   5  -1  -6   87.79    6.80 
   5  -1  -6   57.99    7.70 
   5  -1  -6   81.49    7.60 
  -5   1   6   88.19    6.90 
  -5   1   6   83.19    8.50 
   4  -1  -6   27.70    4.50 
   4  -1  -6   21.90    5.40 
   4  -1  -6   33.70    4.10 
   4  -1  -6   30.60    4.00 
  -4   1   6   31.00    3.80 
  -4   1   6   26.80    4.70 
  -4   1   6   26.50    4.10 
  -4   1   6   35.00    3.60 
   3  -1  -6  117.39    8.10 
   3  -1  -6  107.69    8.50 
   3  -1  -6  118.19    7.50 
   3  -1  -6   94.29    8.90 
  -3   1   6  104.39    7.70 
  -3   1   6  108.39    7.90 
  -3   1   6  107.59    7.90 
  -3   1   6  109.79    8.50 
   2  -1  -6 1640.24   98.29 
   2  -1  -6 1767.62   96.99 
   2  -1  -6 1775.12   97.99 
   2  -1  -6 1625.84   97.89 
   2  -1  -6 1707.23   97.79 
  -2   1   6 1790.12   97.99 
  -2   1   6 1733.03   97.89 
  -2   1   6 1719.13   97.29 
  -2   1   6 1736.23   97.69 
  -2   1   6 1784.12   98.19 
   1  -1  -6  764.92   45.70 
   1  -1  -6  782.92   45.70 
   1  -1  -6  814.62   45.70 
   1  -1  -6  796.52   44.30 
   1  -1  -6  773.72   45.60 
  -1   1   6  732.53   46.00 
  -1   1   6  786.32   45.30 
  -1   1   6  773.42   44.40 
  -1   1   6  839.32   45.80 
   0  -1  -6 1496.05   87.49 
   0  -1  -6 1556.14   87.79 
   0  -1  -6 1587.74   86.19 
   0  -1  -6 1522.15   87.49 
   0  -1  -6 1585.34   87.59 
   0   1   6 1601.74   87.69 
   0   1   6 1458.15   87.39 
   0   1   6 1493.65   87.29 
   0   1   6 1498.35   85.99 
   0   1   6 1543.05   87.49 
  -1  -1  -6 1788.82   99.79 
  -1  -1  -6 1759.62   99.49 
  -1  -1  -6 1664.53   99.29 
  -1  -1  -6 1724.33   99.39 
  -1  -1  -6 1743.33   98.29 
   1   1   6 1718.93   98.09 
   1   1   6 1613.64   99.29 
   1   1   6 1764.72   99.39 
   1   1   6 1821.02   99.59 
   1   1   6 1847.62   99.59 
  -2  -1  -6    0.60    3.20 
  -2  -1  -6    4.30    3.60 
  -2  -1  -6    5.30    2.90 
  -2  -1  -6   -1.30    1.80 
  -2  -1  -6    1.80    2.50 
   2   1   6    3.00    2.00 
   2   1   6    1.50    2.60 
   2   1   6    4.40    2.90 
   2   1   6    2.00    2.60 
   2   1   6    2.30    2.30 
  -3  -1  -6  597.64   37.10 
  -3  -1  -6  659.73   38.30 
  -3  -1  -6  560.94   37.10 
  -3  -1  -6  629.74   37.70 
   3   1   6  636.24   37.60 
   3   1   6  623.54   37.60 
   3   1   6  585.24   37.20 
   3   1   6  616.34   36.80 
   3   1   6  673.13   36.70 
  -4  -1  -6   71.59    8.40 
  -4  -1  -6   86.69   10.30 
  -4  -1  -6   86.69    9.70 
  -4  -1  -6   78.19    9.90 
   4   1   6   93.59    8.40 
   4   1   6   78.69    8.80 
   4   1   6   99.49    9.30 
   4   1   6   83.79    9.00 
  -5  -1  -6   60.09    9.10 
  -5  -1  -6   62.79    9.30 
  -5  -1  -6   75.09    9.10 
  -5  -1  -6   71.39    8.50 
   5   1   6   71.59    8.80 
   5   1   6   76.39    8.50 
   5   1   6   72.19    9.30 
   5   1   6   65.79    8.20 
  -6  -1  -6   49.40    8.20 
  -6  -1  -6   30.80    6.20 
   6   1   6   43.80    7.60 
   6   1   6   43.60    7.90 
   6   1   6   40.50    7.40 
  -7  -1  -6   -9.40    8.60 
  -7  -1  -6    0.10    4.40 
  -7  -1  -6    8.80    7.90 
   7   1   6    1.70    5.70 
   7   1   6    0.30    5.80 
   7   1   6   14.30    5.60 
  -8  -1  -6   10.20   11.90 
   8   1   6    0.40    6.30 
   8   1   6   -2.70    5.50 
  -8   2   6   11.30    5.30 
  -8   2   6   12.50    7.50 
   7  -2  -6  183.38   14.70 
   7  -2  -6  197.98   13.50 
   7  -2  -6  200.58   15.10 
  -7   2   6  198.78   17.30 
  -7   2   6  204.58   14.40 
   6  -2  -6   47.80    7.30 
   6  -2  -6   77.49    6.90 
   6  -2  -6   48.20    7.60 
  -6   2   6   61.49    7.20 
  -6   2   6   59.99    8.50 
   5  -2  -6  137.29   10.00 
   5  -2  -6  115.59   11.00 
   5  -2  -6  137.39    9.80 
  -5   2   6  138.59   12.00 
  -5   2   6  118.69    9.20 
  -5   2   6  133.39    9.70 
   4  -2  -6 2492.55  151.08 
   4  -2  -6 2308.57  152.18 
   4  -2  -6 2809.32  150.48 
   4  -2  -6 2839.12  150.88 
  -4   2   6 2763.72  150.78 
  -4   2   6 2799.22  151.58 
  -4   2   6 2575.94  151.08 
  -4   2   6 2763.52  150.58 
   3  -2  -6   24.60    3.10 
   3  -2  -6   20.50    4.10 
   3  -2  -6   24.70    3.70 
   3  -2  -6   15.00    4.20 
   3  -2  -6   23.80    3.40 
  -3   2   6   22.20    4.20 
  -3   2   6   26.60    3.70 
  -3   2   6   17.40    3.20 
  -3   2   6   27.00    3.90 
   2  -2  -6 1539.75   85.09 
   2  -2  -6 1636.04   86.19 
   2  -2  -6 1548.55   85.99 
   2  -2  -6 1480.95   86.39 
   2  -2  -6 1421.26   86.29 
  -2   2   6 1434.66   85.69 
  -2   2   6 1523.95   86.09 
  -2   2   6 1515.45   86.39 
  -2   2   6 1519.75   85.69 
  -2   2   6 1491.15   85.49 
   1  -2  -6  198.88   13.70 
   1  -2  -6  219.28   14.10 
   1  -2  -6  218.48   14.00 
   1  -2  -6  220.08   14.20 
   1  -2  -6  220.08   12.60 
  -1   2   6  204.08   13.50 
  -1   2   6  209.08   13.60 
  -1   2   6  210.68   14.10 
  -1   2   6  199.18   12.50 
   0  -2  -6  390.46   24.30 
   0  -2  -6  410.16   23.00 
   0  -2  -6  383.86   24.30 
   0  -2  -6  411.86   24.20 
   0   2   6  377.86   23.80 
   0   2   6  417.46   24.40 
   0   2   6  377.46   22.70 
   0   2   6  393.06   24.00 
  -1  -2  -6   93.29    7.10 
  -1  -2  -6   94.89    8.00 
  -1  -2  -6   95.79    8.20 
  -1  -2  -6   90.09    8.00 
  -1  -2  -6  100.29    8.40 
   1   2   6   97.39    8.20 
   1   2   6  100.69    7.80 
   1   2   6   97.29    6.60 
   1   2   6   97.89    8.00 
   1   2   6   99.69    7.90 
  -2  -2  -6  272.67   17.50 
  -2  -2  -6  251.87   17.30 
  -2  -2  -6  278.57   17.80 
  -2  -2  -6  248.98   16.60 
   2   2   6  253.77   17.10 
   2   2   6  248.18   16.20 
   2   2   6  256.97   17.00 
   2   2   6  280.47   17.40 
   2   2   6  275.07   17.50 
  -3  -2  -6  149.49   11.80 
  -3  -2  -6  147.99   12.10 
  -3  -2  -6  148.19   12.30 
  -3  -2  -6  167.98   12.80 
   3   2   6  147.79   11.70 
   3   2   6  184.18   12.90 
   3   2   6  149.39   11.40 
   3   2   6  167.88   12.10 
   3   2   6  136.19   11.50 
  -4  -2  -6    4.70    4.20 
  -4  -2  -6    2.10    4.30 
  -4  -2  -6   -0.80    4.20 
  -4  -2  -6    7.90    3.70 
   4   2   6    6.10    3.90 
   4   2   6    3.60    3.40 
   4   2   6    7.10    3.70 
   4   2   6    3.80    3.70 
  -5  -2  -6  132.79   13.50 
  -5  -2  -6  148.59   13.90 
  -5  -2  -6  119.69   11.30 
   5   2   6  135.29   12.30 
   5   2   6  134.19   12.10 
   5   2   6  141.39   11.80 
   5   2   6  138.69   11.80 
  -6  -2  -6   33.80    7.30 
  -6  -2  -6   29.80    5.90 
  -6  -2  -6   37.80    8.50 
  -6  -2  -6   31.90    8.50 
   6   2   6   37.50    7.00 
   6   2   6   35.40    6.00 
   6   2   6   31.00    6.80 
   6   2   6   43.00    7.40 
  -7  -2  -6  100.49   11.30 
  -7  -2  -6  113.49   13.30 
   7   2   6  112.39   12.70 
   7   2   6  100.59   11.80 
   7   2   6  130.49   13.30 
  -8  -2  -6   -0.70   10.00 
   8   2   6   11.50    6.60 
   8   2   6    8.20    7.20 
   7  -3  -6   12.70    4.10 
   7  -3  -6    9.20    4.90 
   7  -3  -6   -7.00    5.70 
  -7   3   6    3.20    4.70 
  -7   3   6   12.50    7.40 
   6  -3  -6    5.20    3.80 
   6  -3  -6    3.70    3.40 
   6  -3  -6    2.10    5.80 
  -6   3   6    1.60    3.60 
  -6   3   6    0.40    5.50 
   5  -3  -6    7.60    3.30 
   5  -3  -6    2.00    4.70 
   5  -3  -6   11.50    5.70 
  -5   3   6    6.60    8.30 
  -5   3   6    3.10    3.30 
  -5   3   6   10.60    3.50 
   4  -3  -6  484.75   29.40 
   4  -3  -6  542.45   29.70 
   4  -3  -6  461.25   30.90 
   4  -3  -6  502.75   30.20 
  -4   3   6  507.45   31.50 
  -4   3   6  495.85   29.90 
  -4   3   6  511.05   30.50 
   3  -3  -6   95.29    9.90 
   3  -3  -6   91.19    6.80 
   3  -3  -6   88.89    7.70 
   3  -3  -6   84.99    7.50 
  -3   3   6   97.79    7.50 
  -3   3   6   85.59    8.80 
  -3   3   6   82.09    7.40 
  -3   3   6   99.29    8.00 
   2  -3  -6 1093.19   63.29 
   2  -3  -6 1121.29   62.79 
   2  -3  -6  982.80   63.19 
   2  -3  -6 1090.89   62.69 
   2  -3  -6 1136.69   61.79 
  -2   3   6 1139.09   63.09 
  -2   3   6 1044.00   62.09 
  -2   3   6 1106.09   63.29 
  -2   3   6 1088.19   62.39 
   1  -3  -6  116.09    8.80 
   1  -3  -6  121.39    9.30 
   1  -3  -6  117.19    7.60 
   1  -3  -6  104.99    9.30 
   1  -3  -6  108.59    8.80 
  -1   3   6  111.89    8.30 
  -1   3   6  126.09    9.00 
  -1   3   6  111.39    9.20 
  -1   3   6  111.99    8.40 
  -1   3   6  107.49    7.50 
   0  -3  -6 2204.98  121.69 
   0  -3  -6 2210.28  121.79 
   0  -3  -6 2223.38  120.79 
   0  -3  -6 2115.79  121.99 
   0   3   6 2017.70  121.39 
   0   3   6 2164.08  121.99 
   0   3   6 2124.39  121.39 
   0   3   6 2096.69  120.49 
  -1  -3  -6  635.94   36.80 
  -1  -3  -6  655.93   36.10 
  -1  -3  -6  599.34   36.90 
  -1  -3  -6  625.74   36.90 
  -1  -3  -6  611.44   37.10 
   1   3   6  631.14   37.00 
   1   3   6  604.94   36.50 
   1   3   6  598.74   35.60 
   1   3   6  597.94   36.50 
  -2  -3  -6 2026.10  116.29 
  -2  -3  -6 2125.59  115.79 
  -2  -3  -6 2030.50  116.29 
  -2  -3  -6 2027.10  116.29 
   2   3   6 1959.10  115.19 
   2   3   6 2022.40  115.89 
   2   3   6 2132.79  116.39 
   2   3   6 1989.50  115.79 
  -3  -3  -6 2421.76  137.59 
  -3  -3  -6 2486.65  137.39 
  -3  -3  -6 2296.27  137.39 
  -3  -3  -6 2313.47  137.39 
  -3  -3  -6 2510.85  137.79 
   3   3   6 2382.76  137.09 
   3   3   6 2319.27  136.79 
   3   3   6 2588.34  137.79 
   3   3   6 2366.16  137.29 
   3   3   6 2480.85  137.59 
  -4  -3  -6   53.59    6.90 
  -4  -3  -6   42.90    6.90 
  -4  -3  -6   40.90    7.00 
  -4  -3  -6   37.40    5.90 
   4   3   6   52.39    7.10 
   4   3   6   59.29    7.00 
   4   3   6   41.10    6.20 
  -5  -3  -6  134.69   13.50 
  -5  -3  -6  140.69   11.60 
  -5  -3  -6  115.49   11.10 
  -5  -3  -6  138.09   13.20 
   5   3   6  153.48   12.20 
   5   3   6  130.29   11.40 
   5   3   6  129.19   11.90 
   5   3   6  114.79   11.10 
  -6  -3  -6   61.79    9.00 
  -6  -3  -6   83.59   11.60 
  -6  -3  -6   61.89    8.20 
  -6  -3  -6   69.29   10.30 
   6   3   6   59.19    8.30 
   6   3   6   70.79    9.00 
   6   3   6   74.39    9.60 
   6   3   6   60.99    7.60 
  -7  -3  -6   11.30    7.60 
  -7  -3  -6   17.40    9.20 
  -7  -3  -6   10.60    7.40 
   7   3   6    9.80    5.80 
   7   3   6    6.40    6.20 
   7   3   6   14.20    5.20 
   8   3   6    0.60    6.00 
   8   3   6    9.40    7.50 
   7  -4  -6    1.80    6.50 
   7  -4  -6    2.50    4.30 
   7  -4  -6    9.60    4.20 
  -7   4   6    3.60    7.40 
  -7   4   6    8.60    5.10 
   6  -4  -6    5.40    4.00 
   6  -4  -6    3.40    3.50 
   6  -4  -6    6.50    6.40 
  -6   4   6    3.90    4.10 
  -6   4   6   -9.30    6.00 
  -6   4   6    1.30    3.70 
   5  -4  -6  363.86   22.50 
   5  -4  -6  279.17   23.10 
   5  -4  -6  371.96   21.80 
  -5   4   6  344.57   22.10 
  -5   4   6  358.06   23.00 
  -5   4   6  366.96   25.00 
   4  -4  -6   75.59    7.30 
   4  -4  -6   88.79    7.20 
   4  -4  -6   82.49    9.80 
   4  -4  -6   74.99    7.80 
  -4   4   6   67.49    9.80 
  -4   4   6   71.29    9.30 
  -4   4   6   79.89    7.60 
   3  -4  -6  652.13   37.00 
   3  -4  -6  617.34   36.60 
   3  -4  -6  609.44   37.70 
   3  -4  -6  638.44   35.90 
  -3   4   6  567.84   36.40 
  -3   4   6  640.14   37.50 
  -3   4   6  586.84   37.90 
   2  -4  -6  822.72   47.50 
   2  -4  -6  790.42   48.10 
   2  -4  -6  852.41   47.60 
   2  -4  -6  713.63   48.30 
  -2   4   6  823.92   47.00 
  -2   4   6  867.31   48.40 
  -2   4   6  795.12   47.10 
   1  -4  -6   83.49    6.10 
   1  -4  -6   75.19    7.40 
   1  -4  -6   85.29    7.30 
   1  -4  -6   77.19    8.80 
   1  -4  -6  116.49   10.60 
  -1   4   6   72.79    6.50 
  -1   4   6   82.49    7.60 
  -1   4   6   66.99    6.70 
  -1   4   6   64.49    7.80 
  -1   4   6   81.19    5.90 
   0  -4  -6  371.36   23.50 
   0  -4  -6  344.87   23.50 
   0  -4  -6  384.26   23.10 
   0  -4  -6  378.46   22.20 
   0  -4  -6  387.46   23.30 
   0   4   6  365.06   21.80 
   0   4   6  378.56   23.60 
   0   4   6  375.06   22.80 
   0   4   6  344.47   22.60 
  -1  -4  -6  659.03   34.90 
  -1  -4  -6  593.64   35.30 
  -1  -4  -6  574.94   35.30 
  -1  -4  -6  541.15   35.40 
  -1  -4  -6  573.94   35.70 
   1   4   6  602.14   35.60 
   1   4   6  612.14   35.60 
   1   4   6  576.24   34.90 
   1   4   6  560.54   34.10 
  -2  -4  -6 2532.75  148.69 
  -2  -4  -6 2477.75  148.69 
  -2  -4  -6 2690.83  148.59 
  -2  -4  -6 2618.14  148.49 
   2   4   6 2644.54  148.39 
   2   4   6 2730.23  148.79 
   2   4   6 2527.95  147.59 
   2   4   6 2712.53  148.69 
  -3  -4  -6   17.90    5.40 
  -3  -4  -6   17.90    4.30 
  -3  -4  -6   22.00    4.80 
  -3  -4  -6   16.10    4.70 
   3   4   6   11.20    3.40 
   3   4   6   13.30    3.50 
   3   4   6   18.40    4.50 
   3   4   6   24.40    5.00 
  -4  -4  -6  342.77   23.70 
  -4  -4  -6  365.46   23.60 
  -4  -4  -6  383.06   24.40 
  -4  -4  -6  335.27   23.30 
   4   4   6  348.97   23.10 
   4   4   6  392.06   23.90 
   4   4   6  350.56   23.30 
  -5  -4  -6  272.17   20.40 
  -5  -4  -6  236.08   18.40 
  -5  -4  -6  246.28   18.70 
  -5  -4  -6  277.77   19.90 
   5   4   6  271.07   18.30 
   5   4   6  282.37   19.00 
   5   4   6  255.87   18.30 
  -6  -4  -6    4.20    6.00 
  -6  -4  -6   13.60    7.80 
  -6  -4  -6   -3.70    4.80 
  -6  -4  -6   13.60    4.30 
   6   4   6    4.70    5.20 
   6   4   6    6.80    4.40 
   6   4   6    9.30    5.90 
   6   4   6    4.40    4.30 
  -7  -4  -6  138.69   18.40 
  -7  -4  -6  114.99   15.70 
  -7  -4  -6  133.59   15.90 
  -7  -4  -6  146.49   17.20 
   7   4   6  141.59   14.50 
   7   4   6  117.99   12.40 
   7   4   6  146.89   14.10 
  -8  -4  -6    8.80    8.20 
  -8  -4  -6    0.90    9.60 
   8   4   6    9.70    7.10 
   8   4   6    0.60    5.50 
   7  -5  -6   22.80    5.60 
   7  -5  -6   20.10    8.20 
   7  -5  -6   36.70    6.40 
  -7   5   6   29.70    9.70 
   6  -5  -6   -3.00    6.50 
   6  -5  -6    5.60    4.30 
   6  -5  -6    3.40    4.10 
  -6   5   6   -3.30    3.90 
  -6   5   6    1.10    7.00 
  -6   5   6   -1.90    4.40 
   5  -5  -6   83.09    8.50 
   5  -5  -6   51.99    8.80 
   5  -5  -6   75.19   10.30 
  -5   5   6   68.29   10.50 
  -5   5   6   79.09    9.20 
  -5   5   6   60.69    7.50 
   4  -5  -6   78.09    6.90 
   4  -5  -6   60.39    9.10 
   4  -5  -6   81.29    8.30 
   4  -5  -6   65.19    7.70 
  -4   5   6   65.79    9.60 
  -4   5   6   92.19    9.40 
   3  -5  -6  180.38   12.80 
   3  -5  -6  168.88   14.10 
   3  -5  -6  181.08   11.70 
   3  -5  -6  174.58   12.70 
  -3   5   6  149.88   12.20 
  -3   5   6  178.08   14.70 
   2  -5  -6  264.77   15.40 
   2  -5  -6  238.38   17.30 
   2  -5  -6  254.97   16.50 
   2  -5  -6  251.27   16.50 
  -2   5   6  246.88   15.80 
  -2   5   6  226.78   15.30 
  -2   5   6  252.07   17.10 
  -2   5   6  222.68   15.80 
  -2   5   6  217.18   17.40 
   1  -5  -6   72.69    6.10 
   1  -5  -6   75.19    7.30 
   1  -5  -6   71.59    7.90 
   1  -5  -6   75.09    7.40 
   1  -5  -6   59.69    8.10 
  -1   5   6   74.29    7.80 
  -1   5   6   71.49    6.60 
  -1   5   6   70.79    5.90 
  -1   5   6   63.39    8.10 
  -1   5   6   69.09    6.70 
   0  -5  -6  303.47   19.50 
   0  -5  -6  314.37   19.60 
   0  -5  -6  310.67   20.40 
   0  -5  -6  289.17   19.90 
   0   5   6  293.07   19.00 
   0   5   6  290.17   20.00 
   0   5   6  303.17   19.00 
   0   5   6  288.87   18.10 
  -1  -5  -6   25.30    4.80 
  -1  -5  -6   32.40    5.10 
  -1  -5  -6   34.40    5.60 
  -1  -5  -6   27.00    5.30 
  -1  -5  -6   26.70    4.30 
   1   5   6   29.10    4.30 
   1   5   6   28.00    3.70 
   1   5   6   29.70    5.30 
   1   5   6   26.10    4.10 
   1   5   6   33.80    5.50 
  -2  -5  -6  974.10   55.99 
  -2  -5  -6  980.20   55.79 
  -2  -5  -6  918.21   56.39 
  -2  -5  -6  903.11   55.79 
   2   5   6  979.90   56.19 
   2   5   6  962.40   55.79 
   2   5   6  952.90   55.49 
   2   5   6  997.20   56.29 
   2   5   6  908.11   54.89 
  -3  -5  -6   86.99    9.10 
  -3  -5  -6   67.59    7.90 
  -3  -5  -6   72.39    8.30 
  -3  -5  -6   67.79    9.40 
   3   5   6   75.09    7.70 
   3   5   6   76.79    8.10 
   3   5   6   74.09    8.10 
  -4  -5  -6  278.77   18.90 
  -4  -5  -6  284.57   19.50 
  -4  -5  -6  257.27   18.40 
  -4  -5  -6  239.78   18.40 
   4   5   6  291.57   19.00 
   4   5   6  274.37   18.40 
   4   5   6  244.58   18.00 
  -5  -5  -6  475.55   34.80 
  -5  -5  -6  455.15   30.50 
  -5  -5  -6  440.96   29.90 
  -5  -5  -6  485.95   30.30 
   5   5   6  455.15   29.40 
   5   5   6  482.15   29.60 
   5   5   6  474.85   30.20 
  -6  -5  -6   -3.00    5.60 
  -6  -5  -6   -4.40    2.40 
  -6  -5  -6    8.30    5.60 
  -6  -5  -6   -1.20    6.70 
   6   5   6    1.90    3.50 
   6   5   6   -4.20    3.70 
  -7  -5  -6   90.59   11.50 
  -7  -5  -6  106.49   12.90 
  -7  -5  -6   92.89   13.90 
   7   5   6   95.19   10.60 
   7   5   6   87.89   10.90 
   7   5   6   96.49   12.30 
   7  -6  -6   10.90    5.10 
   7  -6  -6   23.40    6.00 
  -7   6   6    5.40    9.20 
   6  -6  -6    8.20    7.70 
   6  -6  -6   10.20    4.80 
   6  -6  -6   12.90    4.50 
  -6   6   6   15.00    5.90 
  -6   6   6   15.60    6.80 
  -6   6   6   11.80    8.20 
   5  -6  -6   84.69    9.20 
   5  -6  -6  111.69    9.10 
   5  -6  -6  100.89   10.20 
  -5   6   6   90.89   11.50 
  -5   6   6   96.29   12.80 
   4  -6  -6    0.40    2.90 
   4  -6  -6    4.90    3.80 
   4  -6  -6    2.40    5.40 
  -4   6   6    3.90    4.10 
  -4   6   6   -0.40    6.00 
  -4   6   6    6.30    3.80 
   3  -6  -6  436.06   27.00 
   3  -6  -6  471.15   25.80 
   3  -6  -6  397.36   26.60 
   3  -6  -6  383.16   27.90 
  -3   6   6  395.76   26.30 
  -3   6   6  419.26   28.90 
  -3   6   6  461.35   28.20 
   2  -6  -6  148.99   10.60 
   2  -6  -6  136.69   12.90 
   2  -6  -6  145.79   11.70 
   2  -6  -6  154.18   11.70 
  -2   6   6  146.99   13.50 
  -2   6   6  144.39   12.60 
  -2   6   6  153.88   11.50 
   1  -6  -6  331.97   23.00 
   1  -6  -6  303.47   21.90 
   1  -6  -6  298.97   22.50 
   1  -6  -6  335.47   21.20 
   1  -6  -6  344.27   20.20 
  -1   6   6  322.27   20.40 
  -1   6   6  339.67   22.50 
  -1   6   6  328.67   21.90 
  -1   6   6  305.77   20.50 
   0  -6  -6 1105.29   69.29 
   0  -6  -6 1217.98   68.89 
   0  -6  -6 1072.49   69.59 
   0  -6  -6 1274.17   68.19 
   0  -6  -6 1212.78   68.89 
   0   6   6 1267.57   69.79 
   0   6   6 1154.68   68.29 
   0   6   6 1142.09   67.49 
   0   6   6 1208.08   69.49 
  -1  -6  -6   18.70    4.30 
  -1  -6  -6   29.30    5.20 
  -1  -6  -6   19.30    5.20 
  -1  -6  -6   21.80    5.20 
  -1  -6  -6   27.40    4.60 
   1   6   6   14.40    3.20 
   1   6   6   25.10    5.30 
   1   6   6   34.30    5.50 
   1   6   6   17.30    3.90 
  -2  -6  -6  116.19   11.00 
  -2  -6  -6  111.69   10.80 
  -2  -6  -6  109.69   10.60 
  -2  -6  -6  124.59   10.60 
  -2  -6  -6  120.59   10.40 
   2   6   6  122.09   10.80 
   2   6   6  123.29   10.80 
   2   6   6  129.69    9.90 
  -3  -6  -6   31.50    5.70 
  -3  -6  -6   21.60    4.70 
  -3  -6  -6   30.00    6.10 
  -3  -6  -6   28.70    5.90 
   3   6   6   33.10    5.60 
   3   6   6   21.60    4.50 
   3   6   6   26.40    5.10 
  -4  -6  -6  212.98   16.80 
  -4  -6  -6  192.78   16.20 
  -4  -6  -6  223.88   16.40 
   4   6   6  218.18   15.30 
   4   6   6  195.38   15.40 
   4   6   6  219.48   16.20 
  -5  -6  -6   71.39   10.20 
  -5  -6  -6   59.49    8.20 
  -5  -6  -6   67.29    8.90 
  -5  -6  -6   71.09    9.30 
   5   6   6   60.09    7.60 
   5   6   6   67.79    8.10 
   5   6   6   66.29    8.70 
  -6  -6  -6   37.40    8.00 
  -6  -6  -6   31.40    8.70 
  -6  -6  -6   39.30    7.20 
   6   6   6   35.10    6.30 
   6   6   6   28.80    7.20 
   6   6   6   32.50    6.80 
  -7  -6  -6  132.69   15.60 
  -7  -6  -6  167.68   18.70 
   7   6   6  128.29   15.10 
   7   6   6  120.99   14.00 
   6  -7  -6    3.00    4.40 
   6  -7  -6    4.20    4.20 
  -6   7   6   -1.20    7.90 
   5  -7  -6   40.20    7.20 
   5  -7  -6   42.30    6.60 
   5  -7  -6   35.90    5.60 
   5  -7  -6   29.60    7.90 
  -5   7   6   40.00   10.10 
  -5   7   6   37.10    7.80 
  -5   7   6   39.40    6.70 
   4  -7  -6   58.49    7.20 
   4  -7  -6   29.50    7.70 
   4  -7  -6   58.19    6.70 
   4  -7  -6   55.69    8.90 
  -4   7   6   34.30   10.20 
  -4   7   6   60.09   11.90 
   3  -7  -6  193.38   17.90 
   3  -7  -6  201.38   16.20 
   3  -7  -6  217.78   16.20 
   3  -7  -6  263.07   15.30 
  -3   7   6  221.58   19.50 
  -3   7   6  218.48   16.10 
  -3   7   6  238.08   19.30 
   2  -7  -6  230.88   15.90 
   2  -7  -6  219.88   15.60 
   2  -7  -6  211.78   14.30 
   2  -7  -6  183.78   16.80 
  -2   7   6  192.98   15.00 
  -2   7   6  218.78   16.90 
  -2   7   6  212.88   17.80 
   1  -7  -6  137.49   11.80 
   1  -7  -6  152.78   10.90 
   1  -7  -6  143.19   11.90 
   1  -7  -6  116.89   13.00 
  -1   7   6  135.19   11.20 
  -1   7   6  144.99   11.10 
  -1   7   6  158.88   13.90 
  -1   7   6  149.49   13.10 
   0  -7  -6   10.40    4.10 
   0  -7  -6    7.50    3.40 
   0  -7  -6    1.50    3.90 
   0  -7  -6    3.70    3.70 
   0  -7  -6    4.00    4.80 
   0   7   6    6.30    2.80 
   0   7   6   13.90    7.20 
   0   7   6    7.20    4.70 
  -1  -7  -6   18.60    4.70 
  -1  -7  -6   22.10    4.70 
  -1  -7  -6   16.00    4.40 
  -1  -7  -6   10.90    5.20 
  -1  -7  -6   19.10    5.30 
   1   7   6   18.00    5.20 
   1   7   6   10.90    3.20 
   1   7   6   10.70    3.70 
  -2  -7  -6  434.26   26.80 
  -2  -7  -6  431.86   27.90 
  -2  -7  -6  385.36   26.50 
  -2  -7  -6  444.16   27.00 
   2   7   6  413.76   27.30 
   2   7   6  401.06   26.00 
   2   7   6  412.86   27.00 
  -3  -7  -6    3.40    4.40 
  -3  -7  -6    4.80    3.90 
  -3  -7  -6    5.70    4.80 
  -3  -7  -6    1.50    4.00 
   3   7   6    7.00    3.50 
   3   7   6    9.10    4.80 
   3   7   6    4.70    3.90 
  -4  -7  -6  199.98   16.80 
  -4  -7  -6  241.98   17.10 
   4   7   6  208.48   16.00 
   4   7   6  209.78   16.40 
   4   7   6  212.78   15.50 
  -5  -7  -6  140.19   14.60 
  -5  -7  -6  183.58   16.60 
  -5  -7  -6  140.89   13.60 
  -5  -7  -6  185.18   15.10 
   5   7   6  156.38   13.50 
   5   7   6  164.58   13.30 
   5   7   6  175.88   14.30 
  -6  -7  -6   27.10    7.50 
  -6  -7  -6   51.79   10.20 
  -6  -7  -6   20.40    6.50 
   6   7   6   27.30    6.60 
   6   7   6   21.10    5.40 
   6   7   6   38.10    8.60 
  -7  -7  -6   49.80   12.00 
  -7  -7  -6   70.99   10.80 
   6  -8  -6    8.30    5.40 
   6  -8  -6    8.60    4.80 
   5  -8  -6   44.20    6.20 
   5  -8  -6   58.09    8.30 
  -5   8   6   23.70   10.10 
  -5   8   6   33.30    8.20 
   4  -8  -6  179.18   13.00 
   4  -8  -6  163.68   14.10 
   4  -8  -6  186.08   14.70 
   4  -8  -6  130.59   16.50 
  -4   8   6  175.98   14.50 
  -4   8   6  169.48   16.60 
  -4   8   6  170.08   18.70 
   3  -8  -6  278.37   19.80 
   3  -8  -6  293.67   19.90 
   3  -8  -6  297.27   18.30 
   3  -8  -6  234.08   21.10 
  -3   8   6  264.37   19.50 
  -3   8   6  302.97   22.00 
  -3   8   6  251.07   22.40 
   2  -8  -6  120.79   14.50 
   2  -8  -6  133.29   12.40 
   2  -8  -6  153.68   11.20 
   2  -8  -6  154.48   12.70 
  -2   8   6  146.19   14.20 
  -2   8   6  133.89   12.00 
  -2   8   6  159.88   15.50 
   1  -8  -6  297.17   19.80 
   1  -8  -6  317.87   18.70 
   1  -8  -6  262.77   19.60 
   1  -8  -6  250.97   21.00 
  -1   8   6  271.17   21.40 
  -1   8   6  297.17   21.20 
  -1   8   6  252.27   19.10 
  -1   8   6  290.17   18.80 
   0  -8  -6 1227.28   65.09 
   0  -8  -6  986.60   65.79 
   0  -8  -6 1017.90   64.49 
   0  -8  -6 1182.48   64.09 
   0  -8  -6 1027.40   66.29 
   0   8   6 1113.59   63.99 
   0   8   6 1140.39   63.99 
   0   8   6 1002.40   65.49 
   0   8   6 1152.48   65.99 
  -1  -8  -6   55.49    8.70 
  -1  -8  -6   60.99    7.90 
  -1  -8  -6   37.60    7.70 
  -1  -8  -6   53.79    6.90 
  -1  -8  -6   58.19    7.80 
   1   8   6   47.00    6.10 
   1   8   6   53.99    8.10 
   1   8   6   69.49    9.10 
  -2  -8  -6  247.88   18.50 
  -2  -8  -6  245.18   20.10 
  -2  -8  -6  259.17   18.70 
  -2  -8  -6  278.57   19.00 
   2   8   6  263.97   19.30 
   2   8   6  272.27   18.00 
   2   8   6  251.37   19.20 
  -3  -8  -6   27.70    7.10 
  -3  -8  -6   26.60    5.70 
  -3  -8  -6   28.40    7.10 
  -3  -8  -6   21.30    5.80 
   3   8   6   27.20    5.80 
   3   8   6   29.80    5.50 
   3   8   6   26.30    6.30 
  -4  -8  -6  170.28   16.80 
  -4  -8  -6  219.78   22.70 
  -4  -8  -6  197.08   17.10 
   4   8   6  182.68   15.20 
   4   8   6  196.08   14.60 
   4   8   6  207.68   16.10 
  -5  -8  -6    6.80    5.70 
  -5  -8  -6    7.40    7.30 
  -5  -8  -6    4.10    5.40 
  -5  -8  -6    8.50    4.70 
   5   8   6   -1.00    4.50 
   5   8   6   -6.00    3.30 
   5   8   6    1.60    4.40 
  -6  -8  -6   40.30    8.40 
  -6  -8  -6   49.10   10.40 
   6   8   6   25.50    6.40 
   6   8   6   25.50    6.20 
  -7  -8  -6    2.40    8.60 
  -7  -8  -6   -0.90    6.90 
   7   8   6   -1.20    4.80 
   5  -9  -6    5.20    5.20 
   5  -9  -6   11.20    4.90 
  -5   9   6    9.60    9.70 
   4  -9  -6   20.50   10.80 
   4  -9  -6   14.40    5.50 
   4  -9  -6   21.70    5.20 
   4  -9  -6   13.50    5.60 
  -4   9   6   10.30    5.90 
  -4   9   6   23.20    7.80 
  -4   9   6   11.50    8.80 
   3  -9  -6   81.89   10.00 
   3  -9  -6   68.49    8.70 
   3  -9  -6   73.79    8.10 
   3  -9  -6   36.30    9.30 
  -3   9   6   61.69   11.50 
  -3   9   6   70.59   11.30 
  -3   9   6   55.89   11.10 
   2  -9  -6    8.10    7.20 
   2  -9  -6    6.00    4.00 
   2  -9  -6    7.60    4.60 
   2  -9  -6    6.10    4.60 
  -2   9   6    1.40    4.50 
  -2   9   6   -2.80    6.20 
  -2   9   6    1.20    4.90 
   1  -9  -6  533.25   33.00 
   1  -9  -6  518.65   32.80 
   1  -9  -6  435.26   34.20 
  -1   9   6  539.05   34.70 
  -1   9   6  536.15   35.10 
   0  -9  -6   17.70    6.80 
   0  -9  -6   30.20    6.00 
   0  -9  -6   31.10    5.50 
   0  -9  -6   19.90    5.60 
   0   9   6   26.20    6.40 
   0   9   6   17.70    7.00 
   0   9   6   13.30    6.60 
  -1  -9  -6   26.80   10.80 
  -1  -9  -6   35.60    6.60 
  -1  -9  -6   35.80    7.00 
  -1  -9  -6   34.20    6.60 
   1   9   6   33.60    5.70 
   1   9   6   36.30    7.50 
   1   9   6   37.80    8.20 
  -2  -9  -6  101.29   10.90 
  -2  -9  -6   93.99   11.00 
  -2  -9  -6   92.69   12.20 
  -2  -9  -6  116.99   11.40 
   2   9   6  107.29   10.00 
   2   9   6   89.19   11.60 
   2   9   6  119.69   12.40 
  -3  -9  -6   13.90    5.40 
  -3  -9  -6   13.40    6.90 
  -3  -9  -6   11.10    5.40 
  -3  -9  -6    6.30    5.60 
   3   9   6   11.50    5.30 
   3   9   6   11.80    5.20 
   3   9   6    5.70    4.10 
  -4  -9  -6  250.77   21.30 
  -4  -9  -6  249.08   23.20 
  -4  -9  -6  289.57   20.80 
   4   9   6  295.17   20.80 
   4   9   6  258.77   18.90 
   4   9   6  261.77   20.70 
  -5  -9  -6    5.90    6.10 
  -5  -9  -6   11.00    7.80 
  -5  -9  -6   -2.60    4.80 
  -5  -9  -6    5.70    5.80 
   5   9   6   -0.50    4.60 
   5   9   6    5.90    4.10 
  -6  -9  -6   80.69   13.30 
   6   9   6   97.19   12.20 
   5 -10  -6   13.80    5.90 
   5 -10  -6   12.60    5.00 
  -5  10   6   10.50   10.60 
   4 -10  -6    7.90    4.60 
   4 -10  -6    5.40    5.30 
  -4  10   6    6.80    6.80 
  -4  10   6   19.80   10.10 
   3 -10  -6   38.70   10.30 
   3 -10  -6   44.80    6.60 
   3 -10  -6   33.90    6.90 
   3 -10  -6   30.60    6.40 
  -3  10   6   26.40   10.10 
  -3  10   6   33.20    7.90 
   2 -10  -6    7.60    8.20 
   2 -10  -6    2.80    5.00 
   2 -10  -6   11.70    5.50 
   2 -10  -6   12.00    4.80 
  -2  10   6   -1.10    7.10 
  -2  10   6   15.20    7.80 
   1 -10  -6  225.28   17.70 
   1 -10  -6  228.98   16.70 
   1 -10  -6  171.88   26.60 
  -1  10   6  230.08   21.00 
  -1  10   6  236.68   19.90 
   0 -10  -6   16.40    5.90 
   0 -10  -6   29.20    6.10 
   0  10   6   18.20    6.80 
   0  10   6   19.00    6.10 
   0  10   6   21.60    7.60 
  -1 -10  -6  436.66   28.70 
  -1 -10  -6  471.25   29.10 
  -1 -10  -6  437.06   28.20 
  -1 -10  -6  337.07   30.40 
   1  10   6  407.06   29.90 
   1  10   6  475.95   30.50 
   1  10   6  411.86   27.50 
  -2 -10  -6   43.30   10.00 
  -2 -10  -6   66.79    8.90 
  -2 -10  -6   46.30    7.20 
  -2 -10  -6   52.59    8.50 
   2  10   6   40.40    8.10 
   2  10   6   57.29    9.10 
   2  10   6   46.90    6.60 
  -3 -10  -6   40.50    9.50 
  -3 -10  -6   38.70    7.60 
  -3 -10  -6   33.40    7.70 
  -3 -10  -6   51.89    9.10 
   3  10   6   72.19   10.10 
   3  10   6   52.09    8.30 
   3  10   6   38.20    6.30 
  -4 -10  -6   86.19   13.00 
  -4 -10  -6  115.69   14.20 
  -4 -10  -6  146.69   14.20 
   4  10   6  111.59   13.40 
   4  10   6  106.99   11.10 
  -5 -10  -6   22.60   11.00 
  -5 -10  -6    4.70    6.20 
   5  10   6   12.20    5.90 
  -6 -10  -6   70.39   11.10 
  -6 -10  -6   84.49   13.90 
   6  10   6  104.29   12.60 
   4 -11  -6    1.60    4.60 
   4 -11  -6   -0.50    5.00 
  -4  11   6    8.70    9.70 
   3 -11  -6    3.50    4.80 
   3 -11  -6   -0.60    5.40 
   3 -11  -6   12.00    6.00 
  -3  11   6    5.00    8.50 
  -3  11   6    3.10    7.10 
   2 -11  -6   -1.70    4.30 
   2 -11  -6    4.00    4.90 
   2 -11  -6    4.50    5.50 
  -2  11   6   12.30    8.60 
  -2  11   6   -5.40    6.80 
   1 -11  -6  196.38   15.40 
   1 -11  -6  202.98   16.80 
   1 -11  -6  194.58   17.00 
  -1  11   6  191.18   19.20 
  -1  11   6  182.68   20.30 
   0 -11  -6    7.50    5.30 
   0 -11  -6   -1.20    4.90 
   0 -11  -6   -3.40    4.90 
   0  11   6   -2.60    6.00 
   0  11   6    2.40    6.80 
   0  11   6   -2.50    3.60 
  -1 -11  -6  113.29   12.60 
  -1 -11  -6  109.89   12.00 
  -1 -11  -6  116.99   12.90 
   1  11   6  120.89   14.40 
   1  11   6   96.99   10.70 
   1  11   6   76.89   11.20 
  -2 -11  -6   50.99    8.80 
  -2 -11  -6   66.79    9.50 
  -2 -11  -6   55.39    9.50 
  -2 -11  -6   32.80   10.70 
   2  11   6   58.79   13.20 
   2  11   6   59.39   10.10 
   2  11   6   38.60    6.60 
  -3 -11  -6   14.60    6.20 
  -3 -11  -6    9.20    9.40 
  -3 -11  -6   44.20    8.90 
   3  11   6   20.10    7.40 
  -4 -11  -6   35.90   10.50 
  -4 -11  -6   51.69    9.50 
   4  11   6   71.99   10.60 
  -5 -11  -6   39.60    8.90 
  -5 -11  -6   51.59   11.10 
   5  11   6   31.80    8.00 
   3 -12  -6    5.90    5.00 
   3 -12  -6    1.00    4.90 
  -3  12   6    1.70    7.30 
  -3  12   6   10.90   10.10 
   2 -12  -6    4.20    5.50 
   2 -12  -6    6.00    5.70 
  -2  12   6   -3.90    8.20 
  -2  12   6    4.30    7.30 
   1 -12  -6   60.59    9.30 
   1 -12  -6   63.19    8.80 
   1 -12  -6   51.69    9.10 
  -1  12   6   52.79   11.40 
  -1  12   6   65.19   12.90 
   0 -12  -6    4.30    6.10 
   0 -12  -6    8.00    5.60 
   0 -12  -6    5.30    5.70 
   0  12   6    8.30    8.10 
   0  12   6   19.40    8.70 
  -1 -12  -6   78.39   10.40 
  -1 -12  -6   90.79   11.70 
  -1 -12  -6   90.39   11.60 
   1  12   6   68.59   12.60 
   1  12   6   54.19   11.30 
  -2 -12  -6    5.20    6.50 
  -2 -12  -6    4.70    5.80 
  -2 -12  -6   -1.50    6.10 
   2  12   6    4.80    7.40 
  -3 -12  -6   46.40    9.90 
  -3 -12  -6   38.80    8.60 
   3  12   6   40.50   10.00 
  -4 -12  -6   32.20   14.70 
  -4 -12  -6   25.00    9.80 
   4  12   6   42.80    9.40 
   1 -13  -6    4.60    5.30 
   1 -13  -6    1.80    6.20 
   1 -13  -6   -7.10    5.30 
  -1  13   6    5.30    9.90 
  -1  13   6   30.00   10.50 
   0 -13  -6   11.40    6.30 
   0 -13  -6   12.50    7.10 
   0 -13  -6    9.40    6.80 
   0  13   6    5.90    6.90 
  -1 -13  -6   10.40    8.10 
  -1 -13  -6    5.80    6.40 
  -1 -13  -6    4.60    6.70 
   1  13   6   20.20    8.40 
  -2 -13  -6    3.00    6.40 
  -2 -13  -6    7.10    7.40 
   2  13   6    5.30    7.50 
   3  10  -7   29.10    9.50 
  -3 -10   7   37.90    7.00 
  -3 -10   7   33.60    6.80 
   2  10  -7   16.00    9.40 
  -2 -10   7   -1.90    4.80 
  -2 -10   7    4.70    4.90 
   1  10  -7   18.30   15.80 
  -1 -10   7   39.50    7.90 
  -1 -10   7   46.50    6.50 
   0  10  -7    0.50   10.90 
   0 -10   7    8.20    6.10 
   0 -10   7    9.30    4.20 
  -1  10  -7   11.80   11.70 
   1 -10   7   -1.90    3.90 
   1 -10   7   -0.20    6.10 
  -2  10  -7   -8.20   12.70 
   2 -10   7    1.40    4.20 
   2 -10   7   -0.90    5.80 
   4   9  -7    0.80    6.10 
  -4  -9   7   -1.40    4.40 
  -4  -9   7    0.70    5.60 
   3   9  -7   65.19    8.60 
  -3  -9   7   72.89    8.80 
   2   9  -7   13.70    9.10 
   2   9  -7   19.70    6.10 
  -2  -9   7   37.40    6.10 
  -2  -9   7   24.30    6.20 
   1   9  -7    3.60    9.90 
  -1  -9   7   12.00    4.70 
  -1  -9   7   -1.40   13.20 
  -1  -9   7   13.90    4.50 
  -1  -9   7   10.10    5.70 
   0   9  -7  -17.80    8.80 
   0  -9   7    1.70    3.80 
   0  -9   7    3.40    5.90 
   0  -9   7   -0.70    3.50 
  -1   9  -7   16.30   11.70 
   1  -9   7   24.90    7.20 
   1  -9   7   19.80    4.50 
   1  -9   7   13.00    4.20 
  -2   9  -7    9.00   12.10 
   2  -9   7   30.80    6.50 
   2  -9   7   13.40    6.90 
   2  -9   7   21.30    4.70 
  -3   9  -7    2.30   12.70 
   3  -9   7    3.50    5.20 
   3  -9   7   10.10    5.20 
   5   8  -7    4.20    4.60 
   5   8  -7    8.70    3.90 
   5   8  -7    7.00    3.00 
  -5  -8   7   12.60    8.50 
  -5  -8   7    1.30    3.90 
  -5  -8   7   -2.20    6.20 
   4   8  -7   59.09    9.10 
  -4  -8   7   63.29    8.60 
  -4  -8   7   52.09    7.20 
  -4  -8   7   47.40   10.80 
   3   8  -7    8.00    4.60 
   3   8  -7    2.90    7.00 
  -3  -8   7   12.40    4.90 
  -3  -8   7   15.10    9.00 
  -3  -8   7   11.30    5.00 
  -3  -8   7    1.70    3.20 
   2   8  -7    5.00    2.80 
   2   8  -7   -1.80    4.00 
   2   8  -7   -3.80    7.00 
  -2  -8   7    5.60    8.00 
  -2  -8   7   -2.10    3.20 
  -2  -8   7   -2.20    4.40 
  -2  -8   7    0.50    3.80 
   1   8  -7  216.88   17.00 
   1   8  -7  194.88   13.40 
   1   8  -7  164.58   19.00 
   1   8  -7  236.78   20.80 
  -1  -8   7  225.38   14.50 
  -1  -8   7  215.78   16.50 
  -1  -8   7  198.38   21.20 
  -1  -8   7  221.58   14.90 
   0   8  -7   -0.70    8.50 
   0   8  -7   -2.80    8.80 
   0   8  -7   -1.00    4.70 
   0  -8   7    6.20    8.30 
   0  -8   7   -9.30    4.50 
   0  -8   7    6.30    3.80 
  -1   8  -7   16.60    5.80 
  -1   8  -7   24.20   11.00 
  -1   8  -7   -3.80   10.60 
  -1   8  -7   12.10    3.50 
   1  -8   7   17.70    3.80 
   1  -8   7   12.90    4.20 
   1  -8   7   15.70    9.00 
   1  -8   7   -3.70    4.70 
  -2   8  -7    6.90   12.80 
  -2   8  -7   20.70   21.60 
  -2   8  -7   29.90    8.70 
   2  -8   7   29.40    6.50 
   2  -8   7   33.50    4.80 
   2  -8   7   39.30    8.20 
  -3   8  -7    1.00   21.10 
  -3   8  -7   17.30   10.90 
   3  -8   7    1.90    4.90 
   3  -8   7    2.80    3.30 
   3  -8   7   -4.40    5.30 
  -4   8  -7    2.00   14.50 
  -4   8  -7    1.40   11.70 
   4  -8   7   -1.50    6.00 
   4  -8   7    0.80    5.50 
   4  -8   7    2.10    4.00 
  -6  -7   7  107.69    9.10 
   5   7  -7   26.00    5.30 
  -5  -7   7   20.30    7.30 
  -5  -7   7   39.40    8.70 
  -5  -7   7   26.60    5.00 
   4   7  -7  103.89    9.00 
   4   7  -7   94.49    8.70 
   4   7  -7  105.49   11.70 
   4   7  -7   99.39    9.30 
  -4  -7   7   93.59   11.00 
  -4  -7   7  123.19   15.10 
  -4  -7   7  101.69    9.70 
   3   7  -7  237.58   14.70 
   3   7  -7  242.18   19.60 
   3   7  -7  236.28   16.80 
  -3  -7   7  237.08   16.60 
  -3  -7   7  232.48   15.30 
  -3  -7   7  225.58   20.80 
  -3  -7   7  245.48   16.90 
   2   7  -7   60.89    5.20 
   2   7  -7   56.69    7.90 
   2   7  -7   48.40    9.80 
   2   7  -7   56.69    7.60 
  -2  -7   7   73.89    8.60 
  -2  -7   7   57.69   10.30 
  -2  -7   7   63.89    6.70 
  -2  -7   7   64.59    6.60 
   1   7  -7   62.49    5.70 
   1   7  -7   71.09    9.20 
   1   7  -7   40.90    9.40 
   1   7  -7   76.69   11.40 
  -1  -7   7   81.99    9.10 
  -1  -7   7   53.69   10.90 
  -1  -7   7   75.59    7.10 
  -1  -7   7   78.69    6.80 
   0   7  -7   15.40    9.60 
   0   7  -7   14.30    3.10 
   0   7  -7   21.30   11.00 
   0   7  -7    8.40    4.70 
   0  -7   7   13.50    8.30 
   0  -7   7   20.60    4.70 
   0  -7   7   11.10    5.50 
   0  -7   7   27.10    3.80 
  -1   7  -7  126.49   10.30 
  -1   7  -7  144.79   13.70 
  -1   7  -7  108.79   20.70 
  -1   7  -7  208.58   18.80 
   1  -7   7  160.38   12.30 
   1  -7   7  182.68   18.40 
   1  -7   7  142.59   10.20 
   1  -7   7  149.39   13.60 
  -2   7  -7   21.80   13.00 
  -2   7  -7    6.20   10.20 
  -2   7  -7   16.10    3.90 
  -2   7  -7   20.70    6.30 
   2  -7   7   14.20    4.90 
   2  -7   7   18.80    3.60 
   2  -7   7   17.40    6.60 
  -3   7  -7   -5.60   13.10 
  -3   7  -7   15.30   12.50 
   3  -7   7   16.40    6.80 
   3  -7   7   25.20    4.20 
   3  -7   7   19.00    5.50 
  -4   7  -7   32.90   15.70 
  -4   7  -7    7.70   10.40 
   4  -7   7   20.30    7.40 
   4  -7   7   16.70    6.10 
   4  -7   7   15.90    4.20 
  -5   7  -7   11.20   12.50 
  -5   7  -7   -6.60   17.10 
   5  -7   7   -0.70    4.00 
   5  -7   7    3.40    5.80 
   6   6  -7   28.40    6.30 
  -6  -6   7   32.20    4.50 
   5   6  -7   -4.10    3.70 
  -5  -6   7    1.30    6.30 
  -5  -6   7    5.90    3.70 
  -5  -6   7    5.30    6.10 
   4   6  -7  208.28   14.40 
   4   6  -7  216.98   14.20 
   4   6  -7  196.18   13.50 
   4   6  -7  214.28   16.30 
  -4  -6   7  203.68   14.80 
  -4  -6   7  246.78   18.20 
  -4  -6   7  218.08   16.20 
   3   6  -7   -1.20    2.00 
   3   6  -7    5.30    5.50 
  -3  -6   7    0.90    3.80 
  -3  -6   7   -2.30    2.30 
  -3  -6   7   -4.20    6.20 
  -3  -6   7   -2.00    3.70 
   2   6  -7  227.98   13.80 
   2   6  -7  244.88   18.80 
   2   6  -7  205.08   16.10 
   2   6  -7  224.48   16.30 
  -2  -6   7  257.57   16.80 
  -2  -6   7  240.68   15.10 
  -2  -6   7  233.48   15.10 
  -2  -6   7  224.68   19.40 
   1   6  -7   19.80    4.90 
   1   6  -7   26.50    3.00 
   1   6  -7   38.80    8.00 
   1   6  -7   27.70    8.00 
  -1  -6   7   29.30    4.60 
  -1  -6   7   32.80    8.10 
  -1  -6   7   28.50    5.90 
  -1  -6   7   32.10    4.00 
   0   6  -7  114.69   15.60 
   0   6  -7  125.39   12.30 
   0   6  -7  166.98   15.80 
   0   6  -7  139.79    9.50 
   0  -6   7  161.58   11.40 
   0  -6   7  157.88    9.80 
   0  -6   7  116.09   18.80 
   0  -6   7  156.28   13.20 
  -1   6  -7  172.68   16.80 
  -1   6  -7  136.49   10.20 
  -1   6  -7  141.89   13.10 
   1  -6   7  165.68   12.40 
   1  -6   7  143.39   18.00 
   1  -6   7  149.09   10.00 
   1  -6   7  160.68   13.80 
  -2   6  -7   24.50    8.90 
  -2   6  -7   -3.00   10.30 
  -2   6  -7    7.10    3.10 
  -2   6  -7    8.60    4.50 
   2  -6   7   13.10    5.00 
   2  -6   7    3.60    5.00 
   2  -6   7    5.90    4.20 
  -3   6  -7   53.09   15.50 
  -3   6  -7   82.99   10.70 
  -3   6  -7  121.69   15.40 
   3  -6   7  104.49    7.60 
   3  -6   7   79.69   10.30 
   3  -6   7   73.69   10.10 
  -4   6  -7  164.98   22.20 
  -4   6  -7  158.88   20.40 
   4  -6   7  167.98   12.00 
   4  -6   7  172.98   15.60 
   4  -6   7  153.78   14.80 
  -5   6  -7   -5.80   14.10 
  -5   6  -7    4.70   12.40 
   5  -6   7    1.80    5.60 
   5  -6   7    6.80    4.10 
   5  -6   7   -2.00    5.50 
  -6   6  -7  -17.90   15.70 
   6  -6   7   -5.50    4.20 
   6  -6   7   -1.10    5.90 
   6   5  -7  110.79   10.40 
   5   5  -7    6.00    4.00 
  -5  -5   7    5.40    3.50 
   4   5  -7  231.98   16.80 
   4   5  -7  243.48   15.80 
   4   5  -7  228.48   15.10 
   4   5  -7  249.28   15.40 
  -4  -5   7  242.78   16.10 
  -4  -5   7  247.28   17.30 
   3   5  -7   28.80    4.50 
   3   5  -7   27.30    3.20 
   3   5  -7   39.10    8.50 
   3   5  -7   27.30    3.70 
  -3  -5   7   25.80    5.90 
  -3  -5   7   28.10    4.80 
  -3  -5   7   35.20    7.40 
   2   5  -7   49.80    4.10 
   2   5  -7   57.39    8.10 
  -2  -5   7   45.10    6.30 
  -2  -5   7   48.90    5.20 
  -2  -5   7   47.30    5.20 
  -2  -5   7   55.29   14.60 
   1   5  -7  776.42   46.50 
   1   5  -7  688.43   48.30 
   1   5  -7  759.82   44.10 
   1   5  -7  893.31   48.00 
  -1  -5   7  781.32   44.50 
  -1  -5   7  770.52   45.60 
  -1  -5   7  797.32   46.70 
   0   5  -7   31.40    7.90 
   0   5  -7   25.40    5.10 
   0   5  -7   14.70    8.80 
   0  -5   7   25.10    2.90 
   0  -5   7   22.40    7.70 
   0  -5   7   23.70    5.80 
   0  -5   7   28.10    4.70 
  -1   5  -7  305.57   21.30 
  -1   5  -7  246.78   18.20 
  -1   5  -7  234.78   15.60 
  -1   5  -7  273.77   25.40 
   1  -5   7  298.17   19.20 
   1  -5   7  242.48   15.40 
   1  -5   7  255.47   17.60 
  -2   5  -7    8.80   10.80 
  -2   5  -7   14.90    4.60 
  -2   5  -7   20.10    8.40 
  -2   5  -7   18.60    3.40 
   2  -5   7   13.50    4.30 
   2  -5   7   16.40    5.00 
   2  -5   7   22.40    3.10 
   2  -5   7   17.60    5.90 
  -3   5  -7   43.00   13.50 
  -3   5  -7   59.89    6.70 
  -3   5  -7   59.69    8.40 
  -3   5  -7   64.89   10.80 
   3  -5   7   82.69    9.70 
   3  -5   7   63.69    8.00 
   3  -5   7   66.59    9.20 
   3  -5   7   71.79    6.20 
  -4   5  -7   43.00   11.50 
  -4   5  -7   18.50   13.70 
   4  -5   7   52.89    9.80 
   4  -5   7   55.69    8.80 
   4  -5   7   48.30    7.40 
   4  -5   7   51.29    5.80 
  -5   5  -7   23.40   14.80 
  -5   5  -7    8.30   10.20 
   5  -5   7   15.60    5.20 
   5  -5   7   18.40    6.20 
   5  -5   7   17.70    6.60 
  -6   5  -7    1.90   10.80 
  -6   5  -7   22.70   15.80 
   6  -5   7   17.60    6.80 
   6  -5   7    5.60    4.60 
   7   4  -7   76.79    9.00 
   6   4  -7   87.79    9.40 
   5   4  -7  135.89   10.60 
  -5  -4   7  126.99    9.90 
  -5  -4   7  134.39   10.80 
   4   4  -7  124.59   12.40 
   4   4  -7  142.49   10.10 
   4   4  -7  153.78   10.00 
   4   4  -7  154.58   10.50 
  -4  -4   7  152.28   11.10 
  -4  -4   7  145.29   12.10 
   3   4  -7    9.00    4.70 
   3   4  -7   12.80    2.40 
   3   4  -7   15.50    2.80 
   3   4  -7    8.60    3.00 
  -3  -4   7    7.00    3.70 
  -3  -4   7   17.20    2.50 
   2   4  -7   12.50    1.60 
   2   4  -7    9.00    5.00 
   2   4  -7    7.80    3.00 
   2   4  -7    9.80    3.90 
  -2  -4   7   12.50    3.90 
  -2  -4   7    7.60    2.60 
   1   4  -7    1.00    4.90 
  -1  -4   7    5.20    3.90 
  -1  -4   7    5.10    2.80 
   0   4  -7  311.47   24.10 
   0   4  -7  326.57   21.60 
   0   4  -7  288.27   19.70 
   0  -4   7  278.77   19.30 
   0  -4   7  308.37   20.50 
  -1   4  -7   79.99    5.80 
  -1   4  -7   74.89    9.70 
  -1   4  -7  107.89   11.40 
  -1   4  -7   72.69   12.40 
   1  -4   7   78.69    8.10 
   1  -4   7   89.09    9.60 
   1  -4   7   79.89   10.30 
   1  -4   7   79.09    6.60 
   1  -4   7   70.99    5.40 
  -2   4  -7   22.30    5.30 
  -2   4  -7   27.90    3.70 
  -2   4  -7   12.60    9.20 
  -2   4  -7   24.30    8.30 
   2  -4   7   21.20    6.60 
   2  -4   7   24.80    6.00 
   2  -4   7   22.60    4.40 
   2  -4   7   28.30    7.10 
   2  -4   7   34.90    6.10 
   2  -4   7   28.90    3.20 
  -3   4  -7   99.09   15.90 
  -3   4  -7  130.79   16.20 
   3  -4   7  105.79   11.60 
   3  -4   7   88.99   11.90 
   3  -4   7   96.39    9.70 
   3  -4   7  117.59    8.20 
  -4   4  -7  111.09   13.50 
  -4   4  -7   68.09   14.80 
   4  -4   7   56.89   13.00 
   4  -4   7   94.39   10.90 
   4  -4   7   97.89   11.20 
   4  -4   7   92.39    8.00 
  -5   4  -7   47.40   11.30 
  -5   4  -7   33.90   14.20 
   5  -4   7   38.60    5.90 
   5  -4   7   46.80    8.20 
   5  -4   7   47.50    9.60 
   5  -4   7   43.30    8.20 
  -6   4  -7    7.90    9.40 
  -6   4  -7   -1.40   13.70 
   6  -4   7    0.60    5.90 
   6  -4   7   -1.10    4.30 
   7   3  -7   35.40    6.40 
   6   3  -7   49.10    6.70 
   5   3  -7   74.79    8.80 
   5   3  -7  102.09    8.40 
  -5  -3   7   79.69    7.10 
   4   3  -7  272.57   17.30 
   4   3  -7  280.77   17.10 
   4   3  -7  251.57   17.00 
   4   3  -7  272.27   16.70 
  -4  -3   7  282.67   17.30 
  -4  -3   7  276.47   17.90 
   3   3  -7    2.50    2.20 
   3   3  -7    2.60    1.80 
   3   3  -7   -2.40    3.60 
   3   3  -7    2.40    1.90 
  -3  -3   7   -3.70    2.50 
  -3  -3   7    1.90    1.70 
  -3  -3   7    1.80    3.50 
   2   3  -7  200.98   13.60 
   2   3  -7  186.18   14.00 
   2   3  -7  221.68   15.00 
  -2  -3   7  189.78   14.80 
  -2  -3   7  207.88   14.00 
  -2  -3   7  207.28   13.10 
   1   3  -7  243.38   16.50 
   1   3  -7  214.48   18.20 
   1   3  -7  227.28   15.20 
  -1  -3   7  216.38   14.70 
  -1  -3   7  224.38   15.60 
   0   3  -7  226.38   18.40 
   0   3  -7  250.07   16.60 
   0   3  -7  214.68   14.90 
   0  -3   7  184.78   16.00 
   0  -3   7  212.58   14.70 
   0  -3   7  218.38   15.60 
  -1   3  -7   34.10    8.70 
  -1   3  -7   53.79    7.80 
   1  -3   7   39.60    4.30 
   1  -3   7   44.00    6.50 
   1  -3   7   43.60    3.30 
   1  -3   7   47.30    6.60 
   1  -3   7   42.90    5.60 
   1  -3   7   40.70    7.30 
  -2   3  -7  134.69   15.70 
  -2   3  -7  108.89   11.00 
  -2   3  -7  150.28   17.80 
  -2   3  -7  127.09   11.00 
   2  -3   7  135.29   11.40 
   2  -3   7  120.59   12.20 
   2  -3   7  122.99   13.10 
   2  -3   7  128.79    9.70 
   2  -3   7  145.99    8.60 
   2  -3   7  134.79   12.10 
  -3   3  -7   52.49    7.40 
  -3   3  -7   62.79    9.40 
  -3   3  -7   53.59    7.30 
  -3   3  -7   58.39   10.80 
   3  -3   7   44.90    8.80 
   3  -3   7   63.39    6.10 
   3  -3   7   36.20    7.00 
   3  -3   7   64.19    9.20 
   3  -3   7   54.89    7.10 
   3  -3   7   48.30    7.10 
  -4   3  -7   30.70    6.60 
  -4   3  -7   24.50   10.70 
  -4   3  -7   46.80    9.90 
   4  -3   7   38.10    7.40 
   4  -3   7   35.80    6.40 
   4  -3   7   44.60    5.50 
   4  -3   7   45.40    8.30 
  -5   3  -7  161.48   19.60 
  -5   3  -7  151.08   14.70 
  -5   3  -7  162.18   18.20 
   5  -3   7  173.18   15.30 
   5  -3   7  185.08   13.10 
   5  -3   7  147.99   16.50 
   5  -3   7  163.18   14.80 
  -6   3  -7    9.30    6.50 
  -6   3  -7   17.00    9.20 
  -6   3  -7   17.50   13.10 
   6  -3   7   12.10    5.40 
   6  -3   7   13.50    6.10 
   6  -3   7   13.20    6.60 
  -7   3  -7   -0.30   12.90 
   7  -3   7    2.90    6.50 
   7  -3   7   -7.70    5.00 
   7   2  -7   95.39   10.50 
   6   2  -7    5.20    3.90 
   5   2  -7  426.56   30.20 
   5   2  -7  487.15   28.80 
  -5  -2   7  504.55   28.10 
   4   2  -7  268.47   17.00 
   4   2  -7  288.97   17.30 
   4   2  -7  283.57   17.50 
   4   2  -7  279.37   17.80 
  -4  -2   7  274.17   17.70 
  -4  -2   7  280.57   17.40 
   3   2  -7   60.59    6.00 
   3   2  -7   72.19    5.60 
   3   2  -7   79.39    7.60 
   3   2  -7   74.29    5.40 
  -3  -2   7   73.19    6.70 
  -3  -2   7   63.89    5.40 
  -3  -2   7   67.89    7.30 
   2   2  -7 1205.38   66.79 
   2   2  -7 1019.70   66.49 
   2   2  -7 1277.57   67.19 
  -2  -2   7 1131.09   67.29 
  -2  -2   7 1197.38   66.89 
  -2  -2   7 1143.19   66.39 
   1   2  -7   43.90    5.40 
   1   2  -7   60.29    7.30 
   1   2  -7   42.10    7.20 
  -1  -2   7   60.29    6.50 
  -1  -2   7   50.19    5.50 
   0   2  -7  218.18   14.90 
   0   2  -7  208.28   16.30 
   0   2  -7  199.08   13.70 
   0   2  -7  185.38   13.70 
   0  -2   7  205.48   14.40 
   0  -2   7  194.68   15.00 
   0  -2   7  195.88   13.70 
   0  -2   7  192.88   14.10 
  -1   2  -7    2.80    5.70 
  -1   2  -7    7.30    5.40 
  -1   2  -7    8.20    3.30 
  -1   2  -7    4.80    3.30 
   1  -2   7    8.10    1.90 
   1  -2   7    6.30    4.00 
   1  -2   7    5.50    4.00 
   1  -2   7    4.90    2.90 
   1  -2   7    5.40    1.20 
   1  -2   7    9.80    4.20 
  -2   2  -7    5.10    6.40 
  -2   2  -7    2.30    3.40 
  -2   2  -7    7.90    3.40 
  -2   2  -7    1.50    6.50 
   2  -2   7    6.60    4.10 
   2  -2   7    4.40    2.90 
   2  -2   7    4.00    2.50 
   2  -2   7    1.90    2.00 
   2  -2   7    2.50    4.20 
   2  -2   7   10.00    4.70 
  -3   2  -7  182.58   15.80 
  -3   2  -7  171.38   17.50 
   3  -2   7  174.88   14.90 
   3  -2   7  180.78   14.30 
   3  -2   7  161.58   14.80 
   3  -2   7  185.78   11.90 
   3  -2   7  163.58   12.70 
  -4   2  -7   17.00    5.30 
  -4   2  -7   27.50    7.90 
  -4   2  -7  -10.90    7.90 
   4  -2   7   21.70    5.60 
   4  -2   7   17.50    4.20 
   4  -2   7   22.10    6.30 
   4  -2   7   17.20    5.70 
  -5   2  -7   34.40    9.30 
  -5   2  -7   19.60   10.30 
  -5   2  -7   18.00    6.00 
   5  -2   7   21.30    7.30 
   5  -2   7   24.30    5.40 
   5  -2   7   27.70    6.70 
   5  -2   7   20.20    6.00 
  -6   2  -7    2.70    8.60 
  -6   2  -7   10.90    5.60 
  -6   2  -7    0.00   10.50 
   6  -2   7    1.80    4.70 
   6  -2   7    2.40    6.50 
   6  -2   7   -6.00    4.90 
   6  -2   7    0.90    5.20 
  -7   2  -7    4.00   12.00 
   7  -2   7    1.00    5.80 
   7  -2   7    4.50    5.70 
   7   1  -7   57.39    7.60 
   6   1  -7    4.30    4.00 
   5   1  -7  185.68   13.70 
  -5  -1   7  211.38   13.00 
  -5  -1   7  213.18   14.60 
   4   1  -7  341.57   21.50 
   4   1  -7  369.56   20.90 
   4   1  -7  309.57   21.10 
   4   1  -7  305.17   20.40 
  -4  -1   7  364.16   20.80 
  -4  -1   7  351.06   20.90 
   3   1  -7 1193.68   66.09 
   3   1  -7 1163.78   64.99 
   3   1  -7 1162.08   65.89 
   3   1  -7 1092.59   65.49 
  -3  -1   7 1194.18   65.99 
  -3  -1   7 1116.69   65.89 
  -3  -1   7 1129.79   65.29 
   2   1  -7  745.63   41.50 
   2   1  -7  634.64   41.70 
   2   1  -7  687.13   40.00 
   2   1  -7  655.63   41.30 
   2   1  -7  706.23   39.80 
   2   1  -7  798.72   41.80 
  -2  -1   7  712.43   41.10 
  -2  -1   7  694.93   41.70 
  -2  -1   7  731.03   41.50 
   1   1  -7  216.88   14.10 
   1   1  -7  191.48   13.10 
   1   1  -7  197.28   14.80 
   1   1  -7  195.38   13.30 
  -1  -1   7  194.98   13.20 
  -1  -1   7  195.18   13.20 
  -1  -1   7  198.98   13.60 
   0   1  -7  431.06   25.80 
   0   1  -7  410.76   27.90 
   0   1  -7  428.36   25.70 
   0   1  -7  412.96   26.90 
   0  -1   7  421.56   25.70 
   0  -1   7  437.86   27.10 
   0  -1   7  418.06   25.90 
   0  -1   7  381.76   26.10 
  -1   1  -7  309.37   19.70 
  -1   1  -7  315.67   20.40 
  -1   1  -7  285.87   20.80 
   1  -1   7  286.87   20.20 
   1  -1   7  287.47   19.80 
   1  -1   7  300.97   17.40 
   1  -1   7  313.47   20.10 
   1  -1   7  306.57   17.50 
   1  -1   7  296.47   19.50 
  -2   1  -7  210.88   16.60 
  -2   1  -7  194.48   14.10 
  -2   1  -7  200.68   14.40 
  -2   1  -7  203.78   15.40 
   2  -1   7  181.88   15.10 
   2  -1   7  202.18   12.50 
   2  -1   7  212.28   15.10 
   2  -1   7  216.28   14.80 
   2  -1   7  186.28   14.80 
   2  -1   7  193.18   12.90 
  -3   1  -7   21.80    4.60 
  -3   1  -7   25.60    6.70 
  -3   1  -7   17.50    7.30 
   3  -1   7   11.30    4.90 
   3  -1   7   23.00    5.50 
   3  -1   7   26.60    6.00 
   3  -1   7   22.30    4.20 
   3  -1   7   15.70    5.00 
   3  -1   7   23.30    3.80 
  -4   1  -7  101.09   10.30 
  -4   1  -7  116.49   12.80 
  -4   1  -7  130.49   14.30 
   4  -1   7   87.19   11.60 
   4  -1   7  107.89   11.20 
   4  -1   7  109.29   11.20 
   4  -1   7  108.69    9.30 
  -5   1  -7   60.39   11.80 
  -5   1  -7   63.09   10.00 
  -5   1  -7   50.99    7.80 
   5  -1   7   59.39    9.30 
   5  -1   7   53.99    8.10 
   5  -1   7   69.59    7.80 
  -6   1  -7   18.00    6.00 
  -6   1  -7   20.50   10.80 
  -6   1  -7    2.20   12.80 
   6  -1   7    6.50    5.30 
   6  -1   7   13.00    6.20 
   6  -1   7   13.60    5.50 
   6  -1   7   12.10    6.60 
  -7   1  -7   11.70   12.00 
   7  -1   7    3.60    5.90 
   7  -1   7    3.10    6.10 
   7   0  -7  132.29   12.00 
  -7   0   7  137.49   10.20 
  -7   0   7  143.09   11.70 
   6   0  -7   29.40    5.40 
  -6   0   7   37.50    4.40 
  -6   0   7   32.40    5.20 
   5   0  -7  323.17   17.70 
   5   0  -7  255.87   18.00 
   5   0  -7  232.58   17.70 
  -5   0   7  307.17   21.50 
  -5   0   7  318.47   17.80 
   4   0  -7   16.30    3.60 
   4   0  -7   16.90    3.20 
   4   0  -7   13.80    3.20 
   4   0  -7   11.70    4.00 
  -4   0   7   15.10    2.40 
  -4   0   7   17.90    3.70 
  -4   0   7   17.40    3.20 
   3   0  -7  128.59   10.10 
   3   0  -7  138.99    9.00 
   3   0  -7  146.99   10.30 
   3   0  -7  143.19   10.30 
  -3   0   7  146.99   10.30 
  -3   0   7  142.19   10.00 
   2   0  -7  129.59   10.10 
   2   0  -7  136.69    9.60 
   2   0  -7  120.69    9.10 
   2   0  -7  116.99    9.00 
   2   0  -7  133.19    7.80 
   2   0  -7  139.19    9.80 
  -2   0   7  130.09    9.60 
  -2   0   7  114.99    9.30 
   1   0  -7  735.53   43.50 
   1   0  -7  738.13   43.00 
   1   0  -7  689.23   42.80 
   1   0  -7  742.93   43.10 
  -1   0   7  746.23   42.80 
  -1   0   7  740.13   43.10 
   0   0  -7 1353.86   75.39 
   0   0  -7 1250.17   74.99 
   0   0  -7 1309.57   75.09 
   0   0   7 1296.97   75.09 
   0   0   7 1412.26   75.39 
   0   0   7 1212.18   75.09 
  -1   0  -7  194.38   12.30 
  -1   0  -7  192.88   13.80 
  -1   0  -7  205.08   15.00 
  -1   0  -7  200.48   14.40 
  -1   0  -7  193.18   13.80 
   1   0   7  183.98   14.10 
   1   0   7  207.68   12.00 
   1   0   7  204.18   14.20 
   1   0   7  205.78   14.00 
   1   0   7  201.78   12.00 
   1   0   7  187.38   13.80 
  -2   0  -7 1112.49   61.99 
  -2   0  -7  987.30   61.39 
  -2   0  -7 1023.20   60.39 
  -2   0  -7  979.60   61.19 
  -2   0  -7 1082.39   62.49 
   2   0   7 1050.99   61.79 
   2   0   7 1070.09   61.89 
   2   0   7 1135.19   61.89 
   2   0   7 1091.69   59.99 
   2   0   7 1003.00   61.79 
   2   0   7 1044.50   60.19 
  -3   0  -7   29.20    6.30 
  -3   0  -7   26.30    5.20 
  -3   0  -7   25.40    6.10 
  -3   0  -7   30.90    5.30 
   3   0   7   24.80    5.50 
   3   0   7   27.10    5.50 
   3   0   7   25.20    4.20 
   3   0   7   29.40    4.60 
   3   0   7   32.10    5.80 
   3   0   7   22.80    5.20 
  -4   0  -7  342.07   24.80 
  -4   0  -7  365.96   25.70 
   4   0   7  398.66   24.10 
   4   0   7  411.96   25.90 
   4   0   7  400.16   25.70 
   4   0   7  376.16   25.80 
  -5   0  -7   90.29   11.90 
  -5   0  -7   79.99    9.80 
  -5   0  -7   91.09   12.90 
   5   0   7   98.59   10.90 
   5   0   7   89.19    9.40 
   5   0   7   95.49   10.70 
   5   0   7   50.69   13.40 
  -6   0  -7    6.20    9.00 
  -6   0  -7   -6.80    6.40 
  -6   0  -7    1.80    4.50 
   6   0   7   -0.10    5.20 
   6   0   7    0.60    5.10 
   6   0   7    2.20    4.60 
   6   0   7    0.70    5.20 
  -7   0  -7   29.50   11.70 
   7   0   7   21.70    7.20 
   7   0   7   30.40    7.80 
   7  -1  -7    7.60    4.60 
  -7   1   7    6.50    5.20 
  -7   1   7    3.90    3.50 
   6  -1  -7   61.39    7.20 
   6  -1  -7   56.19    7.60 
   6  -1  -7   71.99    6.70 
  -6   1   7   77.49    7.20 
  -6   1   7   85.99    9.30 
   5  -1  -7  228.38   16.50 
   5  -1  -7  271.07   17.40 
   5  -1  -7  270.07   17.40 
  -5   1   7  269.87   16.50 
   4  -1  -7    0.20    2.90 
   4  -1  -7    2.00    2.60 
   4  -1  -7   -1.40    2.20 
   4  -1  -7   -0.80    3.70 
  -4   1   7   -1.00    2.30 
  -4   1   7    0.20    3.20 
  -4   1   7   -2.60    2.50 
  -4   1   7   -1.20    1.60 
   3  -1  -7 1179.28   68.69 
   3  -1  -7 1103.09   68.69 
   3  -1  -7 1235.78   67.49 
   3  -1  -7 1244.48   68.49 
  -3   1   7 1168.98   67.89 
  -3   1   7 1155.48   68.09 
  -3   1   7 1220.18   68.09 
  -3   1   7 1224.18   68.69 
   2  -1  -7  778.82   46.00 
   2  -1  -7  791.52   47.70 
   2  -1  -7  802.62   44.70 
   2  -1  -7  803.72   46.10 
   2  -1  -7  756.42   46.10 
  -2   1   7  772.12   45.00 
  -2   1   7  804.02   46.20 
  -2   1   7  797.52   46.20 
  -2   1   7  774.42   45.80 
  -2   1   7  808.62   45.90 
   1  -1  -7  900.91   50.49 
   1  -1  -7  845.12   50.49 
   1  -1  -7  877.91   50.69 
   1  -1  -7  846.32   50.39 
   1  -1  -7  884.01   48.80 
  -1   1   7  827.82   50.19 
  -1   1   7  854.61   48.90 
  -1   1   7  900.11   50.59 
  -1   1   7  847.62   50.09 
   0  -1  -7  160.08   11.40 
   0  -1  -7  164.98    9.50 
   0  -1  -7  153.98   11.80 
   0  -1  -7  141.79   11.00 
   0   1   7  145.59    9.10 
   0   1   7  143.89   11.00 
   0   1   7  155.78   11.00 
   0   1   7  168.78   11.60 
   0   1   7  150.08   11.10 
  -1  -1  -7  242.88   17.00 
  -1  -1  -7  242.18   16.10 
  -1  -1  -7  244.98   16.50 
  -1  -1  -7  231.28   16.20 
  -1  -1  -7  228.18   14.80 
   1   1   7  242.88   16.10 
   1   1   7  243.38   16.50 
   1   1   7  241.48   16.30 
   1   1   7  257.67   16.30 
   1   1   7  244.88   14.40 
  -2  -1  -7  589.44   37.60 
  -2  -1  -7  622.74   36.70 
  -2  -1  -7  686.23   38.70 
  -2  -1  -7  596.04   37.40 
  -2  -1  -7  633.34   38.10 
   2   1   7  628.44   36.40 
   2   1   7  607.44   37.70 
   2   1   7  623.84   37.70 
   2   1   7  637.54   38.00 
  -3  -1  -7   93.29   10.10 
  -3  -1  -7   90.79    9.00 
  -3  -1  -7   71.49    8.20 
  -3  -1  -7   86.49   10.40 
  -3  -1  -7   90.89    8.90 
   3   1   7   97.99    9.30 
   3   1   7   95.99    7.90 
   3   1   7   87.79    9.60 
   3   1   7  106.69    9.70 
   3   1   7   93.69    9.00 
  -4  -1  -7    7.00    5.40 
  -4  -1  -7    6.20    4.90 
  -4  -1  -7    1.20    5.20 
  -4  -1  -7    3.90    3.60 
   4   1   7    2.50    3.50 
   4   1   7    6.50    4.70 
   4   1   7    4.40    4.30 
   4   1   7    0.90    3.70 
  -5  -1  -7   52.69    9.40 
  -5  -1  -7   65.29    9.70 
  -5  -1  -7   61.29    8.00 
  -5  -1  -7   46.60    8.70 
   5   1   7   50.19    7.80 
   5   1   7   54.49    7.50 
   5   1   7   68.49    9.40 
   5   1   7   67.29    8.50 
  -6  -1  -7   29.80    8.50 
  -6  -1  -7   15.30    5.60 
   6   1   7   24.70    6.10 
   6   1   7   13.50    6.40 
   6   1   7   24.30    6.30 
   6   1   7   10.20    5.60 
  -7  -1  -7   30.60   11.30 
   7   1   7   31.50    7.90 
   7   1   7   29.70    7.70 
   7  -2  -7   -0.40    4.30 
   7  -2  -7    5.60    8.10 
   7  -2  -7    9.40    3.60 
  -7   2   7   17.50    6.40 
  -7   2   7    0.00    4.10 
   6  -2  -7   84.79    8.10 
   6  -2  -7   75.09    9.80 
  -6   2   7   77.99    8.20 
  -6   2   7   92.09   10.60 
   5  -2  -7    4.20    3.10 
   5  -2  -7    4.70    3.20 
   5  -2  -7    3.40    4.50 
  -5   2   7    3.40    4.30 
  -5   2   7    2.40    2.20 
  -5   2   7    2.60    3.00 
   4  -2  -7    3.00    4.30 
   4  -2  -7    2.30    2.60 
   4  -2  -7    1.50    3.70 
   4  -2  -7    2.70    2.80 
  -4   2   7    6.80    2.90 
  -4   2   7   -0.20    3.60 
  -4   2   7    5.70    3.00 
  -4   2   7    1.90    2.20 
   3  -2  -7  863.51   52.69 
   3  -2  -7  974.50   53.39 
   3  -2  -7  874.61   53.69 
   3  -2  -7  960.40   52.39 
  -3   2   7  880.21   53.79 
  -3   2   7  914.91   53.19 
  -3   2   7  970.60   53.89 
  -3   2   7  910.51   52.89 
   2  -2  -7  153.48   11.20 
   2  -2  -7  160.38    9.90 
   2  -2  -7  147.69   11.30 
   2  -2  -7  158.38   11.60 
  -2   2   7  167.48   11.30 
  -2   2   7  167.48   11.80 
  -2   2   7  160.88   11.30 
  -2   2   7  147.59   10.20 
  -2   2   7  159.98   10.90 
   1  -2  -7 1034.30   57.99 
   1  -2  -7 1017.20   58.19 
   1  -2  -7 1021.30   58.09 
   1  -2  -7  967.90   58.09 
   1  -2  -7 1036.80   56.49 
  -1   2   7 1032.70   58.19 
  -1   2   7  928.11   56.39 
  -1   2   7  953.40   57.49 
  -1   2   7  989.40   57.49 
   0  -2  -7  352.86   22.20 
   0  -2  -7  366.06   20.60 
   0  -2  -7  334.77   22.00 
   0  -2  -7  352.26   22.00 
   0  -2  -7  340.37   22.30 
   0   2   7  320.57   20.20 
   0   2   7  381.66   22.30 
   0   2   7  362.26   22.10 
   0   2   7  351.76   21.70 
   0   2   7  333.37   21.70 
  -1  -2  -7  366.16   21.80 
  -1  -2  -7  347.57   22.90 
  -1  -2  -7  361.36   23.10 
  -1  -2  -7  345.27   22.90 
  -1  -2  -7  376.26   23.40 
   1   2   7  368.16   22.80 
   1   2   7  383.36   23.20 
   1   2   7  376.56   23.00 
   1   2   7  356.36   21.30 
   1   2   7  348.07   22.70 
  -2  -2  -7  107.69    9.40 
  -2  -2  -7  108.79    9.60 
  -2  -2  -7  117.79   10.50 
  -2  -2  -7  112.49    8.80 
  -2  -2  -7  114.89    9.90 
   2   2   7  109.59    9.30 
   2   2   7  104.39    8.10 
   2   2   7  105.59    9.40 
   2   2   7  129.99   10.00 
   2   2   7  126.29   10.20 
  -3  -2  -7  285.57   19.90 
  -3  -2  -7  297.07   20.30 
  -3  -2  -7  305.97   20.70 
  -3  -2  -7  310.97   23.00 
  -3  -2  -7  296.87   19.80 
   3   2   7  296.17   20.10 
   3   2   7  325.17   20.70 
   3   2   7  299.67   20.20 
   3   2   7  310.57   19.40 
   3   2   7  303.67   20.60 
  -4  -2  -7  736.13   48.30 
  -4  -2  -7  786.52   48.90 
  -4  -2  -7  808.82   48.60 
  -4  -2  -7  849.91   49.70 
   4   2   7  851.31   47.90 
   4   2   7  788.82   48.60 
   4   2   7  809.42   48.70 
   4   2   7  830.42   48.90 
  -5  -2  -7   -2.80    5.20 
  -5  -2  -7    5.20    5.90 
  -5  -2  -7    7.20    4.30 
  -5  -2  -7   -3.20    5.30 
   5   2   7    1.00    3.90 
   5   2   7    5.50    4.50 
   5   2   7    3.30    4.60 
   5   2   7    0.80    4.30 
  -6  -2  -7   27.10    8.50 
  -6  -2  -7   31.00    8.50 
   6   2   7   24.70    6.50 
   6   2   7   23.30    6.20 
   6   2   7   30.00    6.70 
   6   2   7   30.20    7.50 
   7   2   7   55.69    9.90 
   7   2   7   54.69    9.50 
  -8  -2  -7   -5.70   10.00 
   8   2   7    8.10    7.30 
   8   2   7   -8.60    5.70 
   7  -3  -7    2.90    4.30 
   7  -3  -7    5.80    3.70 
   7  -3  -7    6.00    6.10 
  -7   3   7    6.10    7.30 
   6  -3  -7   11.40    4.10 
   6  -3  -7   -1.60    5.90 
   6  -3  -7   -3.70    3.40 
  -6   3   7    4.40    5.70 
  -6   3   7   12.10    4.30 
   5  -3  -7   12.10    3.70 
   5  -3  -7   13.70    4.00 
   5  -3  -7   17.00    5.50 
  -5   3   7   12.60    3.90 
  -5   3   7   20.40    4.00 
  -5   3   7   14.20    5.70 
   4  -3  -7    2.80    2.90 
   4  -3  -7    2.50    2.90 
   4  -3  -7    5.50    4.40 
  -4   3   7    0.70    2.80 
  -4   3   7    3.30    2.90 
  -4   3   7    7.00    4.50 
   3  -3  -7  102.19    9.40 
   3  -3  -7  107.59    8.80 
   3  -3  -7   97.39    8.60 
   3  -3  -7  108.99    7.50 
  -3   3   7  100.59    9.60 
  -3   3   7  106.39    8.40 
  -3   3   7   95.49    8.20 
  -3   3   7  100.39    8.70 
   2  -3  -7   12.60    3.30 
   2  -3  -7   13.70    2.50 
   2  -3  -7    9.60    3.50 
   2  -3  -7   10.20    3.70 
  -2   3   7   14.70    2.80 
  -2   3   7    9.50    4.00 
  -2   3   7    9.40    3.30 
  -2   3   7   10.00    2.70 
   1  -3  -7  374.96   21.90 
   1  -3  -7  370.16   23.70 
   1  -3  -7  371.16   23.30 
   1  -3  -7  385.66   23.70 
   1  -3  -7  372.26   23.20 
  -1   3   7  346.17   22.70 
  -1   3   7  345.77   21.70 
  -1   3   7  381.56   23.60 
  -1   3   7  381.86   23.30 
  -1   3   7  383.66   22.80 
   0  -3  -7  125.89    8.10 
   0  -3  -7  110.19    9.70 
   0  -3  -7  107.49    9.60 
   0  -3  -7  117.29    9.80 
   0  -3  -7  120.69    9.50 
   0   3   7  108.29    8.90 
   0   3   7  114.29    9.00 
   0   3   7  112.89    7.60 
   0   3   7  128.09    9.80 
   0   3   7  116.39    9.30 
  -1  -3  -7   13.70    3.30 
  -1  -3  -7   11.80    3.00 
  -1  -3  -7   18.30    5.40 
  -1  -3  -7   21.20    4.40 
  -1  -3  -7    8.20    3.40 
   1   3   7    7.60    2.80 
   1   3   7    7.90    2.20 
   1   3   7   10.20    3.10 
   1   3   7   15.20    3.50 
   1   3   7   12.30    3.70 
  -2  -3  -7  595.44   37.60 
  -2  -3  -7  620.84   37.90 
  -2  -3  -7  593.44   37.70 
  -2  -3  -7  661.73   37.90 
  -2  -3  -7  633.64   37.00 
   2   3   7  605.04   37.30 
   2   3   7  614.44   37.30 
   2   3   7  599.64   36.30 
   2   3   7  679.23   38.10 
  -3  -3  -7   15.50    4.30 
  -3  -3  -7    2.80    3.80 
  -3  -3  -7    8.50    3.80 
  -3  -3  -7    8.20    4.00 
  -3  -3  -7    8.30    4.50 
   3   3   7    8.40    3.60 
   3   3   7   10.40    4.30 
   3   3   7    8.50    3.90 
   3   3   7    3.70    2.80 
  -4  -3  -7  254.77   18.70 
  -4  -3  -7  297.87   19.50 
  -4  -3  -7  209.18   19.20 
  -4  -3  -7  288.67   20.00 
   4   3   7  266.47   19.00 
   4   3   7  291.87   19.30 
   4   3   7  278.77   18.90 
  -5  -3  -7    6.40    5.90 
  -5  -3  -7    4.20    4.90 
  -5  -3  -7    8.00    4.80 
  -5  -3  -7    0.90    5.50 
   5   3   7    4.10    4.60 
   5   3   7    5.60    4.40 
   5   3   7    6.80    4.80 
   5   3   7   10.50    5.00 
  -6  -3  -7   45.20    8.40 
  -6  -3  -7   32.60    6.80 
  -6  -3  -7   43.90    9.50 
  -6  -3  -7   48.80    9.80 
   6   3   7   46.90    7.60 
   6   3   7   45.80    8.20 
   6   3   7   52.19    8.30 
   6   3   7   52.39    7.40 
  -7  -3  -7   50.29   11.30 
  -7  -3  -7   39.70   10.00 
   7   3   7   38.20    8.50 
   7   3   7   49.00    9.10 
   7  -4  -7   -0.40    6.50 
   7  -4  -7   -1.60    3.60 
   7  -4  -7   -1.60    4.20 
  -7   4   7   -7.60    4.30 
  -7   4   7    2.90    6.90 
   6  -4  -7  153.88   11.30 
   6  -4  -7  151.18   12.00 
   6  -4  -7  109.59   14.90 
  -6   4   7  110.99   13.60 
  -6   4   7  143.99   12.00 
  -6   4   7  126.39   11.30 
   5  -4  -7    2.60    3.20 
   5  -4  -7    3.20    3.50 
   5  -4  -7   -7.60    4.40 
  -5   4   7    3.80    5.60 
  -5   4   7    0.50    3.50 
  -5   4   7   -1.00    3.20 
   4  -4  -7  266.27   17.90 
   4  -4  -7  256.37   17.00 
   4  -4  -7  228.58   18.70 
   4  -4  -7  276.97   16.60 
  -4   4   7  274.97   19.50 
  -4   4   7  267.27   17.30 
  -4   4   7  258.47   18.00 
   3  -4  -7  465.35   31.10 
   3  -4  -7  512.65   29.30 
   3  -4  -7  471.85   31.50 
   3  -4  -7  528.75   30.60 
  -3   4   7  443.46   30.20 
  -3   4   7  546.95   31.00 
  -3   4   7  507.25   31.50 
   2  -4  -7  213.48   13.10 
   2  -4  -7  190.28   14.80 
   2  -4  -7  200.58   14.30 
   2  -4  -7  218.78   14.50 
  -2   4   7  186.08   13.80 
  -2   4   7  196.88   13.20 
  -2   4   7  237.38   15.60 
   1  -4  -7 1298.07   79.39 
   1  -4  -7 1346.37   78.89 
   1  -4  -7 1402.96   77.79 
   1  -4  -7 1355.86   79.49 
   1  -4  -7 1426.86   78.99 
  -1   4   7 1387.16   79.39 
  -1   4   7 1392.26   79.19 
  -1   4   7 1377.06   78.59 
  -1   4   7 1291.37   77.49 
  -1   4   7 1416.36   78.59 
   0  -4  -7  289.07   18.30 
   0  -4  -7  282.07   17.10 
   0  -4  -7  282.57   18.40 
   0  -4  -7  254.57   18.40 
   0   4   7  263.17   16.60 
   0   4   7  261.47   17.60 
   0   4   7  275.97   17.80 
   0   4   7  290.57   18.40 
   0   4   7  276.87   18.60 
  -1  -4  -7   10.80    3.60 
  -1  -4  -7   10.70    3.80 
  -1  -4  -7    6.90    3.60 
  -1  -4  -7   11.50    3.20 
  -1  -4  -7    6.40    3.40 
   1   4   7    8.90    2.40 
   1   4   7   13.20    3.30 
   1   4   7    6.60    3.00 
   1   4   7   11.30    3.40 
   1   4   7    8.40    3.90 
  -2  -4  -7  808.82   50.59 
  -2  -4  -7  873.51   49.99 
  -2  -4  -7  815.32   50.59 
  -2  -4  -7  891.01   50.79 
  -2  -4  -7  830.32   50.49 
   2   4   7  878.21   50.69 
   2   4   7  910.91   50.79 
   2   4   7  837.62   50.09 
   2   4   7  827.42   49.20 
   2   4   7  835.92   49.99 
  -3  -4  -7   56.89    7.40 
  -3  -4  -7   69.29    7.80 
  -3  -4  -7   60.79    7.70 
  -3  -4  -7   62.29    8.00 
  -3  -4  -7   46.20    6.70 
   3   4   7   59.89    7.10 
   3   4   7   59.19    7.50 
   3   4   7   60.09    7.40 
  -4  -4  -7   43.10    6.90 
  -4  -4  -7   40.50    7.50 
  -4  -4  -7   40.80    6.70 
  -4  -4  -7   46.20    7.70 
   4   4   7   47.80    6.60 
   4   4   7   42.50    6.90 
   4   4   7   47.00    7.20 
  -5  -4  -7   18.60    6.30 
  -5  -4  -7   18.80    5.50 
  -5  -4  -7   32.10    7.70 
   5   4   7   20.30    5.10 
   5   4   7   25.50    5.90 
   5   4   7   24.40    6.10 
  -6  -4  -7   56.59   10.40 
  -6  -4  -7   45.00    8.40 
  -6  -4  -7   34.00    6.80 
  -6  -4  -7   49.40    8.80 
   6   4   7   43.90    7.90 
   6   4   7   36.90    6.30 
   6   4   7   50.89    8.00 
   6   4   7   27.80    6.60 
  -7  -4  -7   -6.90    7.40 
  -7  -4  -7   -5.20    6.70 
   7   4   7   -2.20    6.40 
   7   4   7    2.60    5.60 
   7  -5  -7   18.60    8.30 
   7  -5  -7   15.60    5.70 
   7  -5  -7   21.70    5.60 
  -7   5   7   26.60    8.80 
   6  -5  -7   46.60    9.70 
   6  -5  -7   81.39    9.20 
   6  -5  -7   69.89    8.00 
  -6   5   7   57.19    7.80 
  -6   5   7   83.39   13.50 
  -6   5   7   76.59   11.40 
   5  -5  -7   61.79    9.70 
   5  -5  -7   82.49    8.00 
   5  -5  -7   70.99    9.60 
   5  -5  -7   84.59    9.30 
  -5   5   7   88.99    8.90 
  -5   5   7   82.39   11.10 
  -5   5   7  104.79   10.20 
   4  -5  -7  188.08   19.50 
   4  -5  -7  204.38   13.30 
   4  -5  -7  193.98   14.40 
   4  -5  -7  169.08   13.90 
  -4   5   7  201.88   15.30 
  -4   5   7  199.78   16.70 
   3  -5  -7   36.10    5.60 
   3  -5  -7   31.90    6.70 
   3  -5  -7   47.30    6.00 
   3  -5  -7   40.10    4.70 
  -3   5   7   51.69    6.50 
  -3   5   7   31.20    5.00 
  -3   5   7   36.50    7.00 
   2  -5  -7   52.19    5.40 
   2  -5  -7   33.30    5.80 
   2  -5  -7   52.59    6.60 
   2  -5  -7   46.20    6.20 
  -2   5   7   48.70    5.50 
  -2   5   7   53.79    7.30 
  -2   5   7   53.09    6.40 
  -2   5   7   60.19    7.40 
   1  -5  -7  188.48   13.30 
   1  -5  -7  181.28   13.90 
   1  -5  -7  189.88   11.90 
   1  -5  -7  153.98   14.40 
   1  -5  -7  180.58   14.00 
  -1   5   7  182.78   12.60 
  -1   5   7  165.88   12.50 
  -1   5   7  165.78   11.50 
  -1   5   7  169.38   13.40 
  -1   5   7  189.28   14.10 
   0  -5  -7    8.90    3.00 
   0  -5  -7   11.90    3.90 
   0  -5  -7    9.20    3.70 
   0  -5  -7   10.60    4.30 
   0  -5  -7    5.50    3.40 
   0   5   7   10.90    2.50 
   0   5   7   10.50    4.20 
   0   5   7   11.80    3.50 
   0   5   7   10.90    3.20 
   0   5   7    9.90    3.80 
  -1  -5  -7  509.45   29.50 
  -1  -5  -7  447.06   30.50 
  -1  -5  -7  484.35   30.30 
  -1  -5  -7  487.35   30.90 
  -1  -5  -7  520.75   30.40 
   1   5   7  494.65   30.60 
   1   5   7  491.85   30.50 
   1   5   7  463.45   28.70 
   1   5   7  484.15   29.80 
   1   5   7  486.15   29.80 
  -2  -5  -7  222.48   16.80 
  -2  -5  -7  249.58   16.50 
  -2  -5  -7  210.68   16.40 
  -2  -5  -7  241.78   16.10 
  -2  -5  -7  227.88   16.70 
   2   5   7  236.18   15.80 
   2   5   7  191.78   19.70 
   2   5   7  213.98   15.80 
   2   5   7  250.07   16.70 
   2   5   7  231.68   15.90 
  -3  -5  -7    7.10    4.50 
  -3  -5  -7    5.50    3.60 
  -3  -5  -7    4.10    3.90 
  -3  -5  -7    6.70    4.50 
   3   5   7    4.40    4.10 
   3   5   7    3.20    3.40 
  -4  -5  -7  102.99   11.20 
  -4  -5  -7  118.19   10.90 
  -4  -5  -7   88.99   10.50 
  -4  -5  -7  106.79   11.60 
   4   5   7   98.89   10.30 
   4   5   7  107.69    9.90 
   4   5   7  106.19   10.60 
  -5  -5  -7   -3.50    4.10 
  -5  -5  -7    0.30    5.80 
  -5  -5  -7    4.30    8.60 
   5   5   7   -2.40    4.10 
   5   5   7    5.50    5.80 
   5   5   7    3.50    3.80 
  -6  -5  -7   74.19   10.40 
  -6  -5  -7   92.09   10.90 
  -6  -5  -7   42.60    8.40 
  -6  -5  -7   65.89   11.60 
   6   5   7   67.99    8.70 
   6   5   7   60.89    8.30 
  -7  -5  -7   -6.90    7.90 
  -7  -5  -7    9.90    7.80 
   7   5   7   12.60    7.30 
   7   5   7    8.10    6.40 
   6  -6  -7   44.20    6.50 
   6  -6  -7   53.89   10.70 
   6  -6  -7   80.99    9.60 
  -6   6   7   57.79    9.40 
  -6   6   7   71.59   11.90 
   5  -6  -7   -0.80    5.90 
   5  -6  -7   -4.90    3.20 
   5  -6  -7   -0.60    4.00 
  -5   6   7    2.60    4.60 
  -5   6   7   -4.00    6.60 
   4  -6  -7  216.98   15.90 
   4  -6  -7  229.48   14.30 
   4  -6  -7  191.18   15.30 
   4  -6  -7  168.48   17.20 
  -4   6   7  224.38   23.30 
  -4   6   7  194.58   15.20 
  -4   6   7  235.08   17.00 
   3  -6  -7   98.69   12.40 
   3  -6  -7  120.99    9.50 
   3  -6  -7  131.69   11.20 
   3  -6  -7  130.49   11.30 
  -3   6   7  138.69   11.90 
  -3   6   7  119.09   10.50 
  -3   6   7  124.09   13.10 
   2  -6  -7  709.23   39.30 
   2  -6  -7  573.74   39.70 
   2  -6  -7  688.33   37.80 
   2  -6  -7  601.94   38.90 
  -2   6   7  609.74   38.30 
  -2   6   7  689.73   40.50 
  -2   6   7  601.84   41.00 
   1  -6  -7  501.65   28.70 
   1  -6  -7  422.16   30.20 
   1  -6  -7  486.75   30.00 
   1  -6  -7  491.15   29.90 
  -1   6   7  474.85   30.80 
  -1   6   7  462.15   29.20 
  -1   6   7  483.45   30.50 
  -1   6   7  475.75   29.10 
   0  -6  -7  421.76   25.60 
   0  -6  -7  411.36   25.60 
   0  -6  -7  425.76   24.50 
   0  -6  -7  359.46   26.20 
   0  -6  -7  373.06   26.00 
   0   6   7  369.76   25.90 
   0   6   7  406.86   25.90 
   0   6   7  379.26   24.70 
   0   6   7  395.56   24.70 
  -1  -6  -7  485.05   33.50 
  -1  -6  -7  518.05   33.10 
  -1  -6  -7  532.55   33.00 
  -1  -6  -7  543.65   32.20 
  -1  -6  -7  496.25   33.30 
   1   6   7  559.74   32.50 
   1   6   7  544.75   33.50 
   1   6   7  558.14   33.50 
   1   6   7  529.45   32.40 
  -2  -6  -7   -0.10    3.60 
  -2  -6  -7    3.60    3.90 
  -2  -6  -7    4.10    3.20 
  -2  -6  -7    6.10    3.60 
  -2  -6  -7   -2.60    3.80 
   2   6   7    0.10    3.70 
   2   6   7    1.50    3.20 
   2   6   7    4.20    3.20 
  -3  -6  -7  302.77   20.60 
  -3  -6  -7  296.37   20.70 
  -3  -6  -7  287.07   20.30 
  -3  -6  -7  289.77   20.90 
   3   6   7  299.77   20.60 
   3   6   7  295.17   21.60 
  -4  -6  -7  180.48   15.30 
  -4  -6  -7  176.48   15.10 
  -4  -6  -7  162.28   14.60 
  -4  -6  -7  174.78   14.40 
   4   6   7  174.68   13.90 
   4   6   7  175.78   14.10 
   4   6   7  175.18   14.60 
  -5  -6  -7   14.40    4.40 
  -5  -6  -7    6.00    7.00 
  -5  -6  -7    8.90    5.50 
  -5  -6  -7    6.20    5.70 
   5   6   7   13.80    5.90 
   5   6   7    9.20    4.30 
   5   6   7   10.60    5.00 
  -6  -6  -7   42.90    8.10 
  -6  -6  -7   38.60    7.80 
  -6  -6  -7   41.90    9.80 
  -6  -6  -7   52.19    9.50 
   6   6   7   59.39    8.80 
   6   6   7   50.29    7.50 
  -7  -6  -7    9.30   10.40 
   7   6   7   14.40    6.90 
   7   6   7   11.20    9.50 
   6  -7  -7    8.50    4.30 
   6  -7  -7   13.90    7.20 
  -6   7   7   16.90   10.30 
   5  -7  -7   37.60    9.00 
   5  -7  -7   45.00    6.10 
   5  -7  -7   38.30    7.10 
  -5   7   7   36.50    7.00 
  -5   7   7   49.60    8.40 
  -5   7   7   31.50    9.70 
   4  -7  -7   76.79    9.40 
   4  -7  -7   75.49    8.00 
   4  -7  -7   57.29   10.10 
   4  -7  -7   93.49    9.90 
  -4   7   7   80.29    9.90 
  -4   7   7   78.49   11.70 
   3  -7  -7   52.79    7.40 
   3  -7  -7   62.99    7.00 
   3  -7  -7   58.29    7.60 
   3  -7  -7   35.20    8.10 
  -3   7   7   47.10    9.10 
  -3   7   7   84.89   10.00 
  -3   7   7   63.39    7.70 
   2  -7  -7  210.58   16.60 
   2  -7  -7  221.38   16.00 
   2  -7  -7  173.38   17.10 
   2  -7  -7  230.88   14.50 
  -2   7   7  218.78   17.00 
  -2   7   7  200.98   15.10 
  -2   7   7  199.38   17.50 
   1  -7  -7  569.04   33.30 
   1  -7  -7  578.94   32.00 
   1  -7  -7  451.55   33.50 
   1  -7  -7  502.15   33.00 
  -1   7   7  529.95   32.40 
  -1   7   7  513.65   33.90 
  -1   7   7  539.15   34.40 
  -1   7   7  522.95   33.40 
   0  -7  -7    2.40    3.90 
   0  -7  -7    5.20    4.00 
   0  -7  -7   -0.80    4.70 
   0  -7  -7    5.50    3.60 
   0  -7  -7    1.50    4.30 
   0   7   7    3.10    4.40 
   0   7   7    4.60    4.50 
   0   7   7    1.30    3.10 
  -1  -7  -7 1319.97   81.89 
  -1  -7  -7 1330.27   81.19 
  -1  -7  -7 1566.24   80.99 
  -1  -7  -7 1378.76   83.19 
   1   7   7 1375.06   82.89 
   1   7   7 1370.86   81.79 
   1   7   7 1425.06   80.79 
  -2  -7  -7    4.30    4.20 
  -2  -7  -7    1.20    4.70 
  -2  -7  -7    2.90    4.20 
  -2  -7  -7    5.00    4.40 
   2   7   7    6.10    4.20 
   2   7   7    2.60    4.20 
   2   7   7    3.50    3.30 
  -3  -7  -7  110.69   11.20 
  -3  -7  -7  122.29   11.60 
  -3  -7  -7  100.79   10.60 
  -3  -7  -7  109.99   11.80 
   3   7   7  106.49   11.00 
   3   7   7  111.79   11.20 
  -4  -7  -7    4.20    5.10 
  -4  -7  -7    3.20    4.90 
  -4  -7  -7    5.00    6.20 
  -4  -7  -7    8.00    5.00 
   4   7   7    7.00    4.80 
   4   7   7    7.90    4.20 
   4   7   7    9.20    4.80 
  -5  -7  -7   14.40    6.60 
  -5  -7  -7   17.60    6.60 
  -5  -7  -7   18.60    8.00 
  -5  -7  -7   20.20    5.60 
   5   7   7   19.40    6.00 
   5   7   7   13.90    5.10 
   5   7   7   15.80    5.80 
  -6  -7  -7   36.50    9.60 
  -6  -7  -7   28.90    8.20 
  -6  -7  -7   38.60    9.80 
   6   7   7   45.40    8.10 
  -7  -7  -7   -0.90    8.70 
  -7  -7  -7    0.80    7.30 
   6  -8  -7   29.00    5.90 
   6  -8  -7   30.50    7.30 
  -6   8   7   25.70   10.40 
   5  -8  -7    4.70    4.90 
   5  -8  -7    9.70    4.40 
  -5   8   7    2.70    8.30 
   4  -8  -7   77.79   12.10 
   4  -8  -7   99.99   10.80 
   4  -8  -7  101.09    9.30 
   4  -8  -7  100.39   11.10 
  -4   8   7  108.99   13.20 
  -4   8   7   85.69   11.10 
  -4   8   7   90.79   13.30 
   3  -8  -7    4.60    3.70 
   3  -8  -7   -5.50    5.90 
   3  -8  -7    5.60    4.80 
   3  -8  -7   -0.70    3.90 
  -3   8   7    4.90    4.60 
  -3   8   7    9.00    6.00 
  -3   8   7    0.60    6.00 
   2  -8  -7   94.69    8.50 
   2  -8  -7   53.19    9.40 
   2  -8  -7   89.69   10.00 
   2  -8  -7   93.89   10.10 
  -2   8   7   79.59    9.50 
  -2   8   7   84.99   11.20 
  -2   8   7   91.59   11.40 
   1  -8  -7   11.00    6.40 
   1  -8  -7    9.40    4.50 
   1  -8  -7    9.00    4.90 
   1  -8  -7    8.20    4.20 
  -1   8   7    9.20    4.90 
  -1   8   7    8.70    4.40 
  -1   8   7   12.80    6.20 
   0  -8  -7 1239.48   64.09 
   0  -8  -7 1133.29   64.79 
   0  -8  -7  966.00   65.59 
   0   8   7 1033.20   65.59 
   0   8   7 1022.50   64.49 
   0   8   7 1153.28   65.89 
  -1  -8  -7  187.28   14.60 
  -1  -8  -7  177.18   14.60 
  -1  -8  -7  154.48   15.60 
  -1  -8  -7  195.08   13.90 
   1   8   7  170.98   15.20 
   1   8   7  163.68   15.10 
   1   8   7  167.98   13.40 
  -2  -8  -7   23.60    6.90 
  -2  -8  -7   31.50    6.20 
  -2  -8  -7   24.70    6.10 
  -2  -8  -7   25.30    6.30 
   2   8   7   37.10    7.00 
   2   8   7   26.60    5.00 
   2   8   7   40.60    7.30 
  -3  -8  -7  208.08   18.40 
  -3  -8  -7  211.78   17.60 
  -3  -8  -7  192.08   16.90 
  -3  -8  -7  213.68   16.90 
   3   8   7  232.98   16.20 
   3   8   7  209.58   16.90 
   3   8   7  254.57   17.90 
  -4  -8  -7   48.60    8.10 
  -4  -8  -7   54.59    8.20 
  -4  -8  -7   55.29    9.20 
  -4  -8  -7   52.59    9.60 
   4   8   7   51.99    7.90 
   4   8   7   63.99    8.30 
   4   8   7   68.29    8.70 
  -5  -8  -7  178.38   15.50 
  -5  -8  -7  202.08   17.00 
  -5  -8  -7  177.48   18.20 
  -5  -8  -7  152.18   16.50 
   5   8   7  169.88   14.50 
   5   8   7  179.48   15.10 
   5   8   7  194.38   16.10 
  -6  -8  -7   23.20   10.00 
  -6  -8  -7   21.00    8.00 
   6   8   7   23.80    6.70 
   5  -9  -7    5.50    5.10 
  -5   9   7   11.90    9.40 
   4  -9  -7   32.00    5.80 
   4  -9  -7   23.30    6.40 
  -4   9   7   37.10    9.00 
  -4   9   7   34.80   10.10 
  -4   9   7   22.00    7.60 
   3  -9  -7    5.20    4.80 
   3  -9  -7    6.40    4.20 
   3  -9  -7   -5.50    6.90 
   3  -9  -7   -4.90    6.10 
  -3   9   7    1.50    5.70 
  -3   9   7    2.50    7.10 
  -3   9   7   -6.20    5.70 
   2  -9  -7   22.70    6.10 
   2  -9  -7   17.40    7.50 
   2  -9  -7   28.60    6.20 
   2  -9  -7   29.80    5.70 
  -2   9   7   25.40    6.60 
  -2   9   7   22.80    5.90 
  -2   9   7   31.30    8.40 
   1  -9  -7    7.40    4.50 
   1  -9  -7    3.70    4.80 
   1  -9  -7    2.60    4.10 
   1  -9  -7   10.70    8.80 
  -1   9   7    3.40    4.70 
  -1   9   7   -4.50    5.70 
   0  -9  -7   82.29    9.90 
   0  -9  -7   54.39    8.00 
   0  -9  -7   72.69    9.10 
   0  -9  -7   55.99    9.80 
   0   9   7   56.89    7.40 
   0   9   7   65.69    9.80 
   0   9   7  103.09   14.80 
  -1  -9  -7   91.49   10.00 
  -1  -9  -7   74.29    9.40 
  -1  -9  -7   59.79   10.70 
  -1  -9  -7   80.19   10.10 
   1   9   7   63.19    9.90 
   1   9   7   70.09    8.60 
   1   9   7   79.29   10.20 
  -2  -9  -7  194.18   15.30 
  -2  -9  -7  171.78   14.90 
  -2  -9  -7  179.38   16.90 
  -2  -9  -7  147.99   14.80 
   2   9   7  181.88   15.70 
   2   9   7  186.08   15.90 
   2   9   7  161.58   13.70 
  -3  -9  -7  107.09   13.50 
  -3  -9  -7  103.19   12.30 
  -3  -9  -7  126.49   12.20 
  -3  -9  -7  121.79   13.10 
   3   9   7  132.99   13.80 
   3   9   7  123.29   11.30 
   3   9   7  120.79   12.70 
  -4  -9  -7    8.30    4.90 
  -4  -9  -7   -3.00    6.40 
  -4  -9  -7    8.40    5.80 
  -4  -9  -7   -3.30    6.30 
   4   9   7    2.00    4.00 
   4   9   7    2.60    4.90 
   4   9   7    6.00    4.80 
  -5  -9  -7   88.69   13.40 
  -5  -9  -7   85.49   11.50 
   5   9   7   89.29   11.40 
  -6  -9  -7    6.40    7.00 
  -6  -9  -7    9.00    8.50 
   6   9   7   -0.20    5.50 
   4 -10  -7   60.39    9.50 
   4 -10  -7   27.50    7.60 
  -4  10   7   43.90   12.20 
   3 -10  -7    4.50    4.80 
   3 -10  -7    5.40    4.50 
   3 -10  -7    8.40    5.40 
  -3  10   7    4.40    7.80 
  -3  10   7   -0.80    6.10 
   2 -10  -7   62.79    7.90 
   2 -10  -7   70.09    9.60 
   2 -10  -7   45.10    8.20 
   2 -10  -7   22.80    8.70 
  -2  10   7   63.19   10.90 
  -2  10   7   40.20   10.50 
   1 -10  -7    5.10    5.50 
   1 -10  -7   -2.40    4.00 
   1 -10  -7    3.50    5.10 
   1 -10  -7    3.70    7.00 
  -1  10   7   -2.30    6.50 
  -1  10   7   -4.20    5.50 
   0 -10  -7  213.88   15.90 
   0 -10  -7  197.08   16.70 
   0 -10  -7  193.18   16.60 
   0  10   7  178.48   18.00 
  -1 -10  -7  124.29   12.90 
  -1 -10  -7   98.79   11.90 
  -1 -10  -7  113.19   12.50 
   1  10   7  111.49   11.80 
   1  10   7   95.99   12.90 
   1  10   7  117.19   13.70 
  -2 -10  -7  156.98   14.90 
  -2 -10  -7  168.68   14.60 
  -2 -10  -7  160.38   14.40 
  -2 -10  -7  121.09   15.40 
   2  10   7  141.59   15.00 
   2  10   7  131.79   12.60 
   2  10   7  150.48   15.40 
  -3 -10  -7  121.19   13.10 
  -3 -10  -7  143.39   14.20 
  -3 -10  -7  153.08   14.50 
  -3 -10  -7  128.49   16.20 
   3  10   7  128.39   13.50 
   3  10   7  131.49   14.40 
   3  10   7  120.89   12.10 
  -4 -10  -7    1.80    6.80 
  -4 -10  -7   -0.70    4.80 
  -4 -10  -7   -0.40    5.60 
   4  10   7    9.40    5.80 
  -5 -10  -7   55.89    9.50 
  -5 -10  -7   47.50   11.60 
   5  10   7   52.39    9.20 
   4 -11  -7    1.80    5.50 
   4 -11  -7    2.80    4.70 
  -4  11   7   16.10   10.40 
   3 -11  -7   17.20    5.80 
  -3  11   7   36.90    8.50 
  -3  11   7   18.00    9.20 
   2 -11  -7    5.40    5.60 
   2 -11  -7   14.90    5.70 
   2 -11  -7    9.40    6.50 
  -2  11   7    1.90    6.40 
  -2  11   7    5.50    8.70 
   1 -11  -7   31.60    6.60 
   1 -11  -7   33.20    8.20 
   1 -11  -7   39.60    7.20 
  -1  11   7   23.40    9.30 
  -1  11   7   33.30    9.40 
   0 -11  -7   69.89   10.10 
   0 -11  -7   69.29   10.00 
   0 -11  -7   67.49    9.20 
   0  11   7   54.59   11.20 
   0  11   7   58.69   11.00 
  -1 -11  -7    1.10    5.40 
  -1 -11  -7    0.80    5.40 
  -1 -11  -7   -1.80    5.10 
   1  11   7    2.50    5.80 
   1  11   7   -1.90    6.40 
   1  11   7    0.40    4.10 
  -2 -11  -7   54.89   11.50 
  -2 -11  -7   98.39   11.80 
  -2 -11  -7   74.09   10.30 
  -2 -11  -7   67.09   10.20 
   2  11   7   51.39    9.80 
   2  11   7   60.99   10.00 
  -3 -11  -7   34.30    8.50 
  -3 -11  -7   29.00    7.20 
  -3 -11  -7   26.50    8.30 
   3  11   7   35.70    8.00 
  -4 -11  -7   15.00    7.10 
  -4 -11  -7   25.60    9.00 
   4  11   7    5.90    6.90 
  -5 -11  -7   46.00   11.30 
  -5 -11  -7   53.79    9.90 
   5  11   7   38.60    8.90 
   2 -12  -7    9.80    6.30 
   2 -12  -7   13.40    5.90 
  -2  12   7    8.60    7.90 
  -2  12   7   15.00    9.90 
   1 -12  -7    4.50    6.20 
   1 -12  -7    1.30    5.90 
  -1  12   7    8.70    7.90 
  -1  12   7    6.00    8.10 
   0 -12  -7   33.20    7.90 
   0 -12  -7   58.79    8.80 
   0 -12  -7   41.40    8.70 
   0  12   7   34.80   10.10 
   0  12   7   48.80    9.90 
  -1 -12  -7   14.10   11.70 
  -1 -12  -7   13.80    6.90 
  -1 -12  -7   25.60    9.50 
   1  12   7   23.40    8.10 
   1  12   7   13.90    8.20 
  -2 -12  -7   54.59    9.70 
  -2 -12  -7   67.79   10.70 
   2  12   7   74.19   12.30 
  -3 -12  -7   34.40    9.60 
  -3 -12  -7   30.70    8.80 
   3  12   7   45.20   10.20 
  -4 -12  -7   23.50    9.80 
   4  12   7   28.00    8.60 
   0 -13  -7    5.50   11.60 
   0 -13  -7   19.50    7.80 
   0 -13  -7    8.40    6.00 
   0  13   7   12.00    8.20 
  -1 -13  -7   33.90    8.70 
  -1 -13  -7   27.60   13.30 
  -1 -13  -7   43.90    9.30 
   1  13   7   35.00    9.00 
  -2 -13  -7    6.80    6.90 
  -2 -13  -7   17.20    8.60 
   2  13   7   23.30    9.20 
   1  10  -8    2.40   11.00 
  -1 -10   8    8.40    6.30 
   0  10  -8   13.40   11.90 
   0 -10   8   -8.70    6.60 
   3   9  -8    0.30    7.30 
  -3  -9   8    5.90    5.30 
  -3  -9   8  -12.80    8.20 
   2   9  -8   11.40    9.70 
  -2  -9   8   19.00    5.90 
  -2  -9   8   24.70   10.90 
   1   9  -8    4.20    9.90 
  -1  -9   8   23.60    5.40 
  -1  -9   8   23.90    6.90 
   0   9  -8   27.30   12.40 
   0  -9   8   51.79    8.80 
   0  -9   8   46.20    6.10 
  -1   9  -8   27.00   12.70 
   1  -9   8   16.70    4.10 
   1  -9   8    5.30    6.30 
  -2   9  -8   27.40   13.80 
   2  -9   8   11.60    4.10 
   2  -9   8   13.90    7.00 
   4   8  -8   40.10    6.50 
   4   8  -8   19.30    7.40 
   4   8  -8   28.70    5.40 
  -4  -8   8   33.70    6.30 
  -4  -8   8   30.60    6.60 
   3   8  -8    1.40    7.60 
  -3  -8   8   18.70    5.70 
  -3  -8   8   15.30    5.00 
  -3  -8   8   14.80    9.20 
   2   8  -8   24.70    9.30 
   2   8  -8   30.20    6.30 
  -2  -8   8   14.10    9.40 
  -2  -8   8   32.80    5.00 
  -2  -8   8   28.90    6.40 
   1   8  -8    7.70    9.00 
   1   8  -8    4.50    4.50 
  -1  -8   8   -2.50    3.20 
  -1  -8   8   -3.60    4.60 
  -1  -8   8    1.80    3.40 
  -1  -8   8   -0.60    8.50 
   0   8  -8   37.20   11.20 
   0  -8   8   38.00    4.80 
   0  -8   8   23.60    5.50 
   0  -8   8   31.90    7.20 
   0  -8   8    6.80   10.30 
  -1   8  -8   17.30   11.30 
  -1   8  -8   -3.10   10.10 
   1  -8   8    5.50    6.20 
   1  -8   8    0.90    4.30 
   1  -8   8    5.20    4.60 
  -2   8  -8    9.40   12.80 
  -2   8  -8   23.10   11.40 
   2  -8   8   17.70    5.70 
   2  -8   8   28.10    4.60 
   2  -8   8   20.50    7.20 
  -3   8  -8    8.20   11.60 
  -3   8  -8   28.60   16.60 
   3  -8   8    8.00    7.20 
   3  -8   8    5.40    5.60 
   3  -8   8    9.00    3.60 
  -4   8  -8    5.70   12.20 
   4  -8   8    0.90    6.10 
   5   7  -8    7.70    3.90 
   5   7  -8    7.80    4.10 
  -5  -7   8    8.50    4.50 
   4   7  -8   33.60    8.00 
   4   7  -8   44.40    6.80 
   4   7  -8   49.20    6.10 
  -4  -7   8   40.80    9.90 
  -4  -7   8   41.00    6.40 
   3   7  -8   62.19    6.30 
   3   7  -8   51.49    9.90 
   3   7  -8   56.49    7.40 
  -3  -7   8   77.89    6.90 
  -3  -7   8   57.89   10.80 
  -3  -7   8   88.09    9.50 
  -3  -7   8   69.19    8.00 
   2   7  -8   40.70    9.60 
   2   7  -8   58.19    4.90 
  -2  -7   8   72.19    8.50 
  -2  -7   8   67.69    6.70 
  -2  -7   8   39.00   10.10 
  -2  -7   8   59.89    6.50 
   1   7  -8    7.00    8.40 
   1   7  -8    2.90    7.20 
   1   7  -8   11.20    4.70 
   1   7  -8    0.20    2.00 
  -1  -7   8    2.50    2.80 
  -1  -7   8    4.20    3.30 
  -1  -7   8    0.20    4.90 
  -1  -7   8    2.50    8.00 
   0   7  -8   17.70    9.70 
   0   7  -8   12.90    2.80 
   0   7  -8   22.50   10.20 
   0   7  -8   19.20    5.90 
   0  -7   8   19.30    6.40 
   0  -7   8   14.60    3.30 
   0  -7   8   21.90    4.80 
   0  -7   8   18.80    9.70 
  -1   7  -8   13.40    9.10 
  -1   7  -8    4.10   10.40 
  -1   7  -8   10.40    3.00 
  -1   7  -8    3.90    4.80 
   1  -7   8   12.30   10.20 
   1  -7   8    4.20    4.00 
   1  -7   8   11.20    3.00 
  -2   7  -8   -3.90   11.90 
  -2   7  -8   25.70    4.20 
  -2   7  -8    4.80    4.90 
  -2   7  -8   31.70   11.00 
   2  -7   8   35.80    7.70 
   2  -7   8   13.90    4.80 
   2  -7   8   23.30    3.90 
   2  -7   8   23.30    5.80 
  -3   7  -8  -11.80    8.90 
  -3   7  -8    0.60   13.90 
   3  -7   8    1.20    3.20 
   3  -7   8    3.20    4.90 
   3  -7   8    1.70    5.90 
  -4   7  -8   -5.30   14.70 
  -4   7  -8    5.90   12.10 
   4  -7   8    8.50    6.90 
   4  -7   8   11.00    4.10 
   4  -7   8    6.10    5.60 
   6   6  -8    2.40    4.30 
  -6  -6   8   -0.90    3.60 
   5   6  -8   66.09    7.90 
  -5  -6   8   95.29   11.30 
  -5  -6   8   70.19    8.40 
   4   6  -8   31.50    4.60 
   4   6  -8   41.50    5.20 
   4   6  -8   19.30    6.90 
  -4  -6   8   33.30    5.70 
   3   6  -8  117.89   13.10 
   3   6  -8  117.09    8.30 
   3   6  -8  107.69    7.70 
   3   6  -8  121.09   10.30 
  -3  -6   8  131.69   11.00 
  -3  -6   8  120.49    9.60 
  -3  -6   8  121.79    8.90 
   2   6  -8   63.49   10.10 
   2   6  -8   68.29    8.00 
  -2  -6   8   58.99    6.30 
  -2  -6   8   63.39    8.00 
  -2  -6   8   40.70    9.80 
   1   6  -8   17.40    8.00 
   1   6  -8   -2.70    6.70 
  -1  -6   8    8.90    3.20 
  -1  -6   8   18.00    5.60 
   0   6  -8  186.98   18.00 
   0   6  -8  158.58   13.80 
   0  -6   8  151.58   14.40 
   0  -6   8  169.68   12.60 
   0  -6   8  157.78   10.40 
  -1   6  -8   37.20    4.20 
  -1   6  -8   27.70    9.70 
  -1   6  -8   35.00   11.80 
  -1   6  -8   43.80    7.40 
   1  -6   8   37.20    4.00 
   1  -6   8   51.59    8.10 
   1  -6   8   28.70    8.40 
   1  -6   8   39.00    5.20 
   1  -6   8   45.80    6.80 
  -2   6  -8   34.80    4.40 
  -2   6  -8   19.00   12.40 
  -2   6  -8   16.70    5.30 
  -2   6  -8   38.40   10.50 
   2  -6   8   30.30    3.90 
   2  -6   8   27.00    8.40 
   2  -6   8   30.70    5.90 
   2  -6   8   29.40    7.10 
  -3   6  -8   12.80    9.40 
  -3   6  -8   10.20    6.90 
  -3   6  -8    6.60   13.60 
   3  -6   8   24.70    7.30 
   3  -6   8   21.90    3.90 
   3  -6   8   32.10    6.90 
  -4   6  -8   -1.80    9.00 
  -4   6  -8   15.20   14.80 
   4  -6   8    3.00    3.30 
   4  -6   8    4.30    6.30 
   4  -6   8    3.60    5.70 
  -5   6  -8  -14.30   14.90 
  -5   6  -8    5.80   10.60 
   5  -6   8   18.00   10.20 
   5  -6   8    9.10    6.20 
   5  -6   8    0.70    4.00 
   6   5  -8    8.00    4.50 
   5   5  -8  214.88   14.80 
  -5  -5   8  206.68   15.00 
  -5  -5   8  231.88   16.40 
   4   5  -8   -1.00    2.60 
   4   5  -8   -2.90    2.00 
   4   5  -8   -0.70    2.70 
   4   5  -8    6.20    5.20 
  -4  -5   8    2.10    3.80 
  -4  -5   8   -0.50    4.70 
   3   5  -8  210.68   15.10 
   3   5  -8  213.88   13.40 
   3   5  -8  213.28   13.10 
   3   5  -8  241.88   17.50 
  -3  -5   8  228.48   14.00 
  -3  -5   8  227.08   15.90 
   2   5  -8   19.30    5.10 
   2   5  -8   26.40    5.00 
   2   5  -8   25.00    7.00 
  -2  -5   8   36.70    6.20 
  -2  -5   8   38.70    4.80 
   1   5  -8    7.80    7.20 
   1   5  -8    8.00    6.50 
   1   5  -8    2.80    3.40 
  -1  -5   8   -0.70    4.00 
  -1  -5   8    1.50    2.70 
   0   5  -8   37.60   10.80 
   0   5  -8   58.39   10.20 
   0  -5   8   78.09    7.80 
   0  -5   8   56.39   11.40 
   0  -5   8   76.59    8.90 
  -1   5  -8   -0.50    6.80 
  -1   5  -8    2.50   13.20 
  -1   5  -8   -0.40    1.90 
   1  -5   8   -5.70    5.20 
   1  -5   8    0.50    1.80 
   1  -5   8    4.20    2.80 
   1  -5   8    3.10    4.70 
   1  -5   8    2.00    3.30 
  -2   5  -8  147.29   16.10 
  -2   5  -8  115.09   17.50 
   2  -5   8  112.89   10.10 
   2  -5   8  118.09   15.00 
   2  -5   8  130.19    8.60 
   2  -5   8  135.19   11.90 
   2  -5   8  110.39   12.70 
  -3   5  -8   20.30   12.80 
  -3   5  -8   32.00   10.70 
   3  -5   8   14.20    5.00 
   3  -5   8   22.30    6.10 
   3  -5   8   27.90    3.90 
   3  -5   8   18.30    6.90 
  -4   5  -8   32.30   10.80 
  -4   5  -8   27.90   14.00 
   4  -5   8   27.50    7.50 
   4  -5   8   40.20    5.00 
   4  -5   8   17.60    5.50 
  -5   5  -8   24.30   14.80 
  -5   5  -8   21.90   10.60 
   5  -5   8   12.80    7.40 
   5  -5   8   29.00    5.10 
   5  -5   8   23.00    7.80 
  -6   5  -8    2.60   15.50 
   6  -5   8   -3.60    4.00 
   6  -5   8    9.50    6.60 
   6   4  -8   71.99    8.50 
   5   4  -8  128.09   10.70 
   5   4  -8  147.09   10.60 
  -5  -4   8  138.59   11.80 
  -5  -4   8  162.18   11.30 
   4   4  -8   17.20    3.60 
   4   4  -8   19.70    5.60 
   4   4  -8   14.80    3.30 
   4   4  -8   17.10    3.00 
  -4  -4   8   14.00    5.00 
  -4  -4   8   20.10    4.60 
   3   4  -8  494.55   29.80 
   3   4  -8  533.55   30.90 
   3   4  -8  462.35   28.20 
  -3  -4   8  461.05   31.10 
  -3  -4   8  512.15   30.40 
   2   4  -8    5.30    5.50 
   2   4  -8    6.80    3.30 
  -2  -4   8    2.00    2.40 
  -2  -4   8    2.60    3.90 
   1   4  -8   33.20    5.60 
   1   4  -8   64.49    8.70 
   1   4  -8   37.80    8.70 
  -1  -4   8   50.49    7.00 
  -1  -4   8   38.10    5.10 
   0   4  -8  348.07   23.00 
   0   4  -8  293.87   25.00 
   0   4  -8  303.07   21.00 
   0  -4   8  337.27   21.90 
   0  -4   8  311.47   20.50 
   0  -4   8  291.17   22.50 
  -1   4  -8   64.69   14.00 
  -1   4  -8   47.20    6.90 
  -1   4  -8   48.70    9.20 
   1  -4   8   52.49    7.60 
   1  -4   8   57.99    7.40 
   1  -4   8   40.80    3.70 
   1  -4   8   50.69    8.60 
  -2   4  -8   90.29   12.00 
  -2   4  -8   70.69    9.10 
  -2   4  -8   67.49   13.50 
   2  -4   8   73.49    7.20 
   2  -4   8   58.29    8.70 
   2  -4   8   82.19    9.50 
   2  -4   8   80.79    5.70 
  -3   4  -8   32.60    6.20 
  -3   4  -8   60.19   11.30 
  -3   4  -8   28.20   12.10 
   3  -4   8   30.20    5.60 
   3  -4   8   46.10    8.10 
   3  -4   8   53.49    8.40 
   3  -4   8   39.60    4.50 
  -4   4  -8   -3.30    8.00 
  -4   4  -8   -7.10   11.30 
   4  -4   8    7.60    5.50 
   4  -4   8   -3.20    5.20 
   4  -4   8    3.90    6.00 
   4  -4   8    1.40    3.00 
  -5   4  -8    5.20   10.00 
  -5   4  -8    1.00   11.80 
   5  -4   8    2.80    5.70 
   5  -4   8    1.30    5.80 
   5  -4   8    1.90    3.70 
  -6   4  -8   -0.20   10.60 
  -6   4  -8   11.90   14.40 
   6  -4   8    1.00    4.50 
   6  -4   8    8.50    6.50 
   7   3  -8    5.90    4.90 
   6   3  -8   52.49    6.70 
   5   3  -8  109.19    9.30 
   5   3  -8  109.59    9.30 
  -5  -3   8  128.99    9.50 
  -5  -3   8  121.69    9.80 
   4   3  -8  160.78   11.20 
   4   3  -8  173.08   12.80 
   4   3  -8  175.78   11.70 
   4   3  -8  160.88   11.20 
  -4  -3   8  171.88   12.30 
  -4  -3   8  181.08   13.00 
   3   3  -8  446.66   27.20 
   3   3  -8  429.96   26.30 
   3   3  -8  423.66   24.80 
  -3  -3   8  441.16   25.50 
  -3  -3   8  435.46   26.70 
  -3  -3   8  412.26   27.40 
   2   3  -8   59.59    6.70 
   2   3  -8   76.39    8.90 
   2   3  -8   54.09    7.10 
  -2  -3   8   49.10    8.00 
  -2  -3   8   56.59    5.90 
  -2  -3   8   64.59    7.40 
   1   3  -8  941.31   56.89 
   1   3  -8 1059.89   58.09 
  -1  -3   8  912.41   56.49 
  -1  -3   8  989.10   57.39 
   0   3  -8   80.19   11.60 
   0   3  -8   95.09    8.90 
   0   3  -8  111.79   11.50 
   0  -3   8  100.69   10.30 
   0  -3   8   84.39   10.60 
   0  -3   8   95.19    8.70 
  -1   3  -8   79.99    9.80 
  -1   3  -8   50.39   10.30 
  -1   3  -8   51.09    6.80 
   1  -3   8   64.59    7.70 
   1  -3   8   57.39    7.90 
   1  -3   8   49.00    8.60 
  -2   3  -8   29.90    5.50 
  -2   3  -8   55.89    9.10 
  -2   3  -8   38.20   10.10 
   2  -3   8   50.39    4.20 
   2  -3   8   44.90    5.20 
   2  -3   8   48.10    7.70 
   2  -3   8   30.10    7.40 
   2  -3   8   54.29    8.90 
   2  -3   8   44.00    6.30 
  -3   3  -8    5.40    3.60 
  -3   3  -8   -0.10    9.30 
  -3   3  -8   -9.60    6.20 
   3  -3   8    1.60    5.10 
   3  -3   8    3.50    2.60 
   3  -3   8   -0.20    5.70 
   3  -3   8   -2.30    5.30 
  -4   3  -8   35.20   10.30 
  -4   3  -8   35.60   12.30 
   4  -3   8   29.50    4.70 
   4  -3   8   20.70    7.10 
   4  -3   8   39.50    7.80 
   4  -3   8   26.20    7.20 
  -5   3  -8   27.90   13.00 
  -5   3  -8   19.00   10.50 
   5  -3   8   41.80    8.20 
   5  -3   8   39.90    6.00 
   5  -3   8   31.70    7.80 
   5  -3   8   46.80    9.60 
  -6   3  -8   23.20   11.20 
  -6   3  -8   10.70   13.00 
   6  -3   8   18.70    5.80 
   6  -3   8   13.70    6.50 
   7   2  -8    8.30    4.70 
   6   2  -8  108.89    9.70 
   5   2  -8   69.39    7.70 
   5   2  -8   79.99    7.30 
  -5  -2   8   76.79    7.10 
  -5  -2   8   74.59    7.30 
   4   2  -8  111.99    9.50 
   4   2  -8  158.08   11.40 
   4   2  -8  129.79    9.20 
   4   2  -8  146.29   10.00 
  -4  -2   8  136.49   10.60 
   3   2  -8  494.15   29.10 
   3   2  -8  541.95   31.30 
   3   2  -8  478.95   29.40 
   3   2  -8  514.65   30.70 
  -3  -2   8  505.35   31.20 
  -3  -2   8  554.14   31.00 
  -3  -2   8  495.35   29.90 
   2   2  -8  297.57   18.90 
   2   2  -8  244.08   18.50 
   2   2  -8  273.77   17.90 
  -2  -2   8  273.27   17.50 
  -2  -2   8  294.97   18.40 
   1   2  -8 1504.15   82.59 
   1   2  -8 1354.16   82.89 
   1   2  -8 1400.36   81.99 
  -1  -2   8 1475.55   82.39 
  -1  -2   8 1392.76   81.79 
   0   2  -8   38.80    8.20 
   0   2  -8   51.59    6.40 
   0   2  -8   60.49    7.30 
   0  -2   8   57.69    7.20 
   0  -2   8   35.20    5.20 
   0  -2   8   52.49    7.40 
  -1   2  -8  304.37   22.10 
  -1   2  -8  360.66   23.40 
  -1   2  -8  372.46   25.30 
   1  -2   8  357.16   23.10 
   1  -2   8  359.86   22.60 
   1  -2   8  316.27   23.40 
   1  -2   8  331.87   22.90 
  -2   2  -8  192.38   15.00 
  -2   2  -8  219.88   17.20 
  -2   2  -8  172.28   19.10 
   2  -2   8  201.68   16.20 
   2  -2   8  197.48   13.30 
   2  -2   8  215.48   12.60 
   2  -2   8  203.38   16.70 
   2  -2   8  209.28   15.50 
   2  -2   8  222.58   17.80 
  -3   2  -8  119.09   11.00 
  -3   2  -8  122.19   10.90 
  -3   2  -8  111.79   14.50 
  -3   2  -8  107.79   13.00 
   3  -2   8  110.49    9.50 
   3  -2   8   95.69   15.30 
   3  -2   8   98.79   14.30 
   3  -2   8  107.39   11.80 
   3  -2   8  121.59    8.70 
  -4   2  -8   31.00    8.60 
  -4   2  -8   34.60   10.40 
  -4   2  -8   22.80    5.90 
   4  -2   8   31.40    6.90 
   4  -2   8   25.50    7.70 
   4  -2   8   26.00    7.00 
   4  -2   8   32.30    5.10 
  -5   2  -8   -0.60    7.90 
  -5   2  -8   11.80   10.70 
  -5   2  -8   -2.30    4.70 
   5  -2   8    4.90    5.70 
   5  -2   8    6.70    5.30 
   5  -2   8    5.20    6.30 
   5  -2   8    6.70    4.30 
  -6   2  -8   19.50    9.70 
  -6   2  -8   12.30   12.00 
   6  -2   8   11.30    5.40 
   6  -2   8    2.20    6.20 
  -7   2  -8   -7.00   13.00 
   7  -2   8    4.90    5.40 
   7  -2   8   -0.70    6.20 
   7   1  -8    6.20    4.80 
   6   1  -8  145.29   11.50 
  -6  -1   8  138.59   10.90 
  -6  -1   8  153.78   10.40 
   5   1  -8   20.70    5.40 
   5   1  -8   18.80    4.20 
  -5  -1   8   27.10    4.00 
  -5  -1   8   17.20    4.00 
   4   1  -8   20.00    3.20 
   4   1  -8   22.10    4.50 
   4   1  -8   18.30    3.80 
   4   1  -8   19.70    4.00 
  -4  -1   8   18.30    3.90 
  -4  -1   8   16.60    3.80 
   3   1  -8   97.79    6.50 
   3   1  -8  107.09    9.20 
   3   1  -8   86.59    8.10 
   3   1  -8   94.69    7.20 
  -3  -1   8  103.69    8.50 
  -3  -1   8   98.79    7.40 
  -3  -1   8   93.59    8.60 
   2   1  -8    4.20    4.00 
   2   1  -8    4.10    3.70 
   2   1  -8    6.50    3.00 
  -2  -1   8    2.50    2.20 
  -2  -1   8    2.20    3.20 
  -2  -1   8    5.10    3.20 
   1   1  -8  438.46   28.00 
   1   1  -8  478.25   28.80 
   1   1  -8  464.05   29.30 
  -1  -1   8  425.46   27.80 
  -1  -1   8  489.45   28.50 
   0   1  -8   17.70    3.90 
   0   1  -8   20.80    6.30 
   0   1  -8   22.00    5.40 
   0  -1   8    7.60    2.90 
   0  -1   8   14.30    4.50 
   0  -1   8   19.70    4.60 
   0  -1   8    7.60    3.50 
  -1   1  -8  822.22   47.70 
  -1   1  -8  763.92   46.20 
  -1   1  -8  750.22   46.40 
  -1   1  -8  768.02   46.80 
   1  -1   8  758.22   46.30 
   1  -1   8  782.02   43.90 
   1  -1   8  805.62   46.80 
   1  -1   8  800.12   46.70 
   1  -1   8  733.03   46.90 
  -2   1  -8   68.49    8.60 
  -2   1  -8  100.39   10.50 
  -2   1  -8   84.39   11.00 
  -2   1  -8   81.99    8.50 
   2  -1   8   83.89    6.40 
   2  -1   8   74.99    9.50 
   2  -1   8   96.19    9.40 
   2  -1   8   83.29    6.70 
   2  -1   8   94.69   10.00 
  -3   1  -8   27.70    5.70 
  -3   1  -8   36.30    7.50 
  -3   1  -8   37.10    9.10 
  -3   1  -8   34.20    6.10 
   3  -1   8   36.50    5.10 
   3  -1   8   36.30    7.80 
   3  -1   8   26.70    8.00 
   3  -1   8   33.50    4.40 
   3  -1   8   25.00    5.70 
   3  -1   8   25.20    6.20 
  -4   1  -8  100.89   13.10 
  -4   1  -8   81.59    9.70 
  -4   1  -8   90.09   11.10 
   4  -1   8   82.59   10.10 
   4  -1   8   81.99    8.10 
   4  -1   8   97.39   11.10 
   4  -1   8   70.49    9.80 
  -5   1  -8  181.58   17.30 
  -5   1  -8  159.08   19.00 
   5  -1   8  182.18   14.10 
   5  -1   8  203.18   16.80 
   5  -1   8  161.08   16.60 
   5  -1   8  190.88   16.30 
  -6   1  -8   -0.40   10.30 
  -6   1  -8   10.30    8.60 
  -6   1  -8    9.10    8.20 
   6  -1   8    9.30    5.40 
   6  -1   8   11.40    6.00 
   6  -1   8   11.80    6.70 
  -7   1  -8   -2.70   11.50 
   7  -1   8    2.30    6.30 
   7  -1   8    4.40    6.10 
   7   0  -8    8.70    4.60 
  -7   0   8    8.00    4.60 
  -7   0   8    7.90    3.40 
   6   0  -8  183.68   14.00 
  -6   0   8  214.88   13.60 
  -6   0   8  197.78   14.40 
   5   0  -8    6.00    3.50 
   5   0  -8    3.00    3.10 
   5   0  -8    2.00    3.70 
  -5   0   8    4.40    3.50 
  -5   0   8    1.70    2.80 
   4   0  -8  622.54   35.40 
   4   0  -8  557.94   35.60 
   4   0  -8  580.84   35.40 
   4   0  -8  608.84   34.40 
  -4   0   8  589.04   35.00 
  -4   0   8  609.84   35.50 
  -4   0   8  581.24   34.40 
   3   0  -8  317.57   19.20 
   3   0  -8  308.87   20.20 
   3   0  -8  351.66   21.10 
   3   0  -8  332.77   21.00 
  -3   0   8  333.17   20.30 
  -3   0   8  319.77   20.60 
  -3   0   8  347.07   21.00 
   2   0  -8  331.87   19.90 
   2   0  -8  333.37   19.40 
   2   0  -8  353.96   21.60 
   2   0  -8  350.86   21.70 
   2   0  -8  317.37   21.70 
  -2   0   8  335.77   21.40 
  -2   0   8  352.96   21.60 
   1   0  -8  736.43   44.00 
   1   0  -8  699.43   43.30 
   1   0  -8  760.82   43.80 
  -1   0   8  774.72   43.70 
  -1   0   8  697.73   43.40 
   0   0  -8  177.18   12.40 
   0   0  -8  177.58   13.00 
   0   0  -8  160.38   13.10 
   0   0   8  191.08   13.00 
   0   0   8  148.89   12.60 
   0   0   8  157.88   12.10 
   0   0   8  159.68   12.20 
  -1   0  -8  134.49    8.70 
  -1   0  -8  131.39   10.70 
  -1   0  -8  116.79   10.30 
   1   0   8  123.39   10.60 
   1   0   8  130.59    8.10 
   1   0   8  140.69   11.20 
   1   0   8  125.09   11.00 
   1   0   8  130.89    8.20 
   1   0   8  119.59   10.50 
  -2   0  -8  175.58   13.50 
  -2   0  -8  167.28   14.40 
  -2   0  -8  181.18   12.40 
  -2   0  -8  161.18   13.10 
   2   0   8  181.68   11.70 
   2   0   8  186.48   11.60 
   2   0   8  168.68   14.20 
   2   0   8  186.28   14.30 
   2   0   8  190.58   14.10 
   2   0   8  176.08   13.80 
  -3   0  -8  243.18   18.30 
  -3   0  -8  255.67   18.40 
   3   0   8  229.38   17.60 
   3   0   8  192.68   18.90 
   3   0   8  251.67   15.50 
   3   0   8  217.68   15.80 
   3   0   8  253.97   18.00 
  -4   0  -8  207.38   17.30 
  -4   0  -8  180.48   15.70 
   4   0   8  223.38   14.80 
   4   0   8  212.88   16.80 
   4   0   8  203.38   16.50 
   4   0   8  205.08   17.10 
  -5   0  -8   14.00    8.30 
  -5   0  -8    5.90    4.80 
  -5   0  -8   17.40    7.70 
   5   0   8    8.00    5.50 
   5   0   8    3.80    5.10 
   5   0   8    7.80    5.40 
   5   0   8   10.30    4.70 
  -6   0  -8   22.90   10.50 
  -6   0  -8   10.90    5.50 
  -6   0  -8    8.80    7.60 
   6   0   8   17.60    6.90 
   6   0   8    2.80    4.90 
   6   0   8    4.30    5.80 
   6   0   8    9.90    6.50 
  -7   0  -8   -2.50   10.90 
   7   0   8    5.70    6.50 
   7   0   8    6.50    6.20 
   7  -1  -8    3.10    4.30 
  -7   1   8    4.80    3.80 
   6  -1  -8   61.39    6.90 
   6  -1  -8   52.09    6.30 
   6  -1  -8   40.20    6.40 
  -6   1   8   63.99    7.00 
  -6   1   8   63.79    7.60 
   5  -1  -8    0.20    4.00 
   5  -1  -8    1.00    3.20 
   5  -1  -8   -1.40    2.90 
  -5   1   8    4.80    3.00 
  -5   1   8    4.30    3.90 
   4  -1  -8    1.70    3.10 
   4  -1  -8    7.90    2.80 
   4  -1  -8    9.70    4.40 
   4  -1  -8    7.80    3.70 
  -4   1   8    4.10    3.00 
  -4   1   8   11.30    2.70 
  -4   1   8   10.70    4.10 
  -4   1   8    8.50    3.10 
   3  -1  -8   41.50    5.50 
   3  -1  -8   37.00    5.30 
   3  -1  -8   37.10    5.40 
   3  -1  -8   25.10    3.10 
  -3   1   8   37.70    4.20 
  -3   1   8   30.00    5.00 
  -3   1   8   28.70    4.40 
  -3   1   8   34.60    4.40 
   2  -1  -8  264.67   15.30 
   2  -1  -8  272.17   17.40 
  -2   1   8  253.07   16.80 
  -2   1   8  269.57   17.30 
  -2   1   8  248.78   15.60 
  -2   1   8  250.77   16.80 
   1  -1  -8 1212.28   67.59 
   1  -1  -8 1131.59   67.49 
   1  -1  -8 1217.08   65.49 
   1  -1  -8 1151.98   67.69 
  -1   1   8 1189.28   67.49 
  -1   1   8 1086.99   67.09 
  -1   1   8 1144.59   65.49 
   0  -1  -8   95.49    6.30 
   0  -1  -8   95.09    8.30 
   0  -1  -8  100.59    9.40 
   0  -1  -8  103.59    9.00 
   0  -1  -8   83.79    8.20 
   0   1   8   93.59    8.60 
   0   1   8   84.89    8.10 
   0   1   8   96.49    8.40 
   0   1   8   88.69    8.10 
   0   1   8   83.09    5.70 
  -1  -1  -8  688.03   40.60 
  -1  -1  -8  651.13   39.80 
  -1  -1  -8  618.84   39.60 
  -1  -1  -8  654.43   38.10 
  -1  -1  -8  671.03   40.10 
   1   1   8  644.64   37.70 
   1   1   8  678.83   40.10 
   1   1   8  646.24   39.80 
   1   1   8  662.93   39.70 
   1   1   8  700.03   40.00 
  -2  -1  -8  283.77   19.70 
  -2  -1  -8  278.17   20.10 
  -2  -1  -8  259.37   17.90 
  -2  -1  -8  300.97   20.60 
   2   1   8  275.87   17.40 
   2   1   8  282.67   19.40 
   2   1   8  288.37   19.50 
   2   1   8  315.87   20.00 
  -3  -1  -8  138.19   11.40 
  -3  -1  -8  123.29   12.30 
  -3  -1  -8  137.69   11.70 
  -3  -1  -8  146.49   12.30 
   3   1   8  137.09   12.00 
   3   1   8  139.29   12.30 
   3   1   8  136.19   12.40 
   3   1   8  134.99   10.30 
  -4  -1  -8   31.10    7.60 
  -4  -1  -8   41.30    8.20 
  -4  -1  -8   35.40    6.70 
  -4  -1  -8   27.10    5.90 
   4   1   8   28.30    6.70 
   4   1   8   22.90    5.60 
   4   1   8   35.70    5.60 
   4   1   8   43.50    7.40 
  -5  -1  -8   24.00    6.30 
  -5  -1  -8   36.70    8.70 
  -5  -1  -8   28.10    7.60 
  -5  -1  -8   45.20    8.70 
   5   1   8   27.90    6.60 
   5   1   8   47.50    7.70 
   5   1   8   30.10    6.10 
   5   1   8   29.90    7.10 
  -6  -1  -8   12.60    9.30 
  -6  -1  -8    7.70    4.90 
  -6  -1  -8   17.50    7.30 
   6   1   8    2.10    5.60 
   6   1   8   10.50    5.70 
   6   1   8    9.00    5.40 
   6   1   8   13.50    6.40 
  -7  -1  -8    1.80    9.80 
   7   1   8   -0.80    5.80 
   7   1   8    7.10    7.20 
   7  -2  -8   75.99    8.70 
   7  -2  -8   76.49    7.60 
  -7   2   8   60.89    7.40 
  -7   2   8   72.99    9.60 
   6  -2  -8  284.57   17.90 
   6  -2  -8  224.48   18.40 
   6  -2  -8  316.17   21.60 
  -6   2   8  271.17   17.80 
  -6   2   8  259.17   19.30 
   5  -2  -8    8.70    3.90 
   5  -2  -8    4.80    8.10 
   5  -2  -8    3.30    3.10 
  -5   2   8    3.40    2.90 
  -5   2   8    3.60    4.30 
  -5   2   8    3.10    3.30 
   4  -2  -8  715.03   47.10 
   4  -2  -8  828.32   45.00 
   4  -2  -8  839.32   46.20 
   4  -2  -8  705.33   46.30 
  -4   2   8  812.62   46.70 
  -4   2   8  792.62   45.60 
  -4   2   8  796.92   45.70 
  -4   2   8  738.63   45.70 
   3  -2  -8  146.79   11.00 
   3  -2  -8  121.59    8.50 
   3  -2  -8  132.79   10.40 
   3  -2  -8  122.69    9.70 
  -3   2   8  130.49   10.80 
  -3   2   8  123.29   10.50 
  -3   2   8  124.89    9.70 
  -3   2   8  122.59    9.20 
   2  -2  -8  196.18   13.30 
   2  -2  -8  184.48   11.40 
   2  -2  -8  174.48   13.40 
  -2   2   8  172.18   11.70 
  -2   2   8  186.18   12.90 
  -2   2   8  192.18   13.50 
   1  -2  -8  583.74   35.40 
   1  -2  -8  633.34   35.40 
   1  -2  -8  586.94   33.40 
   1  -2  -8  595.04   35.40 
  -1   2   8  540.75   34.70 
  -1   2   8  571.64   34.70 
  -1   2   8  604.44   35.40 
  -1   2   8  542.95   33.20 
   0  -2  -8  165.98   12.20 
   0  -2  -8  152.28   11.50 
   0  -2  -8  161.48   11.80 
   0  -2  -8  148.79    9.60 
   0  -2  -8  139.49   11.50 
   0   2   8  147.59   11.00 
   0   2   8  131.69    9.00 
   0   2   8  146.59   11.20 
   0   2   8  143.79   11.10 
   0   2   8  135.99   11.60 
  -1  -2  -8  512.85   30.90 
  -1  -2  -8  511.35   32.30 
  -1  -2  -8  509.65   32.40 
  -1  -2  -8  552.54   33.00 
  -1  -2  -8  558.64   32.70 
   1   2   8  519.65   32.10 
   1   2   8  553.94   32.50 
   1   2   8  530.55   32.60 
   1   2   8  502.35   30.30 
   1   2   8  511.95   32.10 
  -2  -2  -8    0.70    4.00 
  -2  -2  -8    0.50    2.60 
  -2  -2  -8    4.70    3.60 
  -2  -2  -8    0.10    2.90 
  -2  -2  -8    0.50    3.30 
   2   2   8    0.10    2.00 
   2   2   8   -0.40    2.80 
   2   2   8    6.90    4.10 
   2   2   8    1.60    3.00 
   2   2   8   -0.40    2.70 
  -3  -2  -8  106.79   10.60 
  -3  -2  -8  130.39   13.00 
  -3  -2  -8  113.99   10.10 
  -3  -2  -8   85.39    9.70 
  -3  -2  -8  126.89   11.60 
   3   2   8  119.39    9.10 
   3   2   8  124.69   11.50 
   3   2   8  118.39   10.70 
  -4  -2  -8   40.20    7.40 
  -4  -2  -8   43.70    8.50 
  -4  -2  -8   50.69    7.40 
  -4  -2  -8   53.79    7.50 
   4   2   8   57.49    7.90 
   4   2   8   46.70    7.80 
   4   2   8   43.20    7.30 
   4   2   8   58.79    7.00 
  -5  -2  -8   69.49   10.80 
  -5  -2  -8   69.19   10.30 
  -5  -2  -8   77.19   10.30 
  -5  -2  -8   75.99    9.60 
   5   2   8   87.39   10.80 
   5   2   8   70.89    9.50 
   5   2   8   86.39    9.70 
  -6  -2  -8   -2.30    6.00 
  -6  -2  -8    3.80    7.10 
  -6  -2  -8    7.60    5.10 
  -6  -2  -8   11.30    7.30 
   6   2   8    3.70    5.80 
   6   2   8    9.30    5.80 
   6   2   8    9.00    5.40 
   6   2   8    8.80    5.90 
   7   2   8    5.60    6.30 
   7   2   8    5.50    6.70 
   7  -3  -8   50.29    6.80 
   7  -3  -8   68.09    7.90 
   7  -3  -8   20.60    7.20 
  -7   3   8   41.40    6.70 
  -7   3   8   58.59    9.50 
   6  -3  -8  100.69    9.10 
   6  -3  -8   90.29    9.40 
  -6   3   8   99.89    9.70 
  -6   3   8  100.89   12.20 
   5  -3  -8  136.99   10.60 
   5  -3  -8  145.79   11.70 
   5  -3  -8  144.79   13.40 
  -5   3   8  153.38   11.50 
  -5   3   8  150.98   13.40 
  -5   3   8  136.69   10.90 
   4  -3  -8    0.80    4.20 
   4  -3  -8    4.60    3.60 
   4  -3  -8    8.40    2.90 
  -4   3   8   18.20    5.00 
  -4   3   8    3.70    3.20 
  -4   3   8    7.80    3.30 
   3  -3  -8    3.50    3.40 
   3  -3  -8    1.30    3.00 
   3  -3  -8    2.10    2.30 
   3  -3  -8   -3.10    3.30 
  -3   3   8    1.20    2.60 
  -3   3   8    1.90    2.60 
  -3   3   8    0.10    2.60 
  -3   3   8    3.50    3.70 
   2  -3  -8  366.46   21.30 
   2  -3  -8  353.66   23.00 
   2  -3  -8  353.16   23.30 
   2  -3  -8  366.46   22.90 
  -2   3   8  327.97   21.50 
  -2   3   8  352.06   22.30 
  -2   3   8  390.56   23.00 
  -2   3   8  356.46   23.30 
   1  -3  -8    8.40    3.50 
   1  -3  -8   14.10    4.00 
   1  -3  -8   10.40    2.50 
   1  -3  -8   15.10    4.20 
  -1   3   8    9.00    3.10 
  -1   3   8   13.80    3.80 
  -1   3   8   14.70    4.40 
  -1   3   8   10.70    2.30 
  -1   3   8   14.90    3.20 
   0  -3  -8  861.61   52.39 
   0  -3  -8  922.81   50.59 
   0  -3  -8  873.11   52.29 
   0  -3  -8  881.91   52.39 
   0   3   8  833.12   49.99 
   0   3   8  910.41   51.69 
   0   3   8  883.91   51.69 
  -1  -3  -8  822.22   46.80 
  -1  -3  -8  786.72   47.00 
  -1  -3  -8  774.02   48.40 
  -1  -3  -8  741.33   46.60 
  -1  -3  -8  805.12   45.30 
   1   3   8  743.43   44.60 
   1   3   8  775.72   46.60 
   1   3   8  798.22   46.80 
   1   3   8  776.52   46.20 
   1   3   8  772.12   46.20 
  -2  -3  -8   -0.40    3.80 
  -2  -3  -8    3.80    3.30 
  -2  -3  -8    2.30    3.20 
  -2  -3  -8    2.10    3.40 
  -2  -3  -8    1.10    5.20 
   2   3   8    1.20    2.60 
   2   3   8    5.40    3.90 
   2   3   8   -0.50    2.80 
   2   3   8    0.60    2.60 
   2   3   8   -0.90    3.10 
  -3  -3  -8  762.72   44.10 
  -3  -3  -8  751.92   45.30 
  -3  -3  -8  733.13   44.90 
  -3  -3  -8  694.13   44.50 
   3   3   8  739.63   44.80 
   3   3   8  678.83   43.10 
   3   3   8  736.03   44.40 
   3   3   8  785.12   45.00 
  -4  -3  -8  158.98   13.60 
  -4  -3  -8  173.88   15.10 
  -4  -3  -8  187.88   14.70 
  -4  -3  -8  142.09   13.40 
   4   3   8  181.08   14.30 
   4   3   8  156.48   14.10 
   4   3   8  148.29   13.40 
  -5  -3  -8   65.49    9.60 
  -5  -3  -8   54.29    9.10 
  -5  -3  -8   42.00    7.50 
  -5  -3  -8   26.00   10.40 
   5   3   8   64.49    8.80 
   5   3   8   44.90    7.60 
   5   3   8   58.89    7.90 
   5   3   8   54.09    8.50 
  -6  -3  -8   14.60    8.10 
  -6  -3  -8   10.30    7.20 
  -6  -3  -8    6.20    5.30 
  -6  -3  -8   21.30    9.40 
   6   3   8   16.80    6.30 
   6   3   8   13.90    5.60 
   6   3   8   24.40    6.60 
   6   3   8   14.10    6.30 
  -7  -3  -8    0.10    8.20 
  -7  -3  -8   -0.70    8.10 
   7   3   8    0.50    6.20 
   7   3   8    5.20    6.80 
   7  -4  -8   43.40    6.80 
   7  -4  -8   33.30    6.10 
   7  -4  -8   30.30    7.90 
  -7   4   8   47.90    9.50 
   6  -4  -8    5.80    4.30 
   6  -4  -8    1.80    5.80 
   6  -4  -8   -1.00    3.70 
  -6   4   8    7.90    4.50 
  -6   4   8   -3.30    5.60 
   5  -4  -8  125.59    9.70 
   5  -4  -8   96.29   12.60 
   5  -4  -8  125.49   11.10 
  -5   4   8  133.19   13.10 
  -5   4   8  129.59   10.60 
  -5   4   8  118.59   10.70 
   4  -4  -8  690.63   40.70 
   4  -4  -8  613.24   38.20 
   4  -4  -8  616.04   40.60 
  -4   4   8  674.43   44.40 
  -4   4   8  684.83   39.30 
  -4   4   8  663.83   39.90 
   3  -4  -8  106.79    8.00 
   3  -4  -8   98.79    9.50 
   3  -4  -8   82.79   10.20 
   3  -4  -8   97.79    9.50 
  -3   4   8  105.29   10.60 
  -3   4   8  108.19    9.60 
   2  -4  -8  683.53   44.50 
   2  -4  -8  788.32   42.60 
   2  -4  -8  767.52   44.20 
   2  -4  -8  777.62   44.20 
  -2   4   8  764.92   44.80 
  -2   4   8  658.53   42.60 
  -2   4   8  716.53   43.50 
   1  -4  -8    8.60    2.70 
   1  -4  -8    5.60    3.80 
   1  -4  -8    4.30    3.00 
   1  -4  -8    9.10    3.90 
  -1   4   8    6.60    2.30 
  -1   4   8    4.80    3.80 
  -1   4   8    5.20    3.00 
  -1   4   8    7.90    3.60 
   0  -4  -8  722.03   45.60 
   0  -4  -8  797.42   43.90 
   0  -4  -8  755.32   45.40 
   0  -4  -8  745.23   45.60 
   0   4   8  768.12   44.70 
   0   4   8  732.33   44.70 
   0   4   8  797.82   45.40 
   0   4   8  719.43   43.20 
  -1  -4  -8  330.17   22.90 
  -1  -4  -8  375.06   23.90 
  -1  -4  -8  340.47   21.50 
  -1  -4  -8  353.56   22.70 
  -1  -4  -8  314.77   22.60 
   1   4   8  342.47   22.10 
   1   4   8  359.46   22.70 
   1   4   8  357.66   23.00 
   1   4   8  333.77   22.10 
  -2  -4  -8  243.48   17.50 
  -2  -4  -8  245.18   16.60 
  -2  -4  -8  240.68   17.60 
  -2  -4  -8  234.38   17.50 
  -2  -4  -8  246.08   17.90 
   2   4   8  222.08   15.40 
   2   4   8  273.57   17.90 
   2   4   8  237.28   16.70 
   2   4   8  258.67   17.50 
   2   4   8  240.68   16.80 
  -3  -4  -8  505.45   32.10 
  -3  -4  -8  531.55   32.70 
  -3  -4  -8  477.95   31.90 
  -3  -4  -8  521.55   31.60 
   3   4   8  453.95   31.20 
   3   4   8  546.45   32.30 
   3   4   8  495.35   32.00 
  -4  -4  -8   80.99   10.00 
  -4  -4  -8   82.69    9.80 
  -4  -4  -8   81.29    9.70 
  -4  -4  -8   89.39   10.80 
   4   4   8   72.39    9.10 
   4   4   8   88.29   10.20 
   4   4   8   76.29    9.60 
  -5  -4  -8   56.89    8.70 
  -5  -4  -8   78.29   10.80 
  -5  -4  -8   80.69   10.10 
   5   4   8   81.89    9.70 
   5   4   8   79.69    9.90 
  -6  -4  -8   31.10    9.10 
  -6  -4  -8   33.20    9.40 
  -6  -4  -8   34.70    7.10 
   6   4   8   27.80    8.80 
   6   4   8   52.89    8.40 
   6   4   8   21.50    5.90 
   6   4   8   38.00    7.80 
  -7  -4  -8    9.90    9.00 
  -7  -4  -8   27.30    9.20 
   7   4   8   28.70    8.20 
   7   4   8   26.10    8.10 
   6  -5  -8   30.00    5.30 
   6  -5  -8   27.40    6.00 
   6  -5  -8   19.10    7.40 
  -6   5   8   37.20    6.50 
  -6   5   8   31.70    8.70 
   5  -5  -8    4.70    3.40 
   5  -5  -8    6.30    4.50 
   5  -5  -8    6.80    6.30 
  -5   5   8   11.70    4.70 
  -5   5   8   11.00    4.80 
  -5   5   8    9.90    6.50 
   4  -5  -8  273.77   18.30 
   4  -5  -8  212.68   17.20 
   4  -5  -8  242.38   19.40 
   4  -5  -8  258.57   16.50 
  -4   5   8  292.37   21.20 
  -4   5   8  269.77   20.10 
   3  -5  -8   44.60    7.80 
   3  -5  -8   79.09    8.50 
   3  -5  -8   77.79    6.70 
   3  -5  -8   64.19    8.20 
  -3   5   8   75.59    8.70 
  -3   5   8   68.69    9.20 
  -3   5   8   65.79    7.60 
   2  -5  -8  212.78   16.70 
   2  -5  -8  222.58   16.10 
   2  -5  -8  230.98   16.20 
   2  -5  -8  220.98   14.40 
  -2   5   8  208.78   15.30 
  -2   5   8  232.28   16.40 
  -2   5   8  228.78   17.10 
   1  -5  -8   24.10    5.30 
   1  -5  -8   26.90    5.10 
   1  -5  -8   35.20    4.30 
  -1   5   8   21.20    3.40 
  -1   5   8   22.50    4.70 
  -1   5   8   27.00    4.50 
  -1   5   8   21.10    5.80 
   0  -5  -8  145.59   13.30 
   0  -5  -8  150.38   12.70 
   0  -5  -8  166.08   12.80 
   0  -5  -8  157.28   13.00 
   0  -5  -8  176.28   11.40 
   0   5   8  156.18   11.90 
   0   5   8  153.18   12.70 
   0   5   8  154.78   10.40 
   0   5   8  146.19   11.60 
  -1  -5  -8  105.49    8.90 
  -1  -5  -8   98.89    9.80 
  -1  -5  -8   82.69    9.90 
  -1  -5  -8   95.99    9.60 
  -1  -5  -8  108.99   10.50 
   1   5   8  126.19   10.80 
   1   5   8   90.39   10.40 
   1   5   8   95.39    7.60 
   1   5   8  100.99    9.80 
   1   5   8  110.39    9.20 
  -2  -5  -8  159.68   13.20 
  -2  -5  -8  154.38   13.50 
  -2  -5  -8  162.58   12.60 
  -2  -5  -8  175.48   13.20 
   2   5   8  159.38   12.40 
   2   5   8  148.59   13.00 
   2   5   8  143.09   13.20 
  -3  -5  -8  202.38   15.60 
  -3  -5  -8  199.38   16.00 
  -3  -5  -8  209.88   16.50 
  -3  -5  -8  196.28   15.30 
   3   5   8  188.88   15.60 
   3   5   8  202.28   15.60 
   3   5   8  196.68   15.00 
  -4  -5  -8   60.49    8.90 
  -4  -5  -8   81.09    9.70 
  -4  -5  -8   63.09    8.50 
  -4  -5  -8   69.89    9.70 
   4   5   8   73.59    9.60 
   4   5   8   68.69    8.90 
  -5  -5  -8  183.08   16.30 
  -5  -5  -8  160.08   15.40 
  -5  -5  -8  156.78   14.80 
  -5  -5  -8  131.39   14.00 
   5   5   8  166.38   14.90 
   5   5   8  164.38   13.90 
   5   5   8  171.38   14.50 
  -6  -5  -8   19.00    6.10 
  -6  -5  -8   12.30    7.70 
  -6  -5  -8    4.70    6.00 
  -6  -5  -8   21.50    8.60 
   6   5   8   13.70    5.00 
  -7  -5  -8    2.00   12.30 
   7   5   8    8.90    7.40 
   6  -6  -8    7.00    7.00 
   6  -6  -8   -1.80    3.90 
  -6   6   8    2.30   11.00 
   5  -6  -8   21.10    7.40 
   5  -6  -8   26.20    5.60 
   5  -6  -8   32.10    6.40 
   5  -6  -8   35.90    5.30 
  -5   6   8   18.00    7.90 
  -5   6   8   34.70    6.80 
   4  -6  -8   27.90    6.00 
   4  -6  -8   27.20    5.70 
   4  -6  -8   25.70    5.60 
   4  -6  -8   16.10    6.90 
  -4   6   8   30.40    6.50 
  -4   6   8   25.40    5.50 
  -4   6   8   22.80    7.40 
   3  -6  -8   77.39   10.50 
   3  -6  -8   68.89    8.90 
   3  -6  -8   62.89    6.90 
   3  -6  -8   59.29    7.90 
  -3   6   8   68.59    9.60 
  -3   6   8   67.49    8.30 
   2  -6  -8  148.79   12.60 
   2  -6  -8  156.28   12.70 
   2  -6  -8  139.09   13.40 
   2  -6  -8  154.88   11.00 
  -2   6   8  146.29   11.80 
  -2   6   8  147.49   14.00 
  -2   6   8  142.59   15.70 
   1  -6  -8   33.10    5.80 
   1  -6  -8   27.30    6.50 
   1  -6  -8   25.90    4.50 
   1  -6  -8   29.50    5.80 
  -1   6   8   30.60    5.10 
  -1   6   8   22.30    5.40 
  -1   6   8   22.60    6.10 
   0  -6  -8  768.62   42.10 
   0  -6  -8  670.43   43.00 
   0  -6  -8  621.14   43.40 
   0  -6  -8  733.83   43.20 
   0   6   8  740.53   43.70 
   0   6   8  727.13   42.50 
   0   6   8  681.13   42.50 
   0   6   8  730.43   46.20 
  -1  -6  -8  602.44   35.30 
  -1  -6  -8  621.44   34.50 
  -1  -6  -8  556.84   35.70 
  -1  -6  -8  559.44   35.90 
  -1  -6  -8  527.55   35.00 
   1   6   8  584.84   34.60 
   1   6   8  576.84   35.50 
   1   6   8  485.65   34.90 
   1   6   8  544.15   34.40 
  -2  -6  -8 1615.94   89.99 
  -2  -6  -8 1540.45   90.49 
  -2  -6  -8 1583.14   90.59 
  -2  -6  -8 1443.96   90.79 
   2   6   8 1554.24   90.59 
   2   6   8 1542.15   89.79 
   2   6   8 1604.04   90.79 
  -3  -6  -8   34.70    6.80 
  -3  -6  -8   32.40    6.80 
  -3  -6  -8   31.50    6.30 
  -3  -6  -8   36.30    7.10 
   3   6   8   41.70    7.20 
   3   6   8   31.00    5.90 
   3   6   8   23.20    5.90 
  -4  -6  -8   98.79   11.70 
  -4  -6  -8  113.79   13.00 
  -4  -6  -8  100.89   11.50 
  -4  -6  -8  111.59   12.50 
   4   6   8  105.89   11.50 
   4   6   8  121.19   11.10 
   4   6   8  120.09   11.90 
  -5  -6  -8   35.60    7.80 
  -5  -6  -8   35.90    8.80 
  -5  -6  -8   33.00    7.40 
  -5  -6  -8   34.60    7.40 
   5   6   8   32.00    7.10 
   5   6   8   33.20    7.20 
   5   6   8   38.20    6.60 
  -6  -6  -8   11.20    7.20 
  -6  -6  -8    6.60    6.40 
  -6  -6  -8    5.10    7.60 
   6   6   8   -3.50    5.30 
  -7  -6  -8   22.00   10.20 
  -7  -6  -8   18.50    8.80 
   7   6   8   22.50    8.10 
   7   6   8   27.70    8.10 
   6  -7  -8    2.10    5.70 
   6  -7  -8   -5.10    4.50 
  -6   7   8   12.80    8.10 
   5  -7  -8   67.69    8.90 
   5  -7  -8   47.60    6.50 
  -5   7   8   37.10    9.60 
  -5   7   8   52.59   10.50 
   4  -7  -8   49.90    6.10 
   4  -7  -8   45.90    7.20 
   4  -7  -8   34.20    6.80 
   4  -7  -8   24.70    8.00 
  -4   7   8   51.99   10.20 
  -4   7   8   44.00    6.90 
  -4   7   8   61.09    8.90 
   3  -7  -8   41.10    5.50 
   3  -7  -8   38.40    7.00 
   3  -7  -8   40.60    7.30 
   3  -7  -8   24.30    7.20 
  -3   7   8   37.90    8.60 
  -3   7   8   34.30    7.10 
  -3   7   8   31.90    5.80 
   2  -7  -8    0.80    3.70 
   2  -7  -8   10.60    4.90 
   2  -7  -8    6.50    5.60 
   2  -7  -8    3.40    3.40 
  -2   7   8   -1.10    5.30 
  -2   7   8    5.20    4.50 
  -2   7   8    7.30    4.20 
   1  -7  -8    3.80    4.50 
   1  -7  -8    5.50    4.40 
   1  -7  -8    4.40    3.60 
   1  -7  -8   10.40    5.60 
  -1   7   8    2.70    5.10 
  -1   7   8    7.20    3.90 
  -1   7   8    2.40    4.20 
   0  -7  -8   45.70    6.20 
   0  -7  -8   39.40    7.90 
   0  -7  -8   57.99    7.70 
   0  -7  -8   44.70    7.50 
   0   7   8   45.40    6.40 
   0   7   8   54.49    8.30 
   0   7   8   40.20    6.10 
   0   7   8   53.29    8.30 
  -1  -7  -8   86.59   10.00 
  -1  -7  -8   75.09   10.00 
  -1  -7  -8   94.39    9.20 
  -1  -7  -8   66.59    8.80 
  -1  -7  -8   83.99   10.30 
   1   7   8   90.29   10.30 
   1   7   8   72.19    8.60 
   1   7   8   82.89   10.30 
  -2  -7  -8  397.96   26.50 
  -2  -7  -8  445.86   26.60 
  -2  -7  -8  383.16   26.60 
  -2  -7  -8  360.26   28.30 
   2   7   8  420.26   27.00 
   2   7   8  394.26   25.80 
   2   7   8  388.06   26.80 
  -3  -7  -8   45.50    7.50 
  -3  -7  -8   30.00    6.00 
  -3  -7  -8   34.80    7.50 
  -3  -7  -8   30.60    6.80 
   3   7   8   39.90    7.40 
   3   7   8   46.50    7.00 
   3   7   8   41.10    7.40 
  -4  -7  -8   17.30    6.20 
  -4  -7  -8   17.40    6.00 
  -4  -7  -8    7.10    6.80 
  -4  -7  -8   17.00    6.50 
   4   7   8   23.60    5.70 
   4   7   8   23.30    6.20 
   4   7   8   27.10    8.20 
  -5  -7  -8  136.99   15.50 
  -5  -7  -8  116.19   12.60 
  -5  -7  -8  124.09   14.20 
  -5  -7  -8   93.59   12.30 
   5   7   8   98.79   12.40 
   5   7   8  115.99   11.70 
   5   7   8  127.19   12.90 
  -6  -7  -8   -9.00    6.70 
  -6  -7  -8   -6.50    6.10 
   6   7   8   -0.90    5.50 
   5  -8  -8   37.30    6.20 
   5  -8  -8   34.30    7.20 
  -5   8   8   30.70   10.20 
   4  -8  -8    2.40    4.30 
   4  -8  -8    4.40    6.10 
   4  -8  -8    4.20    4.00 
   4  -8  -8    7.80    6.60 
  -4   8   8    3.30    5.30 
  -4   8   8    8.30    7.60 
  -4   8   8   16.50    5.80 
   3  -8  -8  148.19   11.20 
   3  -8  -8  129.59   12.90 
   3  -8  -8  113.39   21.10 
   3  -8  -8  136.89   13.20 
  -3   8   8  143.59   12.70 
  -3   8   8  112.79   13.70 
   2  -8  -8  194.08   18.80 
   2  -8  -8  237.38   17.90 
   2  -8  -8  238.98   17.90 
  -2   8   8  242.58   19.00 
  -2   8   8  213.98   16.50 
  -2   8   8  231.68   19.20 
   1  -8  -8   28.80    6.50 
   1  -8  -8   27.50    6.30 
   1  -8  -8   20.10    4.90 
   1  -8  -8   19.10    6.10 
  -1   8   8   11.90    6.70 
  -1   8   8   21.90    6.40 
  -1   8   8   23.50    5.30 
   0  -8  -8  420.56   26.20 
   0  -8  -8  384.06   26.00 
   0  -8  -8  338.97   26.40 
   0  -8  -8  404.06   24.80 
   0   8   8  357.56   26.50 
   0   8   8  403.86   27.30 
   0   8   8  359.96   24.70 
  -1  -8  -8   17.20    7.30 
  -1  -8  -8   28.10    6.00 
  -1  -8  -8   25.80    6.50 
  -1  -8  -8   29.10    6.00 
   1   8   8   33.00    7.40 
   1   8   8   17.10    5.40 
  -2  -8  -8   94.89   11.20 
  -2  -8  -8   89.19   10.90 
  -2  -8  -8   94.39   11.10 
  -2  -8  -8   99.59   12.30 
   2   8   8   94.89    9.60 
   2   8   8   96.69   11.50 
   2   8   8   91.79   11.10 
  -3  -8  -8    1.70    5.40 
  -3  -8  -8    6.50    4.90 
  -3  -8  -8   14.30    5.40 
  -3  -8  -8    8.10    6.00 
   3   8   8    1.70    4.70 
   3   8   8   11.60    5.60 
   3   8   8    0.70    3.80 
  -4  -8  -8   82.59   11.50 
  -4  -8  -8   76.59   10.70 
  -4  -8  -8   72.29   10.60 
  -4  -8  -8   61.89    9.70 
   4   8   8   79.69   10.10 
   4   8   8   80.09    9.20 
   4   8   8   80.69   10.90 
  -5  -8  -8   23.70    8.30 
  -5  -8  -8   46.20   10.30 
  -5  -8  -8   46.50    8.90 
   5   8   8   41.70    8.10 
  -6  -8  -8    3.00    8.60 
  -6  -8  -8    5.00    6.90 
   6   8   8   15.20   10.10 
   5  -9  -8    1.70    5.40 
   5  -9  -8    1.00    4.30 
  -5   9   8    1.80    8.60 
   4  -9  -8    3.60    4.30 
   4  -9  -8    2.20    5.10 
  -4   9   8    2.30    5.80 
  -4   9   8   -0.50    7.20 
   3  -9  -8   76.99   10.20 
   3  -9  -8  103.99    9.70 
   3  -9  -8   70.89   12.10 
   3  -9  -8  110.29   11.50 
  -3   9   8   59.89   11.40 
  -3   9   8   73.59   10.80 
  -3   9   8   83.39   12.60 
   2  -9  -8    6.90    5.30 
   2  -9  -8   10.30    7.30 
   2  -9  -8    6.80    5.40 
   2  -9  -8    5.40    4.20 
  -2   9   8    9.10    7.20 
  -2   9   8    2.70    6.10 
  -2   9   8    8.30    4.80 
   1  -9  -8   77.99    8.70 
   1  -9  -8   70.79   10.00 
   1  -9  -8   89.79   10.90 
   1  -9  -8   49.70   12.30 
  -1   9   8   90.09   11.90 
  -1   9   8   73.19   11.00 
   0  -9  -8    3.60    6.20 
   0  -9  -8    2.80    6.40 
   0  -9  -8    8.40    5.00 
   0  -9  -8   13.10    5.50 
   0   9   8    2.60    5.10 
   0   9   8   11.20    6.60 
  -1  -9  -8   23.80    6.90 
  -1  -9  -8   21.40    6.70 
  -1  -9  -8   33.70    6.90 
   1   9   8   20.00    6.80 
   1   9   8   18.80    7.10 
   1   9   8   34.80    5.80 
  -2  -9  -8  123.79   15.30 
  -2  -9  -8  133.79   13.60 
  -2  -9  -8  133.99   13.50 
  -2  -9  -8  144.39   13.70 
   2   9   8  139.89   12.20 
   2   9   8  114.89   13.70 
   2   9   8  122.39   13.80 
  -3  -9  -8    5.70    6.30 
  -3  -9  -8    1.40    4.60 
  -3  -9  -8    7.70    5.70 
  -3  -9  -8   -7.70    5.90 
   3   9   8   -2.10    7.10 
   3   9   8    5.90    5.50 
   3   9   8    3.50    4.30 
  -4  -9  -8  117.39   14.70 
  -4  -9  -8   90.89   12.80 
  -4  -9  -8  121.19   13.70 
  -4  -9  -8  106.29   15.60 
   4   9   8  103.39   12.20 
   4   9   8  117.39   14.30 
   4   9   8  114.69   12.90 
  -5  -9  -8  116.99   15.20 
  -5  -9  -8  137.19   15.50 
   5   9   8  129.79   14.60 
  -6  -9  -8   16.50   10.00 
  -6  -9  -8    5.00    7.90 
   6   9   8    6.90    6.10 
   4 -10  -8   44.70    7.40 
   4 -10  -8   44.00    8.80 
  -4  10   8   49.40   12.20 
   3 -10  -8   38.10    6.70 
   3 -10  -8   54.69    9.20 
  -3  10   8   47.50   11.20 
  -3  10   8   25.40    9.00 
   2 -10  -8   -0.20    4.40 
   2 -10  -8   -4.10    4.80 
   2 -10  -8    7.20    7.40 
  -2  10   8   -1.90    7.10 
  -2  10   8   13.80    7.40 
   1 -10  -8  131.39   12.00 
   1 -10  -8  118.39   13.20 
   1 -10  -8  123.59   13.60 
  -1  10   8  114.99   14.60 
  -1  10   8  134.19   15.80 
   0 -10  -8  237.28   19.30 
   0 -10  -8  245.48   19.50 
   0 -10  -8  257.47   18.30 
   0  10   8  240.98   20.50 
   0  10   8  216.78   20.90 
  -1 -10  -8   12.70    7.60 
  -1 -10  -8   17.70    6.60 
  -1 -10  -8   13.10    6.40 
   1  10   8    5.50    6.70 
   1  10   8   16.20    5.00 
   1  10   8   13.90    6.70 
  -2 -10  -8  138.39   14.00 
  -2 -10  -8  113.39   14.50 
  -2 -10  -8  136.89   14.00 
   2  10   8  131.79   12.40 
   2  10   8  129.19   14.80 
   2  10   8  142.09   14.40 
  -3 -10  -8    4.30    7.40 
  -3 -10  -8    9.80    5.50 
  -3 -10  -8   -7.80    5.70 
  -3 -10  -8    4.20    5.80 
   3  10   8   -0.20    6.60 
   3  10   8    1.90    5.70 
  -4 -10  -8   42.10    8.80 
  -4 -10  -8   68.39   11.20 
   4  10   8   51.69    9.60 
  -5 -10  -8    8.80    7.10 
  -5 -10  -8    2.70    8.30 
   3 -11  -8   14.20    6.20 
   3 -11  -8   15.30    5.40 
  -3  11   8    8.60    9.70 
  -3  11   8   -0.40    8.70 
   2 -11  -8    3.90    5.70 
   2 -11  -8    1.10    5.00 
   2 -11  -8   -2.40    5.20 
  -2  11   8   10.20    8.40 
  -2  11   8    1.40    7.30 
   1 -11  -8    8.30    5.70 
   1 -11  -8    8.80    5.40 
   1 -11  -8   11.40    6.30 
  -1  11   8   13.10    8.50 
  -1  11   8    5.00    6.30 
   0 -11  -8   -3.50    4.90 
   0 -11  -8    0.10    5.40 
   0 -11  -8    0.50    5.70 
   0  11   8   -2.10    6.70 
   0  11   8   -2.20    5.90 
  -1 -11  -8    7.80    6.20 
  -1 -11  -8    7.80    6.10 
  -1 -11  -8    5.40    6.00 
   1  11   8   -0.50    8.50 
   1  11   8    0.30    6.70 
  -2 -11  -8   20.00    7.40 
  -2 -11  -8    6.70    6.90 
  -2 -11  -8    8.50    6.80 
   2  11   8   20.80    7.30 
   2  11   8   26.30    8.30 
  -3 -11  -8   38.90    9.30 
  -3 -11  -8   32.30    8.00 
  -3 -11  -8    5.20    6.40 
   3  11   8   25.00    7.40 
  -4 -11  -8   23.80    9.00 
  -4 -11  -8   30.70    8.40 
   4  11   8   22.90    7.70 
   2 -12  -8   38.00    8.60 
   2 -12  -8   33.00    7.10 
  -2  12   8   26.20    8.80 
  -2  12   8   16.90    9.80 
   1 -12  -8   28.50    8.10 
   1 -12  -8   26.20    8.20 
   1 -12  -8   36.40    7.40 
  -1  12   8   23.60    9.90 
  -1  12   8   23.10   10.40 
   0 -12  -8   18.70    7.70 
   0 -12  -8   34.20   10.80 
   0 -12  -8   29.30    8.00 
   0  12   8   23.50    8.00 
   0  12   8   43.50   10.30 
  -1 -12  -8   87.99   12.50 
  -1 -12  -8   95.19   15.10 
   1  12   8  101.99   14.80 
   1  12   8  108.19   20.90 
  -2 -12  -8    2.30    6.70 
  -2 -12  -8   -9.90    5.40 
  -2 -12  -8   -0.10    6.70 
   2  12   8   -2.60    6.90 
  -3 -12  -8   21.80    8.40 
  -3 -12  -8   10.70    7.30 
   3  12   8    5.30    6.80 
   2   9  -9  -12.10    8.40 
  -2  -9   9    2.80    5.20 
   1   9  -9   13.30   10.20 
  -1  -9   9    3.60    5.70 
   0   9  -9   21.00   15.90 
   0  -9   9    4.30    6.60 
  -1   9  -9   22.70   12.70 
   3   8  -9    8.50    8.40 
  -3  -8   9   33.60    6.60 
   2   8  -9   25.20   16.20 
   1   8  -9   10.30    9.80 
  -1  -8   9   18.80    6.60 
   0   8  -9   21.70   11.10 
   0  -8   9   12.70    6.40 
  -1   8  -9    2.50   11.70 
   1  -8   9    2.20    6.20 
   1  -8   9    3.30    3.00 
  -2   8  -9    2.60   10.90 
   2  -8   9    1.20    3.10 
   2  -8   9   -4.70    5.90 
   2  -8   9   -3.70    4.50 
  -3   8  -9  -14.80    9.90 
   3  -8   9   -1.70    7.10 
   3  -8   9   -3.40    4.60 
   3  -8   9    8.00    3.60 
   4   7  -9   -5.40    3.10 
   4   7  -9   -2.80    6.20 
  -4  -7   9    2.20    4.50 
  -4  -7   9   -3.70    6.20 
   3   7  -9   96.59   10.50 
   3   7  -9   78.89   12.00 
  -3  -7   9   86.39   10.40 
   2   7  -9   17.90    8.50 
   2   7  -9   17.00    5.20 
  -2  -7   9    9.80    5.60 
  -2  -7   9   24.50    7.20 
   1   7  -9   59.49   11.40 
  -1  -7   9   44.80    8.30 
  -1  -7   9   48.60    6.30 
   0   7  -9   -7.30    9.00 
   0   7  -9    2.30   11.10 
   0  -7   9    3.10    5.60 
   0  -7   9    3.70    3.90 
   0  -7   9   18.70    7.60 
  -1   7  -9   27.00   12.30 
  -1   7  -9   50.89   11.30 
   1  -7   9   51.89    5.10 
   1  -7   9   42.20    6.10 
   1  -7   9   55.29    9.20 
   1  -7   9   33.90    5.20 
  -2   7  -9   56.69   12.30 
  -2   7  -9   41.10   15.70 
   2  -7   9   72.39   10.30 
   2  -7   9   79.39   10.10 
  -3   7  -9   -4.60   13.00 
  -3   7  -9   14.20   11.30 
   3  -7   9    6.40    6.80 
   3  -7   9   10.10    6.10 
  -4   7  -9   -7.10   11.00 
  -4   7  -9   -1.50   20.30 
   4  -7   9    2.70    3.70 
   4  -7   9   11.30    7.00 
   4  -7   9    2.90    5.90 
  -5  -6   9    2.50    4.20 
  -5  -6   9   12.70    6.20 
   4   6  -9  132.09   14.40 
   4   6  -9  149.29   10.20 
   4   6  -9  152.38   11.70 
  -4  -6   9  161.78   15.50 
  -4  -6   9  170.08   13.10 
   3   6  -9    4.90    6.60 
   3   6  -9    5.40    4.20 
  -3  -6   9   12.90    4.30 
  -3  -6   9   14.90    6.90 
  -3  -6   9    8.30    5.00 
   2   6  -9   91.69   11.90 
   2   6  -9   76.19    9.40 
  -2  -6   9   92.79   10.60 
  -2  -6   9   80.59   11.30 
  -2  -6   9   79.19    7.60 
   1   6  -9  101.09   12.60 
   1   6  -9   52.19   11.40 
   1   6  -9  101.29   10.20 
  -1  -6   9   98.39   11.60 
  -1  -6   9  100.49    8.80 
  -1  -6   9   74.29   11.40 
   0   6  -9   15.90    8.80 
   0   6  -9    8.50    9.80 
   0  -6   9   16.10    6.10 
   0  -6   9   22.70    7.80 
   0  -6   9   14.00    4.30 
  -1   6  -9   10.10   10.80 
  -1   6  -9    9.20    8.80 
   1  -6   9   -1.70    9.10 
   1  -6   9    1.70    2.80 
   1  -6   9    6.40    2.30 
   1  -6   9    4.40    6.30 
   1  -6   9    4.60    4.40 
  -2   6  -9   39.20   13.80 
  -2   6  -9   29.30   11.40 
   2  -6   9   39.30    4.70 
   2  -6   9   39.60    8.30 
   2  -6   9   30.60    5.30 
   2  -6   9   43.60    7.90 
  -3   6  -9   -1.80   10.10 
  -3   6  -9   20.50   13.70 
   3  -6   9   10.00    3.40 
   3  -6   9   14.00    7.30 
   3  -6   9    8.20    5.30 
  -4   6  -9    4.70   10.10 
  -4   6  -9   -7.60   14.60 
   4  -6   9    8.30    6.80 
   4  -6   9    6.50    5.60 
   4  -6   9   14.20    3.80 
   5   5  -9   -0.20    3.40 
  -5  -5   9   -4.20    4.00 
  -5  -5   9    2.80    5.00 
   4   5  -9   49.00    4.90 
   4   5  -9   51.19    6.40 
   4   5  -9   40.90    7.80 
  -4  -5   9   63.59    8.80 
  -4  -5   9   54.09    7.10 
   3   5  -9   62.19    9.10 
   3   5  -9   63.69    7.70 
  -3  -5   9   74.19    9.20 
  -3  -5   9   64.39    9.20 
  -3  -5   9   67.29    6.30 
   2   5  -9   86.49   11.00 
   2   5  -9   86.99    8.90 
  -2  -5   9   75.79    7.40 
  -2  -5   9   59.69    9.60 
  -2  -5   9   84.79   10.00 
   1   5  -9    5.40    7.10 
   1   5  -9   -7.00    7.10 
   1   5  -9   16.00    4.90 
  -1  -5   9    4.20    3.20 
  -1  -5   9    7.60    5.70 
  -1  -5   9   10.30    5.20 
   0   5  -9    2.10    8.90 
   0   5  -9    5.00    4.00 
   0  -5   9    2.80    5.40 
   0  -5   9    7.60    3.80 
   0  -5   9   12.50    6.50 
  -1   5  -9   37.40   12.60 
  -1   5  -9   36.40    6.70 
  -1   5  -9   59.79   10.70 
   1  -5   9   46.30    8.30 
   1  -5   9   35.10    8.70 
   1  -5   9   42.10    6.40 
  -2   5  -9   -0.70    8.50 
  -2   5  -9    4.20   11.60 
  -2   5  -9    1.20    4.40 
   2  -5   9   -0.10    4.40 
   2  -5   9   -2.80    2.00 
   2  -5   9   -0.50    5.40 
   2  -5   9   -8.60    6.10 
   2  -5   9   -0.50    3.00 
  -3   5  -9   26.20   10.20 
  -3   5  -9   37.30   14.30 
  -3   5  -9   27.90    7.50 
   3  -5   9   49.40    6.30 
   3  -5   9   35.70    8.60 
   3  -5   9   43.30    8.30 
   3  -5   9   44.80    5.10 
  -4   5  -9    3.50   13.70 
  -4   5  -9    1.60    9.70 
   4  -5   9   -3.60    5.80 
   4  -5   9   -1.10    3.10 
   4  -5   9    6.20    5.60 
  -5   5  -9   11.10   10.30 
  -5   5  -9  -12.10   14.50 
   5  -5   9    6.20    9.30 
   5  -5   9   12.10    6.40 
   5  -5   9   11.20    4.40 
   6   4  -9   77.99    7.90 
  -6  -4   9   95.89   10.00 
  -6  -4   9   54.99    7.80 
   5   4  -9    4.30    3.30 
  -5  -4   9   -2.70    4.20 
  -5  -4   9    0.40    3.90 
   4   4  -9  135.79    9.30 
   4   4  -9  145.89   12.80 
   4   4  -9  146.99   10.90 
   4   4  -9  143.99    9.30 
  -4  -4   9  140.59   12.90 
  -4  -4   9  144.39   12.10 
   3   4  -9    2.40    5.70 
   3   4  -9    8.00    3.60 
  -3  -4   9    7.60    4.80 
  -3  -4   9   15.10    3.00 
  -3  -4   9   12.20    5.50 
   2   4  -9  288.97   22.60 
   2   4  -9  417.06   24.80 
   2   4  -9  330.87   22.50 
  -2  -4   9  333.27   21.60 
  -2  -4   9  325.17   24.20 
  -2  -4   9  402.26   23.60 
   1   4  -9   27.30    7.50 
   1   4  -9   15.80    8.00 
   1   4  -9   20.10    4.70 
  -1  -4   9   28.00    6.00 
  -1  -4   9   21.20    4.20 
  -1  -4   9   20.50    5.60 
   0   4  -9  258.17   24.30 
   0   4  -9  313.97   22.10 
   0   4  -9  264.17   19.40 
   0  -4   9  277.27   19.00 
   0  -4   9  279.87   20.60 
  -1   4  -9  164.18   15.90 
  -1   4  -9  127.19   12.40 
  -1   4  -9  116.09   19.50 
   1  -4   9  140.29   13.60 
   1  -4   9  111.99   14.80 
   1  -4   9  152.88   12.40 
  -2   4  -9    0.30    4.00 
  -2   4  -9    2.70    7.30 
  -2   4  -9    7.30   10.00 
   2  -4   9    2.50    2.80 
   2  -4   9   -1.40    1.80 
   2  -4   9   -2.10    4.70 
   2  -4   9   -7.10    4.60 
   2  -4   9    0.70    4.30 
  -3   4  -9    9.80   11.50 
  -3   4  -9    6.00    8.80 
  -3   4  -9    3.90    6.20 
   3  -4   9    1.90    5.10 
   3  -4   9   10.50    4.30 
   3  -4   9    4.40    6.10 
  -4   4  -9   27.20   13.60 
  -4   4  -9   71.09   14.80 
   4  -4   9   46.20    5.40 
   4  -4   9   41.40    8.20 
   4  -4   9   56.09    9.90 
  -5   4  -9    9.10   13.40 
  -5   4  -9   -2.60   10.40 
   5  -4   9    6.90    6.70 
   5  -4   9    0.00    5.70 
   5  -4   9    1.20    3.70 
  -6   4  -9   -2.40   15.00 
   6  -4   9   -1.60    4.30 
   6  -4   9    5.60    6.00 
   6   3  -9   67.49    7.20 
  -6  -3   9   54.19    6.30 
  -6  -3   9   61.09    6.80 
   5   3  -9    7.40    3.20 
  -5  -3   9    8.50    4.00 
  -5  -3   9   11.40    4.10 
   4   3  -9  153.68    9.50 
   4   3  -9  154.88   11.10 
   4   3  -9  151.38   12.60 
   4   3  -9  131.19    9.50 
  -4  -3   9  139.29   11.70 
  -4  -3   9  150.58   12.50 
   3   3  -9    7.80    3.30 
   3   3  -9    9.20    5.30 
  -3  -3   9    6.90    3.90 
  -3  -3   9    5.60    4.70 
   2   3  -9  109.29   10.00 
   2   3  -9  132.19   12.50 
  -2  -3   9  119.19    9.50 
  -2  -3   9  122.89   11.00 
  -2  -3   9  121.09   11.80 
   1   3  -9   59.89    7.60 
   1   3  -9   49.20   10.00 
   1   3  -9   82.29    9.80 
  -1  -3   9   60.99    7.10 
  -1  -3   9   72.89    8.70 
  -1  -3   9   96.99    9.70 
   0   3  -9  106.99   14.00 
   0   3  -9  144.29   13.80 
   0   3  -9  111.49   10.90 
   0  -3   9  142.19   10.90 
   0  -3   9  128.49   12.30 
   0  -3   9  114.39   12.90 
  -1   3  -9   70.19   12.70 
  -1   3  -9   96.19   11.00 
  -1   3  -9   71.29    8.70 
   1  -3   9   76.69   10.40 
   1  -3   9   73.39    9.10 
   1  -3   9   80.19    9.60 
  -2   3  -9   -3.00    8.40 
  -2   3  -9    2.70    6.70 
  -2   3  -9    1.40    4.10 
   2  -3   9    0.80    4.90 
   2  -3   9    1.60    2.60 
   2  -3   9   -2.20    5.00 
   2  -3   9    0.10    1.70 
   2  -3   9    3.00    4.50 
  -3   3  -9   25.90   11.30 
  -3   3  -9   26.40    6.00 
  -3   3  -9   49.40   10.20 
   3  -3   9   26.60    6.00 
   3  -3   9   31.70    7.50 
   3  -3   9   35.30    4.00 
  -4   3  -9   30.70   12.40 
  -4   3  -9   24.20    9.60 
   4  -3   9   28.40    7.30 
   4  -3   9   28.70    4.60 
   4  -3   9   28.80   14.50 
  -5   3  -9    7.70   12.50 
  -5   3  -9   15.70   12.30 
   5  -3   9   -0.30    5.90 
   5  -3   9    9.60    6.70 
   5  -3   9   -3.00    3.70 
  -6   3  -9  -13.40   12.30 
  -6   3  -9   -4.10   11.80 
   6  -3   9    2.60    6.30 
   6  -3   9    4.50    4.70 
   6   2  -9   64.79    7.70 
  -6  -2   9   69.19    6.90 
  -6  -2   9   64.09    7.50 
   5   2  -9   86.59    7.90 
   5   2  -9   84.49    7.30 
   5   2  -9   83.79    8.00 
  -5  -2   9   95.99    8.40 
  -5  -2   9   89.09    8.50 
   4   2  -9  200.28   13.60 
   4   2  -9  228.38   14.80 
   4   2  -9  216.58   15.60 
   4   2  -9  212.38   13.20 
  -4  -2   9  217.38   15.10 
  -4  -2   9  221.98   15.30 
   3   2  -9   36.40    5.30 
   3   2  -9   48.20    8.10 
  -3  -2   9   38.10    6.00 
  -3  -2   9   34.30    4.40 
  -3  -2   9   38.80    6.60 
   2   2  -9   14.30    5.30 
   2   2  -9   11.70    5.40 
   2   2  -9   10.90    3.80 
  -2  -2   9   19.10    3.60 
  -2  -2   9   12.40    4.60 
  -2  -2   9   11.80    4.20 
   1   2  -9  154.08   13.00 
   1   2  -9  137.09   11.40 
  -1  -2   9  140.39   11.10 
  -1  -2   9  153.98   12.30 
  -1  -2   9  134.29   12.10 
   0   2  -9  289.57   20.50 
   0   2  -9  305.67   23.50 
   0   2  -9  324.37   22.00 
   0  -2   9  286.37   21.50 
   0  -2   9  332.37   21.60 
   0  -2   9  315.77   20.60 
  -1   2  -9   62.99    7.70 
  -1   2  -9   75.09    9.60 
  -1   2  -9   57.39   10.50 
   1  -2   9   51.69    8.30 
   1  -2   9   45.70    7.30 
   1  -2   9   52.89    7.90 
  -2   2  -9  292.67   21.10 
  -2   2  -9  246.08   22.80 
  -2   2  -9  252.47   18.80 
   2  -2   9  284.87   19.50 
   2  -2   9  258.47   16.40 
   2  -2   9  264.27   15.80 
   2  -2   9  270.67   20.00 
  -3   2  -9  108.59   14.80 
  -3   2  -9  112.99   14.20 
  -3   2  -9  103.49   10.90 
   3  -2   9   92.39    9.00 
   3  -2   9  118.59   13.30 
   3  -2   9  124.49   12.40 
   3  -2   9  109.79    8.40 
   3  -2   9  109.99   12.70 
  -4   2  -9   -0.70    9.80 
   4  -2   9    4.70    3.40 
   4  -2   9    1.90    5.20 
   4  -2   9    3.70    5.80 
   4  -2   9    7.70    5.60 
  -5   2  -9   16.80    9.20 
  -5   2  -9   14.40   11.70 
   5  -2   9    8.40    6.90 
   5  -2   9   18.80    5.10 
   5  -2   9   10.10    6.90 
   5  -2   9   23.70    9.00 
  -6   2  -9  -18.20    9.30 
  -6   2  -9  -19.40   11.20 
   6  -2   9   -0.80    6.30 
   6  -2   9   18.00    5.60 
   7   1  -9    6.90    4.40 
   6   1  -9   17.90    4.20 
  -6  -1   9   16.40    3.80 
  -6  -1   9   17.00    4.40 
   5   1  -9  213.68   14.90 
   5   1  -9  203.78   14.40 
   5   1  -9  198.78   14.00 
   5   1  -9  206.58   13.60 
  -5  -1   9  211.88   14.70 
  -5  -1   9  218.78   14.40 
   4   1  -9   47.60    6.10 
   4   1  -9   51.79    5.80 
   4   1  -9   54.09    6.70 
   4   1  -9   51.99    4.90 
  -4  -1   9   48.00    6.20 
  -4  -1   9   50.59    6.10 
   3   1  -9  245.48   17.50 
   3   1  -9  289.77   18.40 
   3   1  -9  257.57   15.30 
  -3  -1   9  248.38   17.70 
  -3  -1   9  283.67   17.90 
  -3  -1   9  264.37   16.80 
   2   1  -9  432.06   25.10 
   2   1  -9  395.96   24.40 
   2   1  -9  324.17   24.50 
  -2  -1   9  397.46   24.60 
  -2  -1   9  373.56   23.70 
  -2  -1   9  370.56   24.50 
   1   1  -9   84.49    9.30 
   1   1  -9   70.09    9.40 
   1   1  -9   77.09    7.90 
  -1  -1   9   66.89    7.40 
  -1  -1   9   77.29    8.70 
  -1  -1   9   89.19    8.80 
   0   1  -9  174.08   16.50 
   0   1  -9  181.58   13.80 
   0   1  -9  195.68   15.10 
   0  -1   9  194.18   14.70 
   0  -1   9  191.38   13.90 
   0  -1   9  182.58   14.80 
  -1   1  -9   82.49   10.00 
  -1   1  -9   56.49    7.50 
  -1   1  -9   68.89   10.40 
   1  -1   9   71.59    9.00 
   1  -1   9   73.49    8.60 
   1  -1   9   57.19    8.10 
  -2   1  -9    2.10    3.10 
  -2   1  -9   -4.60    4.80 
  -2   1  -9   -3.70    6.80 
   2  -1   9    4.20    2.40 
   2  -1   9   -1.20    1.90 
   2  -1   9    4.70    4.40 
   2  -1   9    2.40    5.30 
   2  -1   9    2.80    4.70 
   2  -1   9   -0.20    4.10 
  -3   1  -9   77.09    9.10 
  -3   1  -9   83.79   12.70 
   3  -1   9   59.89    9.10 
   3  -1   9   81.69   10.50 
   3  -1   9   91.99    7.10 
   3  -1   9   57.19    8.10 
   3  -1   9   83.19    7.50 
  -4   1  -9   57.59   11.90 
  -4   1  -9   48.70   10.00 
   4  -1   9   47.30    6.20 
   4  -1   9   60.19    9.70 
   4  -1   9   55.29    9.20 
   4  -1   9   47.90   10.70 
  -5   1  -9  109.79   15.80 
  -5   1  -9  106.39   14.20 
   5  -1   9  124.49   13.90 
   5  -1   9   92.59   12.00 
   5  -1   9  110.19   10.60 
   5  -1   9   98.69   12.50 
  -6   1  -9   -3.90   11.20 
  -6   1  -9   19.70    9.00 
   6  -1   9    5.40    5.30 
   6  -1   9    0.50    6.10 
   7   0  -9  112.79   10.30 
  -7   0   9  122.59   10.90 
  -7   0   9  109.59    9.40 
   6   0  -9    8.70    3.70 
  -6   0   9    6.60    4.50 
  -6   0   9    6.80    3.70 
   5   0  -9  231.68   14.60 
   5   0  -9  228.68   15.80 
   5   0  -9  229.78   15.60 
  -5   0   9  225.88   15.30 
  -5   0   9  212.08   15.70 
   4   0  -9   64.99    7.50 
   4   0  -9   71.59    6.10 
   4   0  -9   86.19    8.50 
   4   0  -9   80.99    8.10 
  -4   0   9   78.89    8.00 
  -4   0   9   72.19    6.30 
  -4   0   9   73.39    7.50 
   3   0  -9    3.70    3.90 
   3   0  -9    4.60    3.20 
   3   0  -9    0.50    2.60 
   3   0  -9    3.60    1.80 
  -3   0   9    5.90    2.70 
  -3   0   9    0.60    2.90 
  -3   0   9    5.40    3.60 
   2   0  -9  329.07   24.10 
   2   0  -9  374.26   24.00 
   2   0  -9  393.96   24.40 
  -2   0   9  393.56   24.10 
  -2   0   9  365.66   23.80 
  -2   0   9  394.46   24.10 
   1   0  -9   97.09    9.40 
   1   0  -9  105.99   10.20 
   1   0  -9   99.59   11.30 
  -1   0   9  113.19   10.00 
  -1   0   9  109.19    9.90 
  -1   0   9  115.19    9.30 
   0   0  -9  702.13   43.20 
   0   0  -9  754.92   42.60 
   0   0  -9  662.43   41.90 
   0   0   9  735.33   42.50 
   0   0   9  608.34   43.10 
   0   0   9  715.63   42.10 
  -1   0  -9    9.60    5.10 
  -1   0  -9    3.30    2.80 
   1   0   9    8.40    3.90 
   1   0   9    3.30    3.50 
   1   0   9   -0.90    3.60 
   1   0   9    4.40    1.40 
   1   0   9    5.00    4.20 
   1   0   9    5.50    1.70 
  -2   0  -9  163.78   14.60 
  -2   0  -9  160.88   13.00 
   2   0   9  181.78   17.20 
   2   0   9  173.78   10.90 
   2   0   9  153.38   10.80 
   2   0   9  175.88   13.90 
   2   0   9  157.48   13.50 
  -3   0  -9  139.89   12.30 
  -3   0  -9  112.99   11.30 
  -3   0  -9  128.49   13.80 
   3   0   9  101.49   13.30 
   3   0   9  143.29   13.50 
   3   0   9  144.99   12.70 
   3   0   9  146.69   10.10 
  -4   0  -9    9.20    5.30 
  -4   0  -9   11.60    6.80 
  -4   0  -9   28.10    9.20 
   4   0   9   21.50    6.00 
   4   0   9   15.60    6.30 
   4   0   9   23.70    4.70 
   4   0   9   16.70    6.10 
  -5   0  -9  104.79   14.20 
  -5   0  -9   74.59   11.10 
  -5   0  -9   82.69   10.50 
   5   0   9  100.39   11.70 
   5   0   9   61.79    9.60 
   5   0   9   99.79    9.90 
   5   0   9   82.69   10.80 
  -6   0  -9   -9.90    9.50 
  -6   0  -9   -8.00    7.20 
   6   0   9    2.80    6.10 
   6   0   9   -1.60    4.90 
  -7   0  -9   -7.00   10.70 
   7   0   9    3.20    7.20 
   7   0   9    5.30    6.00 
   7  -1  -9    1.00    4.00 
  -7   1   9    4.00    5.00 
  -7   1   9    4.30    3.80 
   6  -1  -9   34.00    5.20 
   6  -1  -9   27.50    5.60 
   6  -1  -9   38.70    5.50 
  -6   1   9   29.40    5.30 
  -6   1   9   32.80    6.40 
   5  -1  -9  248.08   16.30 
   5  -1  -9  225.98   14.90 
   5  -1  -9  210.18   16.50 
  -5   1   9  236.68   15.70 
  -5   1   9  227.28   16.50 
   4  -1  -9  109.29    9.70 
   4  -1  -9  106.49    7.60 
   4  -1  -9   85.89    9.50 
   4  -1  -9   96.19    9.60 
  -4   1   9   93.19    9.70 
  -4   1   9  113.49    8.90 
   3  -1  -9  867.81   53.69 
   3  -1  -9 1038.70   54.69 
   3  -1  -9  895.31   54.49 
   3  -1  -9  912.21   52.49 
  -3   1   9  922.51   53.79 
  -3   1   9  894.91   53.89 
  -3   1   9  901.31   52.99 
  -3   1   9  969.90   54.49 
   2  -1  -9   78.49    8.70 
   2  -1  -9   81.99    8.40 
   2  -1  -9   74.09    5.40 
   2  -1  -9   66.89    6.70 
  -2   1   9   85.29    7.50 
  -2   1   9   79.09    8.20 
  -2   1   9   82.09    7.60 
  -2   1   9   70.69    5.70 
   1  -1  -9   17.30    4.60 
   1  -1  -9   17.70    5.20 
   1  -1  -9   14.80    3.90 
   1  -1  -9   16.00    2.20 
  -1   1   9   20.90    4.80 
  -1   1   9   18.70    2.20 
  -1   1   9   18.30    4.30 
   0  -1  -9  254.07   18.00 
   0  -1  -9  231.88   14.50 
   0  -1  -9  255.17   17.60 
   0  -1  -9  253.77   17.10 
   0   1   9  250.07   18.00 
   0   1   9  259.67   17.50 
   0   1   9  228.98   14.10 
   0   1   9  236.48   16.80 
  -1  -1  -9   -0.40    4.40 
  -1  -1  -9    4.00    4.20 
  -1  -1  -9   -1.90    2.10 
  -1  -1  -9   -3.10    2.00 
   1   1   9    1.80    3.10 
   1   1   9   -0.90    3.10 
   1   1   9    3.80    4.00 
   1   1   9    3.30    1.60 
  -2  -1  -9  111.99   12.50 
  -2  -1  -9  121.99   12.10 
  -2  -1  -9  102.19   10.20 
  -2  -1  -9   97.69    8.90 
  -2  -1  -9  117.89   10.90 
   2   1   9  125.69   11.30 
   2   1   9  119.09   13.10 
   2   1   9  131.99    8.70 
   2   1   9  116.09    8.30 
   2   1   9  126.69   11.20 
   2   1   9  103.99   11.30 
  -3  -1  -9   75.89    8.70 
  -3  -1  -9  130.39   14.50 
  -3  -1  -9   75.39    9.10 
  -3  -1  -9   65.69    9.90 
  -3  -1  -9   66.99    8.50 
   3   1   9  115.09   13.50 
   3   1   9   78.79    9.90 
   3   1   9   71.29    7.30 
   3   1   9   71.79    9.50 
   3   1   9   90.09    7.80 
  -4  -1  -9   -0.60    6.00 
  -4  -1  -9   10.70    4.80 
  -4  -1  -9   12.50    5.30 
  -4  -1  -9   16.50    6.90 
   4   1   9   12.50    5.40 
   4   1   9    6.50    5.50 
   4   1   9    3.20    3.90 
   4   1   9    1.90    5.50 
  -5  -1  -9   29.90    8.90 
   5   1   9   31.30    6.20 
   5   1   9   47.40    8.70 
   5   1   9   36.10    8.20 
   5   1   9   31.00    7.20 
  -6  -1  -9   -0.60    6.80 
  -6  -1  -9    7.50    9.70 
  -6  -1  -9    6.80    7.70 
   6   1   9   -3.90    5.50 
   6   1   9   -2.50    4.70 
  -7  -1  -9    9.90   11.80 
   7   1   9   -1.30    6.10 
   7   1   9    0.00    7.50 
   7  -2  -9   55.79    6.90 
   7  -2  -9   61.79    6.80 
  -7   2   9   60.09    8.90 
  -7   2   9   52.69    7.00 
   6  -2  -9   26.40    5.20 
   6  -2  -9    6.20    5.50 
   6  -2  -9   23.00    4.90 
  -6   2   9   28.30    8.20 
  -6   2   9   29.00    6.40 
   5  -2  -9  379.56   21.90 
   5  -2  -9  320.37   23.50 
   5  -2  -9  357.16   23.00 
  -5   2   9  349.37   23.70 
  -5   2   9  354.66   22.60 
   4  -2  -9   23.10    3.60 
   4  -2  -9   13.60    5.00 
   4  -2  -9   19.90    5.60 
   4  -2  -9   28.90    5.30 
  -4   2   9   14.80    4.90 
  -4   2   9   15.50    3.90 
  -4   2   9   17.40    4.10 
  -4   2   9   17.10    3.80 
   3  -2  -9  133.89   11.00 
   3  -2  -9  112.09   11.10 
   3  -2  -9  133.29    8.70 
  -3   2   9  138.99   10.20 
  -3   2   9  124.49   10.10 
  -3   2   9  120.39   11.10 
  -3   2   9  124.69    9.30 
   2  -2  -9  145.69   12.00 
   2  -2  -9  150.58   12.10 
   2  -2  -9  153.28   11.90 
   2  -2  -9  140.89    9.50 
  -2   2   9  147.69   11.20 
  -2   2   9  151.48   11.90 
  -2   2   9  144.99    9.80 
   1  -2  -9  127.59   11.20 
   1  -2  -9  127.89   11.00 
   1  -2  -9  133.29    8.60 
   1  -2  -9  132.89   11.70 
  -1   2   9  130.29   10.60 
  -1   2   9  146.69   11.50 
  -1   2   9  142.69   10.50 
  -1   2   9  117.09    8.40 
   0  -2  -9  385.06   25.90 
   0  -2  -9  403.76   25.40 
   0  -2  -9  376.66   25.30 
   0  -2  -9  419.46   23.30 
   0   2   9  358.86   22.60 
   0   2   9  397.46   25.20 
   0   2   9  420.36   25.70 
   0   2   9  386.16   25.00 
  -1  -2  -9  242.58   17.80 
  -1  -2  -9  260.17   18.70 
  -1  -2  -9  289.37   22.60 
  -1  -2  -9  229.48   17.20 
  -1  -2  -9  238.18   15.50 
   1   2   9  237.48   17.10 
   1   2   9  232.38   14.80 
   1   2   9  268.67   18.20 
   1   2   9  252.77   17.40 
   1   2   9  245.78   17.10 
  -2  -2  -9  618.94   37.70 
  -2  -2  -9  647.84   39.30 
  -2  -2  -9  679.93   39.90 
  -2  -2  -9  644.94   39.40 
  -2  -2  -9  566.24   39.70 
   2   2   9  681.93   39.60 
   2   2   9  634.64   37.10 
   2   2   9  636.44   39.60 
   2   2   9  657.63   39.20 
   2   2   9  605.84   38.90 
  -3  -2  -9    1.60    3.80 
  -3  -2  -9    4.60    3.50 
  -3  -2  -9    1.70    3.90 
  -3  -2  -9    5.10    7.10 
  -3  -2  -9   -2.40    5.00 
   3   2   9    6.00    3.10 
   3   2   9    5.10    4.80 
   3   2   9    8.10    4.40 
  -4  -2  -9  281.07   22.10 
  -4  -2  -9  257.47   22.40 
  -4  -2  -9  268.87   22.10 
  -4  -2  -9  276.17   20.60 
   4   2   9  320.87   21.70 
   4   2   9  335.17   20.20 
   4   2   9  320.77   22.20 
   4   2   9  313.97   22.20 
  -5  -2  -9   70.49   10.60 
  -5  -2  -9   57.29    9.50 
  -5  -2  -9   57.19    8.60 
  -5  -2  -9   53.59   10.20 
   5   2   9   62.49    9.70 
   5   2   9   57.59    9.20 
   5   2   9   57.89    8.10 
   5   2   9   69.19   12.00 
  -6  -2  -9    4.60    5.80 
  -6  -2  -9    5.70    7.20 
  -6  -2  -9    4.10    7.50 
  -6  -2  -9   -0.70    7.20 
   6   2   9    4.00    5.30 
   6   2   9   -8.70    5.20 
  -7  -2  -9   -0.50   10.40 
   7   2   9    1.10    6.20 
   7   2   9   -7.20    6.60 
   7  -3  -9   10.10    4.60 
   7  -3  -9    5.30    6.00 
   7  -3  -9    9.40    4.40 
  -7   3   9    6.90    6.10 
   6  -3  -9   27.50    7.10 
   6  -3  -9   42.60    5.80 
   6  -3  -9   40.50    6.40 
  -6   3   9   54.49    8.40 
  -6   3   9   42.90    6.10 
   5  -3  -9   28.70    4.50 
   5  -3  -9   21.80    6.50 
   5  -3  -9   28.90    5.70 
  -5   3   9   30.70    4.70 
  -5   3   9   29.10    5.30 
  -5   3   9   37.00    7.00 
   4  -3  -9   78.69    7.20 
   4  -3  -9   77.99   10.10 
   4  -3  -9  101.99    9.60 
  -4   3   9   93.09    8.70 
  -4   3   9  100.39    8.80 
  -4   3   9   88.59   10.30 
   3  -3  -9  436.56   25.90 
   3  -3  -9  381.06   25.40 
   3  -3  -9  386.46   23.90 
   3  -3  -9  400.46   26.30 
  -3   3   9  426.46   26.40 
  -3   3   9  405.06   25.20 
  -3   3   9  382.36   24.50 
   2  -3  -9   22.90    3.30 
   2  -3  -9   20.40    5.10 
   2  -3  -9   23.30    5.40 
   2  -3  -9   21.60    4.60 
  -2   3   9   22.90    5.30 
  -2   3   9   20.30    4.10 
  -2   3   9   29.70    5.10 
  -2   3   9   20.60    3.50 
   1  -3  -9  346.87   23.30 
   1  -3  -9  367.96   23.50 
   1  -3  -9  351.56   23.00 
   1  -3  -9  354.56   21.00 
  -1   3   9  349.07   23.20 
  -1   3   9  360.66   22.90 
  -1   3   9  366.56   22.60 
  -1   3   9  319.97   20.70 
   0  -3  -9   23.20    6.00 
   0  -3  -9   17.10    3.20 
   0  -3  -9   11.20    4.00 
   0  -3  -9   15.00    5.20 
   0   3   9   12.80    3.90 
   0   3   9   15.10    2.40 
   0   3   9    9.20    4.50 
   0   3   9   24.50    4.60 
   0   3   9   12.70    4.20 
  -1  -3  -9   75.99    9.70 
  -1  -3  -9   75.99    8.70 
  -1  -3  -9   83.59    9.00 
  -1  -3  -9   78.49    7.10 
  -1  -3  -9   78.99    9.80 
   1   3   9   83.29    6.20 
   1   3   9   77.69    8.60 
   1   3   9   69.59    8.10 
   1   3   9   95.39   11.10 
   1   3   9   80.29    8.20 
  -2  -3  -9  280.97   18.90 
  -2  -3  -9  238.28   19.30 
  -2  -3  -9  252.37   18.90 
  -2  -3  -9  292.47   19.60 
  -2  -3  -9  261.57   19.20 
   2   3   9  269.67   16.90 
   2   3   9  262.27   18.70 
   2   3   9  314.87   19.70 
   2   3   9  269.67   18.70 
   2   3   9  258.37   19.10 
  -3  -3  -9  113.69   10.70 
  -3  -3  -9  137.19   12.70 
  -3  -3  -9  134.39   13.40 
   3   3   9  120.89   11.90 
   3   3   9  117.59   12.00 
   3   3   9  106.49   11.10 
  -4  -3  -9   49.60    8.10 
  -4  -3  -9   51.99    8.20 
  -4  -3  -9   58.19    9.30 
  -4  -3  -9   63.29    9.90 
   4   3   9   63.89    9.30 
   4   3   9   65.29    9.80 
  -5  -3  -9   45.60    8.70 
  -5  -3  -9   36.00    7.50 
  -5  -3  -9   44.70    9.10 
   5   3   9   54.29    8.20 
   5   3   9   40.90    7.70 
   5   3   9   63.69    9.20 
  -6  -3  -9   16.60    8.30 
  -6  -3  -9   23.40    7.90 
  -6  -3  -9   10.70    8.00 
  -6  -3  -9   14.00    8.60 
   6   3   9   19.40    6.60 
   6   3   9    8.60    6.50 
  -7  -3  -9    9.30    9.10 
  -7  -3  -9   10.60    8.80 
   7   3   9   10.20   14.30 
   7   3   9   17.00    7.40 
   6  -4  -9   29.50    6.00 
   6  -4  -9   19.60    7.00 
   6  -4  -9   16.50    4.50 
  -6   4   9   24.70    7.80 
  -6   4   9   10.90    4.90 
   5  -4  -9  116.49    9.80 
   5  -4  -9   87.39   11.80 
   5  -4  -9  134.79   11.80 
  -5   4   9  129.89   12.20 
  -5   4   9  129.89   13.00 
  -5   4   9  130.29   11.00 
   4  -4  -9   15.30    3.50 
   4  -4  -9    6.10    5.20 
   4  -4  -9    4.00    3.70 
   4  -4  -9   13.60    4.70 
  -4   4   9   11.00    4.20 
  -4   4   9    7.60    3.90 
  -4   4   9   11.70    5.50 
   3  -4  -9  751.92   48.50 
   3  -4  -9  852.81   48.20 
   3  -4  -9  835.72   46.30 
   3  -4  -9  741.73   47.60 
  -3   4   9  799.12   48.60 
  -3   4   9  809.62   48.00 
   2  -4  -9   84.69    8.90 
   2  -4  -9   83.09    6.80 
   2  -4  -9   71.49    8.90 
   2  -4  -9   82.19    9.30 
  -2   4   9   83.39    9.70 
  -2   4   9   75.49    6.90 
  -2   4   9   73.79    7.90 
   1  -4  -9  602.04   37.50 
   1  -4  -9  634.74   37.40 
   1  -4  -9  598.14   35.70 
   1  -4  -9  582.14   37.60 
  -1   4   9  592.54   37.20 
  -1   4   9  647.54   37.80 
  -1   4   9  583.24   36.60 
   0  -4  -9  167.18   13.20 
   0  -4  -9  185.28   11.60 
   0  -4  -9  188.28   14.00 
   0  -4  -9  151.58   13.40 
   0   4   9  160.38   12.50 
   0   4   9  160.88   13.60 
   0   4   9  152.88   12.40 
   0   4   9  152.28   10.70 
   0   4   9  171.98   13.10 
  -1  -4  -9   73.59    7.00 
  -1  -4  -9   62.29    8.20 
  -1  -4  -9   48.00    6.70 
  -1  -4  -9   67.39    8.60 
   1   4   9   68.29    7.50 
   1   4   9   73.09    8.30 
   1   4   9   62.39    5.60 
   1   4   9   57.69    7.60 
   1   4   9   64.19    7.50 
  -2  -4  -9    6.70    4.40 
  -2  -4  -9    7.20    3.60 
  -2  -4  -9   13.50    4.30 
  -2  -4  -9    6.70    4.80 
  -2  -4  -9    6.30    4.10 
   2   4   9    5.40    4.30 
   2   4   9    9.50    4.00 
   2   4   9    8.70    2.90 
   2   4   9    7.50    4.70 
   2   4   9   11.90    4.30 
  -3  -4  -9   27.10    6.60 
  -3  -4  -9   25.10    6.40 
  -3  -4  -9   22.70    5.80 
  -3  -4  -9   23.60    6.20 
   3   4   9   21.30    6.00 
   3   4   9   21.70    5.90 
   3   4   9   17.80    4.90 
  -4  -4  -9  222.38   17.90 
  -4  -4  -9  202.98   17.30 
  -4  -4  -9  201.98   16.40 
  -4  -4  -9  194.48   16.50 
   4   4   9  206.88   16.30 
   4   4   9  217.98   17.20 
   4   4   9  192.08   16.90 
  -5  -4  -9   -0.10    5.90 
  -5  -4  -9   -1.80    5.50 
  -5  -4  -9    4.70    7.50 
  -5  -4  -9   -4.50    4.70 
   5   4   9    0.00    3.80 
   5   4   9    1.40    5.20 
  -6  -4  -9   61.29   11.40 
  -6  -4  -9   56.99    9.70 
  -6  -4  -9   41.50   10.10 
   6   4   9   49.80    8.70 
   6   4   9   67.69   10.50 
  -7  -4  -9   13.70   13.60 
   7   4   9   17.50    8.30 
   6  -5  -9   35.80    5.80 
   6  -5  -9   42.80    7.50 
  -6   5   9   39.60    9.00 
   5  -5  -9  -16.20    5.50 
   5  -5  -9    2.40    3.50 
   5  -5  -9    1.90    4.50 
  -5   5   9   -4.50    5.60 
  -5   5   9    0.90    4.20 
  -5   5   9    0.30    4.10 
   4  -5  -9   -1.00    5.30 
   4  -5  -9    6.90    3.40 
   4  -5  -9    1.10    4.20 
   4  -5  -9    6.00    4.20 
  -4   5   9   -1.10    3.80 
  -4   5   9    1.10    5.30 
   3  -5  -9  168.98   14.30 
   3  -5  -9  189.68   14.80 
   3  -5  -9  163.18   15.20 
   3  -5  -9  177.78   12.30 
  -3   5   9  189.38   15.80 
  -3   5   9  188.88   14.60 
  -3   5   9  181.08   13.70 
   2  -5  -9   29.80    4.40 
   2  -5  -9   15.10    5.30 
   2  -5  -9   37.10    6.30 
   2  -5  -9   31.60    6.80 
  -2   5   9   27.20    5.00 
  -2   5   9   21.50    4.80 
  -2   5   9   41.50    6.90 
   1  -5  -9  465.75   30.00 
   1  -5  -9  511.25   28.20 
   1  -5  -9  437.16   31.90 
   1  -5  -9  489.85   29.90 
  -1   5   9  447.96   29.70 
  -1   5   9  486.85   30.40 
  -1   5   9  459.05   29.10 
  -1   5   9  429.86   27.60 
   0  -5  -9   37.00    7.00 
   0  -5  -9   50.79    5.70 
   0  -5  -9   58.89    7.80 
   0  -5  -9   37.00    6.60 
   0   5   9   43.60    5.90 
   0   5   9   42.50    4.70 
   0   5   9   43.20    6.30 
   0   5   9   43.20    7.10 
   0   5   9   45.50    7.70 
  -1  -5  -9  224.38   15.00 
  -1  -5  -9  234.08   19.50 
  -1  -5  -9  183.38   16.20 
  -1  -5  -9  196.28   16.20 
   1   5   9  200.78   15.30 
   1   5   9  247.08   16.40 
   1   5   9  205.38   16.30 
   1   5   9  212.38   14.70 
  -2  -5  -9  692.23   44.70 
  -2  -5  -9  655.93   42.90 
  -2  -5  -9  723.13   42.90 
  -2  -5  -9  761.02   42.00 
  -2  -5  -9  603.64   42.50 
   2   5   9  713.63   42.80 
   2   5   9  683.63   42.80 
   2   5   9  697.03   42.10 
  -3  -5  -9   99.19   10.80 
  -3  -5  -9  108.19   11.90 
  -3  -5  -9  109.69   10.70 
  -3  -5  -9   77.99   10.80 
   3   5   9   98.69   10.90 
   3   5   9   84.39    9.90 
   3   5   9   88.39   10.70 
  -4  -5  -9   56.89    9.10 
  -4  -5  -9   58.09    8.90 
  -4  -5  -9   53.19    8.70 
  -4  -5  -9   52.89    8.90 
   4   5   9   66.19    8.50 
   4   5   9   70.99    9.70 
   4   5   9   68.49    9.10 
  -5  -5  -9   22.60    7.50 
  -5  -5  -9   28.50    7.20 
  -5  -5  -9   18.50    7.50 
  -5  -5  -9   25.20    6.70 
   5   5   9   25.30    6.50 
   5   5   9   29.20    7.10 
  -6  -5  -9   -4.00    7.70 
  -6  -5  -9    3.00    7.30 
  -6  -5  -9   16.50    8.30 
   6   5   9   -2.70    6.00 
   6   5   9    6.60    6.00 
  -7  -5  -9    9.70    9.40 
  -7  -5  -9   10.70    8.30 
   7   5   9    9.10    7.40 
   7   5   9    3.60    6.60 
   6  -6  -9   24.60    6.50 
   6  -6  -9    9.60    4.60 
  -6   6   9   15.20    8.30 
   5  -6  -9    9.50    6.90 
   5  -6  -9   27.20    6.40 
   5  -6  -9   14.80    4.40 
  -5   6   9   11.70    7.40 
   4  -6  -9   58.79    9.60 
   4  -6  -9   54.09    7.80 
   4  -6  -9   58.09    7.20 
   4  -6  -9   79.29    9.80 
  -4   6   9   63.99    7.90 
  -4   6   9   72.89   10.60 
  -4   6   9   81.79   10.00 
   3  -6  -9  549.05   31.70 
   3  -6  -9  535.45   33.50 
   3  -6  -9  483.95   34.50 
   3  -6  -9  567.54   34.10 
  -3   6   9  494.65   32.60 
   2  -6  -9    5.80    4.50 
   2  -6  -9    5.90    4.50 
   2  -6  -9    7.40    3.50 
   2  -6  -9    6.10    5.20 
  -2   6   9    3.40    4.40 
  -2   6   9   11.40    4.20 
  -2   6   9    2.40    5.20 
   1  -6  -9  241.58   17.30 
   1  -6  -9  211.58   17.90 
   1  -6  -9  241.38   15.40 
   1  -6  -9  229.58   17.20 
  -1   6   9  197.18   16.00 
  -1   6   9  230.48   18.10 
  -1   6   9  242.48   17.50 
   0  -6  -9   52.89    7.90 
   0  -6  -9   57.29    6.60 
   0  -6  -9   48.20    8.10 
   0  -6  -9   55.99    7.70 
   0   6   9   67.09    8.60 
   0   6   9   45.30    6.50 
   0   6   9   50.89    8.10 
  -1  -6  -9   22.80    5.90 
  -1  -6  -9    4.60    4.20 
  -1  -6  -9   17.70    4.80 
   1   6   9   18.70    4.60 
   1   6   9   22.20    5.30 
   1   6   9   22.30    5.90 
   1   6   9   20.70    5.70 
  -2  -6  -9  165.18   15.50 
  -2  -6  -9  197.38   14.70 
  -2  -6  -9  168.68   15.40 
  -2  -6  -9  182.88   15.30 
   2   6   9  178.78   15.60 
   2   6   9  215.38   16.60 
   2   6   9  186.88   15.20 
  -3  -6  -9  278.17   22.20 
  -3  -6  -9  342.07   22.20 
  -3  -6  -9  304.27   22.20 
   3   6   9  312.07   22.20 
   3   6   9  311.17   22.20 
   3   6   9  293.47   21.20 
  -4  -6  -9  129.69   13.70 
  -4  -6  -9  106.29   13.60 
  -4  -6  -9  161.08   14.40 
  -4  -6  -9  137.19   13.60 
   4   6   9  139.59   13.60 
   4   6   9  143.39   12.90 
  -5  -6  -9    9.50    6.20 
  -5  -6  -9    7.80    6.60 
  -5  -6  -9    8.80    7.20 
  -5  -6  -9    5.30   10.70 
   5   6   9   -6.60    5.00 
   5   6   9    6.40    4.90 
   5   6   9    7.80    5.90 
  -6  -6  -9   77.09   12.20 
  -6  -6  -9   79.59   11.90 
   6   6   9   74.39   10.50 
   5  -7  -9    5.30    5.40 
   5  -7  -9    3.90    4.00 
  -5   7   9    4.90    7.00 
   4  -7  -9  204.48   17.90 
   4  -7  -9  231.78   17.80 
   4  -7  -9  191.68   18.60 
   4  -7  -9  239.88   15.40 
  -4   7   9  213.48   19.70 
  -4   7   9  239.78   18.30 
  -4   7   9  175.48   16.00 
   3  -7  -9   -3.60    4.10 
   3  -7  -9   -6.00    5.60 
   3  -7  -9    1.40    4.50 
  -3   7   9    2.40    4.80 
  -3   7   9    2.30    6.10 
  -3   7   9    5.80    4.20 
   2  -7  -9  248.38   17.70 
   2  -7  -9  217.28   18.50 
   2  -7  -9  209.08   15.40 
   2  -7  -9  224.68   17.30 
  -2   7   9  198.58   16.30 
  -2   7   9  246.18   18.30 
  -2   7   9  230.58   18.70 
   1  -7  -9  407.76   24.10 
   1  -7  -9  371.26   25.70 
   1  -7  -9  419.26   26.20 
   1  -7  -9  305.97   26.00 
  -1   7   9  401.26   25.00 
  -1   7   9  394.06   26.40 
  -1   7   9  356.36   26.40 
   0  -7  -9   52.99    8.00 
   0  -7  -9   47.70    6.50 
   0  -7  -9   37.40    7.20 
   0  -7  -9   39.60    8.10 
   0   7   9   68.09   11.50 
   0   7   9   49.00    8.30 
   0   7   9   49.60    6.70 
  -1  -7  -9  421.46   29.90 
  -1  -7  -9  477.95   28.70 
  -1  -7  -9  437.06   29.40 
  -1  -7  -9  435.96   29.70 
   1   7   9  431.46   28.60 
   1   7   9  465.05   30.00 
   1   7   9  461.55   30.00 
  -2  -7  -9  209.48   17.10 
  -2  -7  -9  209.98   16.10 
  -2  -7  -9  207.68   17.70 
  -2  -7  -9  208.98   16.50 
   2   7   9  211.88   16.70 
   2   7   9  189.08   15.40 
   2   7   9  198.88   16.80 
  -3  -7  -9   77.39   11.40 
  -3  -7  -9  112.29   12.20 
  -3  -7  -9   94.39   11.60 
   3   7   9  111.19   11.50 
   3   7   9  105.89   10.50 
   3   7   9   83.99   10.90 
  -4  -7  -9   56.69    9.70 
  -4  -7  -9   51.49   13.20 
  -4  -7  -9   47.00    8.20 
  -4  -7  -9   54.49    9.10 
   4   7   9   54.59    8.70 
   4   7   9   58.39    8.10 
   4   7   9   60.79    9.30 
  -5  -7  -9    3.50    6.40 
  -5  -7  -9   -6.40    5.90 
  -5  -7  -9    0.50    6.70 
  -5  -7  -9    0.80    5.40 
   5   7   9   -7.00    4.80 
  -6  -7  -9   16.00    8.50 
  -6  -7  -9   14.20   10.10 
   6   7   9   24.50    7.90 
   5  -8  -9    7.70    6.50 
   5  -8  -9    2.30    4.30 
  -5   8   9  -16.40   10.80 
   4  -8  -9   10.70    6.00 
   4  -8  -9   14.30    4.80 
  -4   8   9   13.80    8.00 
   3  -8  -9   97.89    8.90 
   3  -8  -9   76.99   10.00 
   3  -8  -9   76.49   10.20 
   3  -8  -9   62.59   11.60 
  -3   8   9   53.99    8.10 
  -3   8   9   80.89   12.20 
  -3   8   9   77.09   10.90 
   2  -8  -9  242.38   15.90 
   2  -8  -9  210.38   19.60 
   2  -8  -9  220.78   17.90 
   2  -8  -9  234.48   18.00 
  -2   8   9  191.68   16.60 
  -2   8   9  235.68   18.80 
  -2   8   9  220.58   19.10 
   1  -8  -9  229.08   18.30 
   1  -8  -9  219.48   19.10 
   1  -8  -9  261.37   18.80 
   1  -8  -9  245.68   16.70 
  -1   8   9  210.68   19.00 
  -1   8   9  218.48   17.00 
  -1   8   9  240.48   19.10 
   0  -8  -9   45.70    8.10 
   0  -8  -9   65.39    8.80 
   0  -8  -9   58.99   10.00 
   0  -8  -9   75.89    8.50 
   0   8   9   73.79   10.30 
   0   8   9   46.40    8.20 
  -1  -8  -9   88.39   11.60 
  -1  -8  -9  101.39   12.10 
  -1  -8  -9  106.59   11.10 
   1   8   9  104.69   10.60 
   1   8   9  105.89   12.30 
   1   8   9  111.49   12.70 
  -2  -8  -9   14.10    5.90 
  -2  -8  -9    9.00    5.80 
  -2  -8  -9    7.80    5.40 
   2   8   9   15.50    4.90 
   2   8   9   22.30    6.80 
   2   8   9   18.20    6.50 
  -3  -8  -9   65.69    9.70 
  -3  -8  -9   65.09    9.60 
  -3  -8  -9   67.49    9.30 
  -3  -8  -9   48.80    9.60 
   3   8   9   63.29    8.70 
   3   8   9   58.49    9.10 
   3   8   9   74.29   10.50 
  -4  -8  -9   26.20    7.10 
  -4  -8  -9   41.20    8.60 
  -4  -8  -9   29.20    7.70 
  -4  -8  -9   37.90    8.90 
   4   8   9   26.50    6.80 
   4   8   9   26.70    7.30 
   4   8   9   15.90    4.90 
  -5  -8  -9   44.20    9.40 
  -5  -8  -9   27.50    9.10 
   5   8   9   47.70    8.70 
  -6  -8  -9  103.09   14.20 
   6   8   9   71.09   11.20 
   4  -9  -9   27.70    7.70 
   4  -9  -9   17.50    5.30 
  -4   9   9   19.40    9.10 
   3  -9  -9   18.10    6.70 
   3  -9  -9   11.00    5.10 
  -3   9   9   19.90    8.20 
  -3   9   9   12.60    6.80 
   2  -9  -9  112.69   10.20 
   2  -9  -9  114.99   13.70 
   2  -9  -9  102.69   12.40 
   2  -9  -9   65.19   11.40 
  -2   9   9  105.39   11.30 
  -2   9   9   81.69   11.40 
  -2   9   9  120.29   14.50 
   1  -9  -9    4.80    7.70 
   1  -9  -9    3.40    5.40 
   1  -9  -9    6.40    4.60 
   1  -9  -9    7.40    5.40 
  -1   9   9    1.60    5.80 
  -1   9   9   11.60    7.00 
   0  -9  -9  122.29   13.70 
   0  -9  -9  164.78   13.10 
   0   9   9  140.39   15.00 
   0   9   9  132.79   15.40 
  -1  -9  -9  271.17   22.40 
  -1  -9  -9  342.77   22.00 
  -1  -9  -9  301.27   22.50 
   1   9   9  294.27   23.00 
   1   9   9  282.37   21.40 
   1   9   9  316.87   23.60 
  -2  -9  -9   37.40    7.80 
  -2  -9  -9   35.10    7.60 
  -2  -9  -9   34.50    7.10 
   2   9   9   37.70    7.50 
   2   9   9   49.10    9.20 
  -3  -9  -9   91.09   12.00 
  -3  -9  -9   94.29   13.60 
  -3  -9  -9   80.99   12.10 
  -3  -9  -9  105.89   12.40 
   3   9   9  100.99   12.20 
   3   9   9   95.49   10.60 
   3   9   9   99.69   12.50 
  -4  -9  -9    1.10    6.90 
  -4  -9  -9   -1.10    6.00 
  -4  -9  -9    3.80    6.60 
   4   9   9    0.50    5.50 
  -5  -9  -9   39.90    9.20 
   5   9   9   23.90    7.60 
   4 -10  -9   19.10    7.90 
   4 -10  -9   10.00    5.10 
  -4  10   9   12.70    9.50 
   3 -10  -9   11.20    5.90 
   3 -10  -9    2.80    4.50 
  -3  10   9    3.00    7.90 
  -3  10   9  -10.70    6.10 
   2 -10  -9   15.10    5.60 
   2 -10  -9    9.20    6.60 
   2 -10  -9   18.60    6.80 
  -2  10   9   18.20    7.60 
  -2  10   9    5.90    9.30 
   1 -10  -9  113.59   10.80 
   1 -10  -9  107.79   12.30 
   1 -10  -9   82.19   11.00 
   1 -10  -9   75.99   18.90 
  -1  10   9   83.59   12.80 
  -1  10   9   69.99   10.90 
   0 -10  -9  106.89   13.20 
   0 -10  -9  112.79   11.40 
   0 -10  -9   87.69   11.10 
   0  10   9  103.69   15.60 
   0  10   9   98.49   13.60 
  -1 -10  -9  137.69   13.40 
  -1 -10  -9  117.49   14.10 
  -1 -10  -9  143.89   14.60 
   1  10   9  121.39   14.50 
  -2 -10  -9    5.20    6.10 
  -2 -10  -9   -1.40    5.90 
  -2 -10  -9    9.20    6.10 
   2  10   9   11.00    6.60 
   2  10   9   10.70    7.50 
  -3 -10  -9  110.29   13.00 
  -3 -10  -9   97.89   12.40 
  -3 -10  -9  102.39   12.70 
   3  10   9   94.19   16.00 
   3  10   9   78.19   10.50 
  -4 -10  -9   -1.30    6.50 
  -4 -10  -9   17.30   13.00 
   4  10   9   12.00    6.90 
  -5 -10  -9   16.60   13.40 
  -5 -10  -9   15.50    9.00 
   5  10   9   19.50    7.40 
   3 -11  -9   12.00    6.60 
   3 -11  -9   -1.20    4.90 
  -3  11   9   -5.60    8.20 
   2 -11  -9   86.19   11.60 
  -2  11   9   77.09   13.40 
  -2  11   9   58.49   10.60 
   1 -11  -9    4.80    6.40 
   1 -11  -9   -3.70    4.70 
   1 -11  -9   -9.30    5.40 
  -1  11   9   -1.10    7.30 
  -1  11   9   -4.30    6.10 
   0 -11  -9   38.00    7.80 
   0 -11  -9   39.20    8.90 
   0 -11  -9   50.39    8.60 
   0  11   9   37.80   10.00 
   0  11   9   34.60    9.20 
  -1 -11  -9   -1.90    5.90 
  -1 -11  -9    2.00    5.90 
  -1 -11  -9   -0.80    6.30 
   1  11   9   16.90    7.60 
  -2 -11  -9   91.29   12.80 
  -2 -11  -9   45.20    9.60 
  -2 -11  -9   71.89   10.80 
   2  11   9   70.29   11.80 
   2  11   9   54.79   12.40 
  -3 -11  -9   10.20    7.30 
  -3 -11  -9   -9.10    7.00 
  -3 -11  -9   17.60   10.90 
   3  11   9   10.70    6.50 
  -4 -11  -9    1.80    6.50 
  -4 -11  -9    9.30    8.10 
   4  11   9    8.20    6.80 
   1 -12  -9    5.30    5.80 
   1 -12  -9   15.80    7.20 
  -1  12   9    5.20    7.60 
  -1  12   9    9.20    8.80 
   0 -12  -9   56.59   10.90 
   0 -12  -9   59.79    9.70 
   0 -12  -9   59.19    9.30 
   0  12   9   53.09   12.20 
   0  12   9   69.59   12.30 
  -1 -12  -9   63.99   10.30 
  -1 -12  -9   69.79   10.50 
   1  12   9   54.59   10.90 
  -2 -12  -9    9.10    7.70 
  -2 -12  -9    4.20    6.80 
   2  12   9    3.00    6.80 
   2   8 -10   73.79   12.70 
  -2  -8  10   67.89    9.60 
   1   8 -10    4.30   10.00 
  -1  -8  10   10.80    6.60 
   0   8 -10    6.60   21.30 
   0  -8  10   12.40    6.80 
  -1   8 -10   -8.30    9.90 
   1  -8  10   10.30    6.90 
   3   7 -10   12.60    7.90 
  -3  -7  10   27.30    6.50 
   2   7 -10   25.00   14.00 
  -2  -7  10   17.60   10.40 
   1   7 -10  -11.70    9.00 
  -1  -7  10   -1.20    5.30 
   0   7 -10   41.10   11.30 
   0  -7  10   37.80    8.90 
  -1   7 -10   10.90   11.40 
   1  -7  10    1.70    6.40 
   1  -7  10   -2.80    4.80 
  -2   7 -10   16.30   12.00 
   2  -7  10   15.10    6.50 
   2  -7  10   19.70    8.00 
  -3   7 -10   10.00   10.90 
   3  -7  10    4.30    6.30 
   3  -7  10    9.50    7.60 
   3  -7  10   12.40    5.10 
   4   6 -10   24.30    5.00 
   4   6 -10   36.40    8.30 
  -4  -6  10   22.30    6.00 
  -4  -6  10   25.20    8.60 
   3   6 -10   18.80    8.20 
   3   6 -10   18.00    5.10 
  -3  -6  10    7.90    5.70 
  -3  -6  10    0.20    6.80 
   2   6 -10   88.09   10.60 
   2   6 -10  113.29   13.50 
  -2  -6  10   96.99   12.80 
  -2  -6  10  123.79   12.60 
   1   6 -10   11.00    5.10 
   1   6 -10    5.40    8.80 
  -1  -6  10    7.20    6.20 
  -1  -6  10    5.30    3.60 
  -1  -6  10    8.10    6.80 
   0   6 -10   70.69   12.10 
   0   6 -10   64.59    9.40 
   0  -6  10   70.39    9.90 
   0  -6  10   66.89   10.70 
   0  -6  10   45.90   10.50 
  -1   6 -10    2.90   11.10 
  -1   6 -10   14.10    9.90 
   1  -6  10    3.10    4.70 
   1  -6  10   10.60    6.80 
   1  -6  10   -5.00    7.20 
  -2   6 -10    5.80    9.80 
  -2   6 -10   18.70   13.10 
   2  -6  10   -0.60    6.30 
   2  -6  10   -3.60    4.20 
   2  -6  10    0.60    2.20 
  -3   6 -10   14.60   10.50 
  -3   6 -10    2.20   13.30 
   3  -6  10    7.80    5.40 
   3  -6  10   -1.20    2.70 
   3  -6  10    2.60    8.00 
  -4   6 -10   14.00   10.60 
  -4   6 -10   24.90   22.90 
   4  -6  10    3.50    7.30 
   4  -6  10   16.60    4.00 
   4  -6  10   11.10    6.40 
  -5  -5  10   43.00    7.60 
  -5  -5  10   36.70    6.40 
   4   5 -10   53.39    6.70 
   4   5 -10   60.79    8.60 
  -4  -5  10   49.90    7.70 
  -4  -5  10   49.10    8.50 
   3   5 -10   21.50    6.80 
   3   5 -10   31.20    8.30 
  -3  -5  10   22.70    6.20 
  -3  -5  10   24.70    7.40 
   2   5 -10   14.80    7.60 
   2   5 -10   21.50    5.30 
  -2  -5  10   21.00    6.30 
  -2  -5  10   18.00    4.10 
  -2  -5  10   29.40    7.70 
   1   5 -10  -13.80    7.00 
   1   5 -10    5.90    4.50 
   1   5 -10    6.30    7.60 
  -1  -5  10    5.70    5.70 
  -1  -5  10   13.90    3.90 
  -1  -5  10   10.70    6.80 
   0   5 -10   10.00    9.70 
   0   5 -10    8.90    8.60 
   0   5 -10   17.90    5.60 
   0  -5  10   17.20    4.90 
   0  -5  10   20.40    6.60 
   0  -5  10   28.80    8.20 
  -1   5 -10    8.80   11.00 
  -1   5 -10   27.20    6.20 
  -1   5 -10   35.20   10.30 
   1  -5  10   18.40    6.80 
   1  -5  10   37.90    9.50 
   1  -5  10   28.60    5.80 
  -2   5 -10   23.40    6.20 
  -2   5 -10   11.30   12.60 
   2  -5  10   18.00    7.30 
   2  -5  10   15.20    3.50 
   2  -5  10   24.10    6.10 
   2  -5  10   18.60    2.70 
  -3   5 -10   -9.90   12.10 
  -3   5 -10  -12.50    8.30 
   3  -5  10   -0.60    6.50 
   3  -5  10    3.40    5.20 
  -4   5 -10    7.40   14.80 
  -4   5 -10   -8.90    9.80 
   4  -5  10   -4.10    4.70 
   4  -5  10   -2.20    3.00 
   4  -5  10   10.80    7.60 
  -5  -4  10  103.69   10.70 
  -5  -4  10   89.49   11.50 
   4   4 -10   34.90    5.60 
   4   4 -10   56.39    8.00 
  -4  -4  10   41.90    6.90 
  -4  -4  10   34.00    7.10 
   3   4 -10  112.59   10.50 
   3   4 -10  125.59   13.20 
  -3  -4  10  115.99   12.00 
  -3  -4  10  118.69    9.10 
  -3  -4  10  129.69   13.10 
   2   4 -10   92.59    9.50 
   2   4 -10  101.69   12.90 
  -2  -4  10   87.39    8.40 
  -2  -4  10   89.49   10.90 
  -2  -4  10   82.79   10.70 
   1   4 -10   82.69    9.30 
   1   4 -10   46.40   10.70 
   1   4 -10  101.19   11.90 
  -1  -4  10   74.39    8.30 
  -1  -4  10   90.49   11.00 
  -1  -4  10   88.59   11.00 
   0   4 -10  173.48   16.20 
   0   4 -10  128.89   12.20 
   0   4 -10  103.89   15.90 
   0  -4  10  139.39   11.90 
   0  -4  10  146.29   17.90 
   0  -4  10  122.09   14.20 
  -1   4 -10   -2.50    3.70 
  -1   4 -10   10.60    8.10 
  -1   4 -10   20.70   10.30 
   1  -4  10   -6.30    3.40 
   1  -4  10    2.00    5.10 
   1  -4  10    4.10    6.00 
  -2   4 -10  105.69   17.30 
  -2   4 -10  106.39   12.20 
  -2   4 -10  143.09   17.20 
   2  -4  10  110.89   14.40 
   2  -4  10  136.69   14.30 
   2  -4  10  130.29    8.10 
   2  -4  10  127.69   13.00 
   2  -4  10  140.99    9.00 
  -3   4 -10   -1.70    8.60 
  -3   4 -10   24.30   13.10 
   3  -4  10    5.00    6.70 
   3  -4  10    8.60    5.00 
   3  -4  10    9.50    2.80 
  -4   4 -10  -26.10   11.70 
  -4   4 -10   -3.40    9.80 
   4  -4  10    0.40    3.10 
   4  -4  10    3.10    6.50 
   4  -4  10    3.20    5.10 
  -5   4 -10   -8.50   13.90 
  -5   4 -10   -4.10   11.00 
   5  -4  10    3.80    6.50 
   5  -4  10    1.30    3.70 
  -6  -3  10   60.09    7.20 
  -6  -3  10   52.49    6.70 
   5   3 -10  108.09    7.90 
   5   3 -10  104.69    9.90 
   5   3 -10  104.09    8.60 
  -5  -3  10  118.19   10.40 
  -5  -3  10  117.89   10.70 
   4   3 -10    2.90    3.40 
   4   3 -10    8.10    5.80 
  -4  -3  10    7.60    4.70 
  -4  -3  10    2.70    4.00 
   3   3 -10  250.27   17.10 
   3   3 -10  242.68   18.50 
  -3  -3  10  228.08   18.20 
  -3  -3  10  250.37   17.70 
  -3  -3  10  240.58   15.90 
   2   3 -10  178.48   15.50 
   2   3 -10  167.68   13.10 
  -2  -3  10  163.98   12.40 
  -2  -3  10  172.18   14.10 
  -2  -3  10  157.28   14.60 
   1   3 -10   22.70    5.30 
   1   3 -10   28.50    8.80 
   1   3 -10   43.30    8.20 
  -1  -3  10   36.90    5.70 
  -1  -3  10   30.30    6.60 
  -1  -3  10   32.30    7.70 
   0   3 -10  194.58   17.00 
   0   3 -10  141.69   18.50 
   0   3 -10  163.68   13.80 
   0  -3  10  180.68   13.80 
   0  -3  10  193.08   15.90 
   0  -3  10  158.78   15.40 
  -1   3 -10   -2.00   13.60 
  -1   3 -10    2.40    6.80 
  -1   3 -10    1.90    3.80 
   1  -3  10   -1.60    4.90 
   1  -3  10    3.60    4.40 
   1  -3  10    0.30    5.00 
  -2   3 -10   36.70    7.00 
  -2   3 -10   58.59   10.20 
  -2   3 -10   43.30   12.10 
   2  -3  10   62.89    4.20 
   2  -3  10   37.80    9.20 
   2  -3  10   63.19    9.20 
   2  -3  10   47.90    4.90 
   2  -3  10   44.10    8.50 
  -3   3 -10   -0.40    8.00 
  -3   3 -10   -2.20    4.00 
  -3   3 -10  -13.10    9.40 
   3  -3  10   -6.40    3.10 
   3  -3  10    7.10    5.00 
   3  -3  10   -1.30    2.40 
   3  -3  10    3.30    6.00 
  -4   3 -10   39.60   10.80 
  -4   3 -10   23.90   12.40 
   4  -3  10   19.00    7.40 
   4  -3  10   29.60    4.50 
   4  -3  10   37.00    8.60 
  -5   3 -10   18.40   12.80 
  -5   3 -10  -15.40    8.70 
   5  -3  10    5.90    7.80 
   5  -3  10   11.30    4.30 
   5  -3  10   15.90    6.50 
   6   2 -10    6.40    3.40 
  -6  -2  10   -0.90    3.90 
  -6  -2  10    7.00    3.50 
   5   2 -10  109.59   10.00 
   5   2 -10  100.49    9.00 
  -5  -2  10  114.99   10.50 
  -5  -2  10  128.59   10.30 
   4   2 -10   49.90    7.40 
   4   2 -10   42.90    3.80 
   4   2 -10   43.60    6.00 
   4   2 -10   41.30    4.30 
  -4  -2  10   47.30    6.60 
  -4  -2  10   45.80    6.50 
   3   2 -10  282.57   19.50 
   3   2 -10  308.67   20.80 
  -3  -2  10  306.87   19.90 
  -3  -2  10  278.27   20.10 
  -3  -2  10  274.57   18.40 
   2   2 -10  114.29   11.70 
   2   2 -10   82.89    8.80 
  -2  -2  10   86.79    9.80 
  -2  -2  10   74.79    8.10 
  -2  -2  10  101.69   10.50 
   1   2 -10   79.39    9.80 
   1   2 -10   54.69    9.80 
   1   2 -10   61.49    8.00 
  -1  -2  10   69.89    8.80 
  -1  -2  10   77.09    9.30 
  -1  -2  10   67.59    7.80 
   0   2 -10  414.56   27.00 
   0   2 -10  375.06   25.30 
   0   2 -10  351.66   27.80 
   0  -2  10  415.16   26.50 
   0  -2  10  368.56   25.10 
   0  -2  10  385.36   26.70 
  -1   2 -10   18.80    7.00 
  -1   2 -10   15.70    4.90 
  -1   2 -10   25.10    9.40 
   1  -2  10   29.40    7.00 
   1  -2  10   28.70    6.00 
   1  -2  10   15.00    6.30 
  -2   2 -10  139.49   14.90 
  -2   2 -10  102.09   11.50 
  -2   2 -10  130.89   16.20 
   2  -2  10  132.59   12.50 
   2  -2  10  112.49   13.10 
   2  -2  10  106.79   13.30 
   2  -2  10  119.99    8.20 
   2  -2  10  126.89    7.80 
  -3   2 -10    7.90    7.40 
  -3   2 -10   -5.70    9.40 
  -3   2 -10    1.10    4.20 
   3  -2  10   -1.50    4.70 
   3  -2  10   -3.60    2.90 
   3  -2  10   -5.80    5.50 
   3  -2  10    5.10    2.60 
  -4   2 -10   64.89   14.00 
  -4   2 -10   57.89   11.50 
   4  -2  10   52.09    9.40 
   4  -2  10   58.59    6.50 
   4  -2  10   51.69    8.60 
  -5   2 -10   19.00   12.20 
  -5   2 -10   27.70   10.50 
   5  -2  10   30.20    8.80 
   5  -2  10   31.70    9.00 
   5  -2  10   29.50    5.80 
  -6   2 -10   17.60   14.10 
   6  -2  10   40.60    9.30 
   6  -2  10   29.50    6.40 
   6   1 -10   98.89    8.60 
  -6  -1  10   99.09    8.90 
   5   1 -10   32.80    4.10 
   5   1 -10   21.50    5.60 
   5   1 -10   34.00    5.40 
  -5  -1  10   45.80    5.70 
  -5  -1  10   40.70    6.00 
   4   1 -10   90.89   10.10 
   4   1 -10   98.19    9.10 
   4   1 -10   82.99    6.30 
   4   1 -10   91.59    7.30 
  -4  -1  10   97.59    9.10 
  -4  -1  10   85.59    9.30 
   3   1 -10   11.90    4.20 
   3   1 -10   20.30    5.80 
  -3  -1  10   20.10    5.10 
  -3  -1  10   16.70    4.70 
  -3  -1  10   14.70    3.60 
   2   1 -10   34.00    5.70 
   2   1 -10   14.30    6.00 
   2   1 -10   31.90    8.50 
  -2  -1  10   23.50    5.40 
  -2  -1  10   30.80    6.00 
  -2  -1  10   29.80    4.70 
   1   1 -10  224.88   17.00 
   1   1 -10  180.18   19.00 
   1   1 -10  211.18   15.50 
  -1  -1  10  205.38   15.30 
  -1  -1  10  228.88   16.60 
  -1  -1  10  222.38   16.20 
   0   1 -10    6.00    5.70 
   0   1 -10    3.20    3.30 
   0   1 -10   -3.10    6.20 
   0  -1  10    3.70    3.40 
   0  -1  10    7.10    4.90 
   0  -1  10    3.10    4.50 
  -1   1 -10  216.68   19.70 
  -1   1 -10  207.48   15.90 
  -1   1 -10  233.08   17.90 
   1  -1  10  231.98   17.20 
   1  -1  10  207.18   16.30 
   1  -1  10  181.58   16.90 
  -2   1 -10   26.00    9.20 
  -2   1 -10   23.70    5.90 
  -2   1 -10   32.60    7.80 
   2  -1  10   42.30    7.70 
   2  -1  10   17.80    6.20 
   2  -1  10   32.00    3.40 
   2  -1  10   27.30    5.90 
   2  -1  10   33.20    3.60 
  -3   1 -10    9.40   13.90 
  -3   1 -10    8.00    7.30 
  -3   1 -10    1.10    4.20 
   3  -1  10   14.50    3.80 
   3  -1  10   11.50    4.90 
   3  -1  10   11.80    6.40 
   3  -1  10   14.90    3.40 
  -4   1 -10   12.40   10.20 
  -4   1 -10   18.80    8.40 
   4  -1  10   19.40    9.60 
   4  -1  10   12.20    4.00 
   4  -1  10   11.30    6.70 
   4  -1  10   14.40    6.00 
  -5   1 -10   16.30   12.10 
  -5   1 -10   16.30    9.00 
   5  -1  10   16.40    5.20 
   5  -1  10   20.00   10.80 
   5  -1  10   19.10    7.50 
  -6   1 -10   52.29   14.90 
  -6   1 -10   31.20   13.10 
   6  -1  10   42.90   10.00 
   6  -1  10   46.90    7.60 
   6   0 -10   12.20    3.90 
  -6   0  10   17.90    4.50 
   5   0 -10   33.90    4.40 
   5   0 -10   38.70    7.00 
   5   0 -10   30.00    5.60 
   5   0 -10   33.80    6.10 
  -5   0  10   42.70    6.20 
  -5   0  10   29.30    5.80 
   4   0 -10  114.29   11.00 
   4   0 -10  108.79    9.30 
   4   0 -10  121.19    8.00 
  -4   0  10  121.29   10.70 
  -4   0  10  117.09   10.10 
   3   0 -10  616.64   36.50 
   3   0 -10  669.63   38.90 
   3   0 -10  617.34   38.50 
  -3   0  10  631.54   37.80 
  -3   0  10  645.44   38.60 
  -3   0  10  618.84   38.20 
   2   0 -10  133.49   11.50 
   2   0 -10  114.59   12.70 
   2   0 -10  143.39   12.30 
  -2   0  10  146.59   11.90 
  -2   0  10  142.29   11.40 
   1   0 -10  416.76   28.20 
   1   0 -10  442.56   29.50 
   1   0 -10  471.85   28.90 
  -1   0  10  461.65   28.70 
  -1   0  10  450.55   28.00 
  -1   0  10  421.16   28.30 
   0   0 -10   23.50    7.30 
   0   0 -10   21.60    6.00 
   0   0 -10   19.40    4.70 
   0   0  10   19.30    5.50 
   0   0  10   27.00    5.40 
   0   0  10   19.30    5.40 
  -1   0 -10   33.20    8.70 
  -1   0 -10   61.09    8.50 
  -1   0 -10   41.00    6.40 
   1   0  10   33.80    6.70 
   1   0  10   35.90    6.10 
   1   0  10   52.99    8.10 
  -2   0 -10   51.59   10.20 
  -2   0 -10   72.59    9.80 
  -2   0 -10   39.70    6.10 
   2   0  10   51.69    7.30 
   2   0  10   47.90    7.90 
   2   0  10   48.50    4.70 
   2   0  10   49.10    4.90 
   2   0  10   44.60    8.00 
  -3   0 -10   -4.60    5.40 
  -3   0 -10    6.10    8.80 
  -3   0 -10    3.00    4.30 
   3   0  10    6.30    4.90 
   3   0  10    2.10    3.10 
   3   0  10    3.80    5.00 
   3   0  10    5.20    4.80 
  -4   0 -10    5.50    7.00 
  -4   0 -10    8.40    9.30 
   4   0  10    6.60    3.90 
   4   0  10    6.10    5.60 
   4   0  10   18.60    7.20 
   4   0  10    6.10    5.50 
  -5   0 -10   13.50   10.80 
  -5   0 -10   12.50    7.40 
   5   0  10   10.80    4.90 
   5   0  10    5.70    9.70 
   5   0  10   -7.50    5.80 
  -6   0 -10    5.10   11.00 
  -6   0 -10    3.20    8.40 
   6   0  10   12.60    7.50 
   6   0  10   -1.20    4.50 
   6  -1 -10   63.49    8.10 
   6  -1 -10   62.79    7.40 
  -6   1  10   86.59    8.60 
   5  -1 -10    1.40    4.40 
   5  -1 -10   -1.10    4.60 
   5  -1 -10    6.60    3.00 
  -5   1  10    9.90    4.00 
  -5   1  10    3.10    4.60 
   4  -1 -10   93.09   10.00 
   4  -1 -10  100.89    9.00 
   4  -1 -10   88.79    9.90 
  -4   1  10   93.99    9.70 
  -4   1  10   88.29    8.80 
   3  -1 -10   38.30    6.30 
   3  -1 -10   45.00    6.70 
   3  -1 -10   44.20    5.30 
   3  -1 -10   18.00    6.20 
   3  -1 -10   36.80    4.00 
  -3   1  10   36.30    6.00 
  -3   1  10   40.20    5.70 
   2  -1 -10   27.20    3.20 
   2  -1 -10   22.70    8.20 
   2  -1 -10   25.50    5.90 
   2  -1 -10   28.90    6.40 
  -2   1  10   24.10    5.20 
  -2   1  10   20.30    4.40 
  -2   1  10   27.40    3.20 
   1  -1 -10  149.09   12.50 
   1  -1 -10  130.69   11.60 
  -1   1  10  148.09   12.10 
  -1   1  10  125.79   11.40 
   0  -1 -10    8.70    5.40 
   0  -1 -10    9.30    5.40 
   0  -1 -10    9.30    4.10 
   0   1  10    9.60    4.10 
   0   1  10   10.20    4.90 
  -1  -1 -10  145.69   14.70 
  -1  -1 -10  181.58   14.60 
  -1  -1 -10  147.19   12.90 
  -1  -1 -10  152.28   10.60 
   1   1  10  148.99    9.70 
   1   1  10  160.78   13.30 
   1   1  10  180.18   10.30 
   1   1  10  184.08   14.40 
   1   1  10  139.39   13.00 
  -2  -1 -10   13.40    6.50 
  -2  -1 -10    7.50    4.30 
  -2  -1 -10   14.90    4.10 
  -2  -1 -10   10.40    6.00 
   2   1  10   11.60    4.60 
   2   1  10    9.90    3.00 
   2   1  10    7.70    2.60 
   2   1  10   12.00    5.20 
   2   1  10   10.20    4.80 
   2   1  10   17.50    6.10 
  -3  -1 -10   67.29    9.00 
  -3  -1 -10   88.59   12.30 
  -3  -1 -10   85.19    9.20 
  -3  -1 -10  110.89   15.20 
   3   1  10   84.19    7.90 
   3   1  10   89.49   10.90 
   3   1  10   79.29   10.30 
   3   1  10   83.39   10.50 
   3   1  10   76.49    7.40 
  -4  -1 -10   34.20    9.20 
  -4  -1 -10   20.30    6.50 
   4   1  10   35.40    7.90 
   4   1  10   20.90   10.00 
   4   1  10   16.40    5.80 
   4   1  10   29.70    5.50 
  -5  -1 -10   93.49   12.40 
   5   1  10   88.79   12.40 
   5   1  10  123.09   18.30 
   5   1  10   96.69   10.30 
   5   1  10   88.59   11.60 
  -6  -1 -10    5.00    7.80 
  -6  -1 -10    8.90   10.90 
   6   1  10    5.90    5.20 
   6   1  10   10.90    7.50 
   6  -2 -10   87.99   12.10 
   6  -2 -10   53.29    8.70 
   6  -2 -10   88.59    7.90 
  -6   2  10   89.79   11.50 
  -6   2  10   78.49    9.90 
   5  -2 -10    7.00    3.30 
   5  -2 -10    1.80    5.00 
   5  -2 -10    6.60    4.70 
  -5   2  10    0.40    4.70 
  -5   2  10    8.50    4.20 
   4  -2 -10   84.49    6.60 
   4  -2 -10   93.49    9.40 
   4  -2 -10   69.99    9.20 
   4  -2 -10   76.79    8.90 
  -4   2  10   68.19    7.40 
  -4   2  10   63.79    7.20 
  -4   2  10   73.59    8.90 
  -4   2  10   62.89    7.90 
   3  -2 -10   51.09    7.30 
   3  -2 -10   76.09    9.00 
   3  -2 -10   56.39    7.70 
   3  -2 -10   70.89    5.80 
  -3   2  10   75.09    7.90 
  -3   2  10   64.59    6.40 
  -3   2  10   73.69    7.60 
  -3   2  10   76.59    8.80 
   2  -2 -10  155.98    9.90 
   2  -2 -10  125.79   12.30 
   2  -2 -10  148.89   13.10 
   2  -2 -10  160.98   12.90 
  -2   2  10  140.19   10.00 
  -2   2  10  155.18   12.00 
  -2   2  10  157.08   11.60 
  -2   2  10  165.78   12.90 
   1  -2 -10  343.37   20.60 
   1  -2 -10  346.67   23.80 
   1  -2 -10  359.16   23.40 
   1  -2 -10  354.46   23.40 
  -1   2  10  358.86   23.40 
  -1   2  10  338.17   20.40 
  -1   2  10  356.16   22.90 
  -1   2  10  328.97   22.70 
   0  -2 -10    0.90    3.30 
   0  -2 -10    0.40    4.60 
   0  -2 -10    2.80    4.10 
   0  -2 -10   -0.40    2.20 
   0   2  10   -1.00    3.10 
   0   2  10   -1.20    3.20 
   0   2  10    0.40    1.50 
   0   2  10    1.30    4.10 
  -1  -2 -10  159.18   13.60 
  -1  -2 -10  165.08   14.70 
  -1  -2 -10  140.59   10.40 
  -1  -2 -10  139.49   12.40 
   1   2  10  134.09    9.40 
   1   2  10  170.58   13.00 
   1   2  10  174.58   13.90 
   1   2  10  130.29   12.20 
  -2  -2 -10  117.99   10.00 
  -2  -2 -10  119.09   12.70 
  -2  -2 -10  130.99   14.10 
  -2  -2 -10  111.19   11.30 
   2   2  10  121.09   12.40 
   2   2  10  164.68   13.80 
   2   2  10  109.29    8.70 
   2   2  10  126.49   11.80 
   2   2  10  135.09   12.10 
  -3  -2 -10  159.98   13.10 
  -3  -2 -10  178.48   15.70 
  -3  -2 -10  157.28   16.30 
   3   2  10  160.58   14.10 
   3   2  10  172.38   12.30 
   3   2  10  145.99   11.70 
   3   2  10  187.08   15.50 
   3   2  10  169.48   14.90 
  -4  -2 -10   14.00    5.70 
  -4  -2 -10    7.30    6.50 
  -4  -2 -10   29.80    6.70 
  -4  -2 -10   17.80    7.70 
   4   2  10   16.70    4.90 
   4   2  10   21.90    6.80 
   4   2  10   30.40    7.70 
   4   2  10   19.50    5.90 
  -5  -2 -10    5.40    7.10 
  -5  -2 -10    6.90    7.90 
  -5  -2 -10    5.60    5.40 
  -5  -2 -10   11.40    7.80 
   5   2  10    6.50    6.50 
   5   2  10    2.70    5.50 
   5   2  10    2.30    4.70 
   5   2  10    3.10    5.20 
  -6  -2 -10   13.70    7.80 
   6   2  10    7.20    5.50 
   6   2  10    5.00    6.80 
   6  -3 -10   80.79    8.20 
   6  -3 -10   80.39    9.90 
  -6   3  10   84.89    9.70 
  -6   3  10   85.79   10.70 
   5  -3 -10    9.40    4.80 
   5  -3 -10   11.60    3.60 
  -5   3  10    3.30    5.40 
  -5   3  10   10.40    4.50 
   4  -3 -10  172.08   11.30 
   4  -3 -10  175.28   13.80 
   4  -3 -10  132.09   14.00 
  -4   3  10  162.38   14.20 
  -4   3  10  160.08   12.60 
  -4   3  10  160.48   12.70 
   3  -3 -10   15.60    3.20 
   3  -3 -10   18.80    5.10 
   3  -3 -10    9.20    4.70 
   3  -3 -10    9.00    4.90 
  -3   3  10   19.00    5.30 
  -3   3  10   16.30    4.40 
  -3   3  10   11.50    3.50 
  -3   3  10   17.70    4.30 
   2  -3 -10  428.46   28.50 
   2  -3 -10  434.06   32.60 
   2  -3 -10  453.75   28.30 
   2  -3 -10  456.75   25.90 
  -2   3  10  410.36   26.00 
  -2   3  10  409.56   27.30 
  -2   3  10  450.65   28.40 
  -2   3  10  449.46   27.90 
   1  -3 -10  466.75   27.30 
   1  -3 -10  485.95   29.90 
   1  -3 -10  443.66   29.90 
   1  -3 -10  446.56   29.90 
  -1   3  10  486.95   29.90 
  -1   3  10  476.25   29.50 
  -1   3  10  437.46   27.00 
   0  -3 -10  143.69   13.20 
   0  -3 -10  137.09   12.30 
   0  -3 -10  133.79    9.70 
   0  -3 -10  150.38   12.60 
   0   3  10  140.09   11.70 
   0   3  10  126.79   11.30 
   0   3  10  153.68   12.70 
   0   3  10  124.99    8.90 
  -1  -3 -10  234.98   17.00 
  -1  -3 -10  209.48   16.50 
  -1  -3 -10  253.97   18.20 
  -1  -3 -10  186.38   14.40 
   1   3  10  217.98   16.20 
   1   3  10  245.98   17.30 
   1   3  10  209.08   13.60 
   1   3  10  230.28   16.70 
  -2  -3 -10  142.29   12.10 
  -2  -3 -10  182.78   15.90 
  -2  -3 -10  163.18   14.70 
   2   3  10  158.08   11.00 
   2   3  10  164.58   14.40 
   2   3  10  172.58   14.30 
   2   3  10  176.98   13.70 
   2   3  10  149.29   14.00 
  -3  -3 -10    1.10    4.30 
  -3  -3 -10    4.50    5.50 
  -3  -3 -10   -0.70    6.00 
  -3  -3 -10    7.30    5.60 
   3   3  10    5.00    5.00 
   3   3  10    5.50    5.60 
   3   3  10    6.70    4.40 
  -4  -3 -10    2.40    6.00 
  -4  -3 -10    3.90    6.80 
  -4  -3 -10    8.00    5.40 
  -4  -3 -10    6.50    5.00 
   4   3  10    4.00    4.80 
   4   3  10    0.00    4.80 
   4   3  10    2.40    5.50 
  -5  -3 -10   19.30    7.70 
  -5  -3 -10    8.30    9.00 
  -5  -3 -10    9.90    5.70 
  -5  -3 -10   11.10    7.00 
   5   3  10   12.90    6.00 
   5   3  10   11.30    5.50 
   5   3  10   10.90    6.50 
   5   3  10   13.80    6.70 
  -6  -3 -10    3.80    8.20 
  -6  -3 -10   -5.60    7.30 
  -6  -3 -10    3.20    8.20 
   6   3  10    0.40    6.50 
   6   3  10   -2.20    5.20 
   6  -4 -10   -2.00    6.10 
   6  -4 -10    6.90    3.80 
   6  -4 -10   -3.90    4.60 
  -6   4  10    0.30    5.80 
   5  -4 -10   13.50    5.30 
   5  -4 -10   14.60    6.70 
  -5   4  10   14.50    5.00 
  -5   4  10   29.30    7.20 
  -5   4  10   21.00    5.20 
   4  -4 -10   49.60    5.70 
   4  -4 -10   32.70    7.60 
   4  -4 -10   59.89    7.90 
  -4   4  10   50.39    8.40 
  -4   4  10   43.50    6.50 
  -4   4  10   53.99    7.00 
   3  -4 -10   67.29    8.70 
   3  -4 -10   83.29    9.80 
   3  -4 -10   84.79   10.60 
   3  -4 -10   88.49    7.30 
  -3   4  10   89.29   10.40 
  -3   4  10   75.49    8.00 
  -3   4  10   94.99    9.30 
   2  -4 -10   31.90    6.50 
   2  -4 -10   62.69    8.20 
   2  -4 -10   49.20    5.40 
   2  -4 -10   44.70    7.40 
  -2   4  10   45.60    6.20 
  -2   4  10   45.80    7.40 
  -2   4  10   38.30    5.10 
   1  -4 -10  167.98   14.80 
   1  -4 -10  191.88   15.40 
   1  -4 -10  205.38   15.00 
   1  -4 -10  182.28   13.70 
  -1   4  10  196.78   14.70 
  -1   4  10  173.08   11.90 
  -1   4  10  184.28   14.10 
  -1   4  10  184.68   15.00 
   0  -4 -10  257.07   19.70 
   0  -4 -10  290.57   20.50 
   0  -4 -10  307.07   19.90 
   0   4  10  263.07   18.80 
   0   4  10  301.17   20.10 
   0   4  10  242.18   16.90 
  -1  -4 -10  292.37   22.60 
  -1  -4 -10  346.37   23.00 
  -1  -4 -10  330.97   20.90 
  -1  -4 -10  321.17   23.40 
   1   4  10  334.27   22.20 
   1   4  10  323.47   19.80 
   1   4  10  331.77   22.80 
  -2  -4 -10   15.10    4.70 
  -2  -4 -10   10.00    4.90 
  -2  -4 -10   17.20    4.80 
  -2  -4 -10    7.80    5.80 
   2   4  10   11.00    4.60 
   2   4  10   11.20    5.40 
   2   4  10   20.90    9.00 
  -3  -4 -10  404.46   28.20 
  -3  -4 -10  353.06   25.70 
  -3  -4 -10  421.06   27.80 
  -3  -4 -10  366.96   27.10 
   3   4  10  420.86   27.80 
   3   4  10  423.36   27.60 
   3   4  10  411.36   26.80 
  -4  -4 -10   39.80    8.00 
  -4  -4 -10   55.29    8.40 
  -4  -4 -10   39.10    9.00 
  -4  -4 -10   41.10    7.60 
   4   4  10   42.40    8.20 
   4   4  10   37.20    6.90 
   4   4  10   35.70    7.30 
  -5  -4 -10   30.80    8.30 
  -5  -4 -10   38.00    9.80 
  -5  -4 -10   38.10    8.00 
  -5  -4 -10   31.30    7.30 
   5   4  10   29.10    7.60 
   5   4  10   33.00    8.10 
   5   4  10   39.90    7.30 
  -6  -4 -10    8.20    8.40 
  -6  -4 -10    8.20    8.30 
   6   4  10    1.20    6.00 
   6   4  10   11.30    7.30 
   6  -5 -10    9.00    5.20 
   6  -5 -10   17.30    4.90 
  -6   5  10   18.00    7.40 
   5  -5 -10   50.69    9.80 
   5  -5 -10   70.39    7.60 
   5  -5 -10   82.19   10.20 
  -5   5  10   70.49   10.40 
  -5   5  10   56.89    7.90 
   4  -5 -10    4.00    4.40 
   4  -5 -10   -0.90    5.40 
   4  -5 -10    0.40    3.20 
   4  -5 -10    6.90    4.50 
  -4   5  10    3.00    4.00 
  -4   5  10    1.50    5.50 
   3  -5 -10   10.80    3.70 
   3  -5 -10    6.10    4.70 
   3  -5 -10   15.60    5.90 
   3  -5 -10   11.10    5.00 
  -3   5  10    9.00    6.00 
  -3   5  10   10.50    4.40 
  -3   5  10    2.20    4.10 
   2  -5 -10  466.05   31.60 
   2  -5 -10  475.55   29.40 
   2  -5 -10  474.35   32.20 
   2  -5 -10  498.65   31.60 
  -2   5  10  549.65   32.70 
  -2   5  10  466.95   31.00 
  -2   5  10  511.85   31.60 
   1  -5 -10    5.80    4.30 
   1  -5 -10    4.10    3.20 
   1  -5 -10   -0.70    4.30 
  -1   5  10    4.10    3.60 
  -1   5  10    1.90    4.50 
  -1   5  10    0.50    3.00 
   0  -5 -10  236.08   17.60 
   0  -5 -10  222.48   15.00 
   0  -5 -10  197.58   17.20 
   0  -5 -10  234.28   17.10 
   0   5  10  211.78   14.30 
   0   5  10  240.58   17.50 
   0   5  10  210.38   15.90 
   0   5  10  221.98   16.90 
  -1  -5 -10   45.40    7.80 
  -1  -5 -10   36.60    5.60 
  -1  -5 -10   43.30    7.60 
  -1  -5 -10   30.60    6.20 
   1   5  10   33.50    5.80 
   1   5  10   34.40    6.50 
   1   5  10   36.50    7.00 
  -2  -5 -10   -2.30    3.00 
  -2  -5 -10   -2.20    5.00 
  -2  -5 -10    0.30    3.90 
   2   5  10    4.20    4.70 
   2   5  10   -3.20    3.20 
   2   5  10    9.70    5.40 
  -3  -5 -10  175.08   15.70 
  -3  -5 -10  170.98   15.20 
  -3  -5 -10  174.48   14.30 
  -3  -5 -10  155.78   16.30 
   3   5  10  166.58   14.40 
   3   5  10  179.58   15.30 
   3   5  10  182.98   15.90 
  -4  -5 -10   12.80    6.10 
  -4  -5 -10    4.80    6.40 
  -4  -5 -10   13.50    6.40 
  -4  -5 -10   -7.10    4.90 
   4   5  10   10.40    5.00 
   4   5  10    8.40    5.80 
   4   5  10   -0.70    5.20 
  -5  -5 -10   51.79   12.10 
  -5  -5 -10   97.59   13.20 
  -5  -5 -10   77.29   11.10 
  -5  -5 -10   78.39   11.40 
   5   5  10   61.69    9.70 
   5   5  10  100.49   12.20 
  -6  -5 -10    8.50    7.70 
  -6  -5 -10    5.40    8.00 
   6   5  10    6.20    6.90 
   6   5  10   -0.50    5.90 
   5  -6 -10   27.10    5.30 
   5  -6 -10   23.20    7.50 
  -5   6  10   12.40    7.30 
   4  -6 -10   14.70    5.70 
   4  -6 -10    5.00    3.80 
   4  -6 -10    6.00    6.30 
  -4   6  10    7.30    4.80 
  -4   6  10   11.70    4.80 
  -4   6  10   10.80    6.90 
   3  -6 -10   77.49   10.60 
   3  -6 -10  114.09   11.30 
   3  -6 -10   95.19    8.60 
  -3   6  10   90.19   10.10 
  -3   6  10   59.29    9.20 
  -3   6  10  104.89   12.90 
   2  -6 -10   43.20    7.30 
   2  -6 -10   30.50    7.50 
   2  -6 -10   32.90    7.00 
   2  -6 -10   40.20    5.30 
  -2   6  10   30.60    6.00 
  -2   6  10   49.10    8.10 
  -2   6  10   33.10    7.50 
   1  -6 -10    0.70    3.10 
   1  -6 -10    5.20    4.60 
   1  -6 -10   -1.10    3.90 
   1  -6 -10    4.30    4.30 
  -1   6  10   -0.90    4.60 
  -1   6  10    3.30    4.30 
  -1   6  10   -1.90    3.30 
   0  -6 -10  215.18   18.20 
   0  -6 -10  245.98   16.10 
   0  -6 -10  243.78   18.30 
   0   6  10  241.48   17.80 
   0   6  10  220.68   17.10 
   0   6  10  217.38   17.90 
  -1  -6 -10  235.58   19.90 
  -1  -6 -10  265.57   20.30 
  -1  -6 -10  269.27   19.90 
  -1  -6 -10  267.87   18.30 
   1   6  10  279.07   19.90 
   1   6  10  274.07   20.30 
  -2  -6 -10   26.70    6.00 
  -2  -6 -10   30.50    7.60 
   2   6  10   22.20    5.30 
   2   6  10   25.00    6.60 
   2   6  10   17.70    5.20 
  -3  -6 -10  165.08   15.60 
  -3  -6 -10  187.58   16.40 
  -3  -6 -10  211.38   17.80 
  -3  -6 -10  168.68   16.50 
   3   6  10  201.58   17.00 
   3   6  10  190.48   15.50 
   3   6  10  215.88   16.80 
  -4  -6 -10    8.30    6.00 
  -4  -6 -10    2.90    5.60 
  -4  -6 -10    8.20    6.60 
  -4  -6 -10    8.20    5.80 
   4   6  10    6.00    4.70 
   4   6  10   -3.50    5.10 
  -5  -6 -10   18.30    8.00 
  -5  -6 -10   39.00    9.20 
  -5  -6 -10   39.50    9.30 
   5   6  10   32.70    7.80 
  -6  -6 -10   -3.90    7.90 
  -6  -6 -10    9.60    8.30 
   5  -7 -10   20.90    6.90 
   5  -7 -10   33.50    5.70 
  -5   7  10   29.00   11.30 
   4  -7 -10   37.10    7.60 
   4  -7 -10   42.40    6.10 
  -4   7  10   29.70    8.80 
   3  -7 -10    9.90    6.80 
   3  -7 -10   23.10    4.70 
   3  -7 -10   27.80    6.70 
   3  -7 -10   19.70    6.10 
  -3   7  10    7.90    5.10 
  -3   7  10   24.10    7.40 
  -3   7  10   14.50    5.30 
   2  -7 -10   30.80    7.70 
   2  -7 -10   43.90    7.90 
   2  -7 -10   49.20    6.20 
   2  -7 -10   38.30   10.10 
  -2   7  10   34.60    6.40 
  -2   7  10   36.30    7.20 
  -2   7  10   37.30    8.10 
   1  -7 -10  176.08   14.80 
   1  -7 -10  144.89   15.20 
   1  -7 -10  174.98   15.20 
   1  -7 -10  186.18   13.00 
  -1   7  10  144.89   13.60 
  -1   7  10  170.88   15.90 
  -1   7  10  164.78   15.00 
   0  -7 -10  128.89   13.40 
   0  -7 -10  130.19   12.70 
   0  -7 -10  143.19   11.10 
   0  -7 -10  115.19   13.40 
   0   7  10  112.69   11.50 
   0   7  10  137.19   13.00 
   0   7  10  105.39   13.00 
  -1  -7 -10  147.59   14.90 
  -1  -7 -10  139.49   14.70 
  -1  -7 -10  156.28   14.30 
  -1  -7 -10  160.88   13.10 
   1   7  10  158.68   14.30 
   1   7  10  158.58   15.00 
  -2  -7 -10   29.30    7.70 
  -2  -7 -10   29.60    6.50 
   2   7  10   34.40    7.70 
   2   7  10   41.50    8.30 
   2   7  10   47.40    8.70 
  -3  -7 -10   68.89   10.00 
  -3  -7 -10   56.19    9.10 
  -3  -7 -10   56.89    9.70 
   3   7  10   72.09   10.10 
   3   7  10   52.59    8.70 
   3   7  10   60.19    7.80 
  -4  -7 -10    7.10    6.60 
  -4  -7 -10    5.40    5.50 
  -4  -7 -10    9.00    6.50 
  -4  -7 -10    3.10    6.20 
   4   7  10    5.10    6.30 
   4   7  10    6.70    5.60 
   4   7  10    8.10    5.10 
  -5  -7 -10   24.00    8.90 
  -5  -7 -10   33.50    9.60 
  -5  -7 -10   34.50    8.90 
   5   7  10   24.60    7.40 
  -6  -7 -10   -8.10    7.20 
  -6  -7 -10    4.10    8.30 
   6   7  10   -2.00    6.90 
   5  -8 -10   15.60    6.70 
  -5   8  10   14.30    8.60 
   4  -8 -10   25.10    5.50 
   4  -8 -10   26.40    7.30 
  -4   8  10   29.00    9.10 
   3  -8 -10   23.70    5.50 
   3  -8 -10    9.50    6.10 
  -3   8  10   15.10    6.10 
  -3   8  10   18.70    8.20 
  -3   8  10   12.40    6.40 
   2  -8 -10   13.30    6.00 
   2  -8 -10    9.50    6.00 
   2  -8 -10   10.50    7.00 
   2  -8 -10    8.60    4.50 
  -2   8  10   14.40    6.00 
  -2   8  10   14.20    6.00 
  -2   8  10   17.80    8.40 
   1  -8 -10   35.40    7.30 
   1  -8 -10   19.20    5.80 
   1  -8 -10   33.50    7.10 
   1  -8 -10   37.50    6.10 
  -1   8  10   29.70    7.90 
  -1   8  10   33.00    6.70 
  -1   8  10   25.00    7.10 
   0  -8 -10   13.10    5.30 
   0  -8 -10   33.80    7.50 
   0  -8 -10   34.80    7.10 
   0   8  10   31.90    7.80 
   0   8  10   67.69   10.30 
  -1  -8 -10   35.40    7.90 
  -1  -8 -10   27.40    6.80 
  -1  -8 -10   41.70    7.90 
   1   8  10   27.70    7.50 
   1   8  10   28.10    6.70 
  -2  -8 -10  244.98   19.10 
  -2  -8 -10  243.48   20.20 
  -2  -8 -10  254.27   20.10 
   2   8  10  265.17   20.70 
   2   8  10  255.87   20.00 
   2   8  10  240.28   18.60 
  -3  -8 -10   -0.40    4.50 
  -3  -8 -10    3.40    5.90 
  -3  -8 -10    0.30    5.60 
   3   8  10    6.00    5.50 
   3   8  10    1.00    4.30 
   3   8  10    6.50    5.60 
  -4  -8 -10    9.60    6.70 
  -4  -8 -10    3.10    7.10 
  -4  -8 -10    4.40    5.70 
   4   8  10    8.00    6.40 
   4   8  10   -1.20    5.10 
  -5  -8 -10   -2.20    7.30 
  -5  -8 -10   -0.80    7.10 
   5   8  10   -2.90    5.80 
   4  -9 -10   -1.80    4.10 
   4  -9 -10   -6.00    8.80 
  -4   9  10   -2.20    7.50 
   3  -9 -10   54.39    9.70 
   3  -9 -10   66.59    8.20 
  -3   9  10   75.99   12.60 
  -3   9  10   66.99   10.90 
   2  -9 -10   31.80    7.80 
   2  -9 -10   25.10    7.00 
   2  -9 -10   28.40    6.00 
  -2   9  10   15.40    8.10 
  -2   9  10   23.10    7.80 
  -2   9  10    8.60    5.80 
   1  -9 -10   -0.90    5.50 
   1  -9 -10   -2.30    5.10 
   1  -9 -10    0.60    6.50 
   1  -9 -10   12.80    5.30 
  -1   9  10    4.50    6.90 
  -1   9  10    3.50    5.80 
   0  -9 -10  123.79   11.60 
   0  -9 -10   98.59   12.00 
   0  -9 -10   88.89   12.10 
   0   9  10  104.89   13.50 
   0   9  10  106.99   13.20 
  -1  -9 -10   33.00    7.10 
  -1  -9 -10   34.20    8.00 
  -1  -9 -10   38.90    8.50 
   1   9  10   19.90    7.30 
   1   9  10   32.60    8.20 
  -2  -9 -10  200.38   18.00 
  -2  -9 -10  212.98   17.50 
  -2  -9 -10  204.38   18.30 
   2   9  10  197.58   18.00 
   2   9  10  209.68   18.30 
   2   9  10  218.88   16.80 
  -3  -9 -10    0.70   10.80 
  -3  -9 -10   11.00    6.30 
  -3  -9 -10    6.70    6.70 
   3   9  10    0.30    5.70 
   3   9  10   -0.10    5.50 
  -4  -9 -10   28.90    7.60 
  -4  -9 -10   22.50    8.70 
  -4  -9 -10   21.30    8.00 
   4   9  10   31.50    8.50 
  -5  -9 -10   -1.60    7.20 
  -5  -9 -10    9.90    8.80 
   5   9  10   11.10    7.50 
   3 -10 -10   38.30    8.50 
   3 -10 -10   36.50    8.80 
  -3  10  10   41.40   11.20 
   2 -10 -10    2.00    4.70 
   2 -10 -10    1.70    6.20 
  -2  10  10    9.90    7.40 
  -2  10  10   11.20    8.00 
   1 -10 -10   47.40    7.70 
   1 -10 -10   45.50    9.60 
   1 -10 -10   31.30    7.80 
  -1  10  10   51.29   11.00 
  -1  10  10   64.09   11.20 
   0 -10 -10   53.49    9.30 
   0 -10 -10   70.69    9.40 
   0 -10 -10   71.59   10.80 
   0  10  10   42.20    9.20 
   0  10  10   67.59   11.40 
  -1 -10 -10   17.40    7.10 
  -1 -10 -10    7.00    6.20 
  -1 -10 -10   15.70    6.60 
   1  10  10    4.50    5.60 
   1  10  10   20.90    7.70 
  -2 -10 -10   27.50    7.80 
  -2 -10 -10   27.00    7.70 
  -2 -10 -10   20.90    7.50 
   2  10  10   29.60    8.50 
   2  10  10   38.30    9.40 
  -3 -10 -10    6.40    6.80 
  -3 -10 -10    6.80    7.20 
  -3 -10 -10    8.20    5.60 
   3  10  10    8.40    6.10 
  -4 -10 -10   12.10    8.20 
  -4 -10 -10   29.20    9.00 
   4  10  10   25.20    7.90 
   2 -11 -10    5.40    6.40 
   2 -11 -10   12.60    5.80 
  -2  11  10    2.30    8.10 
   1 -11 -10   24.50    7.00 
   1 -11 -10   10.60    7.10 
  -1  11  10   22.40    9.30 
  -1  11  10   14.00    7.80 
   0 -11 -10   10.20    7.00 
   0 -11 -10   10.60    7.00 
   0 -11 -10   29.20    7.20 
   0  11  10    8.30    7.50 
   0  11  10   40.80   10.00 
  -1 -11 -10   33.80    8.20 
  -1 -11 -10   26.60    8.50 
  -1 -11 -10   28.60    7.90 
   1  11  10   24.40    8.60 
   1  11  10   35.00    9.10 
  -2 -11 -10  103.59   13.10 
  -2 -11 -10   83.29   11.10 
   2  11  10   67.79   11.40 
  -3 -11 -10   -3.60    6.20 
  -3 -11 -10  -11.60    6.30 
   3  11  10   12.00    7.30 
   2   7 -11  -18.70    7.80 
  -2  -7  11   -6.50    5.40 
   1   7 -11   18.60   10.50 
  -1  -7  11   19.70    7.30 
   0  -7  11   15.20    7.60 
  -1   7 -11    7.50   11.10 
   1  -7  11    6.70    7.20 
   3   6 -11   51.69   10.90 
  -3  -6  11   64.69    9.10 
   2   6 -11    5.80    8.40 
   1   6 -11   17.30    9.70 
  -1  -6  11   21.00    7.40 
   0   6 -11   19.90   10.30 
   0  -6  11   15.80    7.20 
  -1   6 -11   15.70   10.50 
   1  -6  11   20.00    7.80 
  -2   6 -11   -4.70   10.10 
   2  -6  11    1.70    6.40 
   2  -6  11   -4.60    6.60 
  -3   6 -11   -5.80   11.50 
   3  -6  11   -6.60    7.30 
   3  -6  11    0.80    5.70 
   4   5 -11    7.90    4.10 
   4   5 -11    9.30    7.10 
  -4  -5  11   -0.30    5.10 
   3   5 -11   61.89    8.10 
  -3  -5  11   67.09   16.30 
   2   5 -11   18.90    5.60 
   2   5 -11   21.70    8.30 
  -2  -5  11   21.90    7.00 
  -2  -5  11   26.60    7.50 
   1   5 -11   26.20    6.10 
   1   5 -11   34.00    9.90 
  -1  -5  11   23.50    5.60 
  -1  -5  11   16.00    7.50 
  -1  -5  11   34.20    7.90 
   0   5 -11   -1.40    8.40 
   0  -5  11    3.90    4.40 
   0  -5  11   -2.50    6.20 
   0  -5  11   -5.40    6.60 
  -1   5 -11   54.89   11.50 
   1  -5  11   18.70    7.30 
   1  -5  11   25.90    5.80 
  -2   5 -11   -7.40    8.70 
  -2   5 -11    0.50   16.80 
   2  -5  11   -0.60    6.60 
   2  -5  11   -2.50    5.20 
  -3   5 -11   22.80   13.30 
   3  -5  11   18.60    7.10 
   3  -5  11   14.60    3.10 
   3  -5  11   10.60   12.50 
  -4   5 -11    2.00    9.90 
   4  -5  11    7.90    3.40 
   4  -5  11    2.40    5.80 
   4   4 -11   46.50   12.10 
   4   4 -11   54.89    7.10 
  -4  -4  11   53.39    8.70 
  -4  -4  11   72.39    9.30 
   3   4 -11   18.70    6.80 
   3   4 -11   11.80    7.10 
  -3  -4  11    6.50    5.50 
  -3  -4  11   16.10    6.70 
   2   4 -11   93.49   11.70 
   2   4 -11   83.09    9.70 
  -2  -4  11   86.79    8.60 
  -2  -4  11   85.29   10.50 
  -2  -4  11   76.49   11.20 
   1   4 -11  191.58   15.60 
   1   4 -11  198.68   18.80 
   1   4 -11  163.58   19.20 
  -1  -4  11  204.38   18.00 
  -1  -4  11  208.08   15.00 
  -1  -4  11  187.58   17.10 
   0   4 -11   11.80   10.30 
   0   4 -11   -6.40    3.90 
   0   4 -11    1.20    8.00 
   0  -4  11   -8.20    5.80 
   0  -4  11   -7.90    3.40 
   0  -4  11    0.30    6.20 
  -1   4 -11   19.80   10.70 
  -1   4 -11   12.90    5.60 
  -1   4 -11   16.50    9.70 
   1  -4  11   16.80    7.80 
   1  -4  11   37.50    8.10 
   1  -4  11   30.30    6.80 
  -2   4 -11   11.20   11.70 
  -2   4 -11   25.20   10.60 
   2  -4  11   22.50    8.70 
   2  -4  11   19.20    6.80 
  -3   4 -11    8.60   11.00 
  -3   4 -11   20.00   13.80 
   3  -4  11   21.80    8.30 
   3  -4  11   24.80    7.10 
   3  -4  11   27.60    3.30 
  -4   4 -11    9.50   10.10 
  -4   4 -11  -20.80   12.50 
   4  -4  11    2.30    7.60 
   4  -4  11    1.50    3.10 
   4  -4  11   -1.00    5.00 
   5   3 -11    4.90    4.80 
   5   3 -11    1.20    3.20 
  -5  -3  11    5.90    4.50 
  -5  -3  11    0.50    4.40 
   4   3 -11   70.29    8.50 
   4   3 -11   74.79    9.70 
  -4  -3  11   85.19   10.30 
  -4  -3  11   81.39    9.90 
   3   3 -11    6.40    6.20 
   3   3 -11   -0.80    3.50 
  -3  -3  11    1.80    5.00 
  -3  -3  11   -2.40    4.60 
  -3  -3  11   -0.10    2.80 
   2   3 -11  220.48   17.50 
   2   3 -11  240.38   19.90 
  -2  -3  11  262.57   19.70 
  -2  -3  11  234.88   16.80 
  -2  -3  11  259.07   18.80 
   1   3 -11   33.40    8.70 
   1   3 -11   27.60    9.80 
   1   3 -11   33.70    6.20 
  -1  -3  11   36.40    7.60 
  -1  -3  11   30.70    5.90 
  -1  -3  11   41.30    8.10 
   0   3 -11    6.60    9.10 
   0   3 -11   -3.30    6.60 
   0   3 -11    5.20    4.40 
   0  -3  11    4.70    3.80 
   0  -3  11    3.60    5.60 
   0  -3  11    4.30    5.80 
  -1   3 -11   72.49    9.40 
  -1   3 -11   50.99   12.40 
  -1   3 -11   92.49   18.50 
   1  -3  11   69.09    8.90 
   1  -3  11   80.69   11.50 
   1  -3  11   69.39   10.20 
  -2   3 -11   29.20   11.90 
  -2   3 -11   17.20    9.00 
  -2   3 -11   17.70    5.40 
   2  -3  11   15.50    6.10 
   2  -3  11   19.40    7.20 
  -3   3 -11   26.50   10.00 
  -3   3 -11   12.80   11.40 
   3  -3  11   12.90    4.20 
   3  -3  11   36.70    8.10 
   3  -3  11   22.20    7.90 
   3  -3  11   25.80    3.30 
  -4   3 -11    4.20    9.20 
  -4   3 -11  -28.00   10.30 
   4  -3  11    1.40    5.80 
   4  -3  11   -0.70    3.00 
   4  -3  11    1.60    6.90 
  -5   3 -11  -13.50   14.90 
  -5   3 -11   15.10   10.40 
   5  -3  11    4.60    5.80 
   5  -3  11    3.90    3.90 
   5   2 -11   -3.80    4.70 
  -5  -2  11    7.00    4.70 
  -5  -2  11   16.30    4.80 
   4   2 -11  128.19   12.30 
   4   2 -11  116.09   10.50 
  -4  -2  11  101.89   11.00 
  -4  -2  11  109.49   11.20 
   3   2 -11    0.40    6.10 
   3   2 -11    9.80    4.40 
  -3  -2  11   24.50    5.90 
  -3  -2  11    2.50    4.50 
  -3  -2  11   19.00    4.10 
   2   2 -11   12.90    4.50 
   2   2 -11    6.10    6.10 
   2   2 -11   24.60    7.30 
  -2  -2  11   16.10    4.30 
  -2  -2  11   11.80    5.50 
  -2  -2  11   18.20    6.00 
   1   2 -11   28.20    5.70 
   1   2 -11   24.00    8.40 
   1   2 -11   19.20    7.30 
  -1  -2  11   28.40    6.70 
  -1  -2  11   24.10    6.50 
  -1  -2  11   19.30    4.60 
   0   2 -11   16.20    4.70 
   0   2 -11    8.60    8.40 
   0  -2  11   22.90    5.60 
   0  -2  11   23.20    6.90 
   0  -2  11   32.80    7.30 
  -1   2 -11   97.99   12.60 
  -1   2 -11   42.40   20.60 
  -1   2 -11   73.29    9.70 
   1  -2  11   58.79   10.00 
   1  -2  11   75.59    9.80 
   1  -2  11   70.19   10.20 
  -2   2 -11   34.30    9.20 
  -2   2 -11   31.00    9.00 
  -2   2 -11   37.10   11.40 
   2  -2  11   31.90    8.10 
   2  -2  11   31.90    8.70 
   2  -2  11   40.70    7.90 
  -3   2 -11   10.60    8.60 
  -3   2 -11    5.60   14.60 
   3  -2  11   20.90    7.80 
   3  -2  11   13.50    3.70 
   3  -2  11    8.80    2.70 
   3  -2  11   10.10    6.40 
  -4   2 -11    2.20   11.70 
  -4   2 -11   -1.70    8.30 
   4  -2  11   -1.30    3.20 
   4  -2  11   -1.90    6.70 
   4  -2  11   -0.30    5.80 
  -5   2 -11    8.80   10.50 
  -5   2 -11    7.30   13.30 
   5  -2  11    7.00    4.10 
   5  -2  11    2.90    7.50 
   5   1 -11   19.60    5.70 
   5   1 -11   25.40    5.20 
  -5  -1  11   29.80    7.10 
  -5  -1  11   34.80    5.70 
   4   1 -11  119.49   11.30 
   4   1 -11  124.69   12.40 
  -4  -1  11  123.39   11.40 
  -4  -1  11  141.49   12.00 
   3   1 -11   39.60    7.30 
   3   1 -11   36.20    6.40 
  -3  -1  11   30.80    5.20 
  -3  -1  11   32.80    6.40 
  -3  -1  11   39.90    6.50 
   2   1 -11  553.94   33.30 
   2   1 -11  486.85   32.00 
  -2  -1  11  484.45   32.30 
  -2  -1  11  470.05   31.40 
  -2  -1  11  549.35   32.80 
   1   1 -11    6.80    5.70 
   1   1 -11   10.10    7.30 
   1   1 -11    2.50    3.60 
  -1  -1  11    3.90    3.30 
  -1  -1  11    2.90    5.30 
  -1  -1  11    3.90    4.40 
   0   1 -11  159.58   14.70 
   0   1 -11  173.78   18.70 
   0   1 -11  190.58   16.90 
   0  -1  11  203.08   15.20 
   0  -1  11  206.58   16.40 
   0  -1  11  190.18   15.80 
  -1   1 -11    9.80    4.20 
  -1   1 -11   19.60    8.70 
  -1   1 -11   27.10    7.30 
   1  -1  11   35.10    7.50 
   1  -1  11   16.20    6.20 
   1  -1  11   13.30    5.00 
  -2   1 -11   11.30    7.00 
  -2   1 -11    7.60    8.90 
  -2   1 -11    4.50    3.60 
   2  -1  11    3.40    5.00 
   2  -1  11    7.70    2.10 
   2  -1  11    0.80    5.10 
   2  -1  11    4.50    1.80 
   2  -1  11    5.00    6.10 
  -3   1 -11   21.70   14.90 
  -3   1 -11   32.20    9.50 
   3  -1  11   34.20    4.40 
   3  -1  11   41.20    8.80 
   3  -1  11   45.80    9.00 
   3  -1  11   35.40    4.90 
  -4   1 -11   -2.80   10.30 
  -4   1 -11   -1.80    7.70 
   4  -1  11   -1.10    5.40 
   4  -1  11    3.50    6.30 
   4  -1  11    1.80    3.50 
  -5   1 -11   -5.10    7.80 
  -5   1 -11  -10.10   11.50 
   5  -1  11    6.70    4.50 
   5  -1  11   -0.40    6.10 
   5  -1  11   -4.00    6.50 
   6   0 -11    7.90    4.70 
   6   0 -11   22.90    4.70 
   6   0 -11   23.00    4.00 
  -6   0  11   31.50    5.40 
  -6   0  11   23.40    5.80 
   5   0 -11   18.40    5.30 
   5   0 -11   27.90    6.20 
   5   0 -11   17.30    3.40 
  -5   0  11   33.30    7.00 
  -5   0  11   29.40    6.00 
   4   0 -11  106.29   10.70 
   4   0 -11  120.69   11.40 
   4   0 -11  101.89    8.50 
   4   0 -11   99.09    7.30 
  -4   0  11  113.39   10.80 
  -4   0  11  109.09   10.30 
   3   0 -11    0.70    4.70 
   3   0 -11    5.50    4.00 
  -3   0  11    2.10    3.70 
  -3   0  11   -3.60    2.90 
  -3   0  11   -3.80    4.00 
   2   0 -11  109.19   10.80 
   2   0 -11   99.49   12.30 
   2   0 -11  112.99   11.90 
  -2   0  11  114.49   10.40 
  -2   0  11  125.09   11.70 
   1   0 -11  116.49   12.30 
   1   0 -11   92.99   10.20 
   1   0 -11   88.69   11.90 
  -1   0  11  133.49   10.50 
  -1   0  11  110.49   11.50 
  -1   0  11   89.59   10.70 
   0   0 -11  332.77   23.70 
   0   0 -11  384.46   25.20 
   0   0 -11  319.47   25.60 
   0   0  11  349.17   24.40 
   0   0  11  365.06   24.00 
   0   0  11  355.96   24.50 
  -1   0 -11  145.49   16.80 
  -1   0 -11  119.39   12.30 
  -1   0 -11  159.88   15.00 
   1   0  11  138.09   13.60 
   1   0  11  150.78   14.10 
   1   0  11  164.18   13.60 
  -2   0 -11   74.49   12.00 
  -2   0 -11   78.69   10.50 
  -2   0 -11   45.50    7.20 
   2   0  11   64.69    5.60 
   2   0  11   81.69   10.50 
   2   0  11   60.59    5.20 
   2   0  11   61.49    9.70 
   2   0  11   73.99    9.60 
  -3   0 -11   30.50    8.90 
  -3   0 -11   34.80   11.10 
   3   0  11   33.60    4.90 
   3   0  11   42.80    8.80 
   3   0  11   43.80    8.10 
  -4   0 -11    8.70    7.80 
  -4   0 -11   -8.80    9.20 
   4   0  11    0.50   11.50 
   4   0  11    6.20    3.90 
   4   0  11   -0.30    5.20 
  -5   0 -11    6.10    8.80 
  -5   0 -11    3.80   11.70 
   5   0  11    1.20    5.90 
   5   0  11    7.00    7.80 
   5   0  11    0.50    4.00 
  -6   0 -11   12.40   11.90 
   6   0  11    9.90    8.00 
   6   0  11    6.80    5.40 
   6  -1 -11   14.40    3.90 
   6  -1 -11    3.80    5.20 
   6  -1 -11   10.80    4.90 
  -6   1  11   13.80    5.10 
  -6   1  11    9.70    5.20 
   5  -1 -11  152.38   13.50 
   5  -1 -11  159.08   10.80 
   5  -1 -11  143.69   13.50 
  -5   1  11  177.28   12.90 
  -5   1  11  150.78   13.50 
   4  -1 -11   43.70    5.90 
   4  -1 -11   45.70    7.60 
   4  -1 -11   44.40    4.90 
   4  -1 -11   50.29    7.40 
  -4   1  11   42.60    5.70 
  -4   1  11   37.60    6.80 
  -4   1  11   47.50    6.50 
   3  -1 -11   81.89   10.00 
   3  -1 -11   69.49    5.50 
   3  -1 -11   69.19    8.90 
   3  -1 -11   63.59    6.50 
  -3   1  11   80.79    9.70 
  -3   1  11   74.59    9.30 
  -3   1  11   65.29    7.90 
   2  -1 -11  225.38   19.80 
   2  -1 -11  219.28   17.20 
   2  -1 -11  209.28   17.50 
  -2   1  11  233.88   17.10 
   1  -1 -11    0.30    4.80 
   1  -1 -11   -3.30    5.80 
   1  -1 -11   -5.90    3.10 
  -1   1  11   -9.60    3.70 
  -1   1  11    6.60    4.10 
   0  -1 -11  273.07   20.00 
   0  -1 -11  226.78   18.70 
   0   1  11  279.07   19.40 
   0   1  11  291.07   20.00 
   0   1  11  252.47   19.00 
  -1  -1 -11   29.50    6.50 
  -1  -1 -11   43.50    8.30 
  -1  -1 -11   31.00    4.20 
   1   1  11   43.10    7.60 
   1   1  11   24.90    6.10 
   1   1  11   35.90    3.20 
   1   1  11   44.70    7.30 
   1   1  11   38.80    3.90 
  -2  -1 -11   42.70    5.90 
  -2  -1 -11   50.59    7.70 
  -2  -1 -11   46.10    9.10 
   2   1  11   48.40    4.70 
   2   1  11   53.99    8.00 
   2   1  11   46.50    5.30 
   2   1  11   41.90    8.20 
   2   1  11   34.20    7.80 
  -3  -1 -11   48.50    9.00 
   3   1  11   55.29    6.00 
   3   1  11   57.39   11.50 
   3   1  11   45.60    5.50 
   3   1  11   45.40    9.00 
  -4  -1 -11    6.70    7.10 
   4   1  11    3.00    6.60 
   4   1  11    9.80    4.20 
   4   1  11    7.30    6.40 
   4   1  11    6.50    5.40 
  -5  -1 -11   41.90    9.80 
   5   1  11   37.50    9.30 
   5   1  11   53.79    7.30 
   5   1  11   38.50    8.40 
  -6  -1 -11   -5.20   10.10 
   6   1  11   10.70    7.60 
   6   1  11    0.70    5.20 
   6  -2 -11   -0.30    5.50 
   6  -2 -11    5.90    3.60 
   6  -2 -11   -1.20    4.50 
  -6   2  11   -1.10    5.20 
   5  -2 -11  146.89   13.20 
   5  -2 -11  134.79   13.80 
   5  -2 -11  141.29   10.20 
  -5   2  11  139.89   12.00 
  -5   2  11  135.99   13.20 
   4  -2 -11   27.30    6.30 
   4  -2 -11   37.20    6.80 
   4  -2 -11   32.40    4.10 
   4  -2 -11   24.90    5.50 
  -4   2  11   26.10    4.60 
  -4   2  11   24.40    6.10 
  -4   2  11   29.10    5.50 
  -4   2  11   29.70    5.60 
   3  -2 -11    8.30    4.60 
   3  -2 -11    3.40    4.30 
   3  -2 -11    9.40    5.30 
   3  -2 -11   10.60    2.90 
   3  -2 -11   21.30    4.80 
  -3   2  11   10.50    5.00 
  -3   2  11   15.30    3.40 
  -3   2  11   23.30    4.90 
  -3   2  11    5.00    3.80 
   2  -2 -11  118.99   11.80 
   2  -2 -11  113.59    7.80 
   2  -2 -11  107.49   11.20 
  -2   2  11  101.29   10.10 
  -2   2  11  120.79   11.60 
  -2   2  11  105.19    7.90 
  -2   2  11  106.09   10.30 
   1  -2 -11  156.28   13.10 
   1  -2 -11  122.49    8.70 
   1  -2 -11  135.29   13.10 
   1  -2 -11  123.89   11.90 
  -1   2  11  124.69    8.50 
  -1   2  11  124.19   11.50 
  -1   2  11  138.49   12.60 
  -1   2  11  133.29   11.50 
   0  -2 -11  445.76   28.70 
   0  -2 -11  409.26   25.10 
   0  -2 -11  446.86   29.20 
   0   2  11  421.36   27.90 
   0   2  11  387.36   24.50 
   0   2  11  453.75   28.20 
   0   2  11  455.35   28.60 
  -1  -2 -11    1.60    2.80 
  -1  -2 -11    5.80    4.50 
  -1  -2 -11    2.60    4.90 
  -1  -2 -11   -1.00    5.40 
   1   2  11    2.40    1.90 
   1   2  11   -0.30    3.40 
   1   2  11    3.40    4.10 
   1   2  11    1.80    4.90 
  -2  -2 -11  206.38   14.70 
  -2  -2 -11  211.78   18.00 
  -2  -2 -11  235.28   19.30 
   2   2  11  195.68   13.40 
   2   2  11  222.88   17.70 
  -3  -2 -11  297.67   20.80 
  -3  -2 -11  290.57   23.20 
  -3  -2 -11  322.57   24.70 
   3   2  11  338.77   24.00 
   3   2  11  280.47   20.70 
   3   2  11  324.07   20.00 
  -4  -2 -11   -9.10    4.90 
  -4  -2 -11    6.00    7.30 
   4   2  11    5.40    5.60 
   4   2  11   -5.70    5.80 
   4   2  11   -4.90    3.80 
   4   2  11   -2.80    4.90 
  -5  -2 -11   78.79   12.90 
  -5  -2 -11   71.99   10.90 
  -5  -2 -11   77.89   13.60 
   5   2  11   88.19   11.20 
   5   2  11   96.69   12.60 
   5   2  11   75.99   10.50 
   6   2  11    4.90    5.40 
   6   2  11   18.40    7.70 
   6  -3 -11   11.00    4.10 
   6  -3 -11    9.70    6.50 
   6  -3 -11   18.30    6.20 
  -6   3  11   11.30    6.50 
   5  -3 -11   31.30    4.80 
   5  -3 -11   53.09    7.90 
   5  -3 -11   33.80    7.70 
  -5   3  11   53.79    8.50 
  -5   3  11   35.70    6.40 
   4  -3 -11    3.20    3.00 
   4  -3 -11   -3.70    4.70 
   4  -3 -11    1.40    4.70 
  -4   3  11    1.50    3.80 
  -4   3  11   -2.70    4.70 
  -4   3  11   -2.90    3.20 
   3  -3 -11  267.97   21.00 
   3  -3 -11  313.87   21.30 
   3  -3 -11  303.07   18.30 
  -3   3  11  303.67   20.30 
  -3   3  11  321.67   21.50 
  -3   3  11  261.07   18.50 
   2  -3 -11   75.59    9.70 
   2  -3 -11   83.99    6.90 
   2  -3 -11   85.69   10.20 
   2  -3 -11   74.99    9.60 
  -2   3  11   78.49    7.00 
  -2   3  11   59.19    9.10 
  -2   3  11   84.99    9.00 
  -2   3  11   94.19    9.10 
   1  -3 -11    6.30    5.40 
   1  -3 -11    2.90    4.30 
   1  -3 -11    6.70    4.70 
   1  -3 -11    2.40    2.70 
  -1   3  11    4.70    2.40 
  -1   3  11    7.10    4.90 
  -1   3  11    8.80    4.00 
  -1   3  11    8.50    4.00 
   0  -3 -11  317.27   22.70 
   0  -3 -11  327.17   19.90 
   0  -3 -11  338.57   22.90 
   0   3  11  310.97   22.60 
   0   3  11  298.07   19.10 
   0   3  11  330.97   22.40 
   0   3  11  342.47   22.20 
  -1  -3 -11   70.89   10.10 
  -1  -3 -11   68.79    9.60 
  -1  -3 -11   85.79    7.60 
  -1  -3 -11   86.59   10.30 
   1   3  11   61.19    5.80 
   1   3  11   60.49    9.70 
   1   3  11   68.89    9.40 
   1   3  11   87.39   10.00 
  -2  -3 -11  203.48   17.50 
  -2  -3 -11  197.08   18.70 
  -2  -3 -11  203.88   14.60 
  -2  -3 -11  178.88   16.00 
   2   3  11  197.58   17.20 
   2   3  11  200.98   13.20 
   2   3  11  228.88   18.60 
  -3  -3 -11   22.70    8.50 
  -3  -3 -11   32.00    6.50 
  -3  -3 -11   38.70   10.10 
   3   3  11   22.00    7.20 
   3   3  11   39.40    8.70 
  -4  -3 -11   63.89    9.50 
  -4  -3 -11   61.99   11.30 
  -4  -3 -11   74.29   11.30 
   4   3  11   73.79   11.20 
   4   3  11   82.39   10.60 
   4   3  11   71.79    8.40 
   4   3  11   66.59   10.30 
  -5  -3 -11    3.20    8.00 
  -5  -3 -11   24.50    8.90 
  -5  -3 -11   29.30    8.20 
   5   3  11   34.20    8.50 
   5   3  11   10.00    7.30 
   5   3  11   42.90    7.20 
  -6  -3 -11    2.80    7.60 
  -6  -3 -11    9.10    8.90 
   6   3  11    0.00    6.10 
   6   3  11   -2.40    5.50 
   5  -4 -11  160.58   12.60 
   5  -4 -11  150.78   16.10 
  -5   4  11  194.08   23.00 
   4  -4 -11    9.20    5.20 
   4  -4 -11    2.70    3.10 
   4  -4 -11   -4.40    4.40 
  -4   4  11   -1.00    4.00 
  -4   4  11    5.80    5.70 
  -4   4  11    0.50    3.60 
   3  -4 -11   17.60    4.00 
   3  -4 -11   18.40    6.40 
   3  -4 -11   19.00    5.80 
   3  -4 -11   20.60    6.00 
  -3   4  11   29.50    5.40 
  -3   4  11   20.90    6.50 
  -3   4  11   18.50    5.20 
   2  -4 -11   97.79   11.90 
   2  -4 -11  120.19   12.10 
   2  -4 -11  123.49   12.50 
   2  -4 -11  129.89    9.20 
  -2   4  11  131.89   12.50 
  -2   4  11  112.49   10.80 
  -2   4  11  106.59    9.10 
   1  -4 -11   25.80    4.20 
   1  -4 -11   28.20    6.60 
   1  -4 -11   24.70    6.70 
   1  -4 -11   23.00    6.40 
  -1   4  11   18.70    3.40 
  -1   4  11   23.80    6.20 
  -1   4  11   19.60    5.40 
  -1   4  11   21.80    5.30 
   0  -4 -11   37.90    6.70 
   0  -4 -11   72.69    9.40 
   0  -4 -11   59.79    6.50 
   0  -4 -11   58.59    9.20 
   0   4  11   49.60    7.30 
   0   4  11   44.90    5.10 
   0   4  11   56.69    7.50 
   0   4  11   62.99    8.50 
  -1  -4 -11   18.70    4.50 
  -1  -4 -11    8.20    4.30 
  -1  -4 -11   15.40    6.70 
  -1  -4 -11   12.50    4.70 
   1   4  11   11.20    4.30 
   1   4  11   14.40    3.10 
   1   4  11   12.10    5.70 
   1   4  11   16.20    5.00 
  -2  -4 -11   11.10    4.70 
  -2  -4 -11   14.70    6.10 
  -2  -4 -11    6.00    6.60 
  -2  -4 -11    4.00    6.70 
   2   4  11    7.80    6.00 
   2   4  11    3.90    4.50 
  -3  -4 -11    2.90    5.00 
  -3  -4 -11   -7.20    5.90 
  -3  -4 -11    9.40    5.90 
   3   4  11    2.80    5.90 
   3   4  11   -0.60    4.70 
   3   4  11    1.60    4.30 
  -4  -4 -11  110.99   14.00 
  -4  -4 -11  118.99   14.50 
  -4  -4 -11  125.19   12.70 
   4   4  11   70.79   11.90 
   4   4  11  118.89   13.60 
  -5  -4 -11   22.10    9.00 
  -5  -4 -11   21.50    8.00 
  -5  -4 -11   31.10    9.00 
   5   4  11   24.00    6.30 
   5   4  11   30.10    8.60 
  -6  -4 -11   18.60    9.20 
  -6  -4 -11   20.00    9.60 
   6   4  11   20.60    8.80 
   6   4  11   27.40    7.50 
   5  -5 -11   25.90    6.80 
   5  -5 -11   18.70    4.60 
  -5   5  11   27.70    8.50 
   4  -5 -11   36.30    5.30 
   4  -5 -11   29.40    6.80 
   4  -5 -11   27.40    8.00 
  -4   5  11   29.60    7.70 
  -4   5  11   47.00    8.70 
   3  -5 -11   34.10    7.00 
   3  -5 -11   30.60    4.90 
   3  -5 -11   25.30    7.50 
   3  -5 -11   37.60    7.10 
  -3   5  11   33.30    7.50 
  -3   5  11   27.00    6.10 
  -3   5  11   30.60    5.90 
   2  -5 -11   17.30    6.00 
   2  -5 -11   14.30    5.90 
   2  -5 -11   12.70    6.20 
   2  -5 -11   23.20    4.20 
  -2   5  11   10.90    4.60 
  -2   5  11    8.30    4.40 
  -2   5  11   14.40    6.10 
   1  -5 -11  127.79   13.50 
   1  -5 -11  128.89   13.90 
   1  -5 -11  143.89   13.50 
   1  -5 -11  157.38   11.20 
  -1   5  11  144.89   12.30 
  -1   5  11  144.99   13.80 
  -1   5  11  145.79   13.30 
   0  -5 -11   87.59   11.00 
   0  -5 -11   90.19   10.90 
   0  -5 -11   82.79   10.70 
   0  -5 -11   95.89    8.60 
   0   5  11   67.29   10.00 
   0   5  11   95.09   10.60 
   0   5  11   94.99    9.80 
  -1  -5 -11  108.79   12.30 
  -1  -5 -11  123.59   13.70 
  -1  -5 -11  110.39   10.30 
  -1  -5 -11  116.19   12.30 
   1   5  11  113.69   14.20 
   1   5  11  107.29   11.80 
   1   5  11  111.79   12.70 
  -2  -5 -11  530.95   35.20 
  -2  -5 -11  543.95   33.70 
  -2  -5 -11  528.65   36.00 
   2   5  11  549.05   35.50 
  -3  -5 -11   -3.50    5.70 
  -3  -5 -11    2.90    5.00 
  -3  -5 -11   10.60    6.40 
   3   5  11    1.00    4.80 
   3   5  11   -5.30    5.20 
   3   5  11   -4.30    4.60 
  -4  -5 -11   38.80    8.20 
  -4  -5 -11   44.90    9.90 
  -4  -5 -11   37.30    8.30 
   4   5  11   30.30    8.00 
   4   5  11   55.49    9.60 
   4   5  11   38.00    8.20 
  -5  -5 -11    6.80    7.20 
  -5  -5 -11   28.20    8.10 
  -5  -5 -11   18.10    9.30 
  -6  -5 -11   -7.80    6.90 
  -6  -5 -11    2.50    8.60 
   6   5  11    6.10    6.30 
   6   5  11   -1.90    6.20 
   5  -6 -11   69.79    9.80 
   5  -6 -11   54.39    6.80 
  -5   6  11   51.19   10.10 
   4  -6 -11    1.00    3.80 
   4  -6 -11    2.40    5.50 
  -4   6  11   -1.10    5.90 
   3  -6 -11  243.18   21.10 
   3  -6 -11  282.27   20.70 
   3  -6 -11  238.48   20.40 
   3  -6 -11  302.97   18.20 
  -3   6  11  258.67   20.40 
  -3   6  11  272.67   20.10 
  -3   6  11  266.57   21.70 
   2  -6 -11   95.59    8.50 
   2  -6 -11   88.39   10.90 
   2  -6 -11   96.79   11.70 
   2  -6 -11   56.49    9.60 
  -2   6  11   70.19   10.10 
  -2   6  11   70.39    8.90 
  -2   6  11   95.39   10.60 
   1  -6 -11   92.99   11.10 
   1  -6 -11   75.69   11.00 
   1  -6 -11   97.99    8.80 
  -1   6  11   66.29    9.90 
  -1   6  11   85.59    9.90 
  -1   6  11  106.39   11.10 
   0  -6 -11   13.70    5.20 
   0  -6 -11   17.20    4.90 
   0  -6 -11   17.80    5.60 
   0  -6 -11    9.40    6.10 
   0   6  11   21.40    5.90 
   0   6  11   16.40    6.30 
   0   6  11   23.20    5.60 
  -1  -6 -11   15.50    5.30 
  -1  -6 -11   16.90    5.50 
  -1  -6 -11   32.20    7.40 
  -1  -6 -11   28.80    7.40 
   1   6  11   29.40    7.70 
   1   6  11   27.20    7.20 
  -2  -6 -11   26.50    7.20 
  -2  -6 -11   34.00    6.40 
  -2  -6 -11   23.90    7.80 
   2   6  11   12.70    5.30 
   2   6  11    7.40    6.10 
  -3  -6 -11   15.40    7.40 
  -3  -6 -11    4.20    5.50 
   3   6  11    3.40    4.30 
   3   6  11    8.20    6.10 
   3   6  11   21.50    6.70 
  -4  -6 -11   44.10   10.70 
  -4  -6 -11   41.80    9.50 
  -4  -6 -11   50.89    9.00 
   4   6  11   40.90    8.90 
   4   6  11   58.09    9.60 
  -5  -6 -11    1.60    6.80 
  -5  -6 -11    4.90    8.20 
  -5  -6 -11   -5.80    6.40 
   5   6  11   18.60    7.30 
   4  -7 -11    8.40    6.10 
   4  -7 -11   -4.10    3.80 
  -4   7  11   -4.60    6.20 
   3  -7 -11  315.37   20.40 
   3  -7 -11  283.37   22.80 
  -3   7  11  346.97   30.40 
  -3   7  11  290.67   24.20 
   2  -7 -11    3.60    4.10 
   2  -7 -11   -8.80    4.80 
   2  -7 -11    6.70    5.40 
   2  -7 -11   -6.60    4.40 
  -2   7  11    1.80    4.60 
  -2   7  11   -0.90    4.40 
  -2   7  11   -4.10    5.60 
   1  -7 -11  139.09   14.50 
   1  -7 -11  158.58   15.40 
   1  -7 -11  132.09   14.00 
   1  -7 -11  158.48   12.40 
  -1   7  11  165.28   14.70 
  -1   7  11  126.59   14.80 
  -1   7  11  150.38   13.50 
   0  -7 -11    1.30    4.80 
   0  -7 -11    6.60    5.60 
   0  -7 -11    1.00    4.00 
   0  -7 -11    1.60    4.50 
   0   7  11    7.80    5.40 
   0   7  11   11.70    6.00 
  -1  -7 -11   77.59   10.30 
  -1  -7 -11   72.39    8.70 
  -1  -7 -11   88.59   12.20 
   1   7  11   57.89    8.20 
   1   7  11   77.59   10.80 
  -2  -7 -11  140.49   13.90 
  -2  -7 -11  100.69   13.20 
   2   7  11  119.59   14.00 
   2   7  11  119.29   13.20 
  -3  -7 -11   57.79   10.30 
  -3  -7 -11   67.69   10.10 
   3   7  11   79.39   10.00 
   3   7  11   70.29   10.00 
   3   7  11   80.29   10.70 
  -4  -7 -11   27.50    8.60 
  -4  -7 -11   34.10    8.10 
  -4  -7 -11   33.90    8.50 
   4   7  11   31.10    8.10 
   4   7  11   44.70    8.90 
  -5  -7 -11    1.10    7.50 
  -5  -7 -11    0.90    7.10 
   5   7  11    4.30    6.50 
   4  -8 -11   28.60    8.50 
   4  -8 -11   34.90    6.30 
  -4   8  11   36.30   10.80 
   3  -8 -11   55.09    9.30 
   3  -8 -11   40.20    6.60 
  -3   8  11   51.19   10.40 
   2  -8 -11   24.70    7.50 
   2  -8 -11   19.80    7.20 
   2  -8 -11   32.50    6.20 
  -2   8  11   27.50    7.90 
  -2   8  11   19.10    6.50 
  -2   8  11   32.60    8.90 
   1  -8 -11  131.79   11.50 
   1  -8 -11  116.99   14.00 
   1  -8 -11  132.99   13.60 
   1  -8 -11  116.09   14.40 
  -1   8  11  102.79   13.50 
  -1   8  11  127.79   14.10 
   0  -8 -11   73.99    8.80 
   0  -8 -11   63.29   10.50 
   0  -8 -11   69.79   10.70 
   0  -8 -11   68.09    9.80 
   0   8  11   69.09   11.20 
  -1  -8 -11   35.90    7.10 
  -1  -8 -11   35.10    7.70 
  -1  -8 -11   49.00    9.10 
   1   8  11   48.10    9.60 
   1   8  11   42.20    8.50 
  -2  -8 -11   83.99   10.20 
  -2  -8 -11   80.79   11.40 
  -2  -8 -11   55.99    9.30 
   2   8  11   64.19   10.00 
   2   8  11   58.79   10.10 
  -3  -8 -11  149.69   16.40 
  -3  -8 -11  154.98   15.20 
   3   8  11  137.59   15.50 
   3   8  11  145.69   17.50 
  -4  -8 -11   68.69   11.70 
  -4  -8 -11   71.49   11.10 
  -4  -8 -11   60.89   10.20 
   4   8  11   57.99   10.20 
  -5  -8 -11    1.30    7.70 
  -5  -8 -11    9.60    9.70 
   5   8  11   -4.50    6.10 
   3  -9 -11    3.60    7.20 
   3  -9 -11   -2.80    4.60 
  -3   9  11    4.10    7.70 
   2  -9 -11   61.09    7.90 
   2  -9 -11   65.49   10.30 
  -2   9  11   67.89   10.70 
  -2   9  11   43.80   10.30 
   1  -9 -11   42.00    9.30 
   1  -9 -11   42.90    7.20 
   1  -9 -11   39.80    8.90 
  -1   9  11   47.80    9.40 
   0  -9 -11   10.20    6.70 
   0  -9 -11   -2.00    5.00 
   0  -9 -11   -2.60    4.60 
   0   9  11    8.80    6.50 
   0   9  11    0.60    6.30 
  -1  -9 -11  121.59   15.20 
  -1  -9 -11  126.69   14.40 
  -1  -9 -11  129.29   13.50 
   1   9  11  132.29   14.50 
   1   9  11  117.99   14.60 
  -2  -9 -11   37.60    8.20 
  -2  -9 -11   32.80    7.80 
  -2  -9 -11   32.10    8.50 
   2   9  11   34.80    8.30 
   2   9  11   33.10    9.30 
  -3  -9 -11   65.19   10.20 
  -3  -9 -11   46.10    9.60 
  -3  -9 -11   44.00   10.10 
   3   9  11   34.40   12.70 
   3   9  11   46.80    8.80 
  -4  -9 -11    1.50    7.30 
  -4  -9 -11    4.10    7.70 
   4   9  11    5.00    7.00 
   2 -10 -11    0.80    6.30 
   2 -10 -11    9.00    5.50 
  -2  10  11   13.50    8.30 
   1 -10 -11   13.50    6.00 
   1 -10 -11   25.60    7.80 
  -1  10  11   10.40    6.30 
  -1  10  11   23.70    8.90 
   0 -10 -11    9.60    6.20 
   0 -10 -11   -1.90    5.80 
   0 -10 -11    9.30    5.90 
   0  10  11   10.50    6.60 
   0  10  11    5.80    7.60 
  -1 -10 -11   17.30    7.20 
  -1 -10 -11   19.80    7.40 
  -1 -10 -11   18.30    7.60 
   1  10  11   37.50    9.30 
   1  10  11   21.00    8.30 
  -2 -10 -11    7.80    6.50 
  -2 -10 -11    3.70    7.00 
  -2 -10 -11   14.80    7.10 
   2  10  11    6.00    7.40 
   2  10  11    2.60    5.30 
  -3 -10 -11   21.70    7.30 
  -3 -10 -11   36.80    9.50 
   3  10  11   26.90    8.20 
   1 -11 -11   -3.00    5.40 
   1 -11 -11   -4.10    6.20 
  -1  11  11   -3.10    7.10 
  -1  11  11    6.60    8.40 
   0 -11 -11   34.80   10.50 
   0 -11 -11   26.30    8.20 
   0  11  11   23.40    9.40 
   0  11  11   34.70    9.70 
  -1 -11 -11   14.00    7.30 
  -1 -11 -11   12.10    7.50 
  -1 -11 -11    8.70    6.80 
   1  11  11   18.60    8.30 
   1  11  11    4.80    8.10 
  -2 -11 -11   43.00   10.00 
  -2 -11 -11   40.80    9.60 
  -2 -11 -11   53.29    9.90 
   2  11  11   33.00    7.70 
   1   6 -12  -12.90    8.50 
  -1  -6  12   -4.50    6.10 
   0   6 -12    7.40   10.40 
   0  -6  12   -0.80    7.90 
  -1   6 -12   -6.70    9.80 
   1  -6  12   -2.50    7.00 
   3   5 -12    3.70    7.40 
  -3  -5  12    5.90    6.00 
   2   5 -12   24.70    9.50 
  -2  -5  12   17.20    7.10 
   1   5 -12    9.60   10.20 
  -1  -5  12    8.60    6.60 
   0   5 -12   51.29   12.60 
   0  -5  12   44.90    9.40 
  -1   5 -12    1.60    9.80 
   1  -5  12    7.10    6.90 
  -2   5 -12    4.20   10.70 
   2  -5  12   -0.40    6.50 
   4   4 -12   21.40    7.80 
   4   4 -12   29.90    5.60 
   3   4 -12    5.00    7.30 
   3   4 -12    4.10    4.40 
  -3  -4  12    7.30    6.10 
   2   4 -12   27.10    8.90 
  -2  -4  12   11.00    6.80 
   1   4 -12   24.10    9.60 
  -1  -4  12   21.60    7.50 
   0   4 -12    7.60    9.30 
   0  -4  12    4.40    6.70 
   0  -4  12    6.90    5.30 
  -1   4 -12    4.80    8.70 
   1  -4  12    1.90    4.70 
   1  -4  12   -2.00    5.90 
  -2   4 -12    3.00    9.60 
   2  -4  12    8.70    6.20 
   2  -4  12    3.40    6.60 
  -3   4 -12   23.30   11.70 
   3  -4  12   30.90    9.00 
   3  -4  12   23.00    7.40 
   4   3 -12   15.90    7.20 
   4   3 -12   14.30    4.50 
  -4  -3  12   11.80    5.80 
   3   3 -12   39.80    9.40 
   3   3 -12   33.80    6.40 
  -3  -3  12   43.00    7.90 
  -3  -3  12   40.40    8.30 
   2   3 -12   64.49    8.80 
   2   3 -12   73.69   11.10 
  -2  -3  12   66.99    9.80 
  -2  -3  12   62.39   10.10 
   1   3 -12    3.10    4.00 
   1   3 -12    1.80    7.80 
  -1  -3  12    4.40    6.50 
  -1  -3  12    7.10    4.30 
  -1  -3  12    4.80    6.00 
   0   3 -12    4.80    4.80 
   0   3 -12    7.80   10.90 
   0   3 -12   -2.60    8.10 
   0  -3  12    3.20    4.00 
   0  -3  12   18.00    7.00 
   0  -3  12   14.00    7.30 
  -1   3 -12   12.60   10.00 
  -1   3 -12   10.70    8.90 
   1  -3  12   15.40    7.40 
   1  -3  12   12.50    5.90 
  -2   3 -12   25.00   10.50 
  -2   3 -12   11.60   11.60 
   2  -3  12   12.70    6.40 
   2  -3  12   15.80    7.90 
  -3   3 -12    6.20   13.40 
  -3   3 -12    3.60    9.40 
   3  -3  12    0.50    6.50 
   3  -3  12   -5.80    6.00 
   3  -3  12   -1.20    2.00 
  -4   3 -12    1.80   10.80 
  -4   3 -12  -15.40   12.70 
   4  -3  12    6.90    7.00 
   4  -3  12    2.90    3.10 
   4  -3  12    6.20    7.40 
   4   2 -12   -3.10    3.60 
   4   2 -12   -3.10    5.60 
  -4  -2  12   -3.90    4.40 
  -4  -2  12   -0.30    4.80 
   3   2 -12  119.19   11.70 
   3   2 -12  141.69   14.50 
  -3  -2  12  122.49   12.70 
  -3  -2  12  119.39   12.70 
   2   2 -12   15.10    5.30 
   2   2 -12   18.80    7.90 
  -2  -2  12   28.60    6.70 
  -2  -2  12   20.30    4.80 
  -2  -2  12   23.00    6.80 
   1   2 -12  232.58   17.70 
   1   2 -12  267.17   20.60 
   1   2 -12  196.68   21.50 
  -1  -2  12  215.18   18.80 
  -1  -2  12  223.78   17.30 
  -1  -2  12  265.97   19.40 
   0   2 -12   42.20   10.90 
   0   2 -12   46.10    7.30 
   0   2 -12   40.60    9.00 
   0  -2  12   44.60    8.70 
   0  -2  12   53.39    7.80 
   0  -2  12   47.70    8.70 
  -1   2 -12    1.50    4.70 
  -1   2 -12    1.80    7.20 
  -1   2 -12   -3.50    8.50 
   1  -2  12   -2.90    4.20 
   1  -2  12   -5.20    5.40 
   1  -2  12   -6.10    5.40 
  -2   2 -12    0.70   10.70 
  -2   2 -12   11.40    5.80 
  -2   2 -12   25.30   13.60 
   2  -2  12   18.90    7.60 
   2  -2  12   29.00    6.60 
  -3   2 -12   12.10    8.60 
   3  -2  12   12.00    2.70 
   3  -2  12   22.70    7.10 
   3  -2  12   12.90    7.80 
  -4   2 -12   -6.50    8.80 
  -4   2 -12    2.90   11.50 
   4  -2  12    3.30    3.20 
   4  -2  12   -3.30    6.80 
   4  -2  12    8.10    7.00 
  -5  -1  12   60.49    8.60 
  -5  -1  12   89.19   13.70 
   4   1 -12   -0.80    4.20 
   4   1 -12    1.30    6.00 
  -4  -1  12   -2.20    5.20 
  -4  -1  12    8.90    4.70 
   3   1 -12   92.69   10.60 
   3   1 -12  109.79   12.30 
  -3  -1  12   94.99   11.40 
  -3  -1  12  102.39   11.00 
   2   1 -12   34.40    7.60 
   2   1 -12    9.50    6.10 
   2   1 -12   30.60    6.00 
  -2  -1  12   27.30    5.60 
  -2  -1  12   33.30    7.10 
   1   1 -12  -10.80    7.10 
   1   1 -12   14.50    4.90 
   1   1 -12    5.00    6.30 
  -1  -1  12   11.90    6.10 
  -1  -1  12   12.90    4.50 
  -1  -1  12   13.10    5.40 
   0   1 -12   85.69   10.40 
   0   1 -12  113.29   13.30 
   0   1 -12   77.59   12.90 
   0  -1  12   87.19   11.10 
   0  -1  12  104.39   12.20 
   0  -1  12   98.19   10.50 
  -1   1 -12   70.19    9.70 
  -1   1 -12   54.59   12.20 
   1  -1  12   77.79   11.10 
   1  -1  12   64.49   10.10 
   1  -1  12   86.49   10.80 
  -2   1 -12   49.99   10.10 
  -2   1 -12   37.30   11.60 
  -2   1 -12   45.00    8.00 
   2  -1  12   60.79   10.30 
   2  -1  12   74.09   10.30 
  -3   1 -12   38.90   13.10 
  -3   1 -12   34.60    9.10 
   3  -1  12   15.90    6.70 
   3  -1  12   23.70    8.10 
   3  -1  12   20.90    3.80 
   3  -1  12   28.30    3.80 
  -4   1 -12   16.10   12.40 
  -4   1 -12   28.90   10.90 
   4  -1  12   30.40    5.10 
   4  -1  12   32.90    9.20 
   4  -1  12   28.40    8.70 
  -5   1 -12  -15.20   11.40 
  -5   1 -12   11.80    9.80 
   5  -1  12   -1.90    6.10 
   5  -1  12   -2.60    4.00 
   5   0 -12   33.70    6.40 
   5   0 -12   34.30    7.20 
  -5   0  12   29.80    6.60 
   4   0 -12   22.30    6.90 
   4   0 -12   14.20    5.10 
  -4   0  12   22.80    5.20 
  -4   0  12   15.00    5.70 
   3   0 -12   90.79   11.00 
   3   0 -12   68.79    9.40 
  -3   0  12   77.79    9.80 
  -3   0  12   77.69    9.70 
  -3   0  12   95.49    9.00 
   2   0 -12   26.40    7.50 
   2   0 -12   -3.80    8.60 
   2   0 -12   30.10    6.30 
  -2   0  12   29.10    5.50 
  -2   0  12   25.70    6.60 
   1   0 -12   10.60    8.10 
   1   0 -12   19.00    5.50 
   1   0 -12   19.30    7.20 
  -1   0  12   14.80    6.20 
  -1   0  12   18.00    4.60 
  -1   0  12   22.00    6.10 
   0   0 -12  131.79   14.30 
   0   0 -12  115.19   12.00 
   0   0 -12  126.49   15.00 
   0   0  12  126.49   12.00 
   0   0  12  116.89   12.70 
  -1   0 -12   68.09   10.80 
  -1   0 -12   39.80    7.00 
  -1   0 -12   57.59   11.10 
   1   0  12   64.59    8.60 
   1   0  12   63.59    9.70 
   1   0  12   65.99   12.00 
  -2   0 -12   82.29   11.30 
  -2   0 -12  101.49   14.80 
   2   0  12   87.79   11.50 
   2   0  12   67.59    5.40 
   2   0  12   89.59   11.10 
  -3   0 -12   -2.90    6.80 
  -3   0 -12   19.60   10.60 
   3   0  12    1.10    2.90 
   3   0  12    3.60    3.90 
   3   0  12    1.70    6.10 
   3   0  12    2.10    6.50 
  -4   0 -12    8.70   10.20 
  -4   0 -12    7.20   11.00 
   4   0  12   23.20    4.80 
   4   0  12   24.70    8.40 
   4   0  12   18.10    8.20 
  -5   0 -12    9.40    9.70 
  -5   0 -12   -5.30   11.80 
   5   0  12    5.20    6.50 
   5   0  12   -4.90    4.10 
   5  -1 -12   22.80    6.10 
   5  -1 -12   30.20    7.00 
   5  -1 -12   25.80    4.10 
  -5   1  12   34.30    7.00 
   4  -1 -12  181.58   11.80 
   4  -1 -12  170.88   15.60 
  -4   1  12  197.78   14.70 
  -4   1  12  183.48   15.40 
   3  -1 -12   43.40    7.30 
   3  -1 -12   39.20    7.60 
  -3   1  12   42.70    7.40 
  -3   1  12   49.40    6.80 
  -3   1  12   48.60    6.90 
   2  -1 -12    3.70    5.20 
   2  -1 -12    7.80    6.20 
  -2   1  12   18.20    5.30 
  -2   1  12   10.40    5.50 
  -2   1  12   21.50    4.90 
   1  -1 -12   47.70    9.40 
   1  -1 -12   50.89    7.80 
   1  -1 -12   47.20    8.20 
  -1   1  12   46.50    8.40 
  -1   1  12   58.09    9.20 
   0  -1 -12   -1.30    6.10 
   0  -1 -12    4.80    4.30 
   0  -1 -12    2.10    7.10 
   0   1  12   -0.90    5.30 
   0   1  12   -9.40    3.30 
   0   1  12   -1.40    4.20 
  -1  -1 -12   83.89   10.70 
  -1  -1 -12  103.79   12.40 
   1   1  12   92.09   11.60 
   1   1  12  102.49   11.60 
   1   1  12  115.59   17.30 
  -2  -1 -12    7.50    6.70 
  -2  -1 -12   -4.00    4.20 
   2   1  12    4.60    2.20 
   2   1  12   -2.40    7.60 
   2   1  12    2.50    5.70 
   2   1  12    0.70    2.50 
  -3  -1 -12    9.10    7.50 
   3   1  12   29.00    4.70 
   3   1  12   16.70    7.60 
   3   1  12   23.30    4.10 
   3   1  12   16.10    6.70 
  -4  -1 -12    3.00    7.70 
  -4  -1 -12   28.60   12.10 
   4   1  12   41.20    9.10 
   4   1  12   25.50    8.70 
   4   1  12   21.30    5.20 
  -5  -1 -12   -0.70   10.70 
  -5  -1 -12    0.00    8.00 
   5   1  12   19.50    7.90 
   5  -2 -12   -0.90    5.10 
   5  -2 -12   -1.10    2.90 
   5  -2 -12    8.10    6.00 
  -5   2  12   -0.60    5.00 
   4  -2 -12    9.60    5.60 
   4  -2 -12   10.20    3.10 
   4  -2 -12    9.20    5.50 
  -4   2  12   12.80    5.90 
  -4   2  12    2.90    4.30 
   3  -2 -12   42.40    4.80 
   3  -2 -12   35.10    7.30 
   3  -2 -12   50.79    8.40 
  -3   2  12   53.09    7.10 
  -3   2  12   40.60    7.50 
  -3   2  12   39.70    6.50 
  -3   2  12   45.90    5.20 
   2  -2 -12   43.20    8.30 
   2  -2 -12   32.20    4.60 
   2  -2 -12   29.00    3.50 
   2  -2 -12   24.00    5.70 
   2  -2 -12   48.50    8.40 
  -2   2  12   31.90    6.00 
  -2   2  12   20.30    5.50 
  -2   2  12   38.80    7.30 
  -2   2  12   36.20    3.70 
   1  -2 -12   61.19    9.10 
   1  -2 -12   55.69    8.40 
  -1   2  12   53.39    8.50 
  -1   2  12   55.29    7.80 
  -1   2  12   50.99    7.20 
   0  -2 -12    0.60    3.70 
   0  -2 -12    6.40    5.60 
   0  -2 -12   12.30    6.80 
   0  -2 -12    9.00    2.70 
   0   2  12    7.40    5.70 
   0   2  12    6.30    1.90 
   0   2  12    8.20    4.60 
   0   2  12    7.80    4.40 
  -1  -2 -12   54.89    9.20 
  -1  -2 -12   27.20    6.40 
  -1  -2 -12   29.00    8.40 
  -1  -2 -12   38.00    4.80 
   1   2  12   46.10    7.60 
   1   2  12   38.60    3.80 
   1   2  12   38.90    7.90 
  -2  -2 -12    3.00    6.70 
  -2  -2 -12   15.50    5.80 
  -2  -2 -12    1.70    4.00 
  -2  -2 -12    1.20    6.40 
   2   2  12    8.20    2.70 
   2   2  12    5.40    4.90 
   2   2  12    7.40    6.10 
   2   2  12    4.90    3.20 
  -3  -2 -12   45.60   10.70 
  -3  -2 -12   63.69   10.50 
  -3  -2 -12   46.30    7.50 
   3   2  12   46.60    6.20 
   3   2  12   54.19    9.90 
   3   2  12   55.59    9.90 
  -4  -2 -12   17.60    6.80 
  -4  -2 -12    0.90    7.90 
  -4  -2 -12   27.50    9.30 
   4   2  12   19.00    5.10 
   4   2  12   14.90    7.10 
   4   2  12   14.60    8.90 
  -5  -2 -12   -4.70    7.20 
   5   2  12    8.80    7.50 
   5   2  12    0.80    4.70 
   5  -3 -12   16.50    4.00 
   5  -3 -12    7.10    7.10 
   5  -3 -12    3.70    5.50 
  -5   3  12   24.90    6.90 
   4  -3 -12  236.88   17.60 
   4  -3 -12  166.48   17.00 
   4  -3 -12  211.18   13.80 
  -4   3  12  202.78   17.10 
   3  -3 -12   75.89   10.70 
   3  -3 -12   94.49    7.50 
   3  -3 -12  107.69   11.80 
  -3   3  12   86.39   10.70 
  -3   3  12  102.29   10.10 
  -3   3  12   74.89    7.90 
   2  -3 -12  138.59   13.30 
   2  -3 -12  114.29   13.60 
   2  -3 -12  147.19   13.60 
   2  -3 -12  132.19    9.60 
  -2   3  12  153.48   13.80 
  -2   3  12  136.79   12.10 
  -2   3  12  129.49   12.40 
  -2   3  12  131.89    9.70 
   1  -3 -12  291.57   20.30 
   1  -3 -12  273.47   16.30 
   1  -3 -12  230.08   19.30 
   1  -3 -12  256.87   20.30 
  -1   3  12  242.68   18.60 
  -1   3  12  257.37   20.40 
  -1   3  12  244.28   15.90 
  -1   3  12  266.67   19.20 
   0  -3 -12    9.10    3.40 
   0  -3 -12   -3.50    5.70 
   0  -3 -12   12.20    6.00 
   0  -3 -12    3.10    3.90 
   0   3  12    3.00    4.00 
   0   3  12   10.30    2.40 
   0   3  12    7.60    4.90 
   0   3  12    9.20    5.60 
  -1  -3 -12   59.09    9.20 
  -1  -3 -12   48.20    9.50 
  -1  -3 -12   64.49    7.00 
  -1  -3 -12   83.69   10.90 
   1   3  12   62.19    8.80 
   1   3  12   52.69    5.10 
   1   3  12   44.60    7.80 
   1   3  12   60.09    9.30 
  -2  -3 -12    1.40    7.40 
  -2  -3 -12   -3.50    6.10 
  -2  -3 -12    5.60    4.30 
  -2  -3 -12    4.40    5.60 
   2   3  12    4.10    2.70 
   2   3  12    2.10    5.90 
   2   3  12    8.10    5.00 
  -3  -3 -12   23.80    6.10 
  -3  -3 -12   21.30    8.90 
  -3  -3 -12   41.10    8.90 
   3   3  12   17.30    7.80 
  -4  -3 -12  -12.70    6.60 
  -4  -3 -12    1.00    7.80 
  -4  -3 -12   -0.10    5.90 
   4   3  12    2.20    4.20 
   4   3  12   -3.80    4.70 
   4   3  12    5.20    6.80 
  -5  -3 -12   19.70    8.00 
  -5  -3 -12   37.00   17.00 
  -5  -3 -12   24.90   10.00 
   5   3  12   14.40    5.80 
   5   3  12    3.80    6.20 
   5  -4 -12    5.30    3.60 
   5  -4 -12   15.40    6.40 
  -5   4  12    3.80    5.90 
   4  -4 -12   43.60    8.10 
   4  -4 -12   49.20    5.80 
   4  -4 -12   27.60    8.40 
  -4   4  12   47.20    8.60 
   3  -4 -12    1.00    3.10 
   3  -4 -12   -2.10    4.80 
  -3   4  12   -1.70    6.50 
  -3   4  12   -1.40    3.90 
  -3   4  12   -1.20    5.00 
   2  -4 -12   20.50    6.40 
   2  -4 -12   23.00    4.40 
   2  -4 -12   23.00    6.90 
   2  -4 -12   15.70    7.10 
  -2   4  12   20.00    4.50 
  -2   4  12   20.30    6.50 
  -2   4  12   16.10    3.80 
   1  -4 -12    1.70    3.20 
   1  -4 -12   -1.00    5.20 
   1  -4 -12    3.90    5.20 
   1  -4 -12    3.40    4.50 
  -1   4  12    1.80    2.70 
  -1   4  12   -3.90    3.70 
  -1   4  12    5.50    5.70 
  -1   4  12    4.30    4.50 
   0  -4 -12    5.70    5.70 
   0  -4 -12    8.00    4.40 
   0  -4 -12    3.90    3.50 
   0  -4 -12   -6.10    4.60 
   0   4  12    3.40    5.00 
   0   4  12    1.80    2.40 
   0   4  12    0.60    4.20 
   0   4  12   -0.10    4.00 
  -1  -4 -12  127.49   15.30 
  -1  -4 -12  131.39   13.30 
  -1  -4 -12  143.39   14.10 
  -1  -4 -12  143.09   11.20 
   1   4  12  147.09   13.80 
   1   4  12  127.79    9.40 
   1   4  12  127.39   15.80 
   1   4  12  137.09   14.10 
  -2  -4 -12    2.90    7.10 
  -2  -4 -12    5.60    4.60 
  -2  -4 -12    4.60    5.80 
   2   4  12    7.90    6.40 
   2   4  12    7.10    5.10 
  -3  -4 -12  238.88   17.90 
  -3  -4 -12  234.18   21.80 
  -3  -4 -12  216.78   20.60 
   3   4  12  257.57   19.70 
   3   4  12  238.98   20.20 
  -4  -4 -12    2.60    6.90 
  -4  -4 -12    9.20    8.10 
  -4  -4 -12   -6.40    6.30 
   4   4  12   -5.70    6.00 
  -5  -4 -12    9.60    7.00 
  -5  -4 -12   13.20    8.70 
  -5  -4 -12   -8.00    6.70 
   5   4  12    1.00    4.90 
   5   4  12    7.50    6.90 
   5  -5 -12    8.70    4.20 
   5  -5 -12   11.90    6.50 
  -5   5  12    8.50    7.10 
   4  -5 -12  162.98   12.50 
   4  -5 -12  167.28   18.80 
  -4   5  12  180.18   16.70 
   3  -5 -12   -3.30    4.20 
   3  -5 -12   -0.20    3.40 
   3  -5 -12   -0.60    5.20 
  -3   5  12   -5.30    5.20 
  -3   5  12   -1.50    4.60 
  -3   5  12   -5.60    4.20 
   2  -5 -12  278.07   23.10 
   2  -5 -12  271.07   22.80 
   2  -5 -12  345.67   20.20 
   2  -5 -12  322.27   23.10 
  -2   5  12  317.37   23.10 
  -2   5  12  294.77   21.50 
  -2   5  12  323.97   22.70 
   1  -5 -12  193.58   13.70 
   1  -5 -12  166.58   16.50 
   1  -5 -12  194.58   17.40 
   1  -5 -12  212.78   16.80 
  -1   5  12  177.28   15.10 
  -1   5  12  197.18   16.20 
  -1   5  12  188.98   17.30 
   0  -5 -12   87.79   12.00 
   0  -5 -12  100.49   12.20 
   0  -5 -12  102.69    9.50 
   0   5  12  109.79   12.40 
   0   5  12   91.29   10.80 
   0   5  12  117.99   12.10 
  -1  -5 -12   78.49   11.40 
  -1  -5 -12   70.39   10.50 
  -1  -5 -12   41.00    7.50 
  -1  -5 -12   73.99    8.20 
   1   5  12   67.79   10.10 
   1   5  12   57.59    9.00 
  -2  -5 -12    0.30    6.40 
  -2  -5 -12   -1.90    5.10 
  -2  -5 -12    1.70    4.60 
   2   5  12    7.80    5.70 
   2   5  12    8.60    6.40 
  -3  -5 -12   11.10    7.50 
  -3  -5 -12    5.60    6.70 
  -3  -5 -12   -3.10    5.10 
   3   5  12    1.00    5.00 
   3   5  12   10.70    6.60 
  -4  -5 -12    4.10    8.10 
  -4  -5 -12   -3.90    6.10 
  -4  -5 -12   -4.40    5.60 
   4   5  12    4.00    5.70 
   4   5  12   -2.10    6.00 
  -5  -5 -12    2.50    8.60 
  -5  -5 -12   11.70    7.60 
   5   5  12   17.80    7.80 
   4  -6 -12   17.90    4.90 
   4  -6 -12   10.50    6.60 
   3  -6 -12   -5.30    4.80 
   3  -6 -12    2.90    3.90 
  -3   6  12    5.10    6.30 
   2  -6 -12  147.19   17.10 
   2  -6 -12  183.48   16.40 
   2  -6 -12  122.79   18.40 
   2  -6 -12  179.78   13.00 
  -2   6  12  164.38   14.60 
  -2   6  12  184.18   16.70 
  -2   6  12  187.68   15.80 
   1  -6 -12   43.00    8.30 
   1  -6 -12   27.60    6.90 
   1  -6 -12   33.70    7.80 
   1  -6 -12   39.60    5.90 
  -1   6  12   32.60    7.70 
  -1   6  12   43.00    7.20 
  -1   6  12   42.50    7.40 
   0  -6 -12  136.59   15.10 
   0  -6 -12  160.98   16.20 
   0  -6 -12  172.58   15.80 
   0  -6 -12  173.18   13.30 
   0   6  12  173.98   15.90 
   0   6  12  153.78   14.50 
   0   6  12  172.58   15.50 
  -1  -6 -12   61.69   10.00 
  -1  -6 -12   65.39   10.70 
  -1  -6 -12   73.59    8.70 
  -1  -6 -12   62.89   10.10 
   1   6  12   81.79   10.90 
   1   6  12   47.70    9.20 
  -2  -6 -12   13.30    6.70 
  -2  -6 -12   17.30    7.80 
  -2  -6 -12   13.30    5.70 
   2   6  12   28.10    7.10 
   2   6  12    2.70    6.00 
  -3  -6 -12   74.49   12.00 
  -3  -6 -12   76.09   10.50 
  -3  -6 -12   92.19   12.80 
   3   6  12  105.79   12.60 
  -4  -6 -12    3.20    7.60 
  -4  -6 -12   -1.40    6.30 
  -4  -6 -12    8.70    7.30 
   4   6  12    1.10    6.90 
   4   6  12    4.50    5.70 
  -5  -6 -12    1.70    8.20 
  -5  -6 -12    4.60    7.40 
   5   6  12   12.90    7.30 
   4  -7 -12   -4.60    5.30 
   4  -7 -12   11.80    4.90 
  -4   7  12   17.80    8.20 
   3  -7 -12    5.60    4.40 
   3  -7 -12   -0.20    5.40 
  -3   7  12   -1.80    6.30 
   2  -7 -12  232.58   16.60 
   2  -7 -12  222.08   19.00 
  -2   7  12  208.28   19.50 
  -2   7  12  223.88   18.80 
   1  -7 -12   -0.20    5.30 
   1  -7 -12    1.30    4.10 
   1  -7 -12   -5.20    5.40 
  -1   7  12   -4.00    5.50 
  -1   7  12   -0.50    4.70 
  -1   7  12   -2.70    4.90 
   0  -7 -12  187.28   14.60 
   0  -7 -12  187.08   16.80 
   0  -7 -12  163.78   19.40 
   0  -7 -12  172.48   17.20 
   0   7  12  185.18   16.10 
   0   7  12  174.88   17.40 
  -1  -7 -12   51.69    8.10 
  -1  -7 -12   48.30   10.10 
  -1  -7 -12   80.79   11.10 
   1   7  12   57.29    9.60 
   1   7  12   57.99    9.80 
  -2  -7 -12    7.00    5.70 
  -2  -7 -12   11.20    7.60 
  -2  -7 -12    3.50    5.60 
   2   7  12    7.70    6.50 
   2   7  12   10.10    6.20 
  -3  -7 -12   45.50    9.00 
  -3  -7 -12   37.70    7.50 
  -3  -7 -12   43.70   10.30 
   3   7  12   57.69   10.60 
   3   7  12   72.29   10.90 
  -4  -7 -12   21.60    8.30 
  -4  -7 -12   38.30   10.00 
  -4  -7 -12   48.40   14.70 
   4   7  12   31.00    7.70 
   3  -8 -12    4.70    6.70 
   3  -8 -12    4.30    4.80 
  -3   8  12    2.90    7.30 
   2  -8 -12    5.50    6.30 
   2  -8 -12    3.50    4.40 
  -2   8  12    0.60    5.90 
  -2   8  12    6.50    6.80 
   1  -8 -12   49.90    7.50 
   1  -8 -12   52.19   10.70 
   1  -8 -12   50.69    9.20 
  -1   8  12   42.40    8.10 
  -1   8  12   31.40    8.80 
   0  -8 -12   41.50    9.60 
   0  -8 -12   56.49    8.00 
   0   8  12   61.39   10.60 
   0   8  12   30.00    7.00 
  -1  -8 -12   -2.30    6.20 
  -1  -8 -12   20.20    7.30 
  -1  -8 -12    9.10    5.60 
   1   8  12   -0.10    4.60 
   1   8  12   -1.70    5.80 
  -2  -8 -12   23.30    7.30 
  -2  -8 -12   19.30    8.10 
  -2  -8 -12   21.40    7.00 
   2   8  12   18.20    6.50 
   2   8  12   35.20    8.80 
  -3  -8 -12   69.69   11.60 
  -3  -8 -12   69.39   10.30 
  -3  -8 -12   93.69   11.80 
   3   8  12   69.79   11.40 
   3   8  12   61.79    9.90 
  -4  -8 -12   17.90    8.00 
  -4  -8 -12   14.10    7.80 
   4   8  12    0.20    5.00 
   2  -9 -12   74.79    9.20 
   2  -9 -12   76.49   12.00 
  -2   9  12   55.39   11.30 
   1  -9 -12   -5.20    4.70 
   1  -9 -12   -0.60    5.50 
  -1   9  12  -10.90    6.50 
  -1   9  12    8.40    5.90 
   0  -9 -12   69.69   10.50 
   0  -9 -12   75.99   10.10 
   0  -9 -12   91.49   12.40 
   0   9  12   79.39   12.40 
   0   9  12   94.09   12.80 
  -1  -9 -12   14.50    7.20 
  -1  -9 -12   16.50    8.10 
  -1  -9 -12   12.10    6.40 
   1   9  12   28.10    7.80 
   1   9  12    9.20    6.80 
  -2  -9 -12   20.60    8.00 
  -2  -9 -12   21.70    8.50 
  -2  -9 -12   17.60    7.30 
   2   9  12    6.90    6.70 
   2   9  12   10.80    7.00 
  -3  -9 -12  132.79   14.60 
  -3  -9 -12  128.69   15.40 
  -3  -9 -12  106.59   14.80 
   3   9  12  119.99   15.60 
   1 -10 -12   38.70    9.70 
   1 -10 -12   51.79    8.30 
  -1  10  12   34.70    9.50 
  -1  10  12   50.79   11.10 
   0 -10 -12   12.50    6.30 
   0 -10 -12   15.20    7.20 
   0  10  12    0.60    7.40 
   0  10  12   10.10    6.60 
  -1 -10 -12    0.80    6.60 
  -1 -10 -12    5.10    6.10 
  -1 -10 -12    6.70    6.30 
   1  10  12    1.30    6.50 
   1  10  12    8.20    5.80 
  -2 -10 -12    0.70    6.00 
  -2 -10 -12   -2.30    7.20 
  -2 -10 -12   13.40    8.10 
   2  10  12    3.60    5.50 
   2   4 -13   -4.60    7.90 
  -2  -4  13   -7.10    5.60 
   1   4 -13   42.70   11.40 
   0   4 -13   66.29   13.30 
   0  -4  13   71.09   11.30 
  -1   4 -13  -24.20    8.00 
   1  -4  13    6.00    7.30 
  -2   4 -13    2.40   10.20 
   2  -4  13   10.50    7.70 
   3   3 -13    2.90    7.70 
  -3  -3  13   17.80    6.80 
   2   3 -13   65.09   11.50 
  -2  -3  13   74.69   11.80 
   1   3 -13   10.60    8.90 
  -1  -3  13   19.20    7.80 
   0   3 -13   37.70   10.90 
   0  -3  13   55.79   10.00 
  -1   3 -13   55.09   12.10 
   1  -3  13   48.50   10.10 
  -2   3 -13   13.90   10.50 
   2  -3  13  -10.30    4.80 
   2  -3  13   -4.70    6.60 
  -3   3 -13    1.40   11.10 
   3  -3  13   12.70    8.20 
   3  -3  13    1.40    7.10 
   3   2 -13    8.70    7.60 
  -3  -2  13   10.80    6.40 
   2   2 -13    8.60    7.90 
  -2  -2  13   10.60    6.10 
   1   2 -13  103.89   13.60 
  -1  -2  13  102.99   12.70 
   0   2 -13    0.60    7.80 
   0  -2  13    2.10    6.50 
   0  -2  13    6.10    4.90 
  -1   2 -13   46.30   10.80 
   1  -2  13   42.50    9.50 
   1  -2  13   60.89    9.60 
  -2   2 -13   -2.50    8.20 
   2  -2  13    4.90    7.30 
   2  -2  13   -7.40    4.80 
  -3   2 -13   16.20   10.70 
   3  -2  13    7.30   13.40 
   3  -2  13    9.50    7.90 
   4   1 -13   77.89    9.90 
   4   1 -13   74.09   10.80 
  -4  -1  13   83.89   10.30 
   3   1 -13   17.30    5.50 
   3   1 -13   17.30    9.30 
   2   1 -13  112.79   12.00 
   2   1 -13  115.69   14.10 
  -2  -1  13  109.49   13.10 
   1   1 -13    1.70    6.50 
   1   1 -13   -2.60    6.60 
  -1  -1  13   -1.20    3.90 
  -1  -1  13   -3.80    5.50 
  -1  -1  13   -0.90    5.80 
   0   1 -13    6.90    6.70 
   0  -1  13    3.10    4.60 
   0  -1  13    7.10    5.70 
   0  -1  13   -3.40    5.50 
  -1   1 -13   45.00   10.60 
   1  -1  13   54.19    9.90 
   1  -1  13   46.50    7.90 
   1  -1  13   49.00    9.50 
  -2   1 -13   -3.30    7.00 
  -2   1 -13    3.20   10.40 
   2  -1  13    7.70    8.10 
   2  -1  13   -0.20    5.00 
  -3   1 -13   36.10   11.20 
  -3   1 -13   17.00   13.10 
   3  -1  13   13.60    7.10 
   3  -1  13   21.10    8.70 
  -4   1 -13   -8.20   11.80 
  -4   1 -13   -3.20    8.80 
   4  -1  13   -9.70    6.40 
   4  -1  13   -2.30    3.30 
   4  -1  13    3.40    7.10 
   4   0 -13   47.60    7.80 
   4   0 -13   44.00    8.80 
  -4   0  13   55.49    8.60 
   3   0 -13   22.10    5.60 
   3   0 -13   15.30    7.00 
  -3   0  13   19.10    6.60 
   2   0 -13   18.60    5.80 
   2   0 -13   14.00    7.20 
  -2   0  13   36.80    7.60 
  -2   0  13   15.80    6.60 
  -2   0  13   27.00    5.80 
   1   0 -13   16.70    7.90 
   1   0 -13    6.30    4.60 
  -1   0  13   10.90    4.70 
  -1   0  13   -0.10    5.80 
  -1   0  13   11.50    5.60 
   0   0 -13   12.00    7.70 
   0   0 -13    6.40    8.20 
   0   0 -13   -4.00    4.20 
   0   0  13   12.60    5.90 
   0   0  13    3.40    4.60 
   0   0  13    4.50    6.00 
  -1   0 -13   65.89   11.50 
  -1   0 -13   25.70   10.80 
   1   0  13   37.10    9.10 
   1   0  13   51.59    8.70 
   1   0  13   51.59    9.00 
  -2   0 -13    2.90    9.30 
  -2   0 -13    5.20    8.30 
   2   0  13    9.80    6.30 
   2   0  13    7.20    7.00 
  -3   0 -13   22.90    9.60 
  -3   0 -13   14.50   11.50 
   3   0  13   26.10    9.10 
   3   0  13   15.10    3.30 
   3   0  13   13.30    6.60 
  -4   0 -13   -6.20   11.00 
  -4   0 -13    8.60    8.60 
   4   0  13   -1.50    3.70 
   4   0  13    6.60    7.20 
   4   0  13    0.20    6.90 
   4  -1 -13   39.40    9.40 
   4  -1 -13   34.90    7.70 
  -4   1  13   21.70    6.60 
   3  -1 -13    6.60    4.50 
   3  -1 -13    3.10    6.10 
  -3   1  13    5.80    5.80 
   2  -1 -13  168.38   15.80 
  -2   1  13  170.28   14.40 
  -2   1  13  192.38   19.40 
  -2   1  13  129.39   14.70 
   1  -1 -13    8.70    4.70 
   1  -1 -13    6.40    6.30 
   1  -1 -13    3.90    8.00 
  -1   1  13    9.50    5.40 
  -1   1  13    4.40    5.90 
   0  -1 -13   38.20    9.90 
   0  -1 -13   18.00    6.60 
   0  -1 -13   51.19    9.50 
   0   1  13   49.30    7.80 
   0   1  13   42.20    7.60 
   0   1  13   23.30    7.30 
  -1  -1 -13   77.69   11.30 
  -1  -1 -13   47.50    8.20 
  -1  -1 -13   59.89   11.70 
   1   1  13   48.00    8.10 
   1   1  13   52.79    8.70 
  -2  -1 -13   -3.70    6.60 
  -2  -1 -13    0.80    8.90 
   2   1  13   -1.30    2.20 
   2   1  13    6.60    6.90 
   2   1  13   -1.90    1.90 
   2   1  13   -2.10    5.40 
  -3  -1 -13   -1.60    9.90 
  -3  -1 -13   -1.90    7.10 
   3   1  13    8.00    7.60 
   3   1  13    9.90    7.10 
  -4  -1 -13    6.20    7.50 
  -4  -1 -13    4.00   10.60 
   4   1  13    9.70    8.30 
   4   1  13   10.50    4.20 
   4   1  13   -1.00    6.00 
   4  -2 -13   89.19   11.40 
  -4   2  13   69.69   10.10 
   3  -2 -13   22.70    7.10 
   3  -2 -13   30.50    6.90 
  -3   2  13   30.90    7.20 
   2  -2 -13  107.89   12.10 
   2  -2 -13  126.09   13.60 
  -2   2  13  109.59   12.50 
  -2   2  13   96.69   11.10 
   1  -2 -13    7.40    6.40 
   1  -2 -13   -7.30    3.50 
  -1   2  13    2.10    4.40 
  -1   2  13    7.80    5.80 
   0  -2 -13  224.28   19.40 
   0  -2 -13  269.47   20.80 
   0   2  13  249.08   19.40 
   0   2  13  249.58   20.00 
  -1  -2 -13   35.70   12.50 
  -1  -2 -13   40.10    9.70 
  -1  -2 -13   36.50    4.80 
  -1  -2 -13   26.50    6.00 
   1   2  13   58.09    8.40 
   1   2  13   48.00    4.70 
   1   2  13   34.30    7.30 
   1   2  13   35.10    3.80 
   1   2  13   52.59    9.10 
  -2  -2 -13    6.20    4.50 
  -2  -2 -13   -4.20    6.40 
  -2  -2 -13    7.70    4.20 
  -2  -2 -13   19.60    8.70 
   2   2  13    1.10    4.80 
   2   2  13   10.60    6.80 
   2   2  13    4.20    2.40 
   2   2  13    8.70    3.20 
  -3  -2 -13    0.80    5.10 
  -3  -2 -13   13.30    7.60 
   3   2  13   13.20    7.40 
   3   2  13   19.80    4.40 
   3   2  13   10.40    6.60 
  -4  -2 -13   35.20   10.20 
   4   2  13   38.40    9.10 
   4   2  13   27.90    5.70 
   4   2  13   32.20    9.50 
   4  -3 -13    4.10    3.30 
   4  -3 -13    2.50    5.80 
  -4   3  13    0.10    5.50 
   3  -3 -13    3.30    5.80 
  -3   3  13   -0.80    5.00 
   2  -3 -13   70.39   10.20 
   2  -3 -13   36.10    7.20 
   2  -3 -13   67.49    6.10 
  -2   3  13   58.99    8.30 
  -2   3  13   65.49    9.60 
  -2   3  13   81.19    9.50 
  -2   3  13   52.59    6.00 
   1  -3 -13    2.60    2.70 
   1  -3 -13    4.30    6.50 
   1  -3 -13   -1.40    4.70 
   1  -3 -13    6.10    6.00 
  -1   3  13    3.00    4.80 
  -1   3  13    1.40    4.30 
  -1   3  13    1.90    5.30 
  -1   3  13    1.20    2.40 
   0  -3 -13   51.79    5.80 
   0  -3 -13   49.20    8.90 
   0  -3 -13   46.90    8.50 
   0  -3 -13   46.60    9.50 
   0   3  13   35.70    4.40 
   0   3  13   31.50    7.00 
   0   3  13   44.20    7.70 
   0   3  13   42.60    8.40 
  -1  -3 -13    4.80    4.70 
  -1  -3 -13    5.80    3.80 
  -1  -3 -13   -6.20    6.10 
  -1  -3 -13    4.80    6.30 
   1   3  13    2.20    2.30 
   1   3  13    2.70    4.70 
   1   3  13   -5.00    5.50 
  -2  -3 -13  168.58   16.20 
  -2  -3 -13  118.49   11.60 
  -2  -3 -13  143.29   17.40 
   2   3  13  159.28   15.80 
   2   3  13  140.59    9.80 
  -3  -3 -13   59.49   10.50 
  -3  -3 -13   36.80   10.80 
  -3  -3 -13   50.99    7.90 
   3   3  13   47.10    8.90 
   3   3  13   50.19    6.50 
   3   3  13   40.20    9.30 
  -4  -3 -13   37.70    8.10 
  -4  -3 -13   44.60   10.00 
  -4  -3 -13   33.50   11.00 
   4   3  13   22.60   12.50 
   4   3  13   52.49   10.90 
   4   3  13   38.20    6.60 
   4  -4 -13   -6.30    2.90 
   4  -4 -13   -0.30    5.80 
  -4   4  13    1.40    5.70 
   3  -4 -13   56.79    9.30 
   3  -4 -13   44.40    5.60 
  -3   4  13   37.30    8.10 
   2  -4 -13   20.30    4.20 
   2  -4 -13   38.20    7.70 
  -2   4  13   25.40    4.60 
  -2   4  13   18.90    7.00 
  -2   4  13   38.20    6.50 
  -2   4  13   28.00    7.60 
   1  -4 -13   70.09   10.70 
   1  -4 -13   73.49    7.80 
   1  -4 -13   46.50    8.40 
   1  -4 -13   70.89    9.60 
  -1   4  13   64.79   10.30 
  -1   4  13   74.99    6.70 
  -1   4  13   76.99    9.30 
  -1   4  13   70.99   10.30 
   0  -4 -13   93.59   13.90 
   0  -4 -13  116.79   13.40 
   0  -4 -13   79.19   11.50 
   0  -4 -13   99.89    8.80 
   0   4  13   87.69    7.30 
   0   4  13   93.99   11.90 
   0   4  13   89.29   10.90 
   0   4  13   99.19   11.90 
  -1  -4 -13    4.10    4.10 
  -1  -4 -13   -2.00    5.90 
  -1  -4 -13    2.50    6.70 
   1   4  13    4.60    6.10 
   1   4  13    2.40    4.90 
   1   4  13   -5.50    2.30 
  -2  -4 -13   11.00    4.90 
  -2  -4 -13    6.00    6.80 
  -2  -4 -13   -9.20   10.70 
   2   4  13   22.80    7.90 
   2   4  13   20.70    9.30 
  -3  -4 -13   22.20    6.40 
  -3  -4 -13   35.20    9.50 
  -3  -4 -13    4.60    8.10 
   3   4  13   23.10    8.50 
  -4  -4 -13   -6.80    7.40 
  -4  -4 -13    5.50    6.00 
  -4  -4 -13    3.30    7.40 
   4   4  13   -1.40    4.90 
   4   4  13    0.40    9.10 
   4   4  13   13.30    7.40 
   4  -5 -13   -3.60    5.50 
   4  -5 -13   -1.20    3.80 
  -4   5  13    1.30    6.10 
   3  -5 -13   45.70    9.10 
   3  -5 -13   52.79    6.40 
  -3   5  13   45.50    9.10 
   2  -5 -13    6.20    5.70 
   2  -5 -13   15.40    4.20 
  -2   5  13   11.70    6.80 
   1  -5 -13   16.30    6.50 
   1  -5 -13   11.00    4.20 
   1  -5 -13   11.70    6.90 
  -1   5  13    5.80    5.30 
  -1   5  13   14.80    6.90 
  -1   5  13    2.10    4.50 
   0  -5 -13  155.98   16.10 
   0  -5 -13  152.08   15.50 
   0  -5 -13  153.88   12.10 
   0   5  13  167.18   16.60 
   0   5  13  139.39   13.50 
   0   5  13  141.39   14.40 
  -1  -5 -13    9.50    5.70 
  -1  -5 -13   20.40    5.30 
  -1  -5 -13   23.40    7.60 
  -1  -5 -13   22.20    7.90 
   1   5  13   17.30    7.00 
   1   5  13   16.00    6.70 
  -2  -5 -13   48.60    7.70 
  -2  -5 -13   57.59   10.90 
  -2  -5 -13   51.29    9.60 
   2   5  13   57.29   10.30 
   2   5  13   56.49    9.70 
  -3  -5 -13    7.30    6.00 
  -3  -5 -13   -0.60    6.10 
  -3  -5 -13    6.20    8.10 
   3   5  13    5.90    6.40 
   3   5  13   20.70    7.80 
  -4  -5 -13   30.50    9.00 
  -4  -5 -13   21.50    7.20 
   3  -6 -13   15.30   12.50 
  -3   6  13    7.90    6.80 
   2  -6 -13   25.20    5.30 
   2  -6 -13   17.90    7.10 
  -2   6  13   30.60    8.20 
   1  -6 -13   41.70    6.30 
   1  -6 -13   44.50    8.90 
  -1   6  13   17.20    6.30 
  -1   6  13   45.60    9.20 
   0  -6 -13   13.10    7.20 
   0  -6 -13   16.30    5.00 
   0  -6 -13   30.00    8.20 
   0   6  13    8.60    6.40 
   0   6  13   19.80    7.00 
  -1  -6 -13   49.60   10.40 
  -1  -6 -13   45.80    7.10 
  -1  -6 -13   32.90    7.50 
   1   6  13   38.10    8.70 
   1   6  13   38.20    7.90 
  -2  -6 -13   18.30    7.30 
  -2  -6 -13   12.90    6.10 
  -2  -6 -13   10.50    7.90 
   2   6  13   10.90    6.10 
   2   6  13    9.20    7.00 
  -3  -6 -13    9.00    8.20 
  -3  -6 -13    0.90    6.90 
  -3  -6 -13    6.70    6.40 
   3   6  13   17.70    7.60 
   3   6  13    5.80    5.90 
  -4  -6 -13   28.10    8.50 
  -4  -6 -13   14.00    7.00 
  -4  -6 -13   17.00    9.40 
   4   6  13   12.80    7.00 
   3  -7 -13   40.50    6.50 
   3  -7 -13   39.60    9.00 
   2  -7 -13   14.90    6.50 
   2  -7 -13   11.60    4.90 
  -2   7  13    7.50    7.00 
   1  -7 -13    0.00    5.50 
  -1   7  13    5.90    6.80 
  -1   7  13    8.80    5.90 
   0  -7 -13    0.90    5.60 
   0  -7 -13   -6.00    5.70 
   0  -7 -13   10.90    6.60 
   0   7  13   -1.70    5.70 
   0   7  13    2.90    5.20 
  -1  -7 -13   13.20    5.80 
  -1  -7 -13   11.50    7.10 
  -1  -7 -13    9.80    7.50 
   1   7  13    7.30    6.30 
   1   7  13    6.30    6.90 
  -2  -7 -13   57.29    9.00 
  -2  -7 -13   41.70    8.40 
  -2  -7 -13   51.69   11.10 
   2   7  13   85.39   12.00 
   2   7  13   52.69    8.90 
  -3  -7 -13    6.70    7.80 
  -3  -7 -13   -4.80    6.00 
  -3  -7 -13   19.50    7.10 
   3   7  13    6.70    7.00 
   3   7  13   10.30    7.10 
   2  -8 -13   -7.30    5.70 
   2  -8 -13    5.00    5.00 
  -2   8  13   -0.10    6.90 
   1  -8 -13   36.90    8.80 
   1  -8 -13   47.60    7.40 
  -1   8  13   44.50    9.70 
  -1   8  13   37.90    9.10 
   0  -8 -13   19.50    7.50 
   0  -8 -13   27.90    6.70 
   0   8  13   17.80    6.30 
   0   8  13   15.90    7.80 
  -1  -8 -13   17.50    6.20 
  -1  -8 -13   32.20    9.40 
   1   8  13   20.30    8.40 
   1   8  13   28.30    8.20 
  -2  -8 -13    8.50    7.30 
  -2  -8 -13   -1.90    6.20 
  -2  -8 -13   -3.50    5.60 
   2   8  13   -0.70    5.10 
   2   8  13    6.30    7.10 
  -3  -8 -13   -1.70    6.30 
  -3  -8 -13    5.10    6.70 
   3   8  13   -0.60    5.90 
   1  -9 -13   52.79   10.60 
   1  -9 -13   43.40    7.80 
  -1   9  13   54.59   10.80 
   0  -9 -13   24.40    8.30 
   0  -9 -13   12.30    6.60 
   0   9  13   22.80    8.00 
   0   9  13   22.00    8.70 
  -1  -9 -13   20.80    7.40 
  -1  -9 -13   17.60    7.30 
   1   9  13   13.40    6.10 
   1   9  13   12.70    8.20 
  -2  -9 -13    4.80    5.30 
  -2  -9 -13   -2.60    6.20 
  -2  -9 -13    8.90    7.50 
   2   9  13   -1.40   10.30 
   2   9  13    3.60    6.50 
   1   3 -14   -8.20    8.50 
   0   3 -14   21.10   10.70 
   0  -3  14    5.90   12.60 
   2   2 -14   38.60   10.60 
  -2  -2  14   43.80    9.20 
   1   2 -14   41.10   11.00 
   0   2 -14   16.80   10.00 
   0  -2  14    5.50    7.70 
  -1   2 -14   11.70    9.50 
   1  -2  14    6.20    7.70 
  -2   2 -14   -7.10    9.30 
   2  -2  14   -4.00    7.20 
   2   1 -14   27.40    9.00 
  -2  -1  14   19.80    7.50 
   1   1 -14   10.70    8.30 
  -1  -1  14    9.60    6.90 
   0   1 -14   12.60    8.50 
   0  -1  14   10.70    7.40 
  -1   1 -14   -3.80    7.90 
   1  -1  14    3.70    7.10 
  -2   1 -14   20.60   10.40 
   2  -1  14   18.70    9.00 
   2  -1  14    8.50    7.70 
   3   0 -14   10.20    7.40 
  -3   0  14   23.40    7.70 
   2   0 -14   -1.20    7.10 
  -2   0  14    4.90    9.40 
   1   0 -14  122.89   15.20 
  -1   0  14  127.19   14.80 
   0   0 -14   -6.80    6.90 
   0   0  14    1.80    6.60 
  -1   0 -14    1.80    8.20 
   1   0  14    4.10    6.90 
   1   0  14   -4.90    5.40 
  -2   0 -14    4.20    8.20 
   2   0  14   21.00    8.70 
  -3   0 -14    4.50    7.70 
   3   0  14    6.40    7.50 
   3   0  14   14.70   11.30 
   3  -1 -14  131.29   15.50 
  -3   1  14  117.29   13.90 
   2  -1 -14    2.50    8.20 
  -2   1  14   -0.60    5.70 
   1  -1 -14   87.99   12.60 
  -1   1  14   72.89   11.40 
   0  -1 -14    2.60    7.30 
   0   1  14   -1.40    5.10 
   0   1  14    4.80    6.30 
  -1  -1 -14  157.58   17.30 
   1   1  14  134.49   16.60 
   1   1  14  154.78   15.40 
  -2  -1 -14   63.59   12.20 
   2   1  14   57.19    9.80 
   2   1  14   46.70   10.40 
  -3  -1 -14   -0.80    8.60 
  -3  -1 -14   10.00   16.20 
   3   1  14   -8.80    6.10 
   3   1  14    7.60    8.20 
   3  -2 -14   18.00    7.70 
  -3   2  14    7.10    6.30 
   2  -2 -14   -3.60    5.80 
  -2   2  14    9.50    6.50 
   1  -2 -14    8.00    6.60 
  -1   2  14   14.30    7.30 
   0  -2 -14   34.00    8.90 
   0   2  14   41.80    9.20 
   0   2  14   31.40    7.70 
  -1  -2 -14   32.10    9.20 
   1   2  14   23.40    8.10 
   1   2  14   41.50    8.20 
  -2  -2 -14    2.20    7.10 
   2   2  14    7.30    3.00 
   2   2  14    9.00    6.40 
  -3  -2 -14   74.89   21.00 
   3   2  14   50.49    6.00 
   3   2  14   27.20    9.60 
   3   2  14   45.60    8.90 
   3  -3 -14   38.90    9.00 
  -3   3  14   41.30    8.30 
   2  -3 -14    8.50    6.60 
  -2   3  14    2.90    5.70 
   1  -3 -14   67.89   10.40 
  -1   3  14   58.29   10.40 
   0  -3 -14    2.50    7.20 
   0   3  14    2.90    6.40 
  -1  -3 -14   24.00    8.60 
  -1  -3 -14   17.90    9.10 
  -1  -3 -14   21.30    4.60 
   1   3  14   34.20    9.00 
  -2  -3 -14    4.40    7.10 
  -2  -3 -14    4.50    4.50 
  -2  -3 -14   -5.30    7.60 
   2   3  14    2.20    6.60 
   2   3  14   -1.50    5.10 
   2   3  14    4.40    3.60 
  -3  -3 -14    2.40    5.20 
  -3  -3 -14    7.30    8.00 
  -3  -3 -14    4.90    8.50 
   3   3  14   -2.20    3.90 
   3   3  14    5.00    5.70 
   3   3  14   -2.60    7.00 
   3  -4 -14    8.80    6.90 
  -3   4  14    5.10    6.50 
   2  -4 -14   42.70    9.30 
   2  -4 -14   22.50    4.70 
  -2   4  14   21.30    7.30 
   1  -4 -14   13.00    7.10 
  -1   4  14   11.60    7.00 
   0  -4 -14    0.20    6.40 
   0   4  14   -7.90    5.80 
   0   4  14   -1.10    5.40 
  -1  -4 -14  116.69   14.10 
  -1  -4 -14   60.99   13.30 
  -1  -4 -14   89.19    9.20 
   1   4  14   88.99   11.60 
   1   4  14   99.79   12.80 
  -2  -4 -14   12.40    5.00 
  -2  -4 -14   -6.70    6.00 
   2   4  14    2.40    7.10 
  -3  -4 -14   14.90    8.40 
  -3  -4 -14    9.90    9.00 
  -3  -4 -14   11.10    6.00 
   3   4  14   20.80    8.30 
   3   4  14   27.40    5.50 
   3   4  14   20.30    7.10 
   3  -5 -14   47.30    9.40 
   3  -5 -14   35.50    5.60 
  -3   5  14   32.80    8.30 
   2  -5 -14    1.00    6.30 
   2  -5 -14    2.10    3.60 
  -2   5  14    3.90    6.50 
   1  -5 -14  126.79   10.60 
   1  -5 -14  124.19   15.00 
  -1   5  14  116.79   14.60 
   0  -5 -14   -2.10    5.70 
   0  -5 -14    6.80    4.10 
   0   5  14   10.50    6.10 
   0   5  14    1.40    6.20 
  -1  -5 -14   58.49   15.50 
  -1  -5 -14   49.40    7.20 
  -1  -5 -14   58.59   10.60 
   1   5  14   56.29   10.70 
   1   5  14   56.89   10.50 
  -2  -5 -14    3.00    7.90 
  -2  -5 -14   -5.80    4.40 
  -2  -5 -14   -7.90    7.60 
   2   5  14   -3.10    6.30 
   2   5  14    1.80    6.90 
  -3  -5 -14    4.50    8.30 
  -3  -5 -14   -2.30    6.60 
   3   5  14   10.10    6.00 
   3   5  14   13.10    7.70 
   2  -6 -14   34.80    5.90 
   2  -6 -14   11.20   11.10 
  -2   6  14   13.80    7.30 
   1  -6 -14    6.10    4.60 
   1  -6 -14    2.10    6.50 
  -1   6  14    8.90    7.10 
   0  -6 -14   -3.10    5.70 
   0  -6 -14   -1.50    4.30 
   0   6  14   -7.80    5.60 
   0   6  14    0.40    5.40 
  -1  -6 -14   24.10    8.20 
  -1  -6 -14   13.70    5.70 
   1   6  14   21.80    8.10 
   1   6  14    7.20    7.00 
  -2  -6 -14    8.50    8.40 
  -2  -6 -14    6.60    8.40 
   2   6  14    1.20    7.20 
   2   6  14   -0.60    5.70 
  -3  -6 -14   75.29   13.20 
  -3  -6 -14   74.49   12.40 
  -3  -6 -14   72.89   10.80 
   3   6  14   84.19   16.10 
   3   6  14   90.59   13.90 
   1  -7 -14   43.80    7.50 
   1  -7 -14   42.40    9.60 
  -1   7  14   37.20    9.70 
   0  -7 -14   26.00    6.40 
   0  -7 -14   17.20    6.70 
   0   7  14   33.90    8.70 
   0   7  14   19.00    7.50 
  -1  -7 -14   72.89   11.30 
  -1  -7 -14   95.59   10.70 
   1   7  14  107.99   14.00 
   1   7  14   93.69   12.40 
  -2  -7 -14    7.90    6.10 
  -2  -7 -14    8.00    8.80 
  -2  -7 -14    6.00    6.50 
   2   7  14   -3.00    6.20 
   2   7  14    6.10    6.70 
   0  -8 -14   45.50    7.90 
   0  -8 -14   37.50    8.40 
   0   8  14   40.10   10.00 
  -1  -8 -14  -10.40    5.40 
  -1  -8 -14   -4.70    6.60 
   1   8  14    4.30    6.40 
   1   8  14    4.10    6.80 
   1   0 -15   31.90   10.10 
  -1   0  15   22.20    8.20 
   0   0  15   18.00    8.20 
  -1   0 -15   -1.00    7.90 
   1   0  15   -2.10    7.30 
   1  -1 -15   11.80    7.90 
   0  -1 -15   16.20    9.00 
   0   1  15   -2.50    6.70 
  -1  -1 -15   27.50   10.00 
   1   1  15   29.30    9.30 
   1  -2 -15    3.70    8.00 
  -1   2  15   11.70    7.40 
   0  -2 -15    5.70    8.00 
   0   2  15    6.40    7.20 
  -1  -2 -15   70.19   12.40 
   1   2  15   65.89   11.80 
  -2  -2 -15   11.90    9.20 
   2   2  15   -2.70    7.00 
   1  -3 -15   -5.20   11.70 
  -1   3  15   -5.50    6.20 
   0  -3 -15   -4.60    7.30 
   0   3  15   -1.40    7.00 
  -1  -3 -15   12.00    8.20 
   1   3  15    3.40    7.40 
  -2  -3 -15   24.20   10.10 
   2   3  15   10.70    8.30 
   2   3  15    9.10    7.90 
   1  -4 -15    7.20    9.60 
  -1   4  15   13.90    7.40 
   0  -4 -15  100.29   13.90 
   0   4  15  131.79   16.00 
  -1  -4 -15   -5.20    6.70 
   1   4  15    7.10    7.30 
  -2  -4 -15   24.00    9.20 
   2   4  15    8.20    5.00 
   2   4  15   20.90    8.00 
   1  -5 -15    0.30   11.00 
  -1   5  15   13.30    7.50 
   0  -5 -15   10.80    7.90 
   0   5  15    4.90    7.00 
  -1  -5 -15    6.60    7.30 
  -1  -5 -15   11.60    7.70 
   1   5  15    5.90    7.20 
   0   0   0    0.00    0.00 
  
_computing_structure_solution     'SHELXT 2014/5 (Sheldrick, 2014)' 
;
_shelx_hkl_checksum              12328
loop_
_space_group_symop_operation_xyz
'x, y, z'
'-x, -y, -z'
loop_
_atom_site_label
_atom_site_type_symbol
_atom_site_fract_x
_atom_site_fract_y
_atom_site_fract_z
_atom_site_U_iso_or_equiv
_atom_site_adp_type
_atom_site_occupancy
_atom_site_site_symmetry_order
_atom_site_calc_flag
_atom_site_refinement_flags_posn
_atom_site_refinement_flags_adp
_atom_site_refinement_flags_occupancy
_atom_site_disorder_assembly
_atom_site_disorder_group
Br1 Br -0.29112(4) 0.03942(3) 0.72108(2) 0.05858(13) Uani 1 1 d . . . . .
F1 F 0.2673(2) 0.49004(14) 0.38832(14) 0.0600(4) Uani 1 1 d . . . . .
O1 O 0.5910(2) 0.10216(15) 0.09670(15) 0.0469(4) Uani 1 1 d . . . . .
O2 O 1.0601(3) 0.59079(17) 0.12151(15) 0.0534(4) Uani 1 1 d . . . . .
N1 N 0.6798(3) 0.18918(18) 0.15379(16) 0.0395(4) Uani 1 1 d . . . . .
C1 C 0.0109(3) 0.2832(2) 0.4706(2) 0.0448(5) Uani 1 1 d . . . . .
H1 H -0.0156 0.3623 0.4208 0.054 Uiso 1 1 calc R U . . .
C2 C -0.1347(3) 0.2290(2) 0.5436(2) 0.0467(5) Uani 1 1 d . . . . .
H2 H -0.2587 0.2712 0.5422 0.056 Uiso 1 1 calc R U . . .
C3 C -0.0946(3) 0.1124(2) 0.61803(19) 0.0421(5) Uani 1 1 d . . . . .
C4 C 0.0865(4) 0.0464(2) 0.6195(2) 0.0428(5) Uani 1 1 d . . . . .
H4 H 0.1119 -0.0330 0.6691 0.051 Uiso 1 1 calc R U . . .
C5 C 0.2293(3) 0.1013(2) 0.5455(2) 0.0420(5) Uani 1 1 d . . . . .
H5 H 0.3514 0.0570 0.5453 0.050 Uiso 1 1 calc R U . . .
C6 C 0.1964(3) 0.2204(2) 0.47124(18) 0.0378(5) Uani 1 1 d . . . . .
C7 C 0.3586(3) 0.2734(2) 0.3981(2) 0.0425(5) Uani 1 1 d . . . . .
H7 H 0.4492 0.2125 0.3771 0.051 Uiso 1 1 calc R U . . .
C8 C 0.3926(3) 0.3962(2) 0.35823(19) 0.0401(5) Uani 1 1 d . . . . .
C9 C 0.5589(3) 0.4506(2) 0.29060(19) 0.0384(5) Uani 1 1 d . . . . .
C10 C 0.6398(4) 0.5594(2) 0.3169(2) 0.0441(5) Uani 1 1 d . . . . .
H10 H 0.5797 0.5990 0.3728 0.053 Uiso 1 1 calc R U . . .
C11 C 0.8045(4) 0.6100(2) 0.2634(2) 0.0438(5) Uani 1 1 d . . . . .
H11 H 0.8540 0.6829 0.2825 0.053 Uiso 1 1 calc R U . . .
C12 C 0.8965(3) 0.5515(2) 0.18054(19) 0.0402(5) Uani 1 1 d . . . . .
C13 C 0.8177(3) 0.4435(2) 0.15187(18) 0.0390(5) Uani 1 1 d . . . . .
H13 H 0.8800 0.4041 0.0965 0.047 Uiso 1 1 calc R U . . .
C14 C 0.6497(3) 0.3937(2) 0.20356(18) 0.0352(4) Uani 1 1 d . . . . .
C15 C 0.5636(3) 0.2885(2) 0.15691(18) 0.0366(5) Uani 1 1 d . . . . .
C16 C 0.3625(4) 0.3112(3) 0.1062(2) 0.0536(6) Uani 1 1 d . . . . .
H16A H 0.3716 0.3204 0.0243 0.080 Uiso 1 1 calc R U . . .
H16B H 0.3003 0.3889 0.1244 0.080 Uiso 1 1 calc R U . . .
H16C H 0.2867 0.2389 0.1372 0.080 Uiso 1 1 calc R U . . .
C17 C 0.7280(4) -0.0040(3) 0.0904(3) 0.0587(7) Uani 1 1 d . . . . .
H17A H 0.6806 -0.0535 0.0383 0.088 Uiso 1 1 calc R U . . .
H17B H 0.7441 -0.0583 0.1652 0.088 Uiso 1 1 calc R U . . .
H17C H 0.8516 0.0284 0.0635 0.088 Uiso 1 1 calc R U . . .
C18 C 1.1455(4) 0.7034(3) 0.1438(3) 0.0578(7) Uani 1 1 d . . . . .
H18A H 1.2609 0.7191 0.0975 0.087 Uiso 1 1 calc R U . . .
H18B H 1.1798 0.6897 0.2235 0.087 Uiso 1 1 calc R U . . .
H18C H 1.0531 0.7771 0.1254 0.087 Uiso 1 1 calc R U . . .
loop_
_atom_site_aniso_label
_atom_site_aniso_U_11
_atom_site_aniso_U_22
_atom_site_aniso_U_33
_atom_site_aniso_U_23
_atom_site_aniso_U_13
_atom_site_aniso_U_12
Br1 0.05934(19) 0.0636(2) 0.05904(19) -0.02118(13) 0.01773(12) -0.02681(13)
F1 0.0598(9) 0.0418(8) 0.0805(11) -0.0197(7) 0.0291(8) -0.0028(7)
O1 0.0497(9) 0.0388(8) 0.0585(10) -0.0236(7) -0.0024(8) -0.0048(7)
O2 0.0591(11) 0.0514(10) 0.0566(10) -0.0231(8) 0.0209(8) -0.0218(8)
N1 0.0452(10) 0.0353(10) 0.0416(10) -0.0151(8) 0.0005(8) -0.0053(8)
C1 0.0439(12) 0.0411(12) 0.0471(13) -0.0043(10) -0.0009(10) 0.0001(10)
C2 0.0377(12) 0.0482(13) 0.0559(14) -0.0153(11) 0.0034(10) -0.0006(10)
C3 0.0456(12) 0.0456(13) 0.0401(12) -0.0174(10) 0.0055(9) -0.0138(10)
C4 0.0503(13) 0.0384(12) 0.0396(12) -0.0065(9) -0.0020(10) -0.0062(10)
C5 0.0423(12) 0.0393(12) 0.0454(12) -0.0111(10) 0.0000(10) -0.0006(10)
C6 0.0402(11) 0.0396(11) 0.0364(11) -0.0134(9) 0.0025(9) -0.0050(9)
C7 0.0444(12) 0.0409(12) 0.0438(12) -0.0134(10) 0.0067(10) -0.0014(10)
C8 0.0428(12) 0.0390(12) 0.0403(12) -0.0142(9) 0.0045(9) 0.0014(9)
C9 0.0443(12) 0.0336(11) 0.0382(11) -0.0103(9) 0.0036(9) -0.0014(9)
C10 0.0530(14) 0.0411(12) 0.0425(12) -0.0196(10) 0.0084(10) -0.0038(10)
C11 0.0540(14) 0.0367(12) 0.0445(12) -0.0163(10) 0.0047(10) -0.0073(10)
C12 0.0458(12) 0.0369(11) 0.0391(11) -0.0089(9) 0.0044(9) -0.0070(10)
C13 0.0468(12) 0.0371(11) 0.0359(11) -0.0140(9) 0.0057(9) -0.0031(9)
C14 0.0405(11) 0.0316(10) 0.0343(10) -0.0094(8) -0.0008(8) 0.0009(9)
C15 0.0421(12) 0.0351(11) 0.0335(10) -0.0087(8) 0.0016(9) -0.0042(9)
C16 0.0505(14) 0.0504(14) 0.0630(16) -0.0198(12) -0.0139(12) 0.0042(12)
C17 0.0701(18) 0.0444(14) 0.0674(17) -0.0276(13) -0.0007(14) 0.0033(13)
C18 0.0676(17) 0.0482(14) 0.0623(16) -0.0170(12) 0.0162(13) -0.0230(13)
loop_
_atom_type_symbol
_atom_type_description
_atom_type_scat_dispersion_real
_atom_type_scat_dispersion_imag
_atom_type_scat_source
C C 0.0033 0.0016 'International Tables Vol C Tables 4.2.6.8 and 6.1.1.4'
H H 0.0000 0.0000 'International Tables Vol C Tables 4.2.6.8 and 6.1.1.4'
Br Br -0.2901 2.4595 'International Tables Vol C Tables 4.2.6.8 and 6.1.1.4'
F F 0.0171 0.0103 'International Tables Vol C Tables 4.2.6.8 and 6.1.1.4'
N N 0.0061 0.0033 'International Tables Vol C Tables 4.2.6.8 and 6.1.1.4'
O O 0.0106 0.0060 'International Tables Vol C Tables 4.2.6.8 and 6.1.1.4'
loop_
_geom_angle_atom_site_label_1
_geom_angle_atom_site_label_2
_geom_angle_atom_site_label_3
_geom_angle
_geom_angle_site_symmetry_1
_geom_angle_site_symmetry_3
_geom_angle_publ_flag
N1 O1 C17 108.81(18) . . ?
C12 O2 C18 118.29(18) . . ?
C15 N1 O1 110.56(18) . . ?
C2 C1 C6 120.7(2) . . ?
C2 C1 H1 119.6 . . ?
C6 C1 H1 119.6 . . ?
C3 C2 C1 119.5(2) . . ?
C3 C2 H2 120.2 . . ?
C1 C2 H2 120.2 . . ?
C2 C3 C4 121.3(2) . . ?
C2 C3 Br1 119.88(18) . . ?
C4 C3 Br1 118.84(18) . . ?
C3 C4 C5 118.4(2) . . ?
C3 C4 H4 120.8 . . ?
C5 C4 H4 120.8 . . ?
C4 C5 C6 122.1(2) . . ?
C4 C5 H5 118.9 . . ?
C6 C5 H5 118.9 . . ?
C5 C6 C1 117.9(2) . . ?
C5 C6 C7 118.5(2) . . ?
C1 C6 C7 123.6(2) . . ?
C8 C7 C6 128.5(2) . . ?
C8 C7 H7 115.8 . . ?
C6 C7 H7 115.8 . . ?
C7 C8 F1 118.5(2) . . ?
C7 C8 C9 129.1(2) . . ?
F1 C8 C9 112.23(19) . . ?
C10 C9 C14 117.9(2) . . ?
C10 C9 C8 119.07(19) . . ?
C14 C9 C8 122.9(2) . . ?
C11 C10 C9 122.5(2) . . ?
C11 C10 H10 118.8 . . ?
C9 C10 H10 118.8 . . ?
C10 C11 C12 119.4(2) . . ?
C10 C11 H11 120.3 . . ?
C12 C11 H11 120.3 . . ?
O2 C12 C11 125.5(2) . . ?
O2 C12 C13 115.19(19) . . ?
C11 C12 C13 119.3(2) . . ?
C14 C13 C12 121.70(19) . . ?
C14 C13 H13 119.1 . . ?
C12 C13 H13 119.1 . . ?
C13 C14 C9 119.2(2) . . ?
C13 C14 C15 117.51(18) . . ?
C9 C14 C15 123.1(2) . . ?
N1 C15 C14 115.19(19) . . ?
N1 C15 C16 124.9(2) . . ?
C14 C15 C16 119.49(19) . . ?
C15 C16 H16A 109.5 . . ?
C15 C16 H16B 109.5 . . ?
H16A C16 H16B 109.5 . . ?
C15 C16 H16C 109.5 . . ?
H16A C16 H16C 109.5 . . ?
H16B C16 H16C 109.5 . . ?
O1 C17 H17A 109.5 . . ?
O1 C17 H17B 109.5 . . ?
H17A C17 H17B 109.5 . . ?
O1 C17 H17C 109.5 . . ?
H17A C17 H17C 109.5 . . ?
H17B C17 H17C 109.5 . . ?
O2 C18 H18A 109.5 . . ?
O2 C18 H18B 109.5 . . ?
H18A C18 H18B 109.5 . . ?
O2 C18 H18C 109.5 . . ?
H18A C18 H18C 109.5 . . ?
H18B C18 H18C 109.5 . . ?
loop_
_geom_bond_atom_site_label_1
_geom_bond_atom_site_label_2
_geom_bond_distance
_geom_bond_site_symmetry_2
_geom_bond_publ_flag
Br1 C3 1.901(2) . ?
F1 C8 1.364(3) . ?
O1 N1 1.418(2) . ?
O1 C17 1.424(3) . ?
O2 C12 1.357(3) . ?
O2 C18 1.431(3) . ?
N1 C15 1.279(3) . ?
C1 C2 1.387(3) . ?
C1 C6 1.392(3) . ?
C1 H1 0.9300 . ?
C2 C3 1.378(4) . ?
C2 H2 0.9300 . ?
C3 C4 1.379(3) . ?
C4 C5 1.382(3) . ?
C4 H4 0.9300 . ?
C5 C6 1.389(3) . ?
C5 H5 0.9300 . ?
C6 C7 1.469(3) . ?
C7 C8 1.322(3) . ?
C7 H7 0.9300 . ?
C8 C9 1.465(3) . ?
C9 C10 1.398(3) . ?
C9 C14 1.413(3) . ?
C10 C11 1.373(3) . ?
C10 H10 0.9300 . ?
C11 C12 1.386(3) . ?
C11 H11 0.9300 . ?
C12 C13 1.395(3) . ?
C13 C14 1.381(3) . ?
C13 H13 0.9300 . ?
C14 C15 1.493(3) . ?
C15 C16 1.498(3) . ?
C16 H16A 0.9600 . ?
C16 H16B 0.9600 . ?
C16 H16C 0.9600 . ?
C17 H17A 0.9600 . ?
C17 H17B 0.9600 . ?
C17 H17C 0.9600 . ?
C18 H18A 0.9600 . ?
C18 H18B 0.9600 . ?
C18 H18C 0.9600 . ?
loop_
_geom_hbond_atom_site_label_D
_geom_hbond_atom_site_label_H
_geom_hbond_atom_site_label_A
_geom_hbond_distance_DH
_geom_hbond_distance_HA
_geom_hbond_distance_DA
_geom_hbond_angle_DHA
_geom_hbond_site_symmetry_A
C18 H18B F1 0.96 2.62 3.378(3) 136.6 1_655
C17 H17A O1 0.96 2.62 3.491(3) 151.2 2_655
C16 H16C Br1 0.96 3.07 3.909(3) 146.3 2_556
C16 H16B O2 0.96 2.60 3.521(3) 161.8 1_455
C13 H13 O2 0.93 2.61 3.428(3) 147.1 2_765
C13 H13 O2 0.93 2.61 3.428(3) 147.1 2_765
C16 H16B O2 0.96 2.60 3.521(3) 161.8 1_455
C16 H16C Br1 0.96 3.07 3.909(3) 146.3 2_556
C17 H17A O1 0.96 2.62 3.491(3) 151.2 2_655
C18 H18B F1 0.96 2.62 3.378(3) 136.6 1_655
loop_
_geom_torsion_atom_site_label_1
_geom_torsion_atom_site_label_2
_geom_torsion_atom_site_label_3
_geom_torsion_atom_site_label_4
_geom_torsion
_geom_torsion_site_symmetry_1
_geom_torsion_site_symmetry_2
_geom_torsion_site_symmetry_3
_geom_torsion_site_symmetry_4
_geom_torsion_publ_flag
C17 O1 N1 C15 177.4(2) . . . . ?
C6 C1 C2 C3 0.6(4) . . . . ?
C1 C2 C3 C4 -1.7(4) . . . . ?
C1 C2 C3 Br1 178.40(17) . . . . ?
C2 C3 C4 C5 1.1(3) . . . . ?
Br1 C3 C4 C5 -179.02(17) . . . . ?
C3 C4 C5 C6 0.7(3) . . . . ?
C4 C5 C6 C1 -1.8(3) . . . . ?
C4 C5 C6 C7 178.1(2) . . . . ?
C2 C1 C6 C5 1.1(3) . . . . ?
C2 C1 C6 C7 -178.7(2) . . . . ?
C5 C6 C7 C8 -150.3(3) . . . . ?
C1 C6 C7 C8 29.6(4) . . . . ?
C6 C7 C8 F1 1.5(4) . . . . ?
C6 C7 C8 C9 176.3(2) . . . . ?
C7 C8 C9 C10 -138.2(3) . . . . ?
F1 C8 C9 C10 36.8(3) . . . . ?
C7 C8 C9 C14 38.0(4) . . . . ?
F1 C8 C9 C14 -147.0(2) . . . . ?
C14 C9 C10 C11 -1.5(4) . . . . ?
C8 C9 C10 C11 175.0(2) . . . . ?
C9 C10 C11 C12 -0.5(4) . . . . ?
C18 O2 C12 C11 -1.2(4) . . . . ?
C18 O2 C12 C13 178.1(2) . . . . ?
C10 C11 C12 O2 -179.7(2) . . . . ?
C10 C11 C12 C13 1.1(4) . . . . ?
O2 C12 C13 C14 -179.0(2) . . . . ?
C11 C12 C13 C14 0.3(3) . . . . ?
C12 C13 C14 C9 -2.3(3) . . . . ?
C12 C13 C14 C15 172.6(2) . . . . ?
C10 C9 C14 C13 2.8(3) . . . . ?
C8 C9 C14 C13 -173.5(2) . . . . ?
C10 C9 C14 C15 -171.8(2) . . . . ?
C8 C9 C14 C15 11.9(3) . . . . ?
O1 N1 C15 C14 -173.52(17) . . . . ?
O1 N1 C15 C16 -0.7(3) . . . . ?
C13 C14 C15 N1 55.6(3) . . . . ?
C9 C14 C15 N1 -129.7(2) . . . . ?
C13 C14 C15 C16 -117.6(2) . . . . ?
C9 C14 C15 C16 57.1(3) . . . . ?
