#------------------------------------------------------------------------------
#$Date: 2020-10-15 02:19:17 +0300 (Thu, 15 Oct 2020) $
#$Revision: 258401 $
#$URL: file:///home/coder/svn-repositories/cod/cif/4/03/88/4038891.cif $
#------------------------------------------------------------------------------
#
# This file is available in the Crystallography Open Database (COD),
# http://www.crystallography.net/
#
# All data on this site have been placed in the public domain by the
# contributors.
#
data_4038891
loop_
_publ_author_name
'Korsik, Marat'
'Tse, Edwin'
'Smith, David G.'
'Lewis, William'
'Rutledge, Peter J.'
'Todd, Matthew H.'
_publ_section_title
;
 Tele-substitution Reactions in the Synthesis of a Promising Class of
 1,2,4-Triazolo[4,3-a]pyrazine-Based Antimalarials.
;
_journal_name_full               'The Journal of organic chemistry'
_journal_paper_doi               10.1021/acs.joc.0c01045
_journal_year                    2020
_chemical_absolute_configuration ad
_chemical_formula_moiety         'C5 H3 Cl N4'
_chemical_formula_sum            'C5 H3 Cl N4'
_chemical_formula_weight         154.56
_space_group_crystal_system      monoclinic
_space_group_IT_number           11
_space_group_name_Hall           '-P 2yb'
_space_group_name_H-M_alt        'P 1 21/m 1'
_atom_sites_solution_hydrogens   geom
_atom_sites_solution_primary     iterative
_audit_creation_date             2019-05-23
_audit_creation_method
;
Olex2 1.2
(compiled 2018.05.29 svn.r3508 for OlexSys, GUI svn.r5506)
;
_cell_angle_alpha                90
_cell_angle_beta                 114.963(4)
_cell_angle_gamma                90
_cell_formula_units_Z            2
_cell_length_a                   6.9527(2)
_cell_length_b                   6.30259(16)
_cell_length_c                   7.5416(2)
_cell_measurement_reflns_used    3889
_cell_measurement_temperature    100(2)
_cell_measurement_theta_max      75.6830
_cell_measurement_theta_min      6.4150
_cell_volume                     299.600(17)
_computing_cell_refinement       'CrysAlisPro 1.171.40.35a (Rigaku OD, 2018)'
_computing_data_collection       'CrysAlisPro 1.171.40.35a (Rigaku OD, 2018)'
_computing_data_reduction        'CrysAlisPro 1.171.40.35a (Rigaku OD, 2018)'
_computing_molecular_graphics    'Olex2 (Dolomanov et al., 2009)'
_computing_publication_material  'Olex2 (Dolomanov et al., 2009)'
_computing_structure_refinement  'ShelXL (Sheldrick, 2015)'
_computing_structure_solution    'olex2.solve (Bourhis et al., 2015)'
_diffrn_ambient_environment      N~2~
_diffrn_ambient_temperature      100(2)
_diffrn_detector                 'CCD area detector'
_diffrn_detector_area_resol_mean 10.5861
_diffrn_detector_type            'Agilent Diffraction Atlas detector'
_diffrn_measured_fraction_theta_full 0.998
_diffrn_measured_fraction_theta_max 0.997
_diffrn_measurement_details
;
List of Runs (angles in degrees, time in seconds):

  # Type    Start    End  Width  t~exp~   \w     \q     \k     \f   Frames
--------------------------------------------------------------------------
  1  \w    -52.00 -16.00   1.00    1.00    --  -40.27  38.00 -60.00   36
  2  \w   -111.00 -16.00   1.00    1.00    --  -40.27 -57.00 150.00   95
  3  \w    -12.00  33.00   1.00    1.00    --  -40.27  38.00 -60.00   45
  4  \w    -38.00  72.00   1.00    1.00    --   40.27 -77.00  60.00  110
  5  \w      9.00  60.00   1.00    1.00    --   40.27  77.00   0.00   51
  6  \w      9.00  35.00   1.00    1.00    --   40.27  77.00 -60.00   26
  7  \w    135.00 178.00   1.00    3.00    --  113.00  77.00 150.00   43
  8  \w    148.00 173.00   1.00    3.00    --  113.00  45.00   0.00   25
  9  \w     88.00 141.00   1.00    3.00    --  113.00  45.00 -60.00   53
 10  \w    105.00 131.00   1.00    3.00    --  113.00  45.00   0.00   26
 11  \w     69.00  96.00   1.00    3.00    --  113.00 -77.00   0.00   27
 12  \w    104.00 130.00   1.00    3.00    --  113.00  45.00-150.00   26
 13  \w     46.00 111.00   1.00    3.00    --  113.00 -77.00-180.00   65
 14  \w    106.00 178.00   1.00    3.00    --  113.00  45.00 -30.00   72
 15  \w     85.00 135.00   1.00    3.00    --  113.00  77.00 120.00   50
 16  \w     44.00 147.00   1.00    3.00    --  113.00 -77.00 -60.00  103
 17  \w     74.00 145.00   1.00    3.00    --  113.00 -80.00  46.74   71
 18  \w     80.00 106.00   1.00    3.00    --  113.00 -77.00-120.00   26
 19  \w     36.00  61.00   1.00    3.00    --  113.00 -80.00  46.74   25
 20  \w    144.00 177.00   1.00    3.00    --  113.00  45.00-150.00   33
 21  \w     47.00 142.00   1.00    3.00    --  113.00 -61.00-150.00   95
 22  \w     41.00  66.00   1.00    3.00    --  113.00 -77.00   0.00   25
 23  \w     96.00 176.00   1.00    3.00    --  113.00  77.00-120.00   80
 24  \w     94.00 119.00   1.00    3.00    --  113.00  45.00  90.00   25
 25  \w     86.00 133.00   1.00    3.00    --  113.00  77.00-150.00   47
 26  \w     68.00 119.00   1.00    3.00    --  113.00 -80.00  86.56   51
 27  \w    -37.00  73.00   1.00    1.00    --   40.00 -73.80   0.00  110
 28  \w    -37.00  73.00   1.00    1.00    --   40.00 -73.80  90.00  110
 29  \w    -37.00  73.00   1.00    1.00    --   40.00 -73.80 180.00  110
 30  \w    -37.00  73.00   1.00    1.00    --   40.00 -73.80 270.00  110
 31  \w     33.00 143.00   1.00    3.00    --  110.00 -73.80   0.00  110
 32  \w     33.00 143.00   1.00    3.00    --  110.00 -73.80  90.00  110
 33  \w     33.00 143.00   1.00    3.00    --  110.00 -73.80 180.00  110
 34  \w     33.00 143.00   1.00    3.00    --  110.00 -73.80 270.00  110
 35  \w      7.00 117.00   1.00    1.00    --   40.00  73.80   0.00  110
 36  \w      7.00 117.00   1.00    1.00    --   40.00  73.80  90.00  110
 37  \w      7.00 117.00   1.00    1.00    --   40.00  73.80 180.00  110
 38  \w      7.00 117.00   1.00    1.00    --   40.00  73.80 270.00  110
 39  \w     77.00 178.00   1.00    3.00    --  110.00  73.80   0.00  101
 40  \w     77.00 178.00   1.00    3.00    --  110.00  73.80  90.00  101
 41  \w     77.00 178.00   1.00    3.00    --  110.00  73.80 180.00  101
 42  \w     77.00 178.00   1.00    3.00    --  110.00  73.80 270.00  101
;
_diffrn_measurement_device       '\k-geometry diffractometer'
_diffrn_measurement_device_type  'SuperNova-Duo, Atlas'
_diffrn_measurement_method       '\w scans'
_diffrn_orient_matrix_type
'CrysAlisPro convention (1999,Acta A55,543-557)'
_diffrn_orient_matrix_UB_11      0.1183552000
_diffrn_orient_matrix_UB_12      -0.2092369000
_diffrn_orient_matrix_UB_13      0.0828449000
_diffrn_orient_matrix_UB_21      0.1999585000
_diffrn_orient_matrix_UB_22      0.0902199000
_diffrn_orient_matrix_UB_23      -0.0124771000
_diffrn_orient_matrix_UB_31      0.0761765000
_diffrn_orient_matrix_UB_32      0.0882888000
_diffrn_orient_matrix_UB_33      0.2091025000
_diffrn_radiation_collimation    'focusing mirrors'
_diffrn_radiation_monochromator  mirror
_diffrn_radiation_probe          x-ray
_diffrn_radiation_type           CuK\a
_diffrn_radiation_wavelength     1.54184
_diffrn_radiation_wavelength_determination fundamental
_diffrn_reflns_av_R_equivalents  0.0178
_diffrn_reflns_av_unetI/netI     0.0086
_diffrn_reflns_Laue_measured_fraction_full 0.998
_diffrn_reflns_Laue_measured_fraction_max 0.997
_diffrn_reflns_limit_h_max       8
_diffrn_reflns_limit_h_min       -8
_diffrn_reflns_limit_k_max       7
_diffrn_reflns_limit_k_min       -7
_diffrn_reflns_limit_l_max       9
_diffrn_reflns_limit_l_min       -8
_diffrn_reflns_number            5100
_diffrn_reflns_point_group_measured_fraction_full 0.998
_diffrn_reflns_point_group_measured_fraction_max 0.997
_diffrn_reflns_theta_full        67.684
_diffrn_reflns_theta_max         75.996
_diffrn_reflns_theta_min         6.474
_diffrn_source                   'microfocus sealed tube'
_diffrn_source_current           0.8
_diffrn_source_power             0.04
_diffrn_source_target            Cu
_diffrn_source_type              'Agilent Diffraction microfocus tube'
_diffrn_source_voltage           50
_exptl_absorpt_coefficient_mu    4.929
_exptl_absorpt_correction_T_max  1.000
_exptl_absorpt_correction_T_min  0.385
_exptl_absorpt_correction_type   gaussian
_exptl_absorpt_process_details
;
CrysAlisPro 1.171.40.35a (Rigaku Oxford Diffraction, 2018)
Numerical absorption correction based on gaussian integration over
			a multifaceted crystal model
Empirical absorption correction using spherical harmonics,
 implemented in SCALE3 ABSPACK scaling algorithm.
;
_exptl_crystal_colour            'clear colourless'
_exptl_crystal_colour_lustre     clear
_exptl_crystal_colour_primary    colourless
_exptl_crystal_density_diffrn    1.713
_exptl_crystal_description       block
_exptl_crystal_F_000             156
_exptl_crystal_size_max          0.249
_exptl_crystal_size_mid          0.072
_exptl_crystal_size_min          0.065
_refine_diff_density_max         0.947
_refine_diff_density_min         -0.253
_refine_diff_density_rms         0.064
_refine_ls_extinction_method     none
_refine_ls_goodness_of_fit_ref   1.123
_refine_ls_hydrogen_treatment    constr
_refine_ls_matrix_type           full
_refine_ls_number_parameters     61
_refine_ls_number_reflns         686
_refine_ls_number_restraints     0
_refine_ls_restrained_S_all      1.123
_refine_ls_R_factor_all          0.0319
_refine_ls_R_factor_gt           0.0319
_refine_ls_shift/su_max          0.000
_refine_ls_shift/su_mean         0.000
_refine_ls_structure_factor_coef Fsqd
_refine_ls_weighting_details
'w=1/[\s^2^(Fo^2^)+(0.0443P)^2^+0.2900P] where P=(Fo^2^+2Fc^2^)/3'
_refine_ls_weighting_scheme      calc
_refine_ls_wR_factor_gt          0.0832
_refine_ls_wR_factor_ref         0.0832
_reflns_Friedel_coverage         0.000
_reflns_number_gt                686
_reflns_number_total             686
_reflns_threshold_expression     'I > 2\s(I)'
_cod_data_source_file            mht18pt5_s1649.cif
_cod_data_source_block           mht18pt5_s1649
_cod_database_code               4038891
_sydney_internal_submission_code mht18pt5_s1649
_sydney_internal_submission_date 2015-07-30
_sydney_internal_submission_number s1649
_sydney_internal_client_code     mkr
_sydney_internal_client_email    mkor7275@uni.sydney.edu.au
_sydney_internal_client_name     'Marat Korsik'
_sydney_internal_supervisor_code mht
_sydney_internal_supervisor_name 'Matt Todd'
_sydney_internal_collection_date 2018-08-01
_sydney_internal_collection_user petert
_sydney_internal_process_date    2019-05-23
_sydney_internal_process_user    wlew0588
_sydney_internal_solution_date   2019-05-23
_sydney_internal_solution_user   wlew0588
_sydney_internal_refine_date     2019-05-23
_sydney_internal_refine_user     wlew0588
_sydney_internal_check_and_archive_date 2019-05-23
_sydney_internal_check_user      wlew0588
_shelx_shelxl_version_number     2018/3
_chemical_oxdiff_formula         C5H3ClN4
_shelx_space_group_comment
;
The symmetry employed for this shelxl refinement is uniquely defined
by the following loop, which should always be used as a source of
symmetry information in preference to the above space-group names.
They are only intended as comments.
;
_shelx_estimated_absorpt_t_max   0.740
_shelx_estimated_absorpt_t_min   0.373
_reflns_odcompleteness_completeness 98.71
_reflns_odcompleteness_iscentric 1
_reflns_odcompleteness_theta     77.17
_olex2_refinement_description
;
1. Fixed Uiso
 At 1.2 times of:
  All C(H) groups
2.a Aromatic/amide H refined with riding coordinates:
 C2(H2), C6(H6), C8(H8)
;
_shelx_res_file
;
TITL
    mht18pt5_s1649.res
    created by SHELXL-2018/3 at 11:35:24 on 23-May-2019
CELL 1.54184 6.952741 6.302588 7.541556 90 114.9631 90
ZERR 2 0.000213 0.000159 0.000228 0 0.0036 0
LATT 1
SYMM -X,0.5+Y,-Z
SFAC C H N Cl
UNIT 10 6 8 2

L.S. 12
PLAN  20
SIZE 0.065 0.072 0.249
TEMP -173(2)
bond $h
conf
htab
more -1
fmap 2 53
acta
REM <olex2.extras>
REM <HklSrc "%.\\mht18pt5_s1649.hkl">
REM </olex2.extras>

WGHT    0.044300    0.290000
FVAR      15.90026
N1    3    0.927919    0.250000    0.254511    10.50000    0.01348    0.01256 =
         0.00815    0.00000    0.00462    0.00000
C2    1    1.144000    0.250000    0.340516    10.50000    0.01285    0.01514 =
         0.01486    0.00000    0.00626    0.00000
AFIX  43
H2    2    1.232088    0.250000    0.272577    10.50000   -1.20000
AFIX   0
N3    3    1.211979    0.250000    0.531201    10.50000    0.01355    0.01763 =
         0.01619    0.00000    0.00536    0.00000
N4    3    1.038784    0.250000    0.576739    10.50000    0.01642    0.01809 =
         0.01150    0.00000    0.00626    0.00000
C5    1    0.868455    0.250000    0.408121    10.50000    0.01435    0.01355 =
         0.01251    0.00000    0.00778    0.00000
C6    1    0.647830    0.250000    0.360599    10.50000    0.01456    0.02029 =
         0.01401    0.00000    0.00788    0.00000
AFIX  43
H6    2    0.603275    0.250000    0.463602    10.50000   -1.20000
AFIX   0
N7    3    0.504074    0.250000    0.179681    10.50000    0.01416    0.01996 =
         0.01534    0.00000    0.00649    0.00000
C8    1    0.568876    0.250000    0.030227    10.50000    0.01386    0.01678 =
         0.01177    0.00000    0.00283    0.00000
AFIX  43
H8    2    0.464098    0.250000   -0.101089    10.50000   -1.20000
AFIX   0
C9    1    0.776463    0.250000    0.063488    10.50000    0.01542    0.01427 =
         0.00953    0.00000    0.00513    0.00000
CL10  4    0.869338    0.250000   -0.113193    10.50000    0.01914    0.02042 =
         0.00960    0.00000    0.00787    0.00000
HKLF 4




REM
REM wR2 = 0.0832, GooF = S = 1.123, Restrained GooF = 1.123 for all data
REM R1 = 0.0319 for 686 Fo > 4sig(Fo) and 0.0319 for all 686 data
REM 61 parameters refined using 0 restraints

END

WGHT      0.0443      0.2913

REM Instructions for potential hydrogen bonds
EQIV $1 x+1, y, z
HTAB C2 N7_$1
EQIV $2 x, y, z+1
HTAB C6 Cl10_$2
EQIV $3 x-1, y, z-1
HTAB C8 N3_$3

REM Highest difference peak  0.947,  deepest hole -0.253,  1-sigma level  0.064
Q1    1   0.7086  0.2500 -0.1185  10.50000  0.05    0.95
Q2    1   1.1320  0.2500  0.5623  10.50000  0.05    0.42
Q3    1   1.0380  0.2500  0.2850  10.50000  0.05    0.40
Q4    1   0.7614  0.2500  0.3891  10.50000  0.05    0.36
Q5    1   0.3594  0.2500  0.1903  10.50000  0.05    0.36
Q6    1   0.6777  0.2937  0.0418  11.00000  0.05    0.33
Q7    1   0.8619  0.2500  0.1633  10.50000  0.05    0.33
Q8    1   0.8849  0.2500  0.3224  10.50000  0.05    0.33
Q9    1   1.1375  0.2500  0.0491  10.50000  0.05    0.32
Q10   1   0.9511  0.2500  0.5097  10.50000  0.05    0.27
Q11   1   1.2994  0.2500  0.5688  10.50000  0.05    0.23
Q12   1   1.0630  0.2500  0.6791  10.50000  0.05    0.23
Q13   1   1.1772  0.2500  0.4318  10.50000  0.05    0.22
Q14   1   1.3643  0.2500  0.3780  10.50000  0.05    0.22
Q15   1   0.5584  0.2500  0.1242  10.50000  0.05    0.16
Q16   1   1.3506  0.2500  0.6809  10.50000  0.05    0.16
Q17   1   0.5241  0.2500 -0.2468  10.50000  0.05    0.15
Q18   1   0.3291  0.2500  0.0658  10.50000  0.05    0.12
Q19   1   1.1655  0.0659  0.0316  11.00000  0.05    0.12
Q20   1   0.2960  0.0288 -0.2233  11.00000  0.05    0.11
;
_shelx_res_checksum              5234
_shelx_hkl_file
;
   0  -7   0 42.4151 31.8700  15
   0  -7   0 57.3766 37.0874  41
   0  -7   1 2461.82 151.220  15
   0  -7   2 16655.7 380.402  15
   0  -6   0 362221. 2165.61  15
   0  -6   1 3898.93 237.247  15
   0  -6  -1 3973.17 217.733  15
   0  -6   2 6182.07 306.797  15
   0  -6   3 1850.57 170.826  15
   0  -5   0 86.9069 73.1764   2
   0  -5   0 5.31249 37.0265  15
   0  -5   1 7222.39 585.608   2
   0  -5  -1 7393.57 590.013   2
   0  -5   1 8868.54 700.637  27
   0  -5   1 8409.48 344.962  15
   0  -5  -1 8158.62 584.024  37
   0  -5   2 28918.6 1175.32   2
   0  -5   2 34705.0 745.466  15
   0  -5   2 32485.9 664.694  21
   0  -5  -2 30942.5 1193.07   2
   0  -5   3 31879.8 760.440  15
   0  -5   3 32045.6 685.313  21
   0  -5   4 5253.66 274.548  40
   0  -5   4 5248.05 281.531  21
   0  -5   4 4630.18 294.501  15
   0  -5   5 1376.80 135.440  40
   0  -5   5 1243.27 129.961  21
   0  -5   6 90104.8 868.758  21
   0  -4   0 932757. 5602.34   2
   0  -4   0 946082. 5248.73  37
   0  -4  -1 3853.06 346.154  37
   0  -4  -1 3873.93 362.679   2
   0  -4   1 3891.69 371.244   2
   0  -4   1 4254.67 360.643  37
   0  -4  -2 13047.5 683.525   2
   0  -4   2 12822.9 831.989  27
   0  -4  -2 13876.7 685.041  37
   0  -4   2 12640.9 688.568   2
   0  -4   3 4481.28 252.656  21
   0  -4   3 4474.14 253.501  40
   0  -4   3 4073.68 494.635  27
   0  -4  -3 4632.14 421.289  37
   0  -4   3 4235.44 411.081   2
   0  -4  -3 4207.41 397.295   2
   0  -4   3 4568.56 293.329  15
   0  -4   4 43491.8 827.014  21
   0  -4   4 42285.6 857.078  40
   0  -4   4 42254.3 943.979  15
   0  -4   5 8584.56 372.682  21
   0  -4   5 8605.88 402.706  40
   0  -4   6 12349.8 344.079  34
   0  -4   6 12606.7 346.365  16
   0  -4   6 13042.2 414.802  21
   0  -4   6 12944.7 453.360  40
   0  -4   7 396.910 54.3860  22
   0  -4   7 370.397 58.8985  21
   0  -4   7 311.062 47.7025  31
   0  -3   0-1.31033 65.5441   2
   0  -3   0 10.5463 59.6109  37
   0  -3   0-16.3359 32.4798  36
   0  -3  -1 40395.7 930.271  37
   0  -3   1 40530.1 978.728   2
   0  -3  -1 38095.6 941.769   2
   0  -3   1 41087.9 968.854  37
   0  -3  -1 41676.6 735.634  36
   0  -3   2 64100.9 1651.45  27
   0  -3  -2 63152.0 1242.10  37
   0  -3   2 61869.2 1262.78   2
   0  -3  -2 60895.6 1232.99   2
   0  -3   2 62677.7 1019.08  30
   0  -3   2 66006.3 1222.01  37
   0  -3   3 73015.5 1862.29  27
   0  -3   3 69253.4 1409.81   2
   0  -3  -3 73404.2 1459.13  37
   0  -3   3 71248.3 1348.10  30
   0  -3  -3 68701.1 1365.66   2
   0  -3   4 10436.6 767.928  27
   0  -3   4 10188.7 360.540  34
   0  -3  -4 9998.65 590.826  37
   0  -3   4 10220.8 422.802  40
   0  -3   5 2007.55 182.828  18
   0  -3   5 2141.57 181.085  34
   0  -3   5 1805.77 179.262  21
   0  -3   5 1824.98 163.024  33
   0  -3   5 1792.33 168.811  16
   0  -3   5 1896.27 209.151  40
   0  -3   6 143830. 1491.05  21
   0  -3   6 143945. 1456.74  34
   0  -3   6 144357. 1796.65  40
   0  -3   6 141750. 1451.03  16
   0  -3   7 32626.8 591.656  16
   0  -3   7 31766.2 579.362  34
   0  -3   7 30504.0 540.486  31
   0  -3   7 31746.7 578.721  21
   0  -3   7 32165.4 560.266  22
   0  -2   1 3527.10 226.728  37
   0  -2   1 3325.85 210.587  36
   0  -2  -1 3440.95 226.985   2
   0  -2   1 3551.36 232.886   2
   0  -2   1 3381.28 172.224  30
   0  -2  -1 3338.78 178.933  36
   0  -2  -1 3435.32 222.498  37
   0  -2  -2 34458.5 622.947  36
   0  -2   2 35877.7 692.254  37
   0  -2   2 35638.9 757.996   2
   0  -2  -2 36416.7 784.896  37
   0  -2   2 36788.0 991.881  27
   0  -2  -2 36155.3 756.889   2
   0  -2   2 35406.5 737.499  30
   0  -2   3 9257.99 427.585   2
   0  -2  -3 9295.20 415.168   2
   0  -2   3 10194.7 493.925  30
   0  -2  -3 10016.6 462.904  37
   0  -2  -3 9486.64 387.974  36
   0  -2   3 9759.14 563.874  27
   0  -2  -4 66300.4 1228.60  36
   0  -2   4 65095.7 1505.61  30
   0  -2   4 68087.1 1658.72  27
   0  -2  -4 67648.4 1359.88  37
   0  -2   5 12039.8 489.658  40
   0  -2   5 11811.0 427.817  21
   0  -2   5 11547.5 729.466  30
   0  -2   5 13090.7 456.206  18
   0  -2   5 13061.9 804.149  27
   0  -2   5 12707.0 456.501  16
   0  -2   5 12641.5 452.301  34
   0  -2   6 19434.5 587.573  18
   0  -2   6 19167.4 656.964  40
   0  -2   6 18605.4 572.812  34
   0  -2   6 18630.9 582.770  16
   0  -2   6 19009.6 553.039  21
   0  -2   7 633.181 87.9015  31
   0  -2   7 792.063 106.026  21
   0  -2   7 928.561 105.669  22
   0  -2   7 864.341 123.107  34
   0  -2   7 758.846 119.188  16
   0  -2   8 9258.24 272.615  16
   0  -2   8 8701.80 263.725  34
   0  -1   0 18.9645 25.0828  37
   0  -1   0 15.6442 31.9262   2
   0  -1   0 18.4799 26.7153  36
   0  -1   0-3.78823 7.42698  30
   0  -1   1 140031. 990.883  30
   0  -1   1 138820. 1010.88   2
   0  -1  -1 137361. 838.295  36
   0  -1   1 139622. 916.165  37
   0  -1  -1 138821. 993.024   2
   0  -1   2 121993. 1282.50  30
   0  -1   2 121247. 1364.24  27
   0  -1   2 119866. 1000.48  37
   0  -1   2 120459. 968.614   4
   0  -1   3 134214. 1188.47   4
   0  -1  -3 134463. 1254.34   2
   0  -1   3 135477. 1743.21  30
   0  -1   3 138421. 1752.81  27
   0  -1  -4 19191.7 653.913  35
   0  -1  -4 19173.1 663.148   5
   0  -1   4 19910.0 809.835  30
   0  -1   4 18814.4 753.374  27
   0  -1  -4 18515.3 607.084   6
   0  -1  -4 18624.0 588.931  38
   0  -1  -5 2356.29 286.798   5
   0  -1   5 2826.49 344.091  27
   0  -1   5 2275.79 191.961  34
   0  -1   5 2508.23 209.264  40
   0  -1   5 2610.80 351.827  30
   0  -1  -5 2668.71 301.954  36
   0  -1  -5 2743.71 295.059  35
   0  -1   6 185331. 1826.42  16
   0  -1   6 184776. 1857.36  34
   0  -1   6 182128. 1816.52  18
   0  -1   7 42436.8 848.969  16
   0  -1   7 43043.2 689.724  22
   0  -1   7 42860.6 674.023  31
   0  -1   7 40507.0 835.207  18
   0  -1   7 42208.5 872.476  34
   0  -1   8 25670.3 510.701  16
   0  -1   8 24960.2 519.773  34
   0   0   1 3854.64 143.284  27
   0   0   1 3547.70 128.265  29
   0   0   1 3669.88 125.799   4
   0   0   1 3932.38 115.441  28
   0   0   1 4152.65 91.4971   3
   0   0   1 3933.70 148.866  30
   0   0  -2 61329.5 633.733  38
   0   0   2 57061.4 833.144  30
   0   0   2 59387.7 808.913  27
   0   0   2 59611.5 456.334   3
   0   0   2 58451.4 746.715  29
   0   0  -2 58452.4 685.543   6
   0   0   2 59246.5 621.846  28
   0   0   2 57449.7 692.011   4
   0   0   3 12142.5 457.732  27
   0   0  -3 13039.6 455.855  35
   0   0  -3 12444.6 398.646   6
   0   0   3 12596.0 340.530  28
   0   0   3 11791.9 389.402   4
   0   0  -3 11761.1 350.042  38
   0   0  -3 13158.8 463.284   5
   0   0   3 12054.6 497.296  30
   0   0  -4 79886.3 1406.95   5
   0   0  -4 82225.1 1411.70  35
   0   0   4 82973.4 1429.74  27
   0   0   4 82870.3 1566.14  30
   0   0   4 81643.7 1170.99   4
   0   0  -5 14701.2 720.642   5
   0   0   5 14805.2 697.478  27
   0   0   5 14685.9 788.221  30
   0   0  -5 15111.3 723.375  35
   0   0   6 22064.8 598.919  16
   0   0   6 21465.5 623.291  18
   0   0   6 22003.5 618.415  34
   0   0   6 21561.5 515.954  31
   0   0   6 21646.8 519.638  22
   0   0   7 789.184 124.067  34
   0   0   7 871.028 96.6839  22
   0   0   7 942.116 135.597  18
   0   0   7 1050.07 129.596  16
   0   0   8 10270.1 302.294  16
   0   0   8 9778.47 301.804  34
   0   1   0 27.2693 23.1747  28
   0   1   0 48.1422 18.7810  35
   0   1   0 11.7214 26.2705  38
   0   1   0 7.53832 25.5593   4
   0   1  -1 134491. 851.629  38
   0   1  -1 135671. 952.325   5
   0   1   1 136564. 720.954  30
   0   1  -1 136411. 979.819  35
   0   1   1 135726. 964.070  27
   0   1   2 115358. 1084.94  30
   0   1   2 114096. 1153.09  29
   0   1   2 119940. 1194.78   4
   0   1   2 120673. 1221.99  28
   0   1  -2 118922. 1177.08   5
   0   1   2 119401. 1134.13  27
   0   1  -2 116963. 1170.72  35
   0   1  -2 115485. 905.745  38
   0   1   3 132544. 1475.72  28
   0   1   3 135164. 1500.11   4
   0   1  -3 130543. 1097.46  38
   0   1   3 131391. 1509.66  30
   0   1   3 136196. 1513.81  29
   0   1   3 136332. 1487.98  27
   0   1  -3 131897. 1553.82   5
   0   1  -3 135802. 1568.91  35
   0   1  -4 20511.6 745.350  35
   0   1   4 19356.4 661.222   4
   0   1   4 19804.9 681.314  29
   0   1   4 18835.2 706.518  30
   0   1   4 19489.9 625.134  28
   0   1  -4 19176.7 721.720   5
   0   1   4 19299.6 667.551  27
   0   1   5 2564.29 286.585  27
   0   1  -5 2578.32 314.952  35
   0   1  -5 2480.48 307.849   5
   0   1   6 183874. 1659.81  34
   0   1   6 185011. 1607.54  16
   0   1   6 182715. 1697.79  18
   0   1   7 41900.3 716.809  34
   0   1   7 41322.1 707.098  16
   0   1   8 23691.4 368.516  16
   0   2   1 3504.89 229.784  29
   0   2  -1 3523.42 189.767   5
   0   2  -1 3670.85 172.409  28
   0   2  -1 3500.47 192.943  35
   0   2  -1 3533.00 209.616  38
   0   2   1 3615.18 231.310  28
   0   2   1 3628.63 235.973   4
   0   2   2 35321.0 817.727  28
   0   2  -2 35494.6 657.685  38
   0   2  -2 35821.4 747.905  35
   0   2   2 35853.9 786.230  29
   0   2  -2 35778.6 740.225   5
   0   2   2 35734.5 799.660   4
   0   2  -3 9563.78 461.414  35
   0   2   3 9689.01 475.619   4
   0   2  -3 10169.3 472.044   5
   0   2   3 9603.83 471.848  28
   0   2   3 10686.4 456.375  27
   0   2   3 10136.8 476.843  29
   0   2  -4 68569.3 1441.60   5
   0   2  -4 67178.1 1433.76  35
   0   2   4 65958.7 1398.76   4
   0   2   4 64721.9 1360.72  28
   0   2   4 64203.5 1283.58  27
   0   2  -5 12643.6 709.889   5
   0   2   5 11990.2 647.900   4
   0   2  -5 13496.2 737.120  35
   0   3   0 119.482 81.2529  29
   0   3   0 74.5276 61.2978  28
   0   3   0 42.6836 27.9397  35
   0   3   1 41827.8 942.960  28
   0   3   1 39946.8 977.050  29
   0   3  -1 40563.7 763.274  28
   0   3  -1 41256.6 775.909  35
   0   3  -1 43507.6 1052.93  29
   0   3  -2 63198.4 1103.99   5
   0   3   2 66303.1 1305.22  28
   0   3  -2 63198.1 1129.98  35
   0   3   2 62691.6 1288.50  29
   0   3   2 65889.7 1303.20   4
   0   3   3 72589.2 1512.77  29
   0   3  -3 73688.4 1390.37   5
   0   3   3 73564.8 1514.18   4
   0   3   3 73214.3 1520.98  28
   0   3  -3 72296.8 1402.11  35
   0   3   4 9509.34 344.578  32
   0   3  -4 10713.1 605.258   5
   0   3  -4 10149.7 601.779  35
   0   3   4 10246.7 618.470  28
   0   3   4 9631.90 619.826   4
   0   3   5 1726.12 154.628  26
   0   3   5 1718.71 151.967  32
   0   3   6 139653. 1250.11  26
   0   3   6 140790. 1267.35  17
   0   4   0 988661. 4990.30  28
   0   4   0 999999. 5892.90  29
   0   4   1 4192.14 387.554  29
   0   4   1 4239.65 354.199  28
   0   4  -1 4627.86 419.217  29
   0   4   2 13940.8 698.408  28
   0   4  -2 13416.8 579.098  35
   0   4  -2 14229.7 766.931  29
   0   4   2 13421.2 718.432  29
   0   4   3 4570.10 434.564  28
   0   4   3 4373.91 268.690  42
   0   4   3 4225.59 232.364  31
   0   4  -3 4222.08 368.246  35
   0   4   3 4751.70 251.399  17
   0   4  -3 5519.28 498.972  29
   0   4   3 4627.95 252.665  32
   0   4   3 4321.27 267.239  23
   0   4   3 4342.53 437.763  29
   0   4   4 42751.6 781.037  17
   0   4   4 40183.2 842.846  42
   0   4   4 41690.3 774.399  32
   0   4   4 44284.7 808.739  26
   0   4  -5 9001.77 342.302  14
   0   4   5 8477.87 335.258  32
   0   4   5 8633.02 344.439  17
   0   4   5 9054.41 356.082  26
   0   4   6 13184.3 362.903  26
   0   4   6 12869.5 358.536  17
   0   4   6 12920.7 347.669  32
   0   4  -7 374.131 55.9616  39
   0   5   0 1.50319 30.3325  14
   0   5   0-2.47093 35.8744  31
   0   5   0 68.1393 46.7111  42
   0   5   1 8160.35 560.406  28
   0   5   1 8376.81 371.697  42
   0   5   1 8253.30 331.370  31
   0   5  -1 8239.51 347.483   9
   0   5  -1 8171.25 632.488  29
   0   5   1 7868.47 344.307  23
   0   5   1 8193.09 329.943  17
   0   5  -1 8084.24 331.701  14
   0   5  -1 7961.49 337.553  42
   0   5   1 7995.27 617.855  29
   0   5   1 7969.58 314.790  32
   0   5   2 32054.1 1253.99  29
   0   5  -2 33936.0 696.501  14
   0   5   2 33643.1 684.410  17
   0   5   2 35381.0 683.323  26
   0   5   2 35354.4 786.228  42
   0   5  -2 32963.3 695.028   9
   0   5   2 33474.6 678.045  32
   0   5   2 32716.4 653.437  31
   0   5   3 32590.5 692.823  32
   0   5  -3 31211.5 665.429   9
   0   5  -3 32339.8 685.055  14
   0   5   3 30630.9 617.931  31
   0   5   3 31394.3 760.673  42
   0   5   3 31964.9 681.752  17
   0   5   3 33849.7 698.737  26
   0   5   4 4948.97 268.158  32
   0   5  -4 5324.69 274.990  14
   0   5  -4 5266.93 241.645  39
   0   5   4 5074.98 271.471  26
   0   5   4 4905.02 263.302  17
   0   5   5 1569.18 136.800  32
   0   5   5 1586.53 135.609  17
   0   5   5 1236.34 122.529  26
   0   5  -5 1380.77 117.335  39
   0   5  -5 1475.75 131.269  14
   0   5   6 86457.5 741.647  32
   0   5   6 86736.9 731.026  17
   0   5  -6 86228.1 718.931  39
   0   5   6 88119.2 768.773  26
   0   6   0 363978. 2431.81  42
   0   6   0 360002. 2093.36  17
   0   6   1 3976.03 265.460  42
   0   6  -1 3624.37 226.803  14
   0   6   1 3823.86 207.828  32
   0   6  -1 4142.34 244.229  42
   0   6   1 4070.01 234.823  17
   0   6   2 5985.34 327.175  42
   0   6   2 5807.17 279.338  17
   0   6   2 5916.97 267.569  31
   0   6   2 6058.05 276.030  32
   0   6  -2 6117.09 294.863  14
   0   6   2 6027.60 260.541  26
   0   6   3 1791.65 150.960  32
   0   6   3 1941.52 184.067  42
   0   6   3 1828.52 154.296  17
   0   6   3 1902.80 149.623  26
   0   6  -3 1944.64 163.779  14
   0   6   4 24678.7 493.959  17
   0   6  -4 24743.4 508.238  14
   0   6   4 24952.8 501.451  32
   0   6   4 24835.9 487.236  26
   0   6   5 4777.59 179.166  32
   0   6   5 4857.88 178.199  26
   0   6   5 4868.49 175.996  17
   0   6  -5 4854.66 177.240  14
   0   7   0 21.8955 42.3615  42
   0   7   0-47.9060 29.2378  14
   0   7   0-14.7856 34.7087  17
   0   7  -1 2404.27 150.844  14
   0   7   1 2338.52 141.860  17
   0   7   1 2323.06 171.618  42
   0   7  -2 17315.5 392.728  14
   0   7   2 16494.1 325.676  32
   0   7   2 16996.0 367.765  17
   0   7   3 13257.0 278.026  32
   0   7  -3 13715.2 316.476  14
   0   7   3 14015.8 301.539  17
   0   7   4 2275.42 95.8199  17
   0   7  -4 2376.26 103.808  14
  -1  -7   3 18954.0 392.615  15
  -1  -7   2 10736.5 319.850  15
  -1  -7   1 7134.37 264.583  15
   1  -7  -1 5488.09 256.182  41
  -1  -7   0 23346.3 457.219  15
   1  -7   0 18491.2 421.097  41
  -1  -7  -1 40091.7 544.460  15
  -1  -7  -2 12995.4 255.107  15
  -1  -6   4 1544.94 122.050  21
  -1  -6   4 1825.38 157.620  15
  -1  -6   3 1809.57 167.804  15
  -1  -6   2 25978.3 618.479  15
  -1  -6   1 571.065 95.1604  15
  -1  -6   0 31413.7 654.009  15
   1  -6   1 2342.86 183.890  41
   1  -6   1 2539.12 183.321  15
  -1  -6  -1 2384.02 175.915  15
   1  -6   2 16650.5 469.707  15
   1  -6   4 18511.5 404.582   7
  -1  -5   7 209.469 41.0216  21
  -1  -5   6 4906.69 226.214  21
  -1  -5   6 4994.38 236.339  40
  -1  -5   5 143.291 67.7517  40
  -1  -5   5 100.061 54.7969  21
  -1  -5   4 13876.6 445.053  21
  -1  -5   4 13888.7 494.399  15
  -1  -5   4 13306.8 453.610  40
  -1  -5   3 39230.1 811.195  15
  -1  -5   3 40363.2 761.681  40
  -1  -5   3 39854.5 731.275  21
  -1  -5   2 22575.0 1047.37   2
   1  -5  -2 20883.9 1000.45   2
  -1  -5   2 23133.4 588.341  15
   1  -5  -2 22815.3 1007.25  37
  -1  -5   1 15904.7 469.671  15
  -1  -5   1 14354.8 830.373   2
   1  -5  -1 15378.5 819.703  37
   1  -5  -1 15866.0 871.071   2
  -1  -5   0 46528.4 1320.80  37
   1  -5   0 47836.4 1533.74  27
  -1  -5   0 44383.5 1448.76   2
   1  -5   0 44333.2 1435.70   2
   1  -5   0 45988.1 1425.09  37
   1  -5   1 93084.9 1250.17  41
   1  -5   1 93632.9 1146.83  15
  -1  -5  -1 92914.1 1948.64  37
   1  -5   1 93999.5 2260.74  27
   1  -5   1 88092.0 2004.82  37
  -1  -5  -1 89768.0 2028.54   2
   1  -5   1 86986.5 2001.13   2
   1  -5   2 30966.7 706.043  15
   1  -5   2 32192.5 685.871  21
   1  -5   3 35541.9 731.344  21
   1  -5   3 35368.0 782.964  15
   1  -5   4 34166.9 685.367  21
   1  -5   5 11948.6 335.126   7
   1  -5   6 21903.4 346.413  31
   1  -5   6 27515.8 381.376  22
  -1  -4   7 1538.98 128.330  21
  -1  -4   7 1457.22 108.653  16
  -1  -4   7 1495.12 104.011  34
  -1  -4   6 132165. 1404.13  21
  -1  -4   6 130934. 1552.01  40
  -1  -4   6 132832. 1257.53  16
  -1  -4   5 126500. 1402.34  33
  -1  -4   5 123694. 1294.93  16
  -1  -4   5 123024. 1530.56  15
  -1  -4   5 126159. 1427.79  21
  -1  -4   5 125832. 1598.12  40
  -1  -4   4 1733.82 166.072  33
  -1  -4   4 2399.94 398.937  27
   1  -4  -4 2166.88 313.276  37
  -1  -4   4 2017.30 196.334  15
  -1  -4   4 2084.26 179.484  21
  -1  -4   4 1709.59 179.949  40
  -1  -4   3 3743.70 234.712  40
   1  -4  -3 3536.31 380.991   2
  -1  -4   3 3665.64 444.844  27
  -1  -4   3 3733.95 394.253   2
   1  -4  -3 3579.14 371.232  37
  -1  -4   3 3610.25 224.169  33
   1  -4  -2 56566.6 1450.97   2
  -1  -4   2 55456.7 1450.04   2
   1  -4  -2 58516.2 1407.03  37
  -1  -4   1 5470.96 379.424  36
  -1  -4   1 5735.08 459.774   2
   1  -4  -1 5394.25 443.604   2
   1  -4  -1 5629.59 436.098  37
  -1  -4   0 65597.6 1247.16  36
   1  -4   0 68087.3 1519.98  37
  -1  -4   0 65038.5 1349.70  37
  -1  -4   0 65466.9 1504.83   2
   1  -4   0 66315.9 1575.55  27
   1  -4   0 61315.7 1447.69   2
  -1  -4  -1 7931.01 499.959  37
   1  -4   1 7396.30 507.990   2
   1  -4   1 7452.76 587.283  27
  -1  -4  -1 7903.25 527.023   2
   1  -4   1 7317.42 539.421  37
  -1  -4  -2 33955.1 1089.17   2
  -1  -4  -2 35172.4 1136.81  37
   1  -4   2 35498.3 1195.97  37
   1  -4   2 35006.4 1399.98  27
   1  -4   2 33262.0 1098.96   2
   1  -4   3 2978.38 215.503  21
  -1  -4  -3 2624.14 340.582  37
   1  -4   3 2790.99 440.534  27
   1  -4   3 2756.41 230.787  15
   1  -4   4 35811.3 755.087  21
   1  -4   4 36165.6 770.166  40
   1  -4   5 1708.37 165.366  21
   1  -4   5 1835.77 172.490   7
   1  -4   6 2535.23 136.159  34
   1  -4   6 2494.56 157.761  21
   1  -4   6 2496.22 175.639  31
  -1  -3   8 21963.6 391.650  16
  -1  -3   8 21033.0 371.115  34
  -1  -3   8 21024.8 372.731  21
  -1  -3   7 322.273 98.1244  40
  -1  -3   7 289.931 75.4605  21
  -1  -3   7 203.737 58.5959  34
  -1  -3   7 388.080 87.8915  16
  -1  -3   6 6770.86 408.949  40
  -1  -3   6 7167.32 334.564  34
  -1  -3   6 7425.32 357.955  21
  -1  -3   6 7109.14 343.069  18
  -1  -3   6 7272.40 334.105  33
  -1  -3   6 7276.52 355.336  16
  -1  -3   5 92.6244 53.5297  21
  -1  -3   5 71.2195 41.7546  33
  -1  -3   5 54.2908 65.2277  27
   1  -3  -5 98.4661 84.6744  38
  -1  -3   5 13.0348 61.2778  40
  -1  -3   5 144.554 58.7729  18
  -1  -3   5 122.450 49.5470  34
  -1  -3   4 20466.2 993.004  27
  -1  -3   4 18650.8 789.094  30
   1  -3  -4 19276.5 769.664  37
   1  -3  -4 18448.1 792.371   2
  -1  -3   3 85326.3 1934.51  27
   1  -3  -3 80561.8 1543.99   2
  -1  -3   3 80429.2 1562.93   2
   1  -3  -3 85210.3 1515.08  37
  -1  -3   3 85037.4 1404.85  30
  -1  -3   2 50319.4 1163.47   2
  -1  -3   2 51104.0 872.451  30
   1  -3  -2 52617.8 1132.45  37
   1  -3  -2 51905.3 1170.21   2
  -1  -3   2 52395.1 939.399  37
  -1  -3   2 50221.5 1148.23  36
  -1  -3   1 40926.4 848.163  37
  -1  -3   1 41511.4 924.862  36
  -1  -3   1 41468.7 1026.24   2
   1  -3  -1 41477.8 988.174  37
   1  -3  -1 39511.6 988.558   2
   1  -3   0 112376. 1683.12  37
   1  -3   0 105172. 1568.13   2
  -1  -3   0 110691. 1458.22  36
  -1  -3   0 108856. 1611.61   2
  -1  -3   0 108124. 1455.07  37
   1  -3   1 233359. 2671.74  37
  -1  -3  -1 230489. 2308.18  37
   1  -3   1 234442. 2841.85  27
  -1  -3  -1 240226. 2374.92   2
  -1  -3  -1 232688. 2229.13  36
   1  -3   1 228576. 2316.07   2
   1  -3   2 60063.7 1570.14  27
  -1  -3  -2 58900.4 1176.20  36
   1  -3   2 57584.7 1205.45   2
   1  -3   2 61900.2 1382.89  37
  -1  -3  -2 59275.0 1282.63  37
  -1  -3  -2 60033.0 1203.03   2
   1  -3   2 61945.4 1387.52   4
  -1  -3  -3 76804.9 1456.24  36
  -1  -3  -3 78678.7 1628.36  37
   1  -3   3 79153.5 2028.05  27
   1  -3   4 62658.3 905.349  16
  -1  -3  -4 63158.4 1594.15  37
   1  -3   4 65822.0 1083.06  40
   1  -3   4 64132.2 985.259  21
   1  -3   4 64911.9 938.003  34
   1  -3   5 20001.1 532.557  16
   1  -3   5 19033.5 547.846  21
   1  -3   5 20927.7 601.262   7
   1  -3   5 19875.5 628.342  40
   1  -3   5 20092.1 548.952  34
   1  -3   6 46074.6 753.585  21
   1  -3   6 44959.8 731.621  16
   1  -3   6 45845.7 759.449  34
   1  -3   6 45982.9 848.281  31
   1  -3   7 147.368 46.0544  22
   1  -3   7 112.942 39.0319  34
   1  -3   7 121.460 40.6060  31
   1  -3   7 158.006 40.0821  16
  -1  -2   8 195.711 56.2261  16
  -1  -2   8 121.029 52.2994  34
  -1  -2   8 63.2488 31.2219  21
  -1  -2   7 2023.65 191.115  18
  -1  -2   7 2072.77 185.413  21
  -1  -2   7 1962.29 207.524  40
  -1  -2   7 2344.90 208.869  34
  -1  -2   7 2286.70 217.530  16
  -1  -2   6 190545. 1828.31  18
  -1  -2   6 187746. 2037.58  40
  -1  -2   6 191067. 1677.60  33
  -1  -2   6 187131. 1953.45  16
  -1  -2   6 192844. 1856.98  34
  -1  -2   6 187971. 1799.85  21
  -1  -2   5 203189. 2983.25  30
  -1  -2   5 204543. 1740.32  34
   1  -2  -5 204660. 2587.02   6
   1  -2  -5 197210. 2545.48  38
  -1  -2   5 202484. 2887.15  27
  -1  -2   5 199868. 1632.85  33
  -1  -2   5 205530. 1977.64  40
   1  -2  -4 1913.46 209.393  37
  -1  -2   4 1880.14 250.136  30
  -1  -2   4 1660.88 198.776   3
  -1  -2   4 1469.47 229.884  27
   1  -2  -4 1720.05 214.720   2
   1  -2  -3 11664.9 494.601   2
  -1  -2   3 11689.0 512.398  30
  -1  -2   3 12373.6 594.737  27
   1  -2  -3 11254.2 462.115  37
  -1  -2   3 11147.0 492.308   2
  -1  -2   2 133551. 1557.91   2
   1  -2  -2 132583. 1472.71  37
  -1  -2   2 136572. 1391.17  30
  -1  -2   2 133936. 1048.80  37
   1  -2  -2 133064. 1528.07   2
  -1  -2   1 39923.6 791.939  36
   1  -2  -1 41333.8 802.345  37
  -1  -2   1 39190.8 575.931  30
  -1  -2   1 38088.3 637.624  37
  -1  -2   1 40257.8 803.994   2
   1  -2  -1 39847.9 782.360   2
  -1  -2   0 167678. 1574.90  36
   1  -2   0 171107. 1564.33   2
  -1  -2   0 170467. 1578.98   2
  -1  -2   0 164292. 880.598  30
   1  -2   0 164267. 1671.00  37
  -1  -2  -1 25547.5 608.624  36
   1  -2   1 24756.8 690.050  37
   1  -2   1 24987.2 596.244   2
   1  -2   1 25579.7 742.574  27
  -1  -2  -1 26551.4 626.256   2
   1  -2   2 77620.6 1480.04  27
  -1  -2  -2 75299.5 1152.55  36
   1  -2   2 74663.5 1300.55   4
   1  -2   2 75670.4 1272.19  37
   1  -2   2 76575.7 1065.98   2
  -1  -2  -2 72630.2 1035.79   2
   1  -2   3 1507.05 255.253  27
  -1  -2  -3 1371.56 186.949  36
   1  -2   4 57846.3 1662.59  27
   1  -2   4 55791.7 953.346  40
  -1  -2  -4 56825.4 1327.71  36
   1  -2   4 56018.5 871.588  34
   1  -2   5 3113.29 235.888  18
   1  -2   5 2640.11 203.110  21
   1  -2   5 2710.07 216.778  34
   1  -2   5 2720.11 214.118  16
   1  -2   5 2724.04 240.702  40
   1  -2   5 2892.95 220.289   7
   1  -2   6 3833.22 254.935  34
   1  -2   6 3913.23 253.841  31
   1  -2   6 3860.87 250.398  16
   1  -2   6 3827.55 229.226   7
   1  -2   6 3848.90 225.007  21
   1  -2   7 46387.7 657.485  31
   1  -2   7 46017.2 721.668  34
   1  -2   7 44766.4 708.322  16
  -1  -1   8 28800.2 632.987  18
  -1  -1   8 29048.1 650.755  34
  -1  -1   8 28614.4 610.355  16
  -1  -1   7 312.635 81.3955  21
  -1  -1   7 414.661 103.089  16
  -1  -1   7 283.442 91.4336  34
  -1  -1   7 426.855 98.4149  18
  -1  -1   6 9812.42 416.126  18
  -1  -1   6 9706.13 370.550  33
  -1  -1   6 9600.28 429.667  34
  -1  -1   6 9211.15 390.898  21
   1  -1  -6 9553.96 660.100   5
  -1  -1   6 9475.71 369.347  13
  -1  -1   6 9478.27 424.836  16
  -1  -1   6 9602.48 425.852  40
  -1  -1   5 238.408 118.723  30
   1  -1  -5 251.292 90.6540  38
   1  -1  -5 182.478 92.9471  35
  -1  -1   5 293.051 114.715  27
   1  -1  -5 98.2725 64.0075   6
   1  -1  -4 24285.4 712.095  38
  -1  -1   4 23873.3 862.892  30
   1  -1  -4 23943.0 604.259  37
  -1  -1   4 24095.5 755.403  27
  -1  -1   4 24075.3 620.900   3
   1  -1  -3 157878. 1377.89  37
  -1  -1   3 154219. 1449.01   3
  -1  -1   3 150271. 1773.21  30
  -1  -1   3 147554. 1585.07  27
  -1  -1   2 103699. 1169.02  30
  -1  -1   2 103142. 1129.82   2
  -1  -1   2 103946. 1196.06  36
   1  -1  -2 101524. 991.632  37
  -1  -1   1 108348. 1019.28   2
  -1  -1   1 107525. 931.346  30
   1  -1   0 264713. 1379.05   2
  -1  -1   0 263895. 1413.08   2
   1  -1   1 502906. 2633.05   4
  -1  -1  -1 509611. 1488.71   5
   1  -1   1 514991. 2470.91  37
  -1  -1  -1 511877. 1409.69  35
   1  -1   1 516650. 1811.63   2
   1  -1   1 515002. 2621.95  27
  -1  -1  -1 507880. 1861.17   2
  -1  -1  -1 513934. 2307.62  36
   1  -1   2 106839. 910.669  28
   1  -1   2 107569. 1331.63  37
   1  -1   2 109518. 1378.76  30
   1  -1   2 108874. 1489.06  27
  -1  -1  -2 109117. 1293.65  36
   1  -1   2 111336. 1369.13   4
  -1  -1  -2 104009. 1019.55   5
  -1  -1  -2 108005. 797.729   2
  -1  -1  -3 149411. 1515.48  35
   1  -1   3 146390. 2034.97  27
  -1  -1  -3 141404. 1507.95   5
   1  -1   3 146211. 1761.74   4
  -1  -1  -3 146881. 1798.11  36
   1  -1   4 103531. 1977.33  27
  -1  -1  -4 100885. 1754.60  36
   1  -1   5 26047.4 655.577  18
   1  -1   5 26280.9 634.358  31
   1  -1   5 27991.7 1144.55  27
   1  -1   5 26070.9 630.415   7
   1  -1   5 25553.9 640.025  16
  -1  -1  -5 25917.5 1019.95  36
   1  -1   5 25949.6 656.380  34
   1  -1   6 56668.0 918.329  31
   1  -1   6 58036.8 899.579   7
   1  -1   6 57250.9 984.004  16
   1  -1   6 55969.5 991.535  34
   1  -1   6 58781.9 934.941  22
   1  -1   7 130.393 47.0124  22
   1  -1   7 83.8364 40.1467  31
   1  -1   7 183.882 77.1332  34
   1  -1   7 110.003 60.8727  16
   1  -1   8 7707.63 208.133  16
  -1   0   8 370.909 92.8406  18
  -1   0   8 250.891 72.9244  34
  -1   0   8 242.539 62.5787  16
  -1   0   7 2146.55 211.294  18
  -1   0   7 2148.05 206.876  34
  -1   0   7 2050.71 187.566  16
   1   0  -6 225100. 3167.77  35
  -1   0   6 214152. 1988.80  34
  -1   0   6 216460. 3421.06  30
  -1   0   6 213727. 1865.19  40
  -1   0   6 220598. 1876.47  16
   1   0  -6 227962. 3188.74   5
   1   0  -5 253039. 2897.95   5
  -1   0   5 254179. 3241.33  30
   1   0  -5 254093. 2882.86  35
   1   0  -5 247523. 2636.31   6
  -1   0   4 1763.89 234.107  30
  -1   0   4 1808.08 183.535  27
   1   0  -4 1473.17 165.021  38
   1   0  -4 1730.12 189.569   6
   1   0  -3 19492.6 529.137   6
  -1   0   3 20128.0 386.675   4
  -1   0   3 20679.8 628.406  30
  -1   0   3 19198.6 447.767   3
   1   0  -3 20301.5 514.885  38
  -1   0   3 20842.2 593.215  29
  -1   0   3 19763.0 476.621  27
   1   0  -3 19249.7 348.992  37
  -1   0   2 208124. 1310.47   3
   1   0  -2 210038. 1386.54  38
   1   0  -2 207367. 839.312  37
  -1   0   1 82807.6 729.614  29
   1   0  -1 82241.7 512.254  37
  -1   0   1 81795.1 672.005  36
  -1   0   0 271189. 1036.96   3
  -1   0   0 258809. 1058.67  35
  -1   0   0 264590. 681.865  29
   1   0   0 261695. 1130.09  27
   1   0   0 264640. 925.660  38
   1   0   0 264955. 1366.91   4
  -1   0   0 266655. 1122.97  36
   1   0   0 257465. 1272.29  37
  -1   0  -1 44643.5 577.349   5
   1   0   1 45598.0 645.110  28
  -1   0  -2 103902. 1131.59  35
  -1   0  -2 105933. 593.503  38
   1   0   2 113776. 1363.75  27
   1   0   2 112471. 1340.48   4
  -1   0  -2 109378. 1183.09   5
   1   0   2 104778. 1123.20  28
  -1   0  -3 711.489 119.967  35
   1   0   3 820.525 153.809  27
  -1   0  -3 663.105 121.486   5
   1   0   3 710.254 125.964   4
   1   0   3 742.601 108.293  28
   1   0   4 65854.9 1321.58   4
  -1   0  -4 67746.6 1358.07  35
   1   0   4 66727.5 1486.22  27
  -1   0  -4 68310.3 1381.23   5
  -1   0  -5 3658.56 367.329   5
   1   0   5 3601.45 239.855  34
  -1   0  -5 3950.98 411.201  36
   1   0   5 3357.02 228.287  18
   1   0   5 3450.13 225.820   7
   1   0   5 3452.51 218.538  31
  -1   0  -5 3443.54 363.712  35
   1   0   5 3491.05 383.823  27
   1   0   5 3459.97 229.178  16
   1   0   5 3645.35 222.766  22
   1   0   6 4627.14 276.080  18
   1   0   6 4508.01 273.193  34
   1   0   6 4412.32 268.896  16
   1   0   6 4151.83 241.324  22
   1   0   6 4419.30 246.102  31
   1   0   7 52524.5 809.374  34
   1   0   7 52966.8 817.296  16
   1   0   7 52652.7 701.844  31
   1   0   8 32353.6 401.602  16
  -1   1   8 28785.6 553.215  18
  -1   1   7 390.084 94.6790  18
  -1   1   7 259.531 65.0984  34
  -1   1   7 320.139 72.2671  16
  -1   1   6 9819.42 360.658  16
   1   1  -6 9611.91 656.453   5
  -1   1   6 9479.96 657.305  30
  -1   1   6 9619.30 387.148  34
   1   1  -5 220.471 97.3674   5
  -1   1   5 179.430 92.8364  30
  -1   1   4 23639.7 616.475  27
  -1   1   4 24188.7 783.721  29
   1   1  -4 24719.5 774.168  35
   1   1  -4 24466.2 765.127   5
  -1   1   4 23606.9 657.827   4
  -1   1   4 23808.9 777.780  30
   1   1  -4 23369.0 649.676  38
  -1   1   4 22923.8 657.234  28
  -1   1   3 151271. 1673.92  29
  -1   1   3 149231. 1239.02  27
  -1   1   3 152359. 1611.00  30
  -1   1   3 154413. 1341.79   1
  -1   1   3 151806. 1491.24  28
  -1   1   3 153167. 1454.14   4
   1   1  -3 152450. 1435.86  38
   1   1  -3 150019. 1557.09  35
   1   1  -2 97903.5 1022.75  38
  -1   1   2 99219.5 1006.28   1
   1   1  -2 100511. 639.731  28
  -1   1   2 102603. 1066.83  28
  -1   1   2 94766.8 1029.00  30
  -1   1   2 98664.9 1136.96  29
  -1   1   1 106333. 937.999  35
   1   1  -1 106321. 629.110   4
   1   1  -1 106807. 848.298  28
  -1   1   0 250862. 1471.77  29
   1   1   0 252537. 1424.43   4
  -1   1   0 255896. 1441.11   1
   1   1   0 255344. 1453.67  38
   1   1   1 491484. 1624.26  29
   1   1   1 497548. 2545.68  28
   1   1   2 108472. 1355.40  28
   1   1   2 107865. 1380.39   4
  -1   1  -2 112113. 1332.78   5
   1   1   2 106894. 1324.60  27
  -1   1  -2 110478. 1314.47  35
   1   1   2 106691. 940.677  29
  -1   1  -3 150398. 1834.01   5
   1   1   3 143108. 1748.95  28
   1   1   3 144461. 1839.08   4
   1   1   3 148602. 1849.75  27
  -1   1  -3 138868. 1761.93  35
  -1   1  -4 107359. 1830.03  35
   1   1   4 101865. 1782.53  27
   1   1   4 102137. 1750.85   4
  -1   1  -4 105335. 1817.97   5
   1   1   5 25780.4 598.771  16
   1   1   5 25086.6 561.446  19
   1   1   5 26573.6 1023.76  27
  -1   1  -5 25063.0 1017.49  35
   1   1   5 25173.2 565.866  31
   1   1   5 25516.9 571.751  22
  -1   1  -5 26885.9 1043.71   5
   1   1   5 24696.7 588.951  34
   1   1   6 55810.8 833.095  31
   1   1   6 55913.7 883.355  16
   1   1   6 55124.4 870.526  34
   1   1   7 91.7556 39.7822  11
   1   1   7 162.979 47.7393  16
   1   1   7 86.0120 36.8121  31
   1   2  -5 203444. 2752.65  35
  -1   2   5 203873. 2808.20  29
   1   2  -5 208716. 2764.97   5
   1   2  -4 1899.60 229.914   5
  -1   2   4 1640.43 216.004  28
  -1   2   4 1564.59 219.395  29
   1   2  -4 1836.00 226.111  35
   1   2  -3 11674.6 465.638   5
  -1   2   3 12048.7 518.408  28
   1   2  -3 12750.1 489.303  35
  -1   2   3 11846.5 535.126  29
  -1   2   3 11667.0 397.654  30
   1   2  -3 11400.3 443.682  38
  -1   2   2 129013. 998.703  30
   1   2  -2 131626. 1425.57  38
  -1   2   2 137181. 1605.45  29
  -1   2   2 134312. 1555.69  28
   1   2  -2 132163. 854.653  28
   1   2  -2 133893. 1281.16  35
   1   2  -2 131382. 1251.86   5
  -1   2   1 39807.3 757.789  28
   1   2  -1 38962.8 500.587   5
   1   2  -1 40901.4 538.076  35
   1   2  -1 39169.8 649.120  28
  -1   2   1 37773.1 495.151  30
  -1   2   1 40797.2 813.976  29
   1   2  -1 40038.2 764.532  38
  -1   2   1 41298.9 705.934  35
  -1   2   0 168656. 1625.93  29
   1   2   0 167880. 1447.88   4
   1   2   0 167719. 1616.96  38
   1   2   0 165414. 1515.90  29
   1   2   0 164427. 1544.47  28
   1   2   1 25605.8 650.715   4
   1   2   1 26703.9 715.115  28
   1   2   1 24808.4 580.892  29
  -1   2  -1 25719.5 608.243   5
  -1   2  -1 26285.6 669.111  29
  -1   2  -1 24708.8 603.197  35
   1   2   2 74152.2 1055.82  29
  -1   2  -2 73252.6 1200.38   5
   1   2   2 77492.7 1304.63   4
   1   2   2 75422.5 1230.63  27
  -1   2  -2 74715.8 1232.26  35
   1   2   2 74990.7 1327.84  28
   1   2   3 1473.92 209.725  28
   1   2   3 1323.83 199.259   4
  -1   2  -3 1558.23 214.219  35
   1   2   3 1327.97 193.432  27
   1   2   4 53703.8 1339.06  27
   1   2   4 56934.2 1422.96   4
   1   2   4 54295.6 1347.38  28
  -1   2  -4 54880.9 1387.61   5
  -1   2  -4 56417.1 1413.38  35
   1   2   5 2396.99 172.382  16
   1   2   5 2648.80 186.513  31
   1   2   6 3745.37 211.476  31
   1   2   6 3811.11 205.615  16
   1   2   6 3681.35 212.104  11
   1   2   7 45678.4 581.237  11
  -1   3   6 7613.19 299.992  26
   1   3  -5 487.987 150.040  35
   1   3  -5 304.805 110.905   5
  -1   3   5 281.052 86.3351  13
  -1   3   5 28.8669 46.5847  26
  -1   3   5 105.362 49.6522  32
  -1   3   5 92.9770 40.8203  17
  -1   3   4 20111.1 844.530  28
  -1   3   4 20737.2 914.201  29
   1   3  -4 19165.9 771.118  35
   1   3  -4 19354.9 761.687   5
   1   3  -3 86721.2 1402.86  35
   1   3  -3 84953.4 1369.76   5
  -1   3   3 84652.6 1653.98  29
  -1   3   3 84545.5 1594.28  28
   1   3  -3 83788.6 1434.97  38
  -1   3   2 51368.2 1199.90  29
   1   3  -2 50745.4 899.192  35
   1   3  -2 50336.7 863.169   5
  -1   3   2 52312.2 1144.67  28
   1   3  -2 52073.0 1113.35  38
  -1   3   1 42662.0 954.859  28
  -1   3   1 42961.2 852.033  35
   1   3  -1 42307.9 641.836  35
   1   3  -1 42426.7 824.451  28
  -1   3   1 43199.5 1044.41  29
   1   3  -1 42892.9 1013.52  38
   1   3   0 115533. 1647.03  29
  -1   3   0 112309. 1386.02  35
  -1   3   0 115770. 1688.86  29
   1   3   0 113100. 1485.37   4
   1   3   0 110987. 1514.15  28
   1   3   1 233922. 2340.48  29
   1   3   1 230954. 2447.20  28
  -1   3  -1 238899. 2516.19  29
  -1   3  -1 232341. 2153.70  35
   1   3   1 235216. 2381.03   4
   1   3   2 61640.6 1376.66  28
   1   3   2 62871.7 1348.31   4
   1   3   2 60837.1 1245.06  29
  -1   3  -2 61218.9 1246.31  35
  -1   3  -3 79436.6 1598.05  35
   1   3   3 79125.3 1694.80   4
  -1   3  -3 81450.1 1694.34  29
   1   3   3 77497.1 1679.09  28
  -1   3  -3 74244.1 1528.56   5
   1   3   4 62086.7 921.583  32
   1   3   4 64234.4 931.533  11
  -1   3  -4 64590.7 1584.70   5
   1   3   4 65758.5 1644.23  28
  -1   3  -4 64320.2 1607.01  35
   1   3   4 65218.0 1684.43   4
   1   3   5 19566.7 501.375  32
   1   3   5 19469.5 520.907  31
   1   3   5 19633.1 519.227  11
   1   3   5 19443.2 524.778  17
   1   3   6 45532.3 687.393  31
   1   3   6 44223.2 692.945  17
   1   3   6 44772.5 649.531  26
  -1   3  -7 220.369 50.9797  39
  -1   4   7 1393.70 93.2087  26
  -1   4   6 127049. 1174.39  32
  -1   4   6 128679. 1134.66  17
  -1   4   6 127052. 1190.29  26
  -1   4   5 120512. 1264.05  17
  -1   4   5 122743. 1294.11  26
  -1   4   5 122249. 1291.92  32
  -1   4   4 2042.42 192.794  33
  -1   4   4 1442.92 284.911  29
  -1   4   4 1946.53 165.967  26
  -1   4   4 1795.29 163.763  32
  -1   4   4 1726.02 154.861  17
   1   4  -4 1925.00 163.378   9
  -1   4   3 4089.72 256.697  42
  -1   4   3 3849.82 223.927  32
  -1   4   3 3788.25 389.685  28
  -1   4   3 3694.85 408.703  29
  -1   4   2 59074.1 1513.48  29
   1   4  -2 60139.4 1553.03  29
  -1   4   2 60192.6 1417.09  28
   1   4  -1 6359.65 481.429  29
  -1   4   1 6174.88 474.160  29
  -1   4   0 68894.3 1251.98  35
  -1   4   0 68116.8 1566.51  29
   1   4   0 68585.8 1530.50  29
   1   4   0 68172.4 1375.57  28
   1   4   1 7848.77 522.431  29
  -1   4  -1 7584.46 542.175  29
   1   4   1 7849.31 517.047  28
  -1   4  -1 8320.55 467.419  35
   1   4   2 34365.0 671.110  32
  -1   4  -2 36288.0 1240.10  29
   1   4   2 34982.6 696.873  31
   1   4   2 35827.3 1189.27  28
  -1   4  -2 34928.5 1049.22  35
   1   4   2 35077.0 735.568  42
  -1   4  -3 2450.93 312.907  35
   1   4   3 2860.62 211.912  31
   1   4   3 2522.57 206.167  42
   1   4   3 2393.43 185.575  32
   1   4   3 2525.03 191.969  17
  -1   4  -3 2941.20 362.381  29
   1   4   3 2392.50 323.057  28
   1   4   3 2880.78 224.937  23
  -1   4  -3 2727.65 193.501  14
   1   4   4 34443.0 754.610  42
   1   4   4 34899.0 709.377  32
   1   4   4 35834.9 732.862  31
   1   4   4 35294.8 723.410  17
  -1   4  -4 36560.0 693.990  14
   1   4   5 1555.86 146.417  17
   1   4   5 1441.18 137.514  32
   1   4   5 1624.03 149.790  26
   1   4   5 1525.15 139.458  31
   1   4   6 2577.78 148.124  17
  -1   4  -6 2781.82 162.769  39
   1   4   6 2732.18 145.608  26
  -1   5   6 4693.45 200.710  26
  -1   5   6 4367.56 178.343  17
  -1   5   6 4750.64 199.241  32
   1   5  -6 4318.68 166.811  39
   1   5  -6 4791.95 203.790  14
  -1   5   5 108.422 54.8387  13
   1   5  -5 207.150 63.0027  14
  -1   5   5 143.534 60.8605  32
  -1   5   5 216.270 72.8580  26
  -1   5   5 149.774 57.1926  17
  -1   5   4 13733.5 433.520  17
  -1   5   4 13771.4 439.426  26
   1   5  -4 13841.3 438.836   9
  -1   5   4 13596.3 445.200  32
  -1   5   4 14249.2 486.463  33
  -1   5   3 41149.6 750.318  26
  -1   5   3 41732.4 874.041  42
  -1   5   3 42015.9 766.490  17
   1   5  -3 40830.9 777.815   9
  -1   5   3 41548.0 763.497  32
   1   5  -2 24025.3 599.467   9
  -1   5   2 22891.9 563.678  17
  -1   5   2 22794.7 534.898  26
  -1   5   2 23475.0 1083.03  29
   1   5  -2 24924.5 1125.96  29
   1   5  -2 22905.8 578.262  42
  -1   5   2 23727.9 639.456  42
  -1   5   2 23128.3 549.954  32
   1   5  -1 15760.8 496.783  42
  -1   5   1 15614.8 430.080  32
   1   5  -1 15308.0 470.355   9
   1   5  -1 15764.5 481.570  31
  -1   5   1 15897.9 464.136  17
   1   5  -1 15108.1 434.779  14
  -1   5   1 15245.2 861.093  29
   1   5  -1 15874.1 869.298  29
  -1   5   1 15220.6 492.677  42
  -1   5   1 15555.0 451.734  14
   1   5   0 47205.0 827.721  23
   1   5   0 48538.5 824.743  31
   1   5   0 47703.0 750.659  17
   1   5   0 46858.8 813.957   9
  -1   5   0 48687.2 1533.60  29
   1   5   0 47834.5 1490.50  29
  -1   5   0 48384.4 812.240  17
   1   5   0 48991.9 896.801  42
  -1   5   0 47148.5 803.187  14
  -1   5   0 45437.6 805.323  42
   1   5   1 96496.6 1131.94  17
   1   5   1 94730.3 1109.08  32
  -1   5  -1 95503.6 1171.27  14
   1   5   1 94391.1 1961.47  28
   1   5   1 97584.4 1298.88  42
  -1   5  -1 96474.7 1141.88  17
  -1   5  -1 96955.2 2196.87  29
   1   5   1 95468.9 1171.49  31
   1   5   1 95480.9 1091.11  26
   1   5   1 96188.5 1254.71  23
  -1   5  -2 31891.7 682.182  14
   1   5   2 31847.3 759.765  42
   1   5   2 32388.0 686.787  32
   1   5   2 32317.8 679.935  17
   1   5   2 31870.7 673.823  31
   1   5   2 32836.3 762.277  23
   1   5   3 34516.6 689.221  31
   1   5   3 36193.2 731.461  26
   1   5   3 36595.8 728.593  17
   1   5   3 34348.7 785.463  42
  -1   5  -3 35426.3 646.509  39
  -1   5  -3 34807.1 704.680  14
   1   5   3 35780.4 731.066  32
   1   5   4 33999.6 674.167  32
  -1   5  -4 34109.6 615.328  39
  -1   5  -4 34568.5 649.118  14
   1   5   4 33922.8 617.080  31
   1   5   4 35201.6 669.924  17
   1   5   4 34646.8 678.607  26
   1   5   5 12736.0 342.632  32
   1   5   5 12680.8 347.934  26
  -1   5  -5 13067.4 333.084  39
   1   5   5 12638.0 341.567  17
   1   5   6 26682.2 323.684  17
   1   5   6 26145.8 319.731  26
  -1   6   6 60262.6 473.840  26
  -1   6   5 68005.6 737.253  32
   1   6  -5 69688.9 761.072  14
  -1   6   5 69005.9 726.272  26
  -1   6   5 66951.7 695.940  17
  -1   6   4 1564.49 137.348  33
  -1   6   4 1696.46 146.465  13
  -1   6   4 1850.62 146.634  32
  -1   6   4 1739.15 137.025  26
  -1   6   4 1941.44 148.690  17
   1   6  -4 1788.73 146.262  14
  -1   6   3 1563.19 136.611  26
  -1   6   3 1617.92 143.094  32
  -1   6   3 1583.31 147.684  17
   1   6  -3 1643.28 153.291  14
   1   6  -2 25334.6 594.000  42
  -1   6   2 25573.0 550.230  32
  -1   6   2 25900.3 666.693  42
  -1   6   2 26693.5 594.434  17
  -1   6   2 26115.4 534.517  26
   1   6  -2 25065.3 575.385  14
   1   6  -1 733.911 102.816  14
   1   6  -1 685.013 112.474  42
  -1   6   1 613.236 95.0764  14
  -1   6   1 616.659 102.567  42
   1   6   0 30619.4 724.294  42
   1   6   0 30640.8 582.759  17
  -1   6   0 29642.0 650.110  42
   1   6   0 32249.5 693.369  31
  -1   6   0 31983.0 648.519  17
  -1   6   0 31021.3 662.617  14
   1   6   1 2481.56 173.799  32
   1   6   1 2601.15 179.641  17
  -1   6  -1 2632.33 173.390  10
   1   6   1 2623.08 222.325  42
  -1   6  -1 2844.02 205.100  14
   1   6   1 2522.37 189.092  31
  -1   6  -2 17567.4 487.138  14
   1   6   2 17071.9 455.851  32
   1   6   2 17877.7 548.501  42
   1   6   2 17544.8 462.003  17
  -1   6  -2 17313.9 451.094  10
   1   6   2 16456.6 450.841  31
   1   6   2 16973.7 433.967  26
   1   6   3 2754.70 201.626  42
   1   6   3 2691.36 178.164  32
  -1   6  -3 2732.92 174.741  10
   1   6   3 2394.06 156.888  31
   1   6   3 2497.43 169.149  17
  -1   6  -3 2454.68 172.584  14
   1   6   3 2567.39 167.095  26
   1   6   4 20257.0 405.320  17
  -1   6  -4 20465.8 414.762  10
   1   6   4 20622.8 417.195  32
  -1   6  -4 19907.0 401.672  14
   1   6   4 20384.6 401.347  26
   1   6   5 974.506 67.6975  17
  -1   6  -5 1031.39 71.5533  10
   1   6   5 925.894 67.0484  26
  -1   7   4 7148.57 187.507  17
   1   7  -4 7246.45 198.347  14
  -1   7   4 6648.53 175.071  32
  -1   7   4 6694.71 161.277  26
  -1   7   3 18797.4 337.619  32
  -1   7   3 19592.5 376.801  17
   1   7  -3 20083.1 386.289  14
  -1   7   3 18418.2 305.743  26
  -1   7   2 10947.0 305.848  17
   1   7  -2 11096.0 300.793  14
   1   7  -1 7061.84 276.808  42
  -1   7   1 7252.38 257.309  17
  -1   7   1 7013.99 238.265  14
   1   7   0 23622.8 529.136  42
  -1   7   0 23199.0 464.542  14
   1   7   1 43382.9 709.706  42
  -1   7  -1 42360.2 628.760  14
   1   7   2 15954.9 304.704  32
   1   7   2 16292.7 405.760  42
   1   7   2 16186.4 321.443  17
  -1   7  -2 16655.4 369.710  14
  -1   7  -3 15956.0 303.635  14
   1   7   3 15335.0 268.078  17
   2  -7  -4 7479.43 218.265  41
  -2  -7   3 30291.9 478.970  15
   2  -7  -3 23139.3 465.681  41
  -2  -7   2 1141.86 105.584  15
   2  -7  -2 986.072 107.561  41
   2  -7  -1 23098.3 485.753  41
  -2  -7   1 24635.9 465.079  15
  -2  -7   0 8554.06 263.803  15
   2  -7   0 7702.16 258.484  41
  -2  -7  -1 8636.45 238.944  15
  -2  -7  -2 3101.66 112.798  15
  -2  -6   5 5508.07 217.633  40
  -2  -6   4 29674.0 559.035  40
  -2  -6   4 29300.6 596.089  15
  -2  -6   3 12606.6 415.301  15
  -2  -6   3 12449.9 376.857  40
  -2  -6   2 9014.70 354.407  15
   2  -6  -1 12316.7 465.070  41
  -2  -6   1 13217.5 425.696  15
   2  -6   0 309.903 89.4233  41
  -2  -6   0 369.756 81.9982  15
   2  -6   1 5800.84 286.427  41
   2  -6   4 8003.81 217.625   7
  -2  -5   7 15253.0 322.865  40
  -2  -5   7 14363.7 285.083  21
  -2  -5   6 56979.2 831.510  40
  -2  -5   6 55402.4 751.336  21
  -2  -5   5 21281.4 552.288  15
  -2  -5   5 22329.0 529.826  21
  -2  -5   5 21436.4 567.342  40
  -2  -5   4 38674.3 778.691  40
  -2  -5   4 39240.7 795.464  15
  -2  -5   4 39322.1 711.102  21
  -2  -5   3 65670.7 1004.92  15
  -2  -5   3 67203.5 1001.97  40
  -2  -5   2 2786.45 204.593  15
  -2  -5   2 2619.01 191.761  40
  -2  -5   1 58197.2 845.957  40
   2  -5  -1 56661.4 1651.23   2
   2  -5   0 15908.6 547.349  41
  -2  -5   0 14269.4 811.605   2
   2  -5   1 19241.9 599.832  41
   2  -5   4 4625.27 259.971   7
   2  -5   5 15395.0 315.391   7
   2  -5   5 16072.0 358.062  31
  -2  -4   8 23212.7 341.231  21
  -2  -4   7 1038.09 103.205  16
  -2  -4   7 983.338 114.674  21
  -2  -4   7 915.231 119.178  40
  -2  -4   6 11006.1 403.907  33
  -2  -4   6 11040.0 409.891  21
  -2  -4   6 9839.63 429.818  40
  -2  -4   6 10459.2 377.456  16
  -2  -4   5 8857.35 385.396  15
  -2  -4   5 9097.08 415.825  40
  -2  -4   5 9362.24 390.495  33
  -2  -4   5 9721.55 389.520  21
  -2  -4   4 57209.0 899.453  21
  -2  -4   4 59840.7 963.700  33
  -2  -4   4 59548.1 978.247  15
  -2  -4   4 58474.8 1000.29  40
  -2  -4   4 54691.0 1708.07  27
   2  -4  -4 55910.9 1616.15   2
   2  -4  -4 58358.1 1519.20  37
   2  -4  -3 22252.6 983.464   2
  -2  -4   3 24111.4 585.335  33
  -2  -4   3 22427.3 988.939   2
  -2  -4   3 22391.9 1057.97  27
   2  -4  -3 21715.6 922.703  37
  -2  -4   3 23917.1 588.421  40
   2  -4  -2 15274.8 757.400  37
  -2  -4   2 14737.6 775.208   2
   2  -4  -2 14692.9 766.249   2
  -2  -4   2 14283.9 693.937  36
  -2  -4   1 28148.7 1042.68   2
   2  -4  -1 26692.8 1007.80   2
   2  -4  -1 27955.6 1040.55  37
   2  -4  -1 29195.4 979.175  27
  -2  -4   1 26595.6 827.502  37
  -2  -4   1 27468.3 907.579  36
   2  -4   0 1997.34 270.456   2
   2  -4   0 2285.50 306.158  27
  -2  -4   0 2058.07 258.987  36
  -2  -4   0 1996.20 274.153   2
  -2  -4   0 1937.86 248.892  37
   2  -4   0 1986.52 301.640  37
   2  -4   1 9455.44 580.774   2
  -2  -4  -1 8714.11 557.698   2
   2  -4   1 9684.14 673.796  27
  -2  -4  -1 8748.84 550.225  36
   2  -4   1 9795.75 716.481  37
  -2  -4  -1 9070.38 567.228  37
   2  -4   2 87013.9 1158.47  15
   2  -4   2 86477.8 1128.57  21
   2  -4   2 86521.7 1269.80  41
   2  -4   2 87609.6 2215.55  27
   2  -4   2 85004.2 2116.11  37
  -2  -4  -2 85085.5 1862.67  37
   2  -4   3 30543.7 686.125  21
   2  -4   4 17145.2 498.854  21
   2  -4   4 16756.2 601.938   7
   2  -4   5 86094.3 841.001  34
   2  -4   5 86670.2 1084.23   7
   2  -4   6 3784.50 160.756  22
   2  -4   6 3572.27 156.908  31
  -2  -3   8 22546.9 450.159  21
  -2  -3   8 22514.0 455.203  16
  -2  -3   8 21499.4 421.084  34
  -2  -3   7 26168.4 599.982  34
  -2  -3   7 26199.6 591.381  33
  -2  -3   7 26673.0 628.851  21
  -2  -3   7 25394.7 691.988  40
  -2  -3   7 25846.2 593.310  18
  -2  -3   7 25728.8 633.094  16
  -2  -3   6 90783.2 1245.62  21
  -2  -3   6 91418.7 1193.30  34
  -2  -3   6 90819.9 1204.25  33
  -2  -3   6 92502.0 1180.57  18
  -2  -3   5 37295.2 768.247  21
   2  -3  -5 35483.2 1228.46   2
  -2  -3   5 37864.2 714.519  18
  -2  -3   5 38667.8 1283.50  30
  -2  -3   5 37660.2 731.044  34
   2  -3  -5 35705.9 1224.63  38
  -2  -3   5 35780.0 853.650  40
  -2  -3   5 36814.6 748.137  15
  -2  -3   5 37521.4 756.898  33
   2  -3  -4 76726.9 1691.56   2
  -2  -3   4 78559.2 1608.49  30
  -2  -3   4 74180.4 1757.53  27
  -2  -3   3 139086. 2144.07   2
  -2  -3   3 141124. 2317.14  27
  -2  -3   3 147070. 1882.98  30
   2  -3  -3 142781. 2150.34   2
   2  -3  -3 142493. 2027.43  37
   2  -3  -2 4905.12 381.082   2
  -2  -3   2 4921.39 366.458  36
  -2  -3   2 4852.16 383.659   2
   2  -3  -2 5020.04 374.315  37
   2  -3  -1 146983. 2064.96  37
   2  -3  -1 142991. 1958.22   2
  -2  -3   1 144098. 1605.10  37
  -2  -3   1 146258. 2020.14   2
   2  -3  -1 147327. 1810.91  27
  -2  -3   1 141679. 1879.56  36
   2  -3   0 23093.4 768.359   2
  -2  -3   0 23662.7 806.849  36
  -2  -3   0 23333.5 783.667   2
   2  -3   0 23909.0 802.997  27
   2  -3   0 24075.8 899.820  37
  -2  -3   0 24686.8 742.603  37
  -2  -3  -1 41735.7 1085.31  36
   2  -3   1 40156.4 1172.57  27
  -2  -3  -1 41912.3 1018.77   2
   2  -3   1 38683.7 983.192   2
   2  -3   1 41004.6 1269.18  37
  -2  -3  -2 28117.0 955.977  36
   2  -3   2 30402.4 1139.79  37
   2  -3   2 27015.5 1092.52   4
   2  -3   2 27818.5 1101.44  27
   2  -3   3 7399.83 642.665  27
   2  -3   3 6761.15 311.570  21
   2  -3   3 6735.19 291.308  34
   2  -3   3 6973.02 320.730  40
  -2  -3  -3 6712.69 502.929  36
   2  -3   4 6705.94 378.095   7
   2  -3   4 6663.65 318.167  21
   2  -3   4 6960.71 316.214  34
   2  -3   5 28170.8 569.218  16
   2  -3   5 28216.5 596.394  21
   2  -3   5 27555.1 697.697   7
   2  -3   5 28106.6 609.989  34
   2  -3   6 24039.0 536.079  31
   2  -3   6 22877.8 414.273  16
   2  -3   6 23496.7 462.694  34
   2  -3   6 23350.6 468.276   7
  -2  -2   9 5746.34 164.117  16
  -2  -2   8 36071.1 651.248  21
  -2  -2   8 36406.7 586.806  33
  -2  -2   8 36220.1 672.100  18
  -2  -2   8 37188.9 711.755  16
  -2  -2   8 37351.3 691.284  34
  -2  -2   7 1057.77 139.925  21
  -2  -2   7 1113.63 148.728  34
  -2  -2   7 1059.80 129.818  33
  -2  -2   7 1026.54 140.184  18
  -2  -2   7 994.495 144.914  16
  -2  -2   7 986.102 146.748  40
  -2  -2   6 15564.9 494.271  33
  -2  -2   6 15397.3 562.339  40
  -2  -2   6 15209.4 524.820  34
  -2  -2   6 15380.6 521.016  21
  -2  -2   5 14859.8 804.023  30
   2  -2  -5 15360.7 746.663   2
   2  -2  -5 14595.7 718.937  38
  -2  -2   4 106861. 1694.07   3
  -2  -2   4 111971. 1890.57  30
   2  -2  -4 106659. 1754.28  38
  -2  -2   4 111583. 1790.92  27
   2  -2  -4 109260. 1525.89  37
  -2  -2   3 41175.7 1030.63  27
  -2  -2   3 41874.4 986.521  30
   2  -2  -3 43819.5 921.777  37
  -2  -2   3 43429.0 1124.35  36
  -2  -2   2 23978.4 632.898  30
  -2  -2   2 23321.6 705.943   2
  -2  -2   2 24150.9 722.548  36
   2  -2  -2 23267.2 663.227  37
  -2  -2   2 23423.2 423.224  37
  -2  -2   1 66601.6 1116.30   2
   2  -2  -1 66071.6 1087.61   2
  -2  -2   1 68020.6 951.688  30
   2  -2  -1 67938.1 943.827  27
   2  -2  -1 67503.6 1160.54  37
   2  -2   0 8363.33 444.966  37
  -2  -2   0 7471.37 387.461  36
  -2  -2   0 7733.64 316.087  30
  -2  -2   0 7609.47 356.763   2
   2  -2   0 7748.58 356.747   2
   2  -2   0 7760.03 374.242  27
  -2  -2  -1 13998.3 550.081  36
   2  -2   1 14080.3 594.479  27
   2  -2   1 14914.0 683.100   4
   2  -2   1 14778.4 635.699  37
  -2  -2  -1 14486.5 465.297   2
   2  -2   1 14570.4 466.943   2
   2  -2   2 172358. 2396.04  27
   2  -2   2 168587. 2414.07   4
  -2  -2  -2 167384. 2083.05  36
  -2  -2  -3 55456.7 1339.57  36
   2  -2   3 55591.6 1444.81   4
   2  -2   3 55816.3 1555.15  27
   2  -2   4 29367.9 667.414  34
  -2  -2  -4 28321.8 1059.99  36
   2  -2   4 28642.9 731.401   7
   2  -2   4 28252.9 638.494  16
   2  -2   4 28407.6 631.250  21
   2  -2   5 125306. 1412.29  34
   2  -2   5 124108. 1512.37  31
   2  -2   5 123583. 1360.44  16
   2  -2   5 123048. 1491.56   7
   2  -2   6 5404.15 267.292  34
   2  -2   6 5853.02 284.789  31
   2  -2   6 5409.54 257.327  16
   2  -2   6 5450.22 260.275   7
   2  -2   6 6164.28 294.795  22
   2  -2   7 20806.0 372.094  34
   2  -2   7 19847.6 333.892  31
   2  -2   7 19704.0 337.189  16
  -2  -1   9 36430.8 502.152  34
  -2  -1   9 35250.0 450.725  16
  -2  -1   8 28112.5 652.703  18
  -2  -1   8 27167.4 536.829  33
  -2  -1   8 28350.1 682.824  34
  -2  -1   8 28064.0 609.948  21
  -2  -1   8 29641.3 652.296  16
  -2  -1   7 34926.9 730.667  13
  -2  -1   7 34500.8 861.128  34
  -2  -1   7 34261.2 723.976  33
  -2  -1   7 33823.4 806.720  16
  -2  -1   7 33587.8 770.044  21
  -2  -1   7 34689.9 781.480  40
   2  -1  -6 120468. 2123.84   6
  -2  -1   6 118601. 1344.34  33
   2  -1  -6 123661. 2392.29  35
  -2  -1   6 123513. 1561.07  34
  -2  -1   6 119485. 1444.97  40
  -2  -1   6 115985. 1333.89  13
  -2  -1   6 119939. 1422.61  21
  -2  -1   6 124864. 2714.63  30
   2  -1  -5 51189.7 1234.16  38
   2  -1  -5 51896.7 1252.03   6
  -2  -1   5 53267.9 1551.13  30
  -2  -1   4 125298. 1626.98   3
  -2  -1   4 128139. 1515.53  27
  -2  -1   4 131460. 2049.99  30
   2  -1  -4 128912. 1753.20  38
  -2  -1   3 299324. 2349.86   3
   2  -1  -3 301660. 1879.66  37
  -2  -1   3 300388. 2642.51  30
  -2  -1   3 308899. 2061.10  27
   2  -1  -3 300726. 2362.89  38
  -2  -1   2 9054.45 392.493  36
  -2  -1   2 8976.04 369.251   3
  -2  -1   2 8371.90 373.015  30
   2  -1  -2 8693.64 352.549  38
   2  -1  -2 8509.80 319.280  37
  -2  -1   1 292488. 2106.71  36
  -2  -1   1 308332. 2102.05  30
   2  -1  -1 299146. 1967.62  37
   2  -1  -1 300987. 1307.88  27
   2  -1  -1 300637. 1766.21  38
  -2  -1   1 306597. 1933.06   3
  -2  -1   0 33770.4 683.304  36
  -2  -1   0 33563.5 591.765   3
  -2  -1   0 31077.8 401.647  35
   2  -1   0 32765.6 632.252  27
  -2  -1   0 33580.9 574.911   2
   2  -1   0 32718.4 457.116  38
   2  -1   0 33762.2 733.898  37
  -2  -1  -1 74072.6 706.162   3
   2  -1   1 75682.2 1151.36  28
   2  -1   1 75743.1 1179.55  27
   2  -1   1 75562.7 1256.83  37
  -2  -1  -1 77479.0 1144.34  36
   2  -1   1 75893.5 666.705   2
  -2  -1  -1 73280.5 703.775  35
   2  -1   1 74866.6 1315.77   4
  -2  -1  -2 56510.5 1119.39  36
   2  -1   2 58641.6 1237.97  27
   2  -1   2 58389.3 1277.25   4
   2  -1   2 57116.3 1005.11  28
  -2  -1  -3 7535.50 474.893  36
   2  -1   3 7343.67 510.946   4
   2  -1   3 7531.59 518.866  27
  -2  -1  -4 7872.75 551.862  36
   2  -1   4 7929.42 605.584  27
   2  -1   4 7697.15 344.878  31
   2  -1   4 7487.02 328.257  16
   2  -1   4 7589.10 340.388  34
   2  -1   4 7298.81 348.133   7
   2  -1   5 35727.7 758.581  22
   2  -1   5 36131.2 783.052  34
   2  -1   5 37370.2 784.504  31
   2  -1   5 36159.9 797.707   7
   2  -1   5 36906.1 770.651  16
   2  -1   6 28952.8 658.460  34
   2  -1   6 29033.1 642.563  16
   2  -1   6 29392.3 631.917  31
   2  -1   6 27898.2 615.708   7
   2  -1   6 28793.8 630.667  22
   2  -1   7 1724.33 116.139  11
   2  -1   7 1411.83 101.183  31
   2  -1   7 1531.24 119.916  16
   2  -1   7 1607.25 122.779  34
  -2   0   9 6263.52 192.972  34
  -2   0   9 6607.53 221.360  18
  -2   0   8 41364.3 802.660  34
  -2   0   8 40940.5 816.736  18
  -2   0   8 43035.8 723.947  16
  -2   0   7 1149.98 147.014  21
  -2   0   7 1025.02 126.821  13
  -2   0   7 1211.83 166.267  34
  -2   0   7 1203.90 137.022  33
  -2   0   7 1251.63 148.868  16
  -2   0   6 17647.3 514.630  13
  -2   0   6 17858.8 516.315  33
   2   0  -6 16590.4 855.230   5
  -2   0   6 19353.1 1075.54  30
  -2   0   6 18140.0 550.980  21
   2   0  -6 19573.6 926.992  35
  -2   0   6 18079.3 603.871  34
   2   0  -5 17581.0 715.440   6
  -2   0   5 19128.9 941.636  30
   2   0  -5 17432.5 679.205  38
   2   0  -4 144582. 1782.96   6
  -2   0   4 147215. 1665.74   3
  -2   0   4 146572. 2209.26  30
  -2   0   4 148861. 1954.27  29
   2   0  -4 146560. 1751.35  38
   2   0  -3 54237.9 938.779   6
  -2   0   3 53807.3 910.840   3
  -2   0   3 56442.5 1025.41  29
  -2   0   3 55836.5 1174.81  30
  -2   0   3 55790.9 513.449  27
   2   0  -3 55526.1 960.290  38
   2   0  -2 31633.4 587.334   6
  -2   0   2 32057.1 640.000   3
  -2   0   2 30796.9 725.974  30
   2   0  -2 31272.2 622.725  38
  -2   0   2 31319.4 639.934  29
   2   0  -2 30282.3 426.798  37
  -2   0   2 31353.2 567.640  36
  -2   0   1 110282. 1024.70  36
   2   0  -1 110281. 1019.31  37
   2   0  -1 107634. 1001.78  38
  -2   0   1 106709. 934.415  29
  -2   0   1 105444. 1070.37   3
   2   0  -1 108596. 704.816  27
   2   0  -1 108340. 842.515   6
   2   0  -1 109313. 1127.46   4
  -2   0   1 107829. 1010.59  35
  -2   0   0 12909.8 364.701  36
  -2   0   0 13124.9 339.474   3
   2   0   0 12889.1 451.014   4
  -2   0   0 12470.1 177.890  29
   2   0   0 12670.1 419.297  37
   2   0   0 13663.9 311.194  38
   2   0   0 12865.7 359.849  27
  -2   0   0 12981.1 347.629  35
   2   0   1 18259.9 572.168  28
  -2   0  -1 18740.4 526.568  36
   2   0   1 19107.8 550.583  27
  -2   0  -1 18788.4 329.474   1
   2   0   1 19162.2 614.280   4
  -2   0  -1 19401.4 468.249  35
   2   0   2 219345. 2122.25  28
  -2   0  -2 232555. 1953.46  35
  -2   0  -2 238236. 1994.83   5
  -2   0  -2 225703. 2207.81  36
   2   0   2 219212. 2402.61   4
   2   0   2 227518. 2283.51  27
  -2   0  -3 70808.2 1453.04  36
  -2   0  -3 66733.6 1251.62   5
   2   0   3 73596.1 1523.26   4
  -2   0  -3 65608.2 1234.22  35
   2   0   3 70261.9 1492.94  27
  -2   0  -4 34270.9 1169.52  36
   2   0   4 34857.1 683.592  22
   2   0   4 35210.1 705.404  34
   2   0   4 35236.6 693.786  31
   2   0   4 34986.2 1143.44   4
   2   0   4 35071.2 697.259  16
   2   0   4 34127.1 684.115  41
   2   0   4 36428.0 1219.89  27
   2   0   4 35214.6 737.405   7
  -2   0  -4 33532.8 1017.57   5
   2   0   5 137606. 1432.46  22
   2   0   5 141778. 1486.32  34
   2   0   5 136161. 1381.56  19
   2   0   5 138494. 1436.33  31
   2   0   5 139931. 1481.57  16
   2   0   5 135921. 1516.97   7
   2   0   6 6357.88 260.559  19
   2   0   6 6165.45 292.328  34
   2   0   6 6445.61 286.516  31
   2   0   6 6733.30 309.062  16
   2   0   6 6324.45 288.039  22
   2   0   7 23509.7 420.108  34
   2   0   7 24576.3 428.259  11
   2   0   7 23899.3 407.355  31
   2   0   7 23923.2 454.566  16
  -2   1   8 28301.1 557.129  34
  -2   1   8 28950.4 651.696  18
  -2   1   7 34513.9 731.021  13
  -2   1   7 35671.0 768.485  34
  -2   1   7 35381.6 737.998  33
   2   1  -6 124593. 2324.53  35
  -2   1   6 118732. 1352.84  13
  -2   1   6 120267. 1421.72  21
  -2   1   6 119550. 1363.74  33
  -2   1   6 115941. 2372.75  30
   2   1  -6 122141. 2275.68   5
  -2   1   6 118517. 1401.19  34
   2   1  -5 54781.0 1329.50   5
   2   1  -5 53620.1 1207.59  38
   2   1  -5 55251.3 1347.12  35
  -2   1   5 52397.7 1433.83  30
  -2   1   5 53667.8 1382.79  29
   2   1  -4 128999. 1687.95  38
  -2   1   4 131895. 1951.24  30
  -2   1   4 131678. 1909.08  29
  -2   1   4 128835. 1612.51   1
  -2   1   3 292100. 2567.32  30
  -2   1   3 290226. 2287.55   1
  -2   1   3 294995. 2503.43  29
   2   1  -3 297862. 2301.78  38
  -2   1   2 9033.15 375.755  29
   2   1  -2 8767.62 332.534  28
  -2   1   2 8466.72 390.869  30
  -2   1   2 8552.09 363.763   1
   2   1  -2 9029.09 191.252   4
   2   1  -2 8311.03 354.152  38
  -2   1   1 300938. 1203.58  36
   2   1  -1 305718. 1962.27  38
  -2   1   1 305316. 1865.38  29
  -2   1   1 305632. 1953.58  35
  -2   1   1 307127. 1985.01   1
   2   1  -1 303760. 2092.25  28
  -2   1   0 32299.9 543.417  36
  -2   1   0 33243.6 656.935  35
   2   1   0 34796.1 637.570  38
  -2   1   0 35217.2 566.041  29
   2   1   0 32881.3 401.389  29
   2   1   0 34153.1 718.871   4
   2   1   0 33572.7 764.501  28
   2   1   0 32790.2 621.306  27
  -2   1   0 35063.6 645.053   1
  -2   1  -1 74253.3 1080.86  35
  -2   1  -1 75816.8 829.928  29
   2   1   1 78174.8 1261.32   4
   2   1   1 79550.5 1149.77  27
   2   1   1 74683.6 1244.67  28
   2   1   2 58782.4 1230.30   4
  -2   1  -2 55363.1 1073.09  35
   2   1   2 57376.3 1147.08  27
   2   1   2 56930.1 1198.64  28
  -2   1  -3 7905.52 471.303  35
  -2   1  -3 7511.06 456.902   5
   2   1   3 8103.62 499.454  27
   2   1   3 7609.94 500.013   4
   2   1   3 7647.31 480.621  28
  -2   1  -4 7134.85 505.943  35
   2   1   4 7482.05 311.133  34
  -2   1  -4 7889.28 537.403   5
   2   1   4 7612.25 338.316  41
   2   1   4 7506.37 320.413  19
   2   1   4 7896.51 324.933  31
   2   1   4 8221.58 574.952   4
   2   1   4 7645.54 553.294  27
   2   1   4 7735.57 324.803  16
   2   1   4 7098.34 331.305   7
   2   1   4 7797.79 319.598  22
   2   1   5 35792.5 702.560  34
   2   1   5 36601.9 730.736  16
   2   1   5 34928.4 702.206  31
   2   1   5 34639.6 706.023  19
   2   1   6 28376.9 552.469  34
   2   1   6 28544.4 588.020  11
   2   1   6 29142.5 599.162  16
   2   1   6 28441.6 579.665  31
   2   1   7 1623.06 106.444  16
   2   1   7 1721.60 108.435  11
   2   1   7 1493.36 96.6851  31
  -2   2   7 1116.37 132.320  33
  -2   2   7 938.971 122.262  13
  -2   2   6 15206.6 501.308  13
  -2   2   6 15078.5 497.129  33
   2   2  -5 15193.0 719.986  35
   2   2  -5 15369.6 720.817   5
  -2   2   5 15217.2 788.579  29
   2   2  -4 109578. 1651.37  35
  -2   2   4 111651. 1610.33  30
  -2   2   4 110752. 1914.90  29
  -2   2   4 108047. 1633.29   1
   2   2  -4 108623. 1682.93  38
   2   2  -4 108856. 1628.87   5
   2   2  -3 42236.2 851.863  35
   2   2  -3 40745.3 954.501  38
   2   2  -3 42335.7 836.472   5
  -2   2   3 41000.5 963.898   1
  -2   2   3 42015.0 870.312  30
  -2   2   3 42383.3 1053.64  29
   2   2  -2 23931.2 575.117  28
   2   2  -2 23893.7 513.951  35
  -2   2   2 22751.0 686.793   1
  -2   2   2 23609.6 604.826  30
  -2   2   2 24036.0 712.119  29
   2   2  -2 23407.0 680.547  38
  -2   2   1 65895.5 1062.17  35
   2   2  -1 65922.3 553.201  35
   2   2  -1 68112.5 902.303   4
  -2   2   1 66916.9 1102.15  29
  -2   2   1 65899.4 1135.93   1
   2   2  -1 65942.0 1105.66  38
   2   2  -1 67943.3 1093.08  28
   2   2   0 7787.69 369.289   4
  -2   2   0 8376.23 380.502  29
   2   2   0 7530.06 322.265  29
  -2   2   0 7883.96 375.987  35
   2   2   0 7944.87 399.605  38
   2   2   0 7924.70 414.122  28
   2   2   1 14711.4 622.883  28
   2   2   1 14397.5 576.823   4
  -2   2  -1 14709.1 522.584  29
  -2   2  -1 14949.8 556.710  35
   2   2   2 166193. 2101.49  27
   2   2   2 165788. 2272.59  28
   2   2   2 159722. 2168.28   4
  -2   2  -3 52197.8 1317.20  35
   2   2   3 56494.2 1385.82  27
   2   2   3 57453.2 1438.45   4
   2   2   3 54330.9 1427.34  28
  -2   2  -4 30706.2 1116.16  35
   2   2   4 28742.4 1088.28  27
   2   2   4 27477.6 631.318  19
   2   2   4 27812.0 594.786  32
   2   2   4 29034.4 633.803  11
   2   2   4 27799.5 1099.72   4
   2   2   4 28659.7 603.774  16
   2   2   4 28187.3 619.028  31
   2   2   5 121666. 1313.59  11
   2   2   5 119906. 1289.65  31
   2   2   5 124129. 1253.92  16
   2   2   6 5866.96 255.938  11
   2   2   6 5508.41 245.861  31
   2   2   6 5490.16 225.402  16
  -2   3   7 26530.1 599.574  13
  -2   3   7 26594.4 592.763  33
  -2   3   6 88984.6 1217.11  13
  -2   3   6 88273.9 1225.40  33
  -2   3   6 87054.0 1025.55  32
  -2   3   6 87452.3 1027.48  26
   2   3  -5 36023.0 1148.22  35
   2   3  -5 38059.6 1154.59   5
  -2   3   5 36662.7 778.147  33
  -2   3   5 36448.3 687.000  32
  -2   3   5 37764.6 1359.57  29
  -2   3   5 36288.2 777.009  13
  -2   3   5 37552.7 693.983  26
   2   3  -5 38140.8 705.149   9
   2   3  -4 75981.5 1560.30  38
   2   3  -4 77250.0 1477.75  35
   2   3  -4 79846.1 1456.96   5
  -2   3   4 76636.6 1771.70  29
   2   3  -3 152759. 1729.32  35
   2   3  -3 153552. 1681.87   5
  -2   3   3 152314. 2305.87  29
   2   3  -3 151421. 2105.11  38
  -2   3   2 4971.87 389.577  29
   2   3  -2 5106.17 379.053  38
   2   3  -1 142038. 1618.77   4
  -2   3   1 149976. 2030.40  29
   2   3  -1 155748. 1877.08  28
  -2   3   1 147369. 1799.24  35
   2   3  -1 149591. 2064.12  38
  -2   3   0 23552.4 733.891  35
   2   3   0 23161.7 728.781   4
  -2   3   0 23710.3 796.304  29
   2   3   0 23972.7 750.193  29
   2   3   0 24044.7 812.568  28
  -2   3  -1 41712.6 1050.96  35
   2   3   1 43974.7 1116.43   4
  -2   3  -1 41995.9 1085.06  29
   2   3   1 40908.7 1160.74  28
   2   3   2 28577.9 1008.79   4
  -2   3  -2 28077.0 931.946  29
   2   3   2 28151.6 1048.48  28
  -2   3  -2 27577.2 943.393  35
  -2   3  -3 6733.66 514.550  35
   2   3   3 6764.17 328.611  23
   2   3   3 6775.40 309.552  11
   2   3   3 6492.89 311.249  32
   2   3   3 6775.92 311.291  31
   2   3   3 6390.20 522.763   4
   2   3   3 7021.09 553.189  28
   2   3   4 6324.05 315.696  23
   2   3   4 6422.41 313.384  11
   2   3   4 6253.25 299.876  32
   2   3   4 6621.07 318.781  31
   2   3   5 27062.7 608.359  11
   2   3   5 27235.6 544.660  32
   2   3   5 26957.4 602.689  31
  -2   3  -6 24746.5 470.997  39
   2   3   6 23645.1 449.965  31
   2   3   6 24586.6 450.288  17
  -2   4   7 947.432 95.7752  13
  -2   4   7 816.195 78.9206  26
  -2   4   6 10660.9 402.254  33
  -2   4   6 10277.8 348.492  32
  -2   4   6 10797.0 410.035  13
  -2   4   6 10166.5 348.834  26
  -2   4   5 9304.78 401.985  33
  -2   4   5 9827.84 366.137  26
  -2   4   5 9497.37 364.439  32
  -2   4   5 9041.86 333.782  17
   2   4  -5 9479.52 363.269   9
  -2   4   5 9417.54 409.463  13
  -2   4   4 57682.7 1003.77  33
  -2   4   4 58797.2 897.075  32
  -2   4   4 57323.8 847.584  17
   2   4  -4 60201.9 922.886   9
  -2   4   4 58471.2 1727.85  29
  -2   4   4 57932.3 884.781  26
   2   4  -3 23564.7 563.695  42
  -2   4   3 23397.3 553.758  32
  -2   4   3 25402.7 1077.65  29
  -2   4   3 24343.4 625.537  42
  -2   4   3 23274.8 536.372  26
   2   4  -3 23643.2 979.902  38
   2   4  -2 14584.2 757.547  38
  -2   4   2 15603.8 803.020  29
  -2   4   1 29043.3 1061.54  29
   2   4  -1 28435.2 1026.32  29
   2   4  -1 28934.7 901.997  28
  -2   4   1 29589.6 920.156  35
  -2   4   0 2422.41 271.820  35
  -2   4   0 2281.87 300.314  29
   2   4   0 2770.63 308.122  29
   2   4   0 2092.25 266.613  28
  -2   4  -1 10180.5 585.856  35
   2   4   1 10009.6 391.678  42
   2   4   1 9291.33 352.342  32
   2   4   1 9505.30 594.877   4
   2   4   1 9614.20 371.150  31
  -2   4  -1 9647.06 618.204  29
   2   4   1 9824.37 628.997  28
  -2   4  -1 9738.82 335.216  39
   2   4   2 86277.5 1175.95  31
   2   4   2 86673.1 1134.63  32
   2   4   2 88139.4 1961.81   4
   2   4   2 86776.6 1108.72  17
   2   4   2 88830.5 2018.67  28
   2   4   2 87668.3 1194.74  42
  -2   4  -2 87587.8 1071.67  39
  -2   4  -2 87983.8 1847.59  35
  -2   4  -2 86377.3 1075.73  14
   2   4   2 87380.7 1215.81  23
  -2   4  -3 31257.8 658.259  39
   2   4   3 31446.5 691.340  32
   2   4   3 31204.2 721.080  31
   2   4   3 30602.1 679.519  17
  -2   4  -3 31871.9 649.232  14
   2   4   3 31030.4 742.128  23
   2   4   4 17104.4 490.728  17
   2   4   4 17919.0 498.449  32
   2   4   4 17709.1 518.804  31
  -2   4  -4 17625.0 484.791  39
   2   4   5 90540.6 968.317  26
   2   4   5 87853.1 914.257  32
   2   4   5 87746.1 958.341  31
  -2   4  -5 88989.1 929.597  10
   2   4   5 88437.6 960.033  17
  -2   4  -5 91932.6 979.955  39
   2   4   6 3819.59 138.821  17
  -2   4  -6 3820.30 150.208  39
  -2   5   7 13810.7 239.975  26
   2   5  -7 13724.8 244.782  14
  -2   5   6 55942.6 714.474  26
  -2   5   6 57516.5 772.940  13
  -2   5   6 54703.4 733.986  33
  -2   5   6 56045.7 706.036  32
   2   5  -6 57051.2 746.458  14
  -2   5   5 22057.8 524.101  26
  -2   5   5 22270.4 584.901  13
  -2   5   5 23114.5 583.251  33
  -2   5   5 22183.4 526.509  32
   2   5  -5 22548.1 525.588   9
  -2   5   5 22141.6 496.636  17
  -2   5   4 39992.2 754.290  32
  -2   5   4 38378.7 709.190  17
   2   5  -4 40265.5 769.600   9
  -2   5   4 39530.2 730.065  26
   2   5  -3 67679.9 1004.81  42
  -2   5   3 65545.3 959.373  14
  -2   5   3 67238.6 962.196  32
  -2   5   3 65691.6 950.612  17
   2   5  -3 66592.4 1013.83   9
  -2   5   3 66419.5 939.353  26
  -2   5   2 2873.55 196.973  32
  -2   5   2 2490.24 190.793  17
   2   5  -2 2525.99 198.401   9
  -2   5   2 2787.25 219.905  42
  -2   5   2 2475.13 190.439  14
   2   5  -2 2702.43 212.402  42
  -2   5   2 2604.35 183.358  26
   2   5  -1 60456.4 993.319  42
   2   5  -1 59731.1 927.364  31
  -2   5   1 59603.5 919.986  17
   2   5  -1 59347.5 922.876   9
   2   5  -1 60593.8 1673.12  29
  -2   5   1 56440.3 920.158  42
  -2   5   1 55712.7 903.260  14
   2   5  -1 57701.7 905.877  23
   2   5   0 14958.1 433.376  32
  -2   5   0 16021.9 491.370  17
  -2   5   0 15024.6 439.066  10
   2   5   0 14545.4 447.335   9
   2   5   0 15420.7 516.765  42
  -2   5   0 15204.7 476.812  14
   2   5   0 15165.1 471.103  31
   2   5   0 15393.6 498.203  23
  -2   5  -1 19186.6 536.350  14
   2   5   1 18698.0 515.048  32
   2   5   1 18941.9 533.223  31
  -2   5  -1 19463.0 523.866  10
  -2   5  -1 19012.0 479.989  39
   2   5   1 19670.6 509.457  17
   2   5   1 20190.5 600.590  42
   2   5   1 20207.4 594.467  23
  -2   5  -2 10409.5 389.631  14
   2   5   2 10011.0 384.037  32
   2   5   2 10670.7 404.153  31
   2   5   2 10546.3 385.873  17
   2   5   2 10240.7 428.419  42
  -2   5  -2 10359.7 361.634  39
   2   5   2 10860.0 440.809  23
   2   5   3 4794.09 277.000  42
   2   5   3 5086.55 268.230  32
   2   5   3 4972.49 259.556  17
   2   5   3 4868.20 258.906  31
  -2   5  -3 4875.56 250.156  14
   2   5   3 4557.49 283.300  23
  -2   5  -3 4537.62 232.946  39
   2   5   4 4420.30 223.765  32
  -2   5  -4 4820.51 216.838  39
  -2   5  -4 4607.75 225.920  10
   2   5   4 4868.23 229.741  17
   2   5   4 4583.63 227.473  26
   2   5   4 4387.87 213.260  31
   2   5   5 16579.1 311.522  32
  -2   5  -5 17161.1 322.781  39
  -2   5  -5 17102.0 320.272  10
   2   5   5 17151.5 327.505  17
   2   5   5 17307.5 328.963  26
  -2   6   6 5214.18 154.783  32
  -2   6   6 5711.04 163.742  26
   2   6  -6 5677.38 165.351  14
  -2   6   5 5666.04 229.602  13
  -2   6   5 5699.60 216.071  26
  -2   6   5 5230.65 215.089  33
  -2   6   5 5529.29 200.107  17
  -2   6   5 5796.47 220.003  32
   2   6  -5 6167.40 233.415  14
  -2   6   4 32171.0 568.976  26
  -2   6   4 30363.6 570.452  32
  -2   6   4 31201.1 641.967  33
  -2   6   4 31264.1 560.556  17
   2   6  -4 30480.5 596.670   9
   2   6  -4 31868.6 595.273  14
   2   6  -3 12419.9 389.985  14
  -2   6   3 12975.2 384.289  32
  -2   6   3 13045.2 396.830  17
   2   6  -3 13611.3 432.718   9
  -2   6   3 12950.9 375.246  26
   2   6  -3 12425.5 403.955  42
   2   6  -2 9540.34 385.755  42
  -2   6   2 8660.86 339.685  14
  -2   6   2 9386.36 321.386  32
  -2   6   2 8847.56 340.960  17
   2   6  -2 9036.36 363.811   9
  -2   6   2 8865.95 305.031  26
   2   6  -2 8493.60 314.160  14
  -2   6   1 12542.6 416.535  14
   2   6  -1 13044.9 466.364  42
  -2   6   1 12854.9 419.718  17
  -2   6   0 479.071 95.2051  14
   2   6   0 470.756 89.5762  31
   2   6   0 537.356 93.7059  23
  -2   6   0 419.122 78.1854  10
   2   6   0 575.787 113.119  42
   2   6   1 5609.33 254.306  32
   2   6   1 6388.57 290.403  31
  -2   6  -1 6139.68 267.613  10
   2   6   1 5690.42 243.810  17
   2   6   1 6279.70 309.771  23
  -2   6  -1 5939.34 287.366  14
   2   6   1 6091.70 319.032  42
   2   6   2 45073.9 668.561  26
   2   6   2 46497.9 714.878  32
   2   6   2 46101.8 724.149  31
  -2   6  -2 46530.9 712.090  10
   2   6   2 44310.7 672.486  17
  -2   6  -2 45861.9 735.082  14
   2   6   2 46229.3 811.795  42
   2   6   3 15753.7 363.948  31
   2   6   3 16417.4 385.408  32
  -2   6  -3 16489.2 382.353  10
   2   6   3 16575.3 373.800  17
  -2   6  -3 15105.6 314.997  39
   2   6   3 15993.0 364.207  26
  -2   6  -3 15932.5 372.201  14
   2   6   4 8806.81 222.892  32
  -2   6  -4 9216.74 229.756  10
   2   6   4 9114.22 218.946  26
   2   6   4 9115.82 218.356  17
  -2   7   4 16361.5 300.098  13
  -2   7   4 16172.4 265.928  32
   2   7  -4 17430.4 288.490  14
  -2   7   4 17938.3 294.127  17
  -2   7   3 30030.2 508.652  33
  -2   7   3 29468.1 394.040  32
   2   7  -3 29673.7 421.142  14
  -2   7   2 1267.90 106.753  17
   2   7  -2 1128.04 105.679  42
  -2   7   1 25067.7 466.036  14
   2   7  -1 25459.4 518.921  42
   2   7   0 9027.92 314.552  42
  -2   7   0 8537.37 278.935  14
   2   7   1 9201.63 299.197  42
  -2   7  -1 8810.61 270.260  14
  -2   7  -2 4136.49 161.226  14
   3  -7  -3 100.353 41.4056  41
  -3  -7   3 146.025 41.8303  15
   3  -7  -2 9460.18 281.797  41
  -3  -7   2 9275.82 255.305  15
  -3  -7   1 2998.59 146.521  15
   3  -7  -1 3053.54 158.545  41
   3  -7   0 16204.9 316.021  41
  -3  -7   0 17914.3 329.323  15
  -3  -7  -1 614.114 56.9372  15
  -3  -6   5 878.628 88.4980  40
  -3  -6   5 699.174 76.6733  15
  -3  -6   4 27762.7 534.531  40
  -3  -6   4 28230.0 538.684  15
  -3  -6   3 37289.6 639.686  40
   3  -6  -3 37190.9 745.185  41
  -3  -6   3 37042.5 657.986  15
  -3  -6   2 10345.2 357.507  15
  -3  -6   2 9888.14 326.828  40
   3  -6  -2 10062.4 398.275  41
  -3  -6   1 11244.8 334.842  40
  -3  -6   1 11966.4 380.532  15
   3  -6   0 45061.3 804.159  41
   3  -6   1 12151.8 377.744  41
   3  -6   3 111.090 42.6824   7
  -3  -5   7 7809.36 196.607  21
  -3  -5   7 8579.35 249.551  40
  -3  -5   6 37182.1 564.145  21
  -3  -5   6 38924.1 677.955  40
  -3  -5   5 14332.0 418.080  15
  -3  -5   5 15596.5 473.580  40
  -3  -5   4 5286.69 285.898  40
  -3  -5   4 5028.59 267.035  15
  -3  -5   3 319.587 80.3356  40
  -3  -5   3 319.612 86.0080  15
  -3  -5   2 18824.7 514.070  15
  -3  -5   2 19448.3 518.123  40
  -3  -5   1 5306.86 265.811  40
   3  -5  -1 5459.54 321.837  41
   3  -5   0 42657.2 898.552  41
  -3  -5   0 40153.0 713.773  40
  -3  -5  -1 1717.33 145.651  40
   3  -5   1 1987.89 198.549  41
   3  -5   2 11706.8 430.498  41
   3  -5   3 11000.1 421.475   7
   3  -5   4 3655.43 152.628  22
   3  -5   4 3502.96 160.574  31
   3  -5   4 3823.94 191.926   7
  -3  -4   8 36956.8 452.353  21
  -3  -4   8 35135.6 404.772  16
  -3  -4   7 1006.65 111.282  21
  -3  -4   7 1018.29 112.652  33
  -3  -4   7 1006.57 121.398  40
  -3  -4   7 1075.69 109.754  16
  -3  -4   6 20417.5 531.335  21
  -3  -4   6 21402.4 561.696  33
  -3  -4   6 20880.1 593.706  40
  -3  -4   5 1176.78 132.399  21
  -3  -4   5 1267.65 147.249  33
  -3  -4   5 1081.47 124.404  15
  -3  -4   5 1268.46 156.109  40
  -3  -4   4 54701.0 919.649  33
  -3  -4   4 52176.3 852.250  15
  -3  -4   4 52758.6 935.469  40
  -3  -4   3 79662.8 1052.69  33
  -3  -4   3 82078.2 1092.40  40
  -3  -4   3 79623.6 1804.32  36
   3  -4  -3 78034.3 1823.40  37
  -3  -4   3 78781.4 1017.63  15
  -3  -4   2 20904.7 963.991   2
   3  -4  -2 19344.4 920.092   2
  -3  -4   2 20869.7 528.528  40
   3  -4  -2 20642.0 959.696  37
  -3  -4   2 20429.2 874.054  36
  -3  -4   1 30854.7 631.181  40
   3  -4  -1 32976.1 764.536  41
   3  -4  -1 29114.1 1092.92   2
   3  -4  -1 31556.4 1229.47  37
  -3  -4   1 30059.1 1114.95   2
  -3  -4   1 29272.4 1038.89  36
   3  -4   0 89717.4 1314.05  41
  -3  -4   0 84916.4 1081.94  40
   3  -4   0 85576.1 2133.57  37
  -3  -4   0 79444.9 1646.69  37
  -3  -4   0 81658.0 1784.98  36
  -3  -4  -1 20896.5 951.991  36
   3  -4   1 22589.3 712.496  41
  -3  -4  -1 20225.6 901.351  37
   3  -4   1 19362.3 1153.88   4
   3  -4   1 21517.5 1178.64  37
   3  -4   2 41198.3 925.919  41
   3  -4   4 1868.01 163.337  31
   3  -4   4 1937.37 191.683   7
   3  -4   5 29161.7 456.036  22
   3  -4   5 28465.2 468.816  31
   3  -4   5 28279.6 487.732   7
  -3  -3   8 1466.65 124.567  21
  -3  -3   8 1433.88 114.689  34
  -3  -3   8 1294.98 110.808  33
  -3  -3   8 1267.43 103.229  18
  -3  -3   8 1441.27 123.692  16
  -3  -3   8 1707.88 136.958  40
  -3  -3   7 13880.0 452.814  21
  -3  -3   7 13839.3 409.452  18
  -3  -3   7 13816.2 484.390  40
  -3  -3   7 13425.7 425.553  34
  -3  -3   7 13844.1 440.708  33
  -3  -3   6 61679.6 1005.94  21
  -3  -3   6 62542.6 977.842  34
  -3  -3   6 62103.2 992.965  33
  -3  -3   6 61645.1 903.868  18
  -3  -3   6 60648.8 1081.91  40
  -3  -3   5 23876.5 994.721   3
  -3  -3   5 25460.8 624.029  21
  -3  -3   5 25285.2 600.962  34
  -3  -3   5 26192.4 633.472  33
  -3  -3   5 27374.5 1086.89  30
   3  -3  -5 25114.4 1084.82   2
  -3  -3   5 25621.6 676.520  40
   3  -3  -5 24884.9 1044.14  38
  -3  -3   4 15651.7 786.424   3
  -3  -3   4 15568.3 459.970  33
  -3  -3   4 15858.5 496.222  40
  -3  -3   4 16234.5 752.270  30
   3  -3  -4 16098.6 819.536   2
   3  -3  -4 15540.5 770.012  38
   3  -3  -4 15316.6 711.955  37
  -3  -3   3 707.467 170.601  36
   3  -3  -3 785.673 182.186   2
  -3  -3   3 689.022 171.513   3
  -3  -3   3 1061.11 174.104  30
   3  -3  -3 872.658 170.899  38
   3  -3  -3 973.686 181.431  37
  -3  -3   2 33183.7 1058.55   2
   3  -3  -2 32480.2 1040.04   2
   3  -3  -2 32505.7 1050.55  37
  -3  -3   2 34643.7 1036.69  36
  -3  -3   1 5520.91 427.554  36
   3  -3  -1 5265.74 405.009   2
  -3  -3   1 5101.73 396.832   2
   3  -3  -1 5459.97 453.895  37
   3  -3  -1 4846.86 339.187  38
  -3  -3   1 5548.35 349.707  37
  -3  -3   0 82167.8 1474.19   3
  -3  -3   0 84816.8 1533.26   2
   3  -3   0 85408.9 1555.82   2
  -3  -3   0 86555.1 1759.28  36
   3  -3   0 88738.7 1598.36  27
   3  -3   0 90672.2 1950.16  37
  -3  -3  -1 3259.44 357.440  36
   3  -3   1 3622.19 381.478  27
   3  -3   1 3698.96 457.128   4
   3  -3   1 3608.47 448.945  37
  -3  -3  -2 21977.0 968.786  36
   3  -3   2 22233.7 1028.10  27
   3  -3   2 20835.3 513.062  34
   3  -3   2 22551.3 669.945  41
   3  -3   2 20949.8 1111.10   4
   3  -3   2 20802.9 1095.69  37
   3  -3   3 17790.8 496.552  34
   3  -3   3 18637.4 594.984  41
   3  -3   3 18366.0 637.024   7
   3  -3   4 6152.74 287.186  34
   3  -3   4 6295.83 366.713   7
   3  -3   4 6970.77 341.390  31
   3  -3   5 722.970 109.635   7
   3  -3   5 669.456 100.905  22
   3  -3   5 648.067 84.5942  34
   3  -3   5 728.646 105.674  31
   3  -3   6 9663.00 223.135  22
  -3  -2   9 11037.9 243.579  21
  -3  -2   9 11958.1 267.401  34
  -3  -2   9 11697.7 257.543  16
  -3  -2   8 56994.4 866.983  34
  -3  -2   8 55862.8 843.442  21
  -3  -2   8 55945.3 794.652  33
  -3  -2   8 55569.7 822.405  18
  -3  -2   8 55701.6 872.750  16
  -3  -2   8 55505.6 809.852  40
  -3  -2   7 1786.19 180.131  34
  -3  -2   7 1602.19 167.585  21
  -3  -2   7 1563.89 160.448  33
  -3  -2   7 1769.00 172.930  18
  -3  -2   7 1726.83 176.414  40
  -3  -2   6 32087.3 736.426  21
  -3  -2   6 30925.7 702.813  33
  -3  -2   6 30769.3 732.640  34
  -3  -2   6 31330.4 752.324  40
   3  -2  -5 845.038 209.569  38
  -3  -2   5 968.689 188.358   3
  -3  -2   5 1131.36 222.568  30
  -3  -2   5 1078.40 126.522  33
  -3  -2   5 1251.69 151.362  40
  -3  -2   4 84292.0 1649.28   3
  -3  -2   4 88338.2 1740.81  30
   3  -2  -4 89128.0 1676.74  38
  -3  -2   3 161158. 2073.32  30
  -3  -2   3 159968. 2117.35  36
   3  -2  -3 158507. 2030.22  38
   3  -2  -3 165119. 1939.48  37
  -3  -2   2 42817.7 1031.36   3
  -3  -2   2 43247.1 975.506  30
   3  -2  -2 45177.3 991.281  38
   3  -2  -2 45202.8 1056.92  37
  -3  -2   2 45333.8 1078.18  36
  -3  -2   1 79596.8 1487.46  36
   3  -2  -1 76652.8 1282.84   2
  -3  -2   1 77413.2 1273.24  30
  -3  -2   1 75138.9 1288.87   3
   3  -2  -1 76083.9 1439.89  37
   3  -2  -1 75090.7 1145.54  38
  -3  -2   0 166254. 2150.15  36
  -3  -2   0 166473. 1803.77   3
   3  -2   0 171450. 2317.64  37
   3  -2   0 169529. 1815.38   2
   3  -2   0 166881. 1902.23  27
   3  -2   1 29960.1 997.549  28
  -3  -2  -1 32176.1 980.346  36
   3  -2   1 31040.8 1170.17   4
   3  -2   1 32693.2 1140.38  37
   3  -2   1 32168.3 980.867  27
  -3  -2  -2 62781.7 1504.78  36
   3  -2   2 65841.5 1616.26  27
   3  -2   2 66242.6 1809.05   4
   3  -2   3 106.619 54.8814   7
  -3  -2  -3 240.673 125.292  36
   3  -2   3 106.605 65.0566  41
   3  -2   3 293.637 75.3058  34
   3  -2   3 86.2159 102.474  27
   3  -2   3 188.835 59.4178  16
   3  -2   4 3292.06 228.798  41
   3  -2   4 3085.03 221.116  34
   3  -2   4 3079.81 253.190   7
   3  -2   4 3242.98 239.719  31
   3  -2   4 3000.70 204.218  16
   3  -2   5 43136.6 781.565  22
   3  -2   5 43820.8 764.336  34
   3  -2   5 43443.6 712.800  19
   3  -2   5 44671.4 800.403  31
   3  -2   5 41068.3 696.588  16
   3  -2   5 41543.9 828.579   7
   3  -2   6 12447.9 328.517  22
   3  -2   6 12446.3 324.696  31
   3  -2   6 11992.2 309.660  34
  -3  -1   9 58838.7 618.941  21
  -3  -1   9 60064.5 619.127  16
  -3  -1   8 1646.42 175.406  34
  -3  -1   8 1345.49 143.964  21
  -3  -1   8 1675.13 148.069  33
  -3  -1   8 1497.55 160.175  18
  -3  -1   8 1627.23 154.779  16
  -3  -1   7 16859.3 516.886  13
  -3  -1   7 17600.1 598.680  34
  -3  -1   7 17859.8 560.515  21
  -3  -1   7 17743.4 531.193  33
  -3  -1   7 17629.2 526.578  40
  -3  -1   6 81312.8 1167.37  21
  -3  -1   6 81275.8 1118.62  13
  -3  -1   6 82236.8 1124.39  33
   3  -1  -6 80831.4 1770.14  38
  -3  -1   6 80122.1 1232.15  34
  -3  -1   6 79084.4 2139.88  30
  -3  -1   6 79888.1 1109.47  40
   3  -1  -6 81325.6 1792.98   6
   3  -1  -5 36293.8 1088.92   6
  -3  -1   5 34068.8 1021.13   3
  -3  -1   5 34525.6 1253.58  30
   3  -1  -5 36156.7 1091.95  38
  -3  -1   4 36811.0 997.195   3
  -3  -1   4 36743.9 1113.26  30
   3  -1  -4 38416.4 1021.99  38
  -3  -1   3 2404.75 245.791   3
  -3  -1   3 2080.26 245.182  30
   3  -1  -3 2143.97 225.958  38
   3  -1  -3 1988.19 178.349  37
  -3  -1   3 2125.74 219.465  36
  -3  -1   2 59177.5 1097.03  36
  -3  -1   2 58396.6 1091.17   3
  -3  -1   2 60731.6 1175.64  30
   3  -1  -2 59390.8 1018.18  38
  -3  -1   1 3989.80 288.147  36
  -3  -1   1 3571.42 252.768   3
   3  -1  -1 3829.35 228.961  38
   3  -1  -1 3896.70 189.296  27
   3  -1  -1 3823.44 282.352  37
  -3  -1   0 160172. 1838.15  36
  -3  -1   0 156289. 1523.58   3
   3  -1   0 159450. 1417.61   2
   3  -1   0 155772. 1601.28  27
   3  -1   0 162490. 2192.16   4
   3  -1   0 160526. 1993.20  37
  -3  -1  -1 5728.12 380.537  36
   3  -1   1 5224.43 398.020  28
   3  -1   1 5782.42 376.993  27
   3  -1   1 5777.00 448.403   4
   3  -1   1 5240.85 410.849  37
  -3  -1  -2 33620.7 1022.82  36
   3  -1   2 34629.2 1197.05   4
   3  -1   2 35090.7 1088.47  27
  -3  -1  -3 24153.7 979.981  36
   3  -1   3 24837.3 596.371  34
   3  -1   3 24805.6 603.837  31
   3  -1   3 24657.9 576.490  16
   3  -1   3 25913.7 1106.17   4
   3  -1   3 26789.7 1079.59  27
   3  -1   3 25669.5 644.406  41
   3  -1   3 24577.3 644.137   7
   3  -1   4 8222.58 356.404  22
   3  -1   4 8432.43 373.074  34
   3  -1   4 8563.14 372.456  31
   3  -1   4 8283.70 353.435  16
   3  -1   4 8286.86 395.426   7
   3  -1   4 8027.55 369.687  41
   3  -1   5 1171.94 138.478  22
   3  -1   5 1139.62 138.086  34
   3  -1   5 1112.71 125.643  19
   3  -1   5 1377.83 151.487  31
   3  -1   5 1138.73 131.130  16
   3  -1   5 836.159 125.473   7
   3  -1   6 15157.4 388.049  34
   3  -1   6 15217.0 379.254  31
   3  -1   6 15232.2 382.470  16
  -3   0   9 13311.9 315.202  34
  -3   0   9 14297.4 358.045  18
  -3   0   8 63371.3 912.934  13
  -3   0   8 64366.7 1019.44  34
  -3   0   8 62785.4 957.041  21
  -3   0   8 62393.3 901.674  33
  -3   0   8 64267.4 874.588  16
  -3   0   7 2124.20 186.699  13
  -3   0   7 2063.82 211.502  34
  -3   0   7 1776.71 182.920  21
  -3   0   7 1819.21 173.983  33
  -3   0   7 2064.28 185.395  16
  -3   0   6 36543.3 751.476  13
  -3   0   6 36509.7 857.855  34
  -3   0   6 37379.1 789.167  21
  -3   0   6 36917.4 752.700  33
  -3   0   6 36783.3 1495.30  30
   3   0  -6 36532.3 1160.16  38
   3   0  -5 872.230 171.342   6
  -3   0   5 622.907 205.518  30
   3   0  -5 1042.72 187.743  38
  -3   0   4 107664. 1642.46   3
  -3   0   4 110497. 1966.08  30
  -3   0   4 111662. 1773.63  29
   3   0  -4 112268. 1647.77   6
   3   0  -4 110128. 1677.01  38
   3   0  -3 219633. 2002.20   6
  -3   0   3 216685. 2164.43   3
   3   0  -3 216987. 1657.98   4
  -3   0   3 224334. 2436.76  30
  -3   0   3 221951. 2172.02  29
   3   0  -3 221392. 2126.77  38
  -3   0   3 216916. 1819.81  36
  -3   0   2 69347.8 1001.45  36
   3   0  -2 62998.6 1029.39  38
  -3   0   2 64646.1 1103.34   3
  -3   0   2 68110.3 1260.37  30
  -3   0   2 67410.9 1001.52  29
   3   0  -2 65956.5 921.450   6
   3   0  -2 67578.8 928.776  37
   3   0  -2 64185.6 1025.00   4
  -3   0   1 119553. 1333.90  36
   3   0  -1 119052. 966.391   6
  -3   0   1 117341. 1295.71  35
  -3   0   1 120339. 1406.11   3
  -3   0   1 118668. 1058.80  29
   3   0  -1 115624. 1503.04   4
   3   0  -1 114525. 1037.38  27
   3   0  -1 116225. 1268.27  38
   3   0  -1 119635. 1422.16  37
  -3   0   0 233852. 1980.85  36
  -3   0   0 232971. 1815.45  35
  -3   0   0 238263. 1832.34   1
   3   0   0 228969. 2431.27  28
   3   0   0 236028. 2400.27   4
   3   0   0 233562. 1870.56  27
   3   0   0 238747. 1616.45  38
  -3   0  -1 35635.7 887.278  36
  -3   0  -1 38088.6 795.029  35
   3   0   1 36506.3 898.961  27
   3   0   1 36321.2 1037.13  28
   3   0   1 38211.8 1085.67   4
  -3   0  -2 79739.3 1522.95  36
   3   0   2 78153.2 1590.01  28
   3   0   2 78112.6 1735.83   4
   3   0   2 79632.3 1551.20  27
  -3   0  -2 79071.6 1301.07  35
   3   0   3 123.822 60.1317   7
  -3   0  -3 164.949 95.1001  36
   3   0   3 92.1373 43.1753  22
   3   0   3 175.463 59.1641  34
   3   0   3 101.765 43.4104  16
   3   0   3 54.9908 39.7130  31
   3   0   3 129.279 64.2546  41
   3   0   3 268.706 109.813  27
   3   0   3-70.4731 77.0659   4
   3   0   4 3683.07 235.002  22
   3   0   4 3199.25 224.693  34
   3   0   4 3654.32 236.966  31
   3   0   4 3655.38 239.560  16
   3   0   4 3351.83 241.917  41
   3   0   4 3422.75 249.337   7
   3   0   5 46728.3 804.806  22
   3   0   5 48165.7 820.825  34
   3   0   5 46518.5 806.270  19
   3   0   5 47941.6 814.022  31
   3   0   5 47995.3 832.211  16
   3   0   5 47277.7 798.219  41
   3   0   6 13362.2 347.359  34
   3   0   6 14029.2 369.448  11
   3   0   6 13647.6 359.771  31
   3   0   6 13394.9 365.654  16
  -3   1   9 61059.1 652.322  18
  -3   1   8 1523.79 143.898  13
  -3   1   8 1642.50 145.200  34
  -3   1   8 1716.47 153.844  21
  -3   1   8 1575.53 146.272  33
  -3   1   7 17483.9 535.125  13
  -3   1   7 18574.2 562.730  34
  -3   1   7 17594.8 559.102  21
  -3   1   7 17464.6 532.438  33
   3   1  -6 81169.5 1814.91  35
  -3   1   6 81211.0 1137.16  13
  -3   1   6 81799.9 1187.47  34
  -3   1   6 82603.0 1183.40  21
   3   1  -6 79867.3 1725.93  38
  -3   1   6 80051.8 1135.83  33
   3   1  -6 83430.0 1827.27   5
  -3   1   6 81483.9 2068.47  30
  -3   1   5 36343.2 1050.20   1
  -3   1   5 36733.1 1253.92  30
  -3   1   5 37585.1 1196.00  29
   3   1  -5 36742.3 1092.30  38
  -3   1   4 38466.5 1023.97   1
  -3   1   4 39571.1 1163.58  30
  -3   1   4 40423.3 1111.08  29
   3   1  -4 38935.8 1027.67  38
  -3   1   3 2394.99 263.917  30
  -3   1   3 1991.30 228.156   1
  -3   1   3 2376.61 244.871  29
   3   1  -3 2464.51 226.569  28
   3   1  -3 2234.82 232.555  38
   3   1  -2 59846.5 1137.75  28
   3   1  -2 59374.6 1089.25  38
  -3   1   2 58742.1 1128.08   1
  -3   1   2 60606.0 1219.68  30
  -3   1   2 60585.3 1041.93  29
   3   1  -2 61004.2 878.762   4
  -3   1   1 3921.70 206.886  36
   3   1  -1 4016.26 274.173   4
  -3   1   1 4000.30 274.211  35
  -3   1   1 3868.92 230.894  29
   3   1  -1 3659.57 302.333  28
   3   1  -1 3794.54 261.148  38
  -3   1   1 3476.35 259.829   1
  -3   1   0 158872. 1517.89  36
  -3   1   0 160464. 1739.84  35
   3   1   0 161446. 1972.80   4
   3   1   0 156432. 2069.02  28
  -3   1   0 152986. 1631.84   1
   3   1   0 159122. 1662.13  38
   3   1   0 157379. 1650.52  27
  -3   1  -1 5074.31 331.253  36
  -3   1  -1 5478.52 353.874  35
   3   1   1 5143.13 350.255  27
   3   1   1 5626.44 412.353   4
   3   1   1 5667.80 420.956  28
  -3   1  -2 33106.6 982.395  36
  -3   1  -2 31780.7 944.422  35
   3   1   2 33546.8 1109.98   4
   3   1   2 33632.9 1112.25  28
   3   1   2 33363.7 1013.14  27
  -3   1  -3 23572.7 958.173  36
   3   1   3 24721.3 559.683  22
  -3   1  -3 23720.2 901.747  35
   3   1   3 24352.1 555.021  34
   3   1   3 24123.0 616.409   7
   3   1   3 24377.2 596.324  19
   3   1   3 24815.0 567.849  31
   3   1   3 24809.2 1045.89   4
   3   1   3 24790.0 579.922  16
   3   1   3 26359.3 1019.35  27
   3   1   3 25050.0 628.547  41
   3   1   4 8268.99 339.323  34
   3   1   4 7907.93 350.389  19
   3   1   4 8307.15 347.219  31
   3   1   4 7993.71 347.573  16
   3   1   4 7827.40 365.804  41
   3   1   5 1161.77 133.532  19
   3   1   5 1259.01 138.052  11
   3   1   5 1253.60 132.114  31
   3   1   5 1246.33 137.681  16
   3   1   5 1188.53 123.636  34
   3   1   6 14756.1 363.236  11
   3   1   6 15096.8 365.083  31
   3   1   6 15262.3 361.984  16
  -3   2   8 57194.6 809.565  13
  -3   2   8 56832.2 799.188  33
  -3   2   7 1674.35 170.969  13
  -3   2   7 1715.27 171.174  21
  -3   2   7 1705.64 169.746  33
  -3   2   6 30903.0 724.216  13
  -3   2   6 31710.2 742.736  21
  -3   2   6 30183.0 717.815  33
   3   2  -5 1402.86 221.199  35
  -3   2   5 1075.81 133.434  33
   3   2  -5 1049.58 193.623   5
  -3   2   5 814.780 204.203  29
  -3   2   5 1091.91 147.488  39
   3   2  -5 1061.90 194.479  38
  -3   2   5 1379.72 226.608   1
   3   2  -4 89032.7 1471.35  35
  -3   2   4 90041.2 1628.76  30
  -3   2   4 92019.0 1821.78  29
  -3   2   4 85000.6 1660.49   1
   3   2  -4 91215.5 1702.03  38
  -3   2   3 161887. 2008.01  30
  -3   2   3 162009. 2173.77  29
   3   2  -3 166134. 2145.74  38
  -3   2   2 45610.8 1055.94  35
  -3   2   2 46020.3 1048.44  30
  -3   2   2 46919.4 1062.65  29
   3   2  -2 44300.9 1015.17  28
  -3   2   2 44417.4 1078.34   1
   3   2  -2 46035.8 1067.77  38
  -3   2   1 80621.2 1366.00  35
   3   2  -1 80042.6 1218.79   4
  -3   2   1 76458.6 1266.44  29
  -3   2   1 75840.3 1374.50   1
   3   2  -1 81304.4 1398.00  38
   3   2  -1 80431.8 1459.83  28
  -3   2   0 172095. 2045.20  35
   3   2   0 173143. 2072.34   4
  -3   2   0 172217. 1797.84  29
   3   2   0 173560. 2301.65  28
  -3   2  -1 32499.3 833.347  36
  -3   2  -1 31738.4 947.089  35
   3   2   1 31535.4 998.756   4
   3   2   1 31944.9 1071.06  28
  -3   2  -2 67077.6 1426.96  36
   3   2   2 66562.4 1672.08  28
   3   2   2 67564.9 1614.82   4
   3   2   3-5.57546 31.3645  28
  -3   2  -3 151.132 134.689  36
  -3   2  -3 156.181 85.8058  35
   3   2   3 172.816 62.8166  19
   3   2   3 43.7419 31.1002  11
   3   2   3 132.079 61.2551  31
   3   2   3 35.7208 45.0873  41
   3   2   3 47.8925 44.4477  16
   3   2   3 245.750 122.354   4
   3   2   4 2993.73 217.679  19
   3   2   4 3231.27 221.045  11
   3   2   4 3097.00 215.837  31
   3   2   4 2989.51 207.729  16
  -3   2  -4 3077.14 207.512  39
   3   2   5 41174.8 721.607  11
   3   2   5 41653.0 722.544  31
   3   2   5 42137.0 688.214  16
  -3   2  -5 41652.4 667.670  39
   3   2   6 12305.4 303.959  11
   3   2   6 12233.4 298.920  31
   3   2   6 11803.4 273.774  17
  -3   3   8 1572.63 119.126  13
  -3   3   8 1334.75 107.280  33
  -3   3   7 13767.0 451.039  13
  -3   3   7 14385.8 458.157  33
  -3   3   6 60701.9 1017.70  13
  -3   3   6 61983.9 1027.64  33
  -3   3   6 60288.6 856.037  32
   3   3  -6 63853.7 932.679   9
  -3   3   6 61423.3 870.330  26
   3   3  -5 25954.3 598.646  42
  -3   3   5 25495.8 659.641  13
  -3   3   5 25345.5 654.863  33
  -3   3   5 25142.4 584.008  32
  -3   3   5 26792.0 1166.84  29
   3   3  -5 26404.4 609.745   9
  -3   3   5 25994.3 584.256  26
  -3   3   5 26419.7 691.004  39
   3   3  -5 25284.6 1017.76  38
  -3   3   4 17001.6 510.456  33
  -3   3   4 16133.6 454.977  32
  -3   3   4 17014.3 868.491  29
   3   3  -4 16110.1 462.985  42
   3   3  -4 16415.1 794.858  38
  -3   3   3 647.096 169.178  29
   3   3  -3 815.233 172.484  38
  -3   3   2 35332.6 1086.55  29
   3   3  -2 34915.1 963.082  28
   3   3  -2 33785.4 1069.52  38
   3   3  -1 5467.39 420.647  28
  -3   3   1 5663.08 405.906  35
   3   3  -1 5323.81 342.680   4
  -3   3   1 5319.42 408.369  29
   3   3  -1 4782.30 413.726  38
  -3   3   0 86122.9 1625.19  35
   3   3   0 88382.6 1594.39   4
  -3   3   0 89389.7 1631.71  29
   3   3   0 87279.1 1803.64  28
  -3   3  -1 3144.44 333.540  35
   3   3   1 3104.25 339.301   4
   3   3   1 3681.19 394.770  28
  -3   3  -2 21306.6 922.931  35
   3   3   2 21564.6 555.703  11
   3   3   2 20821.4 558.183  31
   3   3   2 21609.1 962.867   4
   3   3   2 22237.1 533.171  16
   3   3   2 22158.6 1030.01  28
  -3   3  -2 21654.3 540.535  39
   3   3   2 21295.7 589.082  23
   3   3   3 18400.9 535.085  11
   3   3   3 17473.5 520.088  32
   3   3   3 17737.9 527.037  31
  -3   3  -3 18592.7 504.308  10
   3   3   3 18221.8 490.051  16
  -3   3  -3 18663.0 513.297  39
   3   3   3 18077.6 548.696  23
   3   3   4 6468.96 311.499  11
   3   3   4 6225.78 286.251  32
   3   3   4 5980.08 298.722  31
  -3   3  -4 6460.26 270.426  10
   3   3   4 6306.17 268.851  16
  -3   3  -4 6616.37 296.293  39
   3   3   5 624.431 87.6592  31
   3   3   5 658.914 87.4556  17
  -3   3  -5 595.611 82.6701  39
  -3   4   7 1074.36 93.9120  26
  -3   4   7 1181.56 97.2197  32
  -3   4   7 1157.43 115.984  33
  -3   4   7 1152.95 117.709  13
  -3   4   6 20821.9 575.628  13
  -3   4   6 20296.8 492.485  26
  -3   4   6 21014.3 573.851  33
  -3   4   6 20116.2 489.615  32
   3   4  -6 21714.9 513.504   9
  -3   4   5 1154.88 147.417  13
  -3   4   5 1282.39 159.602  33
  -3   4   5 1193.93 136.517  32
   3   4  -5 1277.79 144.847   9
  -3   4   5 1033.95 126.366  26
   3   4  -5 1132.60 128.301  42
  -3   4   4 53169.9 978.856  33
  -3   4   4 53656.1 869.215  32
  -3   4   4 52783.1 807.856  17
   3   4  -4 53196.3 903.091   9
   3   4  -4 53828.4 906.997  42
  -3   4   4 50026.9 879.036  14
  -3   4   4 52461.0 849.677  26
  -3   4   3 78592.3 1084.82  14
  -3   4   3 80832.5 1042.84  32
  -3   4   3 79905.7 1009.45  17
  -3   4   3 80733.6 1971.14  29
   3   4  -3 82407.7 1097.03   9
   3   4  -3 81341.8 1111.86  42
  -3   4   3 79652.5 1043.35  39
   3   4  -3 80579.3 1935.24  38
  -3   4   3 80570.4 1026.69  26
  -3   4   2 21235.1 516.369  26
   3   4  -2 21670.0 568.615  42
  -3   4   2 22980.6 540.608  32
   3   4  -2 21405.2 517.461  31
  -3   4   2 21227.1 522.662  39
   3   4  -2 21205.3 534.987   9
  -3   4   2 21076.3 964.673  29
   3   4  -2 20415.9 910.128  29
  -3   4   2 21642.2 532.652  17
   3   4  -2 21536.2 990.971  38
  -3   4   2 20872.1 541.769  14
  -3   4   1 30575.7 1047.87  35
   3   4  -1 30269.2 624.933  31
  -3   4   1 32184.5 665.093  17
  -3   4   1 30162.6 1119.20  29
   3   4  -1 31364.5 1084.90  28
   3   4  -1 30944.8 682.702  42
  -3   4   1 31041.1 618.174  39
  -3   4   1 30395.6 649.482  14
   3   4  -1 31417.9 677.919  23
  -3   4   0 83366.9 1765.96  35
   3   4   0 86692.0 1731.67   4
   3   4   0 83924.1 1093.45  31
  -3   4   0 87137.0 1069.68  10
  -3   4   0 86884.4 1889.45  29
   3   4   0 84542.7 1930.74  28
   3   4   0 83679.5 1152.34  42
  -3   4   0 83999.1 1036.86  39
  -3   4   0 85973.8 1097.39  14
   3   4   0 86733.8 1170.73  23
   3   4   1 21281.2 564.169  32
  -3   4  -1 21527.4 538.904  39
   3   4   1 21522.5 585.904  31
   3   4   1 20650.7 928.905   4
  -3   4  -1 22389.6 564.265  10
   3   4   1 20978.0 523.994  17
   3   4   1 21683.3 599.272  42
  -3   4  -1 21823.9 557.476  14
   3   4   1 21596.5 609.953  23
   3   4   2 40688.4 796.621  32
   3   4   2 41393.8 831.260  31
  -3   4  -2 42319.8 785.839  10
   3   4   2 41291.2 764.614  17
  -3   4  -2 40299.6 732.079  14
  -3   4  -2 42267.2 767.989  39
   3   4   2 41975.3 869.701  23
   3   4   3 113.308 64.3275  23
   3   4   3 86.4181 60.7815  32
  -3   4  -3 45.8413 40.9745  10
   3   4   3 156.780 71.5152  31
   3   4   3 129.610 65.6366  17
  -3   4  -3 29.2966 46.7815  39
   3   4   4 2049.86 153.768  32
   3   4   4 1958.16 160.423  31
  -3   4  -4 1942.24 142.905  10
   3   4   4 2036.72 157.995  17
  -3   4  -4 1767.17 141.802  39
   3   4   5 28938.1 434.222  31
   3   4   5 29464.9 440.204  17
   3   4   5 27902.6 408.326  26
  -3   4  -5 29351.7 440.460  39
  -3   5   7 7819.44 209.185  13
   3   5  -7 8338.16 212.650  14
  -3   5   6 38126.6 659.818  13
  -3   5   6 38413.0 653.415  33
  -3   5   6 38540.8 593.164  32
   3   5  -6 37786.9 570.707   9
  -3   5   6 38487.6 594.194  26
  -3   5   5 14984.3 480.633  13
  -3   5   5 15509.5 485.643  33
  -3   5   5 15206.8 431.908  32
  -3   5   5 14407.7 376.937  17
   3   5  -5 15125.3 440.468   9
   3   5  -5 14136.1 399.049  42
  -3   5   5 14801.3 422.641  26
  -3   5   4 4862.77 292.203  33
  -3   5   4 5120.08 263.432  26
  -3   5   4 4930.35 259.422  32
  -3   5   4 4754.24 241.829  17
   3   5  -4 5174.53 279.952   9
  -3   5   4 4885.29 263.917  14
   3   5  -4 5336.23 279.752  42
  -3   5   3 311.149 85.0349  14
   3   5  -3 349.602 88.9420  42
  -3   5   3 418.603 83.2306  32
  -3   5   3 334.583 78.0919  17
   3   5  -3 360.527 85.1202   9
  -3   5   3 309.780 72.8147  26
  -3   5   2 19534.9 505.158  32
   3   5  -2 19129.6 520.625  31
  -3   5   2 19672.3 530.320  17
   3   5  -2 19503.5 540.706   9
   3   5  -2 19535.3 572.868  42
  -3   5   2 19954.3 507.111  26
  -3   5   2 18131.0 528.920  14
   3   5  -1 5525.87 280.414  31
  -3   5   1 5049.04 261.952  10
  -3   5   1 5202.33 282.481  17
   3   5  -1 4828.67 262.500   9
   3   5  -1 5728.85 316.014  42
  -3   5   1 5180.64 256.828  39
  -3   5   1 5028.56 281.408  14
   3   5  -1 5374.26 292.656  23
   3   5   0 40043.0 729.380  32
   3   5   0 40307.9 774.216  31
  -3   5   0 41597.0 758.861  10
  -3   5   0 39748.7 717.398  39
  -3   5   0 40612.8 787.287  14
   3   5   0 41169.3 835.692  23
   3   5   0 41373.7 855.208  42
  -3   5  -1 1767.47 157.106  39
   3   5   1 1783.08 162.477  32
   3   5   1 1540.40 162.857  31
  -3   5  -1 1633.06 157.271  10
   3   5   1 1690.04 145.529  17
   3   5   1 1851.06 183.708  42
  -3   5  -1 1557.66 156.185  14
   3   5   1 1757.14 178.535  23
  -3   5  -2 12500.8 394.521  14
   3   5   2 12353.8 411.784  32
  -3   5  -2 12085.1 384.368  39
   3   5   2 12624.0 415.559  31
  -3   5  -2 13159.8 416.658  10
   3   5   2 12481.7 389.721  17
   3   5   2 12375.6 428.483  42
   3   5   2 12921.0 462.140  23
   3   5   3 10577.2 345.079  32
   3   5   3 10661.0 345.886  31
  -3   5  -3 10564.2 326.934  39
  -3   5  -3 10636.3 337.906  10
   3   5   3 10875.1 335.528  17
  -3   5  -4 3969.75 166.756  39
   3   5   4 4099.01 169.739  32
   3   5   4 3845.83 162.883  31
  -3   5  -4 3871.78 162.775  10
   3   5   4 3876.55 163.696  17
   3   5   4 3678.05 163.548  26
  -3   6   6 10092.5 211.072  32
   3   6  -6 10673.7 222.872  14
  -3   6   5 944.317 100.421  13
  -3   6   5 725.190 80.8222  26
  -3   6   5 666.096 83.0257  33
  -3   6   5 824.215 85.2494  32
  -3   6   5 783.329 73.3901  17
   3   6  -5 730.908 81.2084   9
   3   6  -5 890.265 88.3194  14
  -3   6   4 29202.9 609.321  13
  -3   6   4 30197.7 617.486  33
  -3   6   4 30198.7 537.547  32
  -3   6   4 28655.3 509.418  17
   3   6  -4 30036.5 577.803   9
   3   6  -4 28420.7 540.621  42
  -3   6   4 30309.0 530.775  26
   3   6  -4 29500.0 527.000  14
  -3   6   3 39384.8 751.502  33
  -3   6   3 37348.4 615.918  32
  -3   6   3 38040.9 645.950  17
   3   6  -3 38582.8 700.804   9
   3   6  -3 38784.6 715.531  42
  -3   6   3 37986.0 670.109  14
   3   6  -3 38144.8 606.323  14
  -3   6   2 10096.7 311.070  32
  -3   6   2 10245.5 356.703  17
   3   6  -2 9917.31 357.648   9
   3   6  -2 10928.9 403.822  42
  -3   6   2 10001.6 366.799  14
   3   6  -1 12385.9 395.269  31
   3   6  -1 12562.5 444.388  42
  -3   6   1 12056.7 405.278  14
   3   6  -1 12862.0 403.430  23
   3   6   0 41354.7 621.465  32
  -3   6   0 42724.8 680.738  10
   3   6   0 43683.9 726.216  31
   3   6   0 44087.0 810.093  42
  -3   6   0 43411.3 750.302  14
   3   6   0 42441.1 760.009  23
  -3   6  -1 11783.1 314.718  39
   3   6   1 12058.9 342.665  32
   3   6   1 12783.5 374.667  31
  -3   6  -1 12649.2 364.941  10
   3   6   1 12522.1 404.989  42
   3   6   1 11598.6 306.552  26
  -3   6  -1 12336.0 374.557  14
   3   6   1 12274.2 405.215  23
   3   6   2 23847.0 447.173  32
   3   6   2 24264.1 456.705  31
  -3   6  -2 24323.9 459.791  10
   3   6   2 23556.3 395.825  17
   3   6   2 22342.4 453.932  42
   3   6   2 23995.3 420.332  26
  -3   6  -2 22367.1 395.107  39
  -3   6  -2 23420.3 447.065  14
   3   6   3 139.602 40.9761  32
  -3   6  -3 33.8247 32.7306  10
   3   6   3 54.0958 30.5264  31
   3   6   3 94.4112 28.9078  17
   3   6   3 45.2031 30.4700  26
  -3   7   4 1538.69 90.3533  13
  -3   7   3 156.497 45.1160  13
  -3   7   3 50.1341 37.5105  33
   3   7  -3 89.0216 30.8756  42
  -3   7   2 9329.74 280.931  33
   3   7  -2 9022.07 272.685  42
  -3   7   2 8903.52 246.418  14
  -3   7   1 2625.03 147.202  33
   3   7  -1 2763.47 158.657  42
  -3   7   1 2879.83 150.774  14
   3   7   0 18334.4 384.702  42
  -3   7   0 18768.0 367.810  14
  -3   7  -1 768.819 70.7235  14
   4  -7  -2 26190.2 357.966  12
   4  -7  -2 25874.2 364.632  41
  -4  -7   1 1101.30 67.6672  15
   4  -6  -5 13273.3 273.506  41
  -4  -6   5 21706.3 383.334  40
   4  -6  -4 38528.9 604.593  41
  -4  -6   4 37905.9 531.331  15
   4  -6  -3 108.770 55.3067  41
  -4  -6   3 131.960 44.4355  40
  -4  -6   3 149.401 47.3544  15
   4  -6  -2 5612.12 270.562  41
  -4  -6   2 5396.28 228.929  15
  -4  -6   2 4997.89 218.799  40
   4  -6  -1 12307.5 395.659  41
  -4  -6   1 11621.3 331.439  15
   4  -6   0 19713.2 465.643  41
  -4  -6   0 20261.1 415.993  15
   4  -6   1 407.213 60.8513  41
   4  -6   1 553.863 72.3339   7
  -4  -6  -2 1374.13 81.5806  15
   4  -6   2 1227.21 85.6693   7
  -4  -5   7 19816.6 346.396  40
  -4  -5   6 7556.62 277.337  40
  -4  -5   5 10829.3 313.886  15
  -4  -5   5 11454.4 384.160  40
  -4  -5   4 13728.0 441.304  40
   4  -5  -4 13023.8 434.566  41
  -4  -5   4 14284.5 401.636  15
   4  -5  -3 3099.34 229.207  41
  -4  -5   3 3130.09 213.563  40
  -4  -5   3 3042.67 196.053  15
  -4  -5   2 64941.7 933.944  40
  -4  -5   2 62365.8 882.414  15
   4  -5  -1 2826.47 232.237  41
  -4  -5   1 2947.08 197.821  40
   4  -5   0 141.218 65.5580  41
  -4  -5   0 71.5287 43.4453  40
   4  -5   1 19692.5 507.749  12
   4  -5   1 20312.9 571.143  41
  -4  -5  -1 20034.9 460.251  40
   4  -5   2 150023. 1286.48  41
  -4  -5  -2 149865. 1079.19  40
   4  -5   2 151733. 1394.33   7
   4  -5   3 4437.64 195.317   7
  -4  -4   8 33678.3 382.684  21
  -4  -4   8 35001.4 395.842  16
  -4  -4   7 10130.5 300.307  21
  -4  -4   7 10256.3 322.313  33
  -4  -4   7 10544.3 344.527  40
  -4  -4   6 10363.1 343.889  21
  -4  -4   6 10338.7 372.201  33
  -4  -4   6 10280.5 390.097  40
  -4  -4   5 43932.3 803.450  33
  -4  -4   5 43217.5 842.845  40
  -4  -4   4 77918.7 1047.64  33
   4  -4  -4 77191.7 1099.56  41
  -4  -4   4 76137.0 1098.50  40
   4  -4  -3 57.9663 54.7611  41
  -4  -4   3 106.668 48.4116  40
  -4  -4   3 30.8124 40.8035  15
  -4  -4   2 9577.74 658.899   3
   4  -4  -2 11001.6 452.702  41
  -4  -4   2 10369.4 385.979  40
  -4  -4   1 22773.8 563.270  24
   4  -4  -1 23210.4 677.084  41
  -4  -4   1 23340.6 586.175  40
   4  -4   0 33618.6 834.424  41
  -4  -4   0 35108.3 727.209  40
  -4  -4   0 34432.1 667.109  24
   4  -4   1 954.915 136.044  12
   4  -4   1 1021.80 160.822  41
   4  -4   2 2891.33 242.056  41
   4  -4   2 3128.51 249.732   7
   4  -4   3 7140.49 248.821  22
   4  -4   3 7440.66 273.650  31
   4  -4   3 7689.69 300.363  41
   4  -4   3 7944.06 356.612   7
   4  -4   4 23696.0 336.541  22
   4  -4   4 24305.9 368.930  31
  -4  -3   8 277.584 53.3123  34
  -4  -3   8 491.097 75.3956  21
  -4  -3   8 427.845 68.7470  33
  -4  -3   8 425.617 53.7979  18
  -4  -3   8 411.401 70.5947  16
  -4  -3   8 266.035 57.1294  40
  -4  -3   7 37306.8 701.961  21
  -4  -3   7 37010.6 677.275  34
  -4  -3   7 38316.2 718.229  33
  -4  -3   7 36463.0 720.176  40
  -4  -3   6 12405.2 431.227  21
  -4  -3   6 12217.6 420.221  34
  -4  -3   6 12715.1 440.867  33
  -4  -3   6 12149.0 452.293  40
  -4  -3   5 23051.3 571.398  21
  -4  -3   5 22722.1 560.357  34
  -4  -3   5 24029.7 598.375  33
  -4  -3   5 24227.1 629.502  40
  -4  -3   4 22969.3 1013.97   3
  -4  -3   4 25153.1 581.337  33
   4  -3  -4 23688.6 1050.54   2
  -4  -3   4 24748.7 607.706  40
   4  -3  -4 23670.2 981.462  38
  -4  -3   4 25619.0 1050.15  36
   4  -3  -3 3117.12 367.291   2
   4  -3  -3 3125.99 219.928  41
  -4  -3   3 3423.13 379.860   3
  -4  -3   3 3237.59 213.318  40
  -4  -3   3 3151.93 211.934  24
   4  -3  -3 3243.18 342.552  38
   4  -3  -3 3286.05 362.587  37
  -4  -3   3 3475.85 363.509  36
  -4  -3   2 115106. 2092.44   3
   4  -3  -2 116841. 2113.76   2
   4  -3  -2 128206. 1409.09  41
  -4  -3   2 118811. 1266.86  40
   4  -3  -2 128403. 2321.31  37
  -4  -3   2 119636. 2167.10  36
  -4  -3   1 5536.26 438.121   3
   4  -3  -1 6629.15 336.736  41
  -4  -3   1 5446.79 283.947  40
  -4  -3   1 5198.21 465.146  36
   4  -3  -1 5305.72 546.003   4
   4  -3  -1 6306.14 543.207  37
   4  -3   0 91.9065 89.9299   4
  -4  -3   0 464.058 149.653  36
   4  -3   0 467.972 102.937  41
   4  -3   0 649.116 218.403  37
   4  -3   1 33536.6 665.922  34
   4  -3   1 31648.3 745.056  12
   4  -3   1 32483.4 842.931  41
   4  -3   2 247599. 1847.98  34
   4  -3   2 241329. 2314.51  41
   4  -3   2 247487. 2189.11   7
   4  -3   3 6503.98 280.494  22
   4  -3   3 6737.92 296.290  34
   4  -3   3 6624.99 301.261  31
   4  -3   3 6305.04 338.537  41
   4  -3   3 6293.45 347.733   7
   4  -3   4 139.324 43.0714  22
   4  -3   4 215.859 81.1649   7
   4  -3   4 269.439 66.4983  34
   4  -3   4 121.879 46.2937  31
   4  -3   5 123.572 43.2848   7
  -4  -2   9 41973.6 493.805  21
  -4  -2   9 40930.5 485.105  34
  -4  -2   9 39718.4 456.775  33
  -4  -2   9 38406.6 434.926  18
  -4  -2   9 40593.8 464.113  16
  -4  -2   8 61226.4 865.047  34
  -4  -2   8 60827.1 861.302  21
  -4  -2   8 60295.5 822.784  33
  -4  -2   8 59905.6 797.150  18
  -4  -2   8 60107.4 857.097  16
  -4  -2   8 58378.2 745.476  40
  -4  -2   7 14155.3 481.486  34
  -4  -2   7 13844.5 466.035  21
  -4  -2   7 14571.9 469.349  33
  -4  -2   7 14238.8 459.138  40
  -4  -2   6 14074.8 485.371  34
  -4  -2   6 14215.4 480.525  21
  -4  -2   6 14287.5 474.177  33
  -4  -2   6 13404.2 463.711  40
  -4  -2   5 64226.4 957.980  13
   4  -2  -5 63739.0 1552.46   6
  -4  -2   5 64467.3 971.481  21
  -4  -2   5 64752.0 963.530  33
  -4  -2   5 61159.8 1587.62   3
  -4  -2   5 64247.5 1714.10  30
  -4  -2   5 64828.4 999.299  40
   4  -2  -5 65346.0 1629.35  38
  -4  -2   4 123782. 2174.72  30
   4  -2  -4 121273. 2063.36  38
  -4  -2   4 121016. 2089.55  36
  -4  -2   3 283.389 102.033  36
  -4  -2   3 121.810 78.1247   3
  -4  -2   3 271.386 99.3638  30
   4  -2  -3 100.317 70.4104  38
   4  -2  -3 190.147 83.0662  37
  -4  -2   2 20041.5 781.793   3
  -4  -2   2 21387.8 803.780  30
   4  -2  -2 22617.7 747.536  38
   4  -2  -2 23096.9 864.420  37
  -4  -2   2 21665.3 834.383  36
  -4  -2   1 39691.1 1199.46  36
  -4  -2   1 39353.5 1040.86   3
  -4  -2   1 39932.7 1112.39  30
   4  -2  -1 41331.7 1051.93   2
   4  -2  -1 43698.0 1403.09   4
   4  -2  -1 42115.1 1246.76  37
  -4  -2   0 48830.5 1363.37  36
  -4  -2   0 45633.0 1224.09  30
   4  -2   0 48575.7 1567.95   4
   4  -2   0 49136.4 1475.57  37
  -4  -2  -1 1994.25 298.645  36
   4  -2   1 2364.60 179.419  34
   4  -2   1 2094.22 207.291  41
   4  -2   1 2343.12 362.357   4
   4  -2   1 2012.81 179.251   7
   4  -2   2 5185.15 279.175  34
   4  -2   2 4723.70 261.518  31
   4  -2   2 4949.30 323.966  41
   4  -2   2 4995.86 307.731   7
   4  -2   3 11190.2 460.996   7
   4  -2   3 10649.2 386.232  22
   4  -2   3 11306.7 414.059  34
   4  -2   3 11408.0 411.528  31
   4  -2   3 11077.8 372.216  16
   4  -2   3 11071.1 462.563  41
   4  -2   4 39510.5 683.311  22
   4  -2   4 40719.3 730.314  34
   4  -2   4 40754.9 712.077  31
   4  -2   4 37730.0 635.046  16
   4  -2   4 39127.3 737.589  41
   4  -2   4 39190.0 814.846   7
   4  -2   5 4054.55 184.733  34
   4  -2   5 4207.70 170.393  19
   4  -2   5 4022.51 179.050  31
   4  -2   5 3695.66 150.381  16
   4  -2   5 3964.61 204.006   7
  -4  -1   9 1400.37 110.179  34
  -4  -1   9 1586.41 112.883  21
  -4  -1   9 1464.19 104.094  33
  -4  -1   9 1671.70 117.030  18
  -4  -1   9 1492.83 94.6755  16
  -4  -1   8 464.287 103.705  34
  -4  -1   8 499.270 93.7743  21
  -4  -1   8 554.174 96.7449  33
  -4  -1   8 497.797 87.8988  16
  -4  -1   7 50851.1 894.229  13
  -4  -1   7 50533.6 974.859  34
  -4  -1   7 51017.4 928.891  21
  -4  -1   7 49893.2 889.816  33
  -4  -1   6 15636.9 499.345  13
  -4  -1   6 16054.7 513.677  21
  -4  -1   6 16002.5 501.103  33
   4  -1  -5 37712.1 1144.54   6
  -4  -1   5 37945.4 724.782  33
  -4  -1   5 35767.9 1168.21   3
  -4  -1   5 37205.8 1318.22  30
   4  -1  -5 38277.4 1198.18  38
   4  -1  -4 38762.4 1047.26   6
  -4  -1   4 36083.8 1100.60   3
  -4  -1   4 38922.7 1219.69  30
   4  -1  -4 38866.6 1110.74  38
  -4  -1   4 39420.2 1060.63  36
   4  -1  -3 2320.39 225.899   6
  -4  -1   3 2070.67 253.508   3
  -4  -1   3 2276.88 277.943  30
   4  -1  -3 2363.13 252.722  38
   4  -1  -3 2266.10 257.905   4
   4  -1  -3 2217.64 223.221  37
  -4  -1   3 2229.50 241.330  36
  -4  -1   2 190978. 2267.88  36
  -4  -1   2 190292. 2451.27  30
   4  -1  -2 194348. 2486.63   4
   4  -1  -2 192490. 2058.36  38
   4  -1  -2 191420. 2199.18  37
  -4  -1   1 10351.2 553.585  36
  -4  -1   1 10022.3 488.643   3
  -4  -1   1 10495.4 579.970  30
   4  -1  -1 10381.2 606.450   4
   4  -1  -1 10834.4 571.887  37
  -4  -1   0 207.234 98.7286  36
   4  -1   0 120.330 92.9131  28
   4  -1   0 251.048 71.1410  27
   4  -1   0 232.305 127.935   4
  -4  -1  -1 42976.5 1244.67  36
   4  -1   1 45170.1 1421.28  28
   4  -1   1 45102.2 1174.53  27
   4  -1   1 44733.9 1477.81   4
  -4  -1  -2 331293. 3698.52  36
   4  -1   2 319517. 1988.99  22
   4  -1   2 326870. 2199.05  34
   4  -1   2 329484. 2450.78  41
   4  -1   2 327154. 2091.55  31
   4  -1   2 322423. 2077.09  16
   4  -1   2 328521. 4316.33   4
   4  -1   2 328618. 3617.28  27
   4  -1   2 330080. 2320.86   7
   4  -1   3 7715.91 332.516  22
   4  -1   3 7533.83 347.935  34
   4  -1   3 7512.85 331.205  31
   4  -1   3 7693.84 334.798  16
   4  -1   3 7232.86 368.782   7
   4  -1   3 7583.00 380.797  41
   4  -1   4 181.957 59.0672  22
   4  -1   4 217.981 76.4994  34
   4  -1   4 283.263 76.5473  31
   4  -1   4 249.387 74.1493  16
   4  -1   4 219.449 69.6909  41
   4  -1   4 283.474 81.8956   7
   4  -1   5 63.4624 41.9985  34
   4  -1   5 138.274 48.7464  16
   4  -1   5 34.5529 34.3797  19
   4  -1   5 120.895 47.1946  31
  -4   0   9 48216.7 598.099  34
  -4   0   9 49027.8 604.666  21
  -4   0   9 50096.9 600.269  33
  -4   0   9 49877.8 657.717  18
  -4   0   8 70097.6 962.216  13
  -4   0   8 70556.0 1031.10  34
  -4   0   8 67888.3 988.739  21
  -4   0   8 69357.7 961.151  33
  -4   0   8 69082.5 849.175  16
  -4   0   7 15483.4 500.153  13
  -4   0   7 15905.8 553.005  34
  -4   0   7 15962.5 530.266  21
  -4   0   7 15788.6 507.673  33
  -4   0   6 15440.9 496.578  13
  -4   0   6 14872.9 501.918  21
  -4   0   6 15569.0 497.702  33
  -4   0   6 15351.5 942.067  30
  -4   0   6 16072.0 807.750   1
   4   0  -6 15574.0 812.136  38
   4   0  -5 77264.5 1621.40   6
  -4   0   5 77888.5 1034.16  33
  -4   0   5 78761.6 1934.77  30
  -4   0   5 75203.5 1096.61  39
   4   0  -5 77785.2 1684.38  38
   4   0  -4 146874. 1979.98   6
  -4   0   4 145924. 2179.45   3
  -4   0   4 148773. 2382.91  30
   4   0  -4 147071. 2134.78  38
  -4   0   3 296.631 77.0117  36
   4   0  -3 263.321 76.3264   6
  -4   0   3 200.243 95.1013   3
  -4   0   3 353.527 112.249  30
  -4   0   3 190.035 76.9790  29
   4   0  -3 274.614 96.8129  38
  -4   0   2 32804.5 829.452  36
  -4   0   2 31981.3 1025.06  30
   4   0  -2 31287.1 885.957   4
   4   0  -2 30588.4 835.950  38
  -4   0   1 53149.9 1110.25  36
  -4   0   1 52721.2 1130.39   1
   4   0  -1 53481.0 1265.50   4
   4   0  -1 53458.8 1376.77  28
   4   0  -1 55515.7 1061.87  38
  -4   0   0 56763.9 1210.22  36
  -4   0   0 56304.9 1071.24  35
   4   0   0 57276.6 1490.26  28
   4   0   0 57467.3 1103.34  27
   4   0   0 56819.3 1443.81   4
  -4   0  -1 3375.56 329.746  36
   4   0   1 3161.26 366.885  28
   4   0   1 3258.64 382.735   4
   4   0   1 2827.19 290.520  27
  -4   0  -2 6376.05 505.869  36
   4   0   2 5948.40 272.281  22
   4   0   2 6125.65 298.428  34
   4   0   2 5961.36 277.732  31
   4   0   2 6241.98 293.991  16
   4   0   2 6117.87 561.473   4
   4   0   2 6109.66 326.264  41
   4   0   2 6339.32 491.152  27
   4   0   2 5960.60 307.891   7
   4   0   3 12226.1 414.067  22
   4   0   3 12880.0 443.350  34
   4   0   3 12815.0 423.738  31
   4   0   3 12994.0 443.121  16
   4   0   3 12600.2 479.842  41
   4   0   3 12219.1 465.569   7
   4   0   4 43725.0 782.279  34
   4   0   4 43144.6 811.603  19
   4   0   4 45528.0 769.401  31
   4   0   4 45635.0 803.923  16
   4   0   4 44164.3 836.482  41
   4   0   4 42480.3 832.697   7
   4   0   5 4821.76 215.466  34
   4   0   5 4966.89 224.014  19
   4   0   5 4886.19 220.601  11
   4   0   5 4953.20 219.668  31
   4   0   5 4685.33 220.699  16
  -4   1   9 1539.83 103.386  33
  -4   1   9 1539.14 112.233  18
  -4   1   8 452.804 78.2703  34
  -4   1   8 417.386 90.2274  13
  -4   1   8 468.733 86.9667  21
  -4   1   8 588.711 97.4930  33
  -4   1   7 50849.9 910.644  13
  -4   1   7 52375.3 941.151  34
  -4   1   7 51081.6 940.168  21
  -4   1   7 50585.1 916.814  33
  -4   1   6 15108.3 500.453  13
  -4   1   6 15094.1 507.777  21
  -4   1   6 15740.2 507.970  33
  -4   1   6 15830.4 559.195  39
  -4   1   5 38069.5 741.135  33
  -4   1   5 38369.3 1328.47  30
  -4   1   5 36520.2 1238.82  29
  -4   1   5 36219.9 778.716  39
   4   1  -5 39604.2 1234.50  38
  -4   1   5 36634.2 1179.33   1
  -4   1   4 40763.8 1237.78  30
  -4   1   4 39851.8 1161.92  29
  -4   1   4 38213.6 1158.72   1
   4   1  -4 40593.0 1161.98  38
  -4   1   3 2112.17 273.765  30
  -4   1   3 2150.45 246.998  29
   4   1  -3 2059.86 259.650  28
   4   1  -3 2322.10 264.563  38
  -4   1   3 2457.00 282.265   1
   4   1  -2 193126. 2517.30  28
  -4   1   2 190763. 2530.25  30
  -4   1   2 188728. 1995.46  29
   4   1  -2 189842. 2033.11   4
  -4   1   2 195411. 2335.03   1
   4   1  -2 188961. 2234.58  38
  -4   1   1 10678.8 517.999  35
  -4   1   1 10103.4 518.845   1
   4   1  -1 10191.7 535.349   4
   4   1  -1 10460.7 612.775  28
   4   1  -1 11033.7 520.077  38
  -4   1   0 78.6910 57.6645  36
  -4   1   0 265.791 91.6667  35
   4   1   0 358.834 131.055  28
   4   1   0 258.553 86.4399  27
   4   1   0 245.949 109.623   4
  -4   1  -1 46809.2 1175.29  36
  -4   1  -1 45136.5 1175.74  35
   4   1   1 44051.3 1170.31  27
   4   1   1 45019.6 1370.03   4
   4   1   1 45091.3 1423.15  28
  -4   1  -2 313818. 3425.45  36
   4   1   2 313745. 2066.18  34
   4   1   2 324181. 2214.38  20
   4   1   2 321215. 2032.79  31
   4   1   2 328497. 2157.46  16
   4   1   2 330710. 3992.88   4
   4   1   2 322078. 3983.89  28
   4   1   2 327422. 3558.92  27
   4   1   2 322585. 2209.18   7
   4   1   2 321422. 2309.40  41
   4   1   3 7243.40 322.432  34
   4   1   3 7520.57 347.168  19
   4   1   3 7543.46 325.340  11
   4   1   3 7556.29 326.176  31
   4   1   3 7248.60 333.009  16
   4   1   3 7254.91 356.758  41
   4   1   4 380.888 74.7431  34
   4   1   4 163.867 59.7362  19
   4   1   4 143.869 56.7797  11
   4   1   4 248.126 66.6631  31
   4   1   4 279.405 80.3821  16
   4   1   4 108.461 69.2170  41
   4   1   5 256.779 60.1331  11
   4   1   5 111.418 46.7303  31
   4   1   5 118.185 45.2620  16
  -4   2   9 34920.9 414.153  13
  -4   2   8 61973.5 856.588  13
  -4   2   8 62200.1 808.772  21
  -4   2   8 61385.6 847.601  33
  -4   2   7 14207.7 479.219  13
  -4   2   7 14133.7 478.957  21
  -4   2   7 14640.9 487.385  33
   4   2  -7 14266.0 417.916  42
   4   2  -7 14640.3 414.781   9
  -4   2   6 14100.2 483.672  13
  -4   2   6 13659.1 482.324  33
  -4   2   6 14303.6 404.281  32
  -4   2   6 13536.2 524.789  39
   4   2  -6 14468.1 458.831  42
   4   2  -5 61506.8 1389.76  35
  -4   2   5 65043.1 1000.04  13
  -4   2   5 65135.4 1668.73   1
  -4   2   5 65726.0 1010.98  33
  -4   2   5 64209.1 888.211  32
  -4   2   5 65575.8 1746.73  29
  -4   2   5 66278.7 888.747  26
  -4   2   5 65241.5 1074.99  39
   4   2  -5 64027.7 1632.22  38
  -4   2   4 124809. 2108.61  30
  -4   2   4 125885. 2224.43  29
  -4   2   4 119244. 2176.32   1
   4   2  -4 123813. 2164.48  38
  -4   2   3 276.159 111.431   1
  -4   2   3 271.125 101.465  30
  -4   2   3-9.82891 45.6548  29
   4   2  -3 244.479 94.6537  28
   4   2  -3 188.445 87.1987  38
  -4   2   2 21426.9 860.192   1
  -4   2   2 22676.6 881.188  30
  -4   2   2 21941.4 781.615  29
   4   2  -2 23009.7 893.476  28
   4   2  -2 21590.5 830.707  38
  -4   2   1 41017.0 1132.75  35
   4   2  -1 41009.7 1054.51   4
   4   2  -1 40243.3 1132.81  38
   4   2  -1 41421.0 1262.04  28
  -4   2   0 48913.5 1277.53  35
   4   2   0 49631.8 1310.69   4
   4   2   0 49409.6 1450.67  28
  -4   2  -1 1916.69 267.686  35
   4   2   1 2296.91 192.746  20
   4   2   1 2094.76 318.578  28
   4   2   1 2145.69 165.871  19
   4   2   1 2007.40 159.450  11
  -4   2  -1 2114.97 162.158  10
   4   2   1 2048.99 165.171  31
   4   2   1 2113.71 173.823  16
   4   2   1 2293.09 188.303  41
  -4   2  -1 2128.97 165.779  39
   4   2   1 2027.30 295.770   4
   4   2   2 4484.36 272.577  20
   4   2   2 5049.13 269.922  19
   4   2   2 4720.80 258.102  11
   4   2   2 4729.59 260.905  31
   4   2   2 4796.65 271.039  16
   4   2   2 4506.90 282.603  41
  -4   2  -2 5155.51 264.991  39
   4   2   3 10871.6 403.685  19
   4   2   3 11247.9 403.642  11
   4   2   3 10826.5 396.350  31
   4   2   3 11449.9 413.358  16
   4   2   3 10978.3 434.492  41
  -4   2  -3 11112.2 376.509  39
   4   2   4 38282.6 696.125  11
   4   2   4 39483.8 703.709  31
   4   2   4 39249.6 691.695  16
  -4   2  -4 38817.2 623.267  39
   4   2   5 3951.48 182.903  11
   4   2   5 4136.96 186.090  31
   4   2   5 3659.24 162.852  16
  -4   3   8 391.855 68.9701  13
  -4   3   8 374.854 62.0292  33
  -4   3   7 38800.0 747.394  13
  -4   3   7 39358.6 700.663  21
  -4   3   7 38859.2 752.129  33
   4   3  -7 38922.2 640.762   9
   4   3  -7 37314.2 617.338  42
  -4   3   6 12749.7 401.504  26
  -4   3   6 12466.8 459.223  13
  -4   3   6 12797.8 467.191  33
  -4   3   6 13204.2 406.102  32
   4   3  -6 12375.3 417.047   9
   4   3  -6 13041.1 425.574  42
  -4   3   6 12605.1 481.160  39
  -4   3   5 23893.4 638.972  13
   4   3  -5 23707.1 601.518  42
  -4   3   5 24378.1 641.639  33
  -4   3   5 24267.1 579.882  32
   4   3  -5 23693.6 595.968   9
  -4   3   5 24241.3 572.936  26
  -4   3   5 22519.2 636.489  39
  -4   3   4 25065.1 627.808  13
  -4   3   4 25144.3 638.060  33
  -4   3   4 25795.9 591.740  32
  -4   3   4 26725.2 1127.62  29
   4   3  -4 25570.7 606.260   9
   4   3  -4 26273.7 627.794  42
  -4   3   4 25828.1 633.757   8
  -4   3   4 25467.9 583.774  26
  -4   3   4 24440.7 628.263  14
  -4   3   4 24760.0 632.243  39
   4   3  -4 25211.2 1057.80  38
  -4   3   3 3326.22 218.923  39
  -4   3   3 3281.47 221.234  33
  -4   3   3 3282.99 208.954  32
  -4   3   3 3024.63 363.614  29
  -4   3   3 3201.69 206.983  26
  -4   3   3 3027.73 216.915  14
   4   3  -3 4089.46 420.392  38
  -4   3   2 122594. 1246.43  32
  -4   3   2 121764. 2121.39  29
   4   3  -2 120815. 2135.77  28
   4   3  -2 120525. 1309.68  42
  -4   3   2 120365. 1263.03  39
   4   3  -2 121969. 2249.81  38
  -4   3   1 5736.13 465.822  35
  -4   3   1 5786.73 273.609  32
   4   3  -1 5745.21 496.729  28
   4   3  -1 5460.30 281.383  42
  -4   3   1 5647.08 272.347  39
   4   3  -1 4973.15 462.794  38
  -4   3   0 309.981 71.5035  14
   4   3   0 145.743 67.5652  23
  -4   3   0 75.3410 74.3800  35
   4   3   0 127.976 53.4071  16
   4   3   0 336.698 80.6958  20
  -4   3   0 52.5980 33.0513  39
  -4   3   0 160.691 62.9520  10
   4   3   0 100.900 47.9366  31
   4   3   0 140.150 88.6851  28
   4   3   0 317.992 109.021   4
   4   3   1 32207.3 735.542  20
   4   3   1 31875.8 694.502  31
  -4   3  -1 32220.0 672.713  10
   4   3   1 32762.9 702.408  16
  -4   3  -1 32762.0 677.031  39
   4   3   1 33184.8 759.986  23
   4   3   2 239460. 1924.95  11
   4   3   2 241539. 1936.95  31
   4   3   2 238896. 1877.72  16
  -4   3  -2 242276. 1844.35  39
   4   3   2 242342. 2043.53  23
   4   3   3 6055.99 300.234  11
   4   3   3 6152.05 297.327  32
  -4   3  -3 6003.66 259.519  10
   4   3   3 6393.46 306.298  31
   4   3   3 6411.41 288.890  16
  -4   3  -3 6302.40 285.895  39
   4   3   4 164.909 36.6788  32
   4   3   4 164.245 57.4910  31
   4   3   4 244.498 51.5545  16
  -4   3  -4 226.722 55.4116  39
   4   3   5 110.898 35.0604  31
   4   3   5 118.630 37.7475  17
  -4   4   8 33824.8 406.506  13
  -4   4   7 10729.3 343.849  13
  -4   4   7 10353.6 336.655  33
  -4   4   7 9690.84 261.860  32
   4   4  -7 9699.51 271.045   9
  -4   4   6 11012.9 408.433  13
  -4   4   6 10891.0 407.018  33
  -4   4   6 10893.8 354.816  32
   4   4  -6 11102.0 371.161   9
   4   4  -6 10628.1 353.647  42
  -4   4   6 10976.9 356.323  26
  -4   4   5 45050.6 875.645  13
   4   4  -5 45210.8 825.669  42
  -4   4   5 43974.9 865.738  33
  -4   4   5 45142.8 786.313  32
  -4   4   5 43972.1 774.717  26
   4   4  -5 44702.4 822.219   9
  -4   4   5 44175.7 829.508  39
  -4   4   4 77278.3 1159.60  33
  -4   4   4 78552.3 1061.20  32
  -4   4   4 75347.4 936.949  17
   4   4  -4 78809.6 1112.94   9
   4   4  -4 79347.9 1141.59  42
  -4   4   4 78615.0 1072.47   8
  -4   4   4 79378.3 1062.06  26
  -4   4   4 75745.0 1124.47  14
  -4   4   4 77436.7 1100.97  39
  -4   4   3 122.246 60.4534  14
   4   4  -3 655.491 100.230  23
   4   4  -3 44.4088 41.6214  42
  -4   4   3 549.525 104.406  33
  -4   4   3 127.642 55.1343  32
  -4   4   3 41.1282 39.6687  17
   4   4  -3 117.818 63.7968   9
  -4   4   3 121.466 61.7416  26
  -4   4   3 71.0635 48.8269  39
  -4   4   2 11168.6 392.718  32
   4   4  -2 10517.8 362.448  31
   4   4  -2 10727.2 387.445   9
   4   4  -2 10763.4 419.695  42
  -4   4   2 10260.7 388.955  39
  -4   4   2 10208.7 407.336  14
   4   4  -2 11338.8 426.813  23
  -4   4   1 23173.7 549.797  32
  -4   4   1 22867.0 577.520  10
   4   4  -1 22063.7 547.292  31
   4   4  -1 24675.6 631.343  42
  -4   4   1 22816.4 569.171  39
  -4   4   1 23012.4 605.563  14
   4   4  -1 22604.4 619.710  23
  -4   4   0 33376.4 690.170  39
  -4   4   0 34984.3 729.099  10
   4   4   0 32497.5 690.040  31
   4   4   0 33702.4 743.122  42
  -4   4   0 33939.2 718.699  14
   4   4   0 33020.1 763.215  23
  -4   4  -1 1117.67 132.366  39
   4   4   1 788.081 118.458  32
  -4   4  -1 1009.14 130.313  10
   4   4   1 788.178 115.314  31
   4   4   1 924.117 108.956  17
  -4   4  -1 1012.39 122.514  14
   4   4   1 932.653 137.641  23
   4   4   2 3070.44 215.475  32
  -4   4  -2 2904.63 199.602  10
   4   4   2 3151.87 221.438  31
   4   4   2 2954.45 196.008  17
  -4   4  -2 3028.91 204.823  39
   4   4   2 2671.05 219.143  23
   4   4   3 7749.70 294.536  32
  -4   4  -3 7889.61 276.445  10
   4   4   3 7359.89 295.335  31
   4   4   3 7267.23 273.515  17
  -4   4  -3 7946.06 290.172  39
   4   4   3 6774.91 285.205  23
   4   4   4 27869.6 440.110  31
   4   4   4 27745.2 420.047  17
  -4   4  -4 27192.3 420.477  39
  -4   5   7 20689.0 344.208  13
   4   5  -7 21346.6 322.995  14
  -4   5   6 8113.21 289.284  13
  -4   5   6 8060.54 290.345  33
  -4   5   6 8062.08 256.532  32
   4   5  -6 7727.56 258.196   9
  -4   5   5 12482.6 412.677  13
  -4   5   5 12095.2 406.606  33
  -4   5   5 12423.1 375.010  32
  -4   5   5 11241.9 299.633  17
   4   5  -5 12038.4 380.547   9
   4   5  -5 11727.0 369.686  42
  -4   5   4 13831.8 459.864  13
  -4   5   4 13838.8 463.008  33
  -4   5   4 14343.5 424.636  32
   4   5  -4 14013.0 452.885  42
  -4   5   4 13825.6 387.142  17
   4   5  -4 13886.4 439.330   9
  -4   5   3 3028.18 224.826  33
  -4   5   3 3421.50 212.085  32
  -4   5   3 2974.84 219.283  14
  -4   5   3 3106.73 201.583  17
   4   5  -3 3132.93 216.040   9
   4   5  -3 3112.45 229.329  42
  -4   5   3 3349.19 214.563   8
  -4   5   3 3148.58 203.704  39
  -4   5   2 65388.2 885.843  32
   4   5  -2 64559.3 897.514  31
   4   5  -2 64457.1 925.738   9
   4   5  -2 66597.4 1041.53  42
  -4   5   2 65653.9 925.564  39
  -4   5   2 64383.7 1009.73  14
   4   5  -2 66366.4 992.951  23
   4   5  -1 2938.50 186.231  32
   4   5  -1 3223.24 205.508  31
   4   5  -1 2681.32 215.895  42
  -4   5   1 3215.90 207.450  39
  -4   5   1 2804.06 213.027  14
   4   5  -1 2843.33 217.158  23
  -4   5   0 82.3319 57.6542  14
   4   5   0 90.9125 60.4997  23
   4   5   0 232.378 65.4429  32
  -4   5   0 24.7954 45.2532  10
   4   5   0 219.827 70.7809  31
   4   5   0 125.624 63.1727  42
  -4   5   0 71.7137 48.3509  39
   4   5   1 20064.3 493.361  32
  -4   5  -1 19997.1 499.360  10
   4   5   1 20178.7 494.704  31
  -4   5  -1 20352.1 489.897  39
   4   5   1 19309.5 497.007  42
  -4   5  -1 19812.6 484.811  14
   4   5   1 20523.1 558.293  23
   4   5   2 152679. 1241.18  32
  -4   5  -2 151223. 1232.82  10
   4   5   2 155308. 1235.13  31
   4   5   2 147718. 1080.55  17
  -4   5  -2 151650. 1202.21  39
   4   5   2 149109. 1363.92  23
   4   5   3 4330.61 171.928  32
   4   5   3 4339.31 171.016  31
   4   5   3 4115.88 150.070  17
   4   5   3 4374.01 171.473  26
  -4   5  -3 4179.00 167.486  39
  -4   6   5 23120.8 423.081  33
  -4   6   5 23066.4 374.861  32
   4   6  -5 22886.9 396.993   9
   4   6  -5 22205.8 346.450  14
  -4   6   4 41677.9 643.917  13
  -4   6   4 43292.4 663.504  33
  -4   6   4 42769.4 566.546  32
   4   6  -4 42271.9 623.100   9
   4   6  -4 42643.5 632.192  42
  -4   6   3 167.862 49.6556  14
  -4   6   3 120.840 49.8688  33
  -4   6   3 89.2540 35.9146  32
   4   6  -3 42.9192 38.0473   9
   4   6  -3 190.842 64.5133  42
  -4   6   2 5025.66 239.622  33
   4   6  -2 5089.52 219.198   9
   4   6  -2 5414.66 263.906  42
  -4   6   2 5073.04 216.838   8
  -4   6   2 5246.65 251.551  14
   4   6  -2 4877.93 213.427  23
  -4   6   1 10875.2 324.375  33
   4   6  -1 11555.7 333.090  31
   4   6  -1 12020.2 386.319  42
  -4   6   1 11256.8 298.559  39
  -4   6   1 11889.9 371.854  14
   4   6  -1 11663.7 358.149  23
   4   6   0 19298.8 363.443  32
   4   6   0 19375.5 413.839  31
   4   6   0 18888.3 446.137  42
  -4   6   0 19262.2 382.355  39
  -4   6   0 19700.1 446.621  14
   4   6   0 19765.9 462.803  23
   4   6   1 470.804 74.8960  23
   4   6   1 395.958 56.1115  32
   4   6   1 389.905 61.1604  31
   4   6   1 447.429 59.7742  42
  -4   6  -1 483.604 65.6620  14
  -4   6  -1 444.329 57.2822  39
   4   6   2 1307.41 79.3017  32
   4   6   2 1245.72 79.4425  31
   4   7  -2 26314.4 375.358  42
  -4   7   1 1184.15 78.2328  14
   5  -6  -5 224.460 38.5532  25
   5  -6  -4 1009.98 74.5121  12
   5  -6  -4 1115.69 82.2846  41
  -5  -6   4 1128.23 85.8843  40
   5  -6  -4 925.198 79.6048  25
   5  -6  -3 1379.84 104.761  12
   5  -6  -3 1435.63 110.085  41
  -5  -6   3 1018.23 72.5852  15
  -5  -6   3 1392.67 99.8831  40
   5  -6  -3 1104.58 85.9429  25
   5  -6  -2 935.778 92.7999  12
   5  -6  -2 1206.03 105.487  41
  -5  -6   2 901.817 73.3646  15
  -5  -6   2 971.647 83.1983  40
  -5  -6   1 27492.6 381.284  15
  -5  -6   1 26984.6 379.305  40
   5  -6   0 3675.33 146.629  41
  -5  -6   0 3690.70 125.583  15
  -5  -5   6 3437.42 163.119  40
  -5  -5   5 216.543 62.6058  40
   5  -5  -4 127249. 1175.16  41
  -5  -5   4 129185. 1217.82  40
  -5  -5   3 45969.0 633.702  15
  -5  -5   3 46934.4 747.680  40
   5  -5  -2 5113.57 274.656  41
  -5  -5   2 4880.43 240.005  40
  -5  -5   2 4940.08 216.911  15
   5  -5  -2 4946.61 247.884  25
   5  -5  -1 361.368 84.5451  12
   5  -5  -1 386.282 91.4285  41
  -5  -5   1 284.619 67.8332  40
   5  -5   0 10086.6 343.307  12
   5  -5   0 10718.7 378.807  41
  -5  -5   0 10586.5 315.403  40
   5  -5   0 10568.0 319.025   7
   5  -5   1 2600.87 135.848  12
   5  -5   1 2808.41 170.337  41
  -5  -5  -1 2837.15 142.175  40
   5  -5   1 2811.61 152.952   7
   5  -5   2 21810.1 328.639   7
  -5  -4   7 155.254 46.5809  40
  -5  -4   6 29180.8 539.968  33
  -5  -4   6 30394.2 594.661  40
  -5  -4   5 1028.50 126.679  40
   5  -4  -4 3476.17 220.380  41
  -5  -4   4 3255.66 221.729  40
   5  -4  -3 3323.46 235.476  41
  -5  -4   3 3227.39 219.992  40
   5  -4  -2 1554.02 172.471  41
  -5  -4   2 1538.92 153.047  40
   5  -4  -1 61537.7 1072.30  41
  -5  -4   1 62230.5 950.166  40
   5  -4  -1 59103.2 970.906  25
  -5  -4   1 58766.9 899.599  24
   5  -4   0 7330.07 351.804  12
   5  -4   0 7683.26 387.121  41
  -5  -4   0 7698.93 330.363  40
  -5  -4   0 7798.13 307.954  24
   5  -4   0 7909.54 333.551   7
   5  -4   1 5454.35 276.389  12
   5  -4   1 4927.18 299.632  41
  -5  -4  -1 5339.49 256.855  40
   5  -4   1 4963.45 259.562   7
   5  -4   2 63568.4 886.333  41
  -5  -4  -2 64496.7 771.165  40
   5  -4   2 62635.1 825.409   7
  -5  -4  -3 23213.5 333.767  40
   5  -4   3 23438.5 388.889   7
  -5  -3   8 24233.9 403.825  21
  -5  -3   8 23091.6 378.730  34
  -5  -3   8 24414.2 420.282  33
  -5  -3   8 24557.9 429.244  16
  -5  -3   7 41091.1 654.976  21
  -5  -3   7 40571.4 646.581  34
  -5  -3   7 42199.6 690.778  33
  -5  -3   6 4856.65 244.173  21
  -5  -3   6 5149.45 255.496  34
  -5  -3   6 4831.50 255.655  33
  -5  -3   6 4979.67 264.438  40
  -5  -3   5 571.826 92.9346  33
  -5  -3   5 717.256 109.157  40
  -5  -3   4 211166. 1763.01  40
   5  -3  -3 77747.0 1094.37  41
  -5  -3   3 74173.9 1032.62  40
  -5  -3   3 75350.8 1076.78  24
   5  -3  -2 7014.39 350.160  41
  -5  -3   2 7070.35 324.410  40
  -5  -3   2 7229.41 330.785  24
   5  -3  -1 390.754 99.5068  12
   5  -3  -1 421.641 101.134  41
  -5  -3   1 686.009 112.076  40
   5  -3  -1 362.596 91.9423  25
  -5  -3   1 468.764 90.8413  24
   5  -3   0 18174.2 576.420  12
   5  -3   0 18606.9 613.804  41
   5  -3   0 19018.1 617.102  25
  -5  -3   0 18059.4 512.144  24
   5  -3   0 18637.8 524.702   7
   5  -3   1 4600.53 245.848  34
   5  -3   1 4533.14 282.890  12
   5  -3   1 4676.72 314.295  41
  -5  -3  -1 4468.52 242.318  24
   5  -3   1 4668.82 270.873   7
   5  -3   2 40443.8 677.212  34
   5  -3   2 41471.5 882.373  41
   5  -3   2 41027.1 776.549   7
  -5  -3  -2 41325.1 637.474  24
   5  -3   3 350.103 74.7958   7
   5  -3   3 303.139 55.5206  34
   5  -3   3 276.318 69.9535  41
  -5  -2   9 11732.6 231.191  21
  -5  -2   8 1018.89 108.085  34
  -5  -2   8 910.243 103.420  21
  -5  -2   8 925.007 101.615  33
  -5  -2   8 1031.83 95.2891  18
  -5  -2   7 612.621 99.8468  34
  -5  -2   7 678.477 104.608  21
  -5  -2   7 536.162 94.8688  33
  -5  -2   6 42782.4 794.666  21
  -5  -2   6 43713.1 795.475  33
  -5  -2   6 41887.8 756.963  40
  -5  -2   5 1532.88 147.037  21
  -5  -2   5 1448.89 143.510  40
   5  -2  -4 6071.49 449.180   6
  -5  -2   4 5972.99 512.300   3
  -5  -2   4 6296.24 526.034  30
  -5  -2   4 6562.26 298.569  40
  -5  -2   4 6374.19 307.986  24
   5  -2  -4 6165.23 493.218  38
  -5  -2   4 5835.66 467.330  36
  -5  -2   3 5062.60 449.155   3
   5  -2  -3 5961.24 289.177  12
  -5  -2   3 5727.47 478.997  30
  -5  -2   3 5637.24 274.818  40
   5  -2  -3 5728.17 523.758   4
  -5  -2   3 5569.33 282.379  24
  -5  -2   3 5448.89 452.737  36
  -5  -2   2 1230.03 219.211  36
   5  -2  -2 1187.57 136.108  12
  -5  -2   2 1249.16 216.075   3
  -5  -2   2 739.694 176.820  30
   5  -2  -2 1099.41 133.879  41
  -5  -2   2 1209.72 134.420  40
  -5  -2   2 1407.93 146.084  24
   5  -2  -2 902.835 201.715  37
   5  -2  -2 1328.65 261.799   4
  -5  -2   1 97590.9 2107.41  36
   5  -2  -1 101249. 1289.71  12
  -5  -2   1 96094.8 1973.34  30
   5  -2  -1 95660.4 1275.53  41
   5  -2  -1 104189. 2427.94   4
   5  -2  -1 103009. 1349.37  25
   5  -2  -1 100865. 2205.48  37
   5  -2   0 10990.0 398.281  34
   5  -2   0 10477.2 428.924  12
   5  -2   0 10533.6 449.933  41
   5  -2   0 11441.8 478.154  25
   5  -2   1 6272.95 310.672  34
   5  -2   1 6462.04 337.641  12
   5  -2   1 6686.40 367.673  41
   5  -2   1 6375.17 346.162  25
   5  -2   1 6407.16 322.487   7
   5  -2   2 89440.2 1136.16  34
   5  -2   2 90273.2 1331.39  41
   5  -2   2 88677.2 1190.03   7
   5  -2   3 34969.9 536.384  22
   5  -2   3 37480.8 664.879  34
   5  -2   3 36628.4 574.960  31
   5  -2   3 34740.5 552.811  16
   5  -2   3 35359.5 736.662  41
   5  -2   3 36372.2 702.200   7
   5  -2   4 31345.5 475.926  34
   5  -2   4 31837.8 517.116  19
   5  -2   4 27347.9 351.515  11
   5  -2   4 29646.4 395.921  31
   5  -2   4 27087.3 419.388  41
  -5  -1   9 17074.2 332.720  34
  -5  -1   9 17903.6 342.036  21
  -5  -1   9 17822.8 331.603  33
  -5  -1   9 16961.1 318.459  18
  -5  -1   8 31416.5 630.276  34
  -5  -1   8 31102.3 617.713  21
  -5  -1   8 31179.7 591.728  33
  -5  -1   7 55956.0 896.107  13
  -5  -1   7 55359.5 954.101  34
  -5  -1   7 56895.9 933.030  21
  -5  -1   7 56512.3 905.294  33
  -5  -1   6 5795.17 295.134  13
  -5  -1   6 5869.10 308.638  21
  -5  -1   6 5856.97 299.642  33
   5  -1  -5 427.444 130.649   6
  -5  -1   5 644.141 93.9519  13
  -5  -1   5 708.424 107.025  21
  -5  -1   5 730.005 104.445  33
  -5  -1   5 812.822 201.381   3
  -5  -1   5 497.092 157.062  30
  -5  -1   5 916.034 122.677  39
   5  -1  -5 933.575 205.980  38
   5  -1  -4 291257. 2957.08   6
  -5  -1   4 283023. 3446.14   3
  -5  -1   4 293031. 3599.21  30
   5  -1  -4 294862. 3324.73  38
  -5  -1   3 100807. 1948.90   3
  -5  -1   3 102971. 2076.29  30
   5  -1  -3 105933. 1986.69   4
   5  -1  -3 103731. 1831.00  38
  -5  -1   3 103140. 1774.37  36
  -5  -1   2 8438.02 536.688  36
  -5  -1   2 7815.71 520.186   3
  -5  -1   2 7945.63 576.564  30
   5  -1  -2 8959.46 624.775   4
  -5  -1   1 547.706 145.917  36
   5  -1  -1 726.555 106.135  34
  -5  -1   1 868.018 197.220  30
   5  -1  -1 511.471 169.049  28
   5  -1  -1 1007.87 125.935  41
   5  -1  -1 716.114 183.924   4
  -5  -1   0 25464.4 1040.19  36
   5  -1   0 25405.3 606.309  34
   5  -1   0 25592.6 646.005  12
   5  -1   0 24573.8 564.247  16
   5  -1   0 24125.5 1184.39  28
   5  -1   0 25224.0 655.280  41
   5  -1   0 26249.4 1200.87   4
   5  -1   0 26745.3 702.516  25
   5  -1   1 5620.80 298.549  34
   5  -1   1 5658.73 283.493  16
   5  -1   1 5920.62 336.201  41
   5  -1   1 5926.85 335.563  25
   5  -1   1 5705.04 294.944   7
   5  -1   2 51889.8 903.105  34
   5  -1   2 51410.3 932.677  20
   5  -1   2 51858.1 775.595  31
   5  -1   2 50525.9 835.062  16
   5  -1   2 52619.2 1002.80  41
   5  -1   2 52030.6 909.418   7
   5  -1   3 381.418 85.4761  34
   5  -1   3 382.268 69.8277  31
   5  -1   3 554.893 103.571  41
   5  -1   3 412.399 78.9868  16
   5  -1   3 450.066 90.2592   7
   5  -1   4 2851.96 164.492  34
   5  -1   4 2667.15 165.822  19
   5  -1   4 2746.42 138.665  11
   5  -1   4 2541.81 138.430  31
   5  -1   4 2709.38 151.380  16
   5  -1   4 2630.43 164.795  41
  -5   0   9 15074.5 305.000  34
  -5   0   9 16271.9 335.934  21
  -5   0   9 16039.3 327.682  33
  -5   0   9 16150.7 341.310  18
  -5   0   8 1099.99 120.774  13
  -5   0   8 1320.20 135.777  34
  -5   0   8 1267.00 134.530  21
  -5   0   8 1051.75 119.947  33
  -5   0   7 862.845 129.451  34
  -5   0   7 721.259 111.279  13
  -5   0   7 822.539 120.158  33
  -5   0   7 784.304 121.373  21
  -5   0   6 49699.7 871.165  13
  -5   0   6 49970.5 912.582  21
  -5   0   6 50474.7 881.118  33
  -5   0   6 50278.9 962.543  39
  -5   0   5 1912.30 164.387  13
  -5   0   5 2071.22 172.311  33
  -5   0   5 2056.43 315.820   1
  -5   0   5 2195.40 338.284  30
  -5   0   5 1978.44 182.079  39
   5   0  -5 2182.85 308.190  38
  -5   0   4 8510.98 601.690   1
  -5   0   4 8955.80 629.393  30
  -5   0   4 8387.32 343.049  39
   5   0  -4 8968.53 588.719  38
  -5   0   3 8007.75 551.942   1
  -5   0   3 8181.23 592.268  30
   5   0  -3 7073.41 568.591  28
   5   0  -3 7653.93 509.237  38
  -5   0   2 572.339 163.836  30
  -5   0   2 878.757 185.963   1
   5   0  -2 518.007 157.105  28
   5   0  -2 622.505 155.395   4
   5   0  -1 121021. 2473.67  28
   5   0  -1 128410. 2329.92   4
  -5   0   0 11655.3 661.053  36
   5   0   0 11963.5 410.209  34
   5   0   0 11960.5 416.048  16
   5   0   0 12164.9 809.018  28
   5   0   0 12530.6 785.186   4
   5   0   0 12476.4 441.172  41
   5   0   0 12371.5 462.956  25
   5   0   1 6612.61 320.242  34
   5   0   1 7039.50 326.974  16
   5   0   1 7003.27 354.048  41
   5   0   1 7531.52 330.162   7
   5   0   1 7249.67 365.814  25
   5   0   2 97267.1 1221.16  34
   5   0   2 100307. 1279.58  20
   5   0   2 101969. 1092.84  11
   5   0   2 98900.0 1097.72  31
   5   0   2 98963.2 1220.82  16
   5   0   2 100892. 1350.16  41
   5   0   2 97799.5 1226.42   7
   5   0   3 41825.5 739.817  34
   5   0   3 40512.5 770.407  19
   5   0   3 42180.5 679.813  11
   5   0   3 41790.8 687.233  31
   5   0   3 42654.1 756.036  16
   5   0   3 41150.3 808.893  41
   5   0   4 35215.7 552.248  34
   5   0   4 37044.3 609.750  19
   5   0   4 37256.9 540.336  11
   5   0   4 36863.0 547.901  31
   5   0   4 36102.9 595.463  16
   5   0   4 36121.2 618.531  41
  -5   1   9 16550.0 302.360  21
  -5   1   9 17925.6 333.698  33
  -5   1   8 32293.7 615.422  13
  -5   1   8 31759.3 571.641  34
  -5   1   8 32086.7 631.139  21
  -5   1   8 31714.4 612.431  33
   5   1  -8 31296.7 549.391  42
  -5   1   7 56089.0 919.220  13
  -5   1   7 56296.0 909.653  34
  -5   1   7 56282.6 952.518  21
  -5   1   7 56023.9 926.493  33
  -5   1   6 5749.31 299.330  13
  -5   1   6 5381.18 296.015  33
  -5   1   6 5819.16 336.707  39
  -5   1   5 782.994 111.434  13
  -5   1   5 625.775 104.454  33
  -5   1   5 699.226 96.9327  32
  -5   1   5 1076.90 239.210  30
  -5   1   5 644.607 107.935  39
   5   1  -5 932.802 216.894  38
  -5   1   5 478.716 166.350   1
  -5   1   4 299154. 3561.00   1
  -5   1   4 297167. 1883.47  32
  -5   1   4 289659. 3564.59  30
  -5   1   4 299185. 3281.00  29
   5   1  -4 297074. 3454.51  28
  -5   1   4 299730. 2178.65   8
  -5   1   4 297688. 2120.72  39
   5   1  -4 298151. 3478.14  38
  -5   1   3 102869. 2020.29   1
  -5   1   3 105992. 1127.39  32
  -5   1   3 104990. 2121.61  30
   5   1  -3 103607. 2116.29  28
  -5   1   3 103442. 1162.65  39
   5   1  -3 105495. 1960.05  38
  -5   1   2 8573.96 327.727  32
  -5   1   2 8531.00 566.070   1
  -5   1   2 8314.37 614.960  30
   5   1  -2 8174.44 613.640  28
   5   1  -2 8463.62 531.242  38
  -5   1   1 692.435 94.0845  39
   5   1  -1 509.880 92.3998  25
   5   1  -1 850.593 213.828  28
   5   1  -1 332.450 117.397   4
   5   1   0 25367.1 635.521  23
  -5   1   0 24360.8 916.435  35
   5   1   0 24077.1 571.065  34
   5   1   0 25806.0 656.176  20
   5   1   0 25686.3 625.787  16
   5   1   0 24971.5 1070.63   4
   5   1   0 25722.0 1170.41  28
   5   1   0 24075.4 605.431  41
   5   1   0 24501.9 641.632  25
  -5   1   0 25150.7 543.918  39
   5   1   1 5533.45 283.864  34
   5   1   1 5713.41 324.292  20
   5   1   1 5650.45 282.486  19
   5   1   1 5896.26 266.785  31
   5   1   1 6100.35 313.296  16
   5   1   1 6459.64 333.402  41
   5   1   2 50508.0 832.578  34
   5   1   2 51634.1 902.268  20
   5   1   2 50089.9 855.911  19
   5   1   2 51458.4 800.338  11
   5   1   2 50633.8 806.846  31
   5   1   2 52285.4 907.479  16
   5   1   2 52208.6 941.850  41
   5   1   3 453.936 79.3818  34
   5   1   3 562.091 95.8632  19
   5   1   3 436.797 78.9922  11
   5   1   3 435.703 80.3334  31
   5   1   3 388.444 87.6386  16
   5   1   3 549.547 102.925  41
   5   1   4 2809.80 152.360  11
   5   1   4 2794.36 153.399  31
   5   1   4 2712.71 163.463  16
  -5   2   9 10564.7 221.668  13
  -5   2   8 1067.75 110.002  13
  -5   2   8 980.851 104.805  21
  -5   2   8 924.820 105.266  33
   5   2  -8 980.191 90.7956  42
  -5   2   7 475.533 96.1791  13
  -5   2   7 493.212 96.2056  21
  -5   2   7 444.470 92.3683  33
   5   2  -7 700.107 99.7219   9
   5   2  -7 514.803 88.9171  42
  -5   2   6 44768.2 835.936  13
  -5   2   6 44395.3 842.958  33
  -5   2   6 43422.6 711.972  32
   5   2  -6 44692.9 821.362  42
  -5   2   6 43792.8 909.763  39
   5   2  -5 1358.80 143.366  23
  -5   2   5 1572.96 157.942  13
  -5   2   5 1606.05 159.959  33
  -5   2   5 1403.38 139.495  32
  -5   2   5 1475.73 168.751   8
   5   2  -5 1677.24 167.057  42
  -5   2   5 1342.86 161.144  39
   5   2  -4 6823.52 320.962  23
  -5   2   4 6374.72 298.788  33
  -5   2   4 6571.53 295.091  32
  -5   2   4 5962.60 505.476  30
  -5   2   4 7319.17 549.558  29
   5   2  -4 6441.75 311.636  42
  -5   2   4 6821.83 337.654   8
  -5   2   4 6799.77 331.267  39
   5   2  -4 6322.43 531.083  38
  -5   2   4 6174.11 551.477   1
   5   2  -3 5975.41 302.347  23
   5   2  -3 6001.47 295.279  42
  -5   2   3 5211.32 490.495   1
  -5   2   3 5715.07 275.930  32
  -5   2   3 6152.01 514.048  30
   5   2  -3 5976.23 503.579  28
  -5   2   3 6074.34 313.193   8
  -5   2   3 6279.75 306.363  39
   5   2  -3 6231.69 511.271  38
   5   2  -2 1651.10 166.119  23
   5   2  -2 1155.35 131.375  20
  -5   2   2 1199.91 132.018  32
  -5   2   2 981.664 222.277  30
   5   2  -2 1090.71 124.241  42
   5   2  -2 1489.83 264.080  28
  -5   2   2 1355.56 145.248  14
   5   2  -2 1201.00 128.634  25
  -5   2   2 999.731 124.382  39
   5   2  -2 785.774 177.856  38
  -5   2   2 1365.89 253.495   1
   5   2  -1 99510.7 1263.76  23
  -5   2   1 98507.6 1984.47  35
   5   2  -1 99146.7 1258.70  20
   5   2  -1 103647. 1298.56  16
  -5   2   1 95837.1 2115.04  30
   5   2  -1 102813. 2282.26  28
  -5   2   1 98848.8 1170.16  39
   5   2   0 10925.6 432.825  20
   5   2   0 10685.8 420.977  16
   5   2   0 10209.5 384.325  41
  -5   2   0 11128.6 396.327  39
   5   2   0 10729.3 429.688  23
   5   2   1 6183.82 325.852  20
   5   2   1 6268.00 288.149  11
   5   2   1 6822.29 297.587  19
   5   2   1 6404.24 295.671  31
   5   2   1 6603.26 331.041  16
   5   2   1 6636.99 327.020  41
  -5   2  -1 7007.71 309.714  39
   5   2   1 7050.35 347.273  23
   5   2   2 86650.8 1154.41  20
   5   2   2 86370.4 1064.42  19
   5   2   2 85732.7 1059.13  11
   5   2   2 86725.8 1076.86  31
   5   2   2 89293.2 1171.49  16
   5   2   2 87425.1 1176.32  41
  -5   2  -2 88608.0 1032.59  39
   5   2   3 36037.2 635.812  11
   5   2   3 34896.8 611.162  32
   5   2   3 37042.6 647.320  31
   5   2   3 36845.6 672.996  16
  -5   2  -3 34716.7 542.990  39
   5   2   4 32172.1 480.492  31
   5   2   4 30051.5 466.818  16
  -5   3   8 25526.6 448.299  13
  -5   3   8 25104.8 445.145  33
  -5   3   7 43709.6 734.936  13
  -5   3   7 41630.2 702.261  21
  -5   3   7 43312.7 740.144  33
  -5   3   7 41063.4 568.449  32
   5   3  -7 42985.3 664.890   9
   5   3  -7 41675.4 659.523  42
  -5   3   6 5312.99 283.534  13
  -5   3   6 5270.06 285.869  33
  -5   3   6 4932.07 243.482  32
   5   3  -6 5054.38 264.247   9
   5   3  -6 5010.48 269.209  42
  -5   3   6 5304.57 301.785  39
  -5   3   5 549.238 97.1150  13
  -5   3   5 513.266 95.9441  33
  -5   3   5 595.508 99.0768  32
   5   3  -5 447.096 89.8422   9
   5   3  -5 562.852 105.352  42
  -5   3   5 566.086 103.135   8
  -5   3   5 537.092 107.863  39
   5   3  -4 212619. 1770.05  23
  -5   3   4 214216. 1787.53  13
  -5   3   4 217451. 1811.53  33
  -5   3   4 215740. 1744.22  32
  -5   3   4 214297. 1926.46   8
   5   3  -4 212482. 1793.07   9
   5   3  -4 215165. 1866.01  42
  -5   3   4 213945. 1883.73  39
   5   3  -3 76592.6 1099.69  23
   5   3  -3 75801.8 1099.10  42
  -5   3   3 76396.0 1036.61  32
   5   3  -3 77366.2 1037.65   9
  -5   3   3 79134.9 1171.58   8
  -5   3   3 73677.0 1118.41  14
  -5   3   3 76348.1 1089.49  39
   5   3  -2 7406.83 352.639  23
   5   3  -2 7082.36 333.649  20
  -5   3   2 7226.26 321.876  32
   5   3  -2 7258.10 337.796  42
  -5   3   2 6800.73 336.974  14
  -5   3   2 6856.28 321.467  39
  -5   3   1 445.006 87.8676  14
   5   3  -1 379.135 91.6598  23
   5   3  -1 753.164 124.293  20
  -5   3   1 481.463 92.0799  32
  -5   3   1 431.212 89.8876  39
   5   3   0 18345.3 568.014  20
   5   3   0 17953.1 499.287  31
   5   3   0 18681.6 551.845  16
  -5   3   0 18358.1 517.294  39
   5   3   0 18505.5 576.149  23
   5   3   1 4371.87 252.411  31
   5   3   1 4115.85 255.225  16
  -5   3  -1 4499.12 254.501  39
   5   3   1 4343.24 271.631  23
   5   3   2 39880.5 727.567  32
   5   3   2 40409.2 724.505  31
   5   3   2 41320.3 734.735  16
  -5   3  -2 40852.0 689.185  39
   5   3   2 40177.2 724.305  23
   5   3   3 296.399 59.3167  32
   5   3   3 303.185 63.7643  31
   5   3   3 268.359 54.4629  16
  -5   3  -3 289.353 55.6587  39
  -5   4   7 243.606 55.9975  13
  -5   4   7 315.652 50.0346  21
  -5   4   7 201.906 51.4221  33
  -5   4   7 282.135 45.5591  32
   5   4  -7 162.011 38.4085   9
   5   4  -7 281.928 48.7238  42
  -5   4   6 30752.9 612.754  13
  -5   4   6 30659.5 617.331  33
  -5   4   6 30586.9 551.183  32
   5   4  -6 30651.2 582.862   9
   5   4  -6 30399.0 585.973  42
  -5   4   6 31020.3 612.404  39
  -5   4   5 740.226 110.322  13
  -5   4   5 797.130 115.263  33
  -5   4   5 620.904 93.2052  32
   5   4  -5 906.712 119.958   9
   5   4  -5 860.099 119.935  42
  -5   4   5 927.353 120.829  39
  -5   4   4 3317.61 224.763  13
  -5   4   4 3414.86 232.755  33
  -5   4   4 3328.33 217.854  32
   5   4  -4 3153.52 218.997   9
   5   4  -4 3376.08 237.466  42
  -5   4   4 3221.55 223.992   8
  -5   4   4 3588.61 237.662  39
   5   4  -4 3405.06 214.884  23
  -5   4   3 3129.31 215.682  33
  -5   4   3 3194.73 211.192  32
   5   4  -3 3427.06 222.634   9
   5   4  -3 3145.70 228.564  42
  -5   4   3 3067.34 229.508   8
  -5   4   3 3163.23 237.643  14
  -5   4   3 3073.77 219.419  39
   5   4  -3 3330.04 232.761  23
  -5   4   2 1533.29 146.451  32
   5   4  -2 1406.47 153.584  42
  -5   4   2 1417.63 158.878  14
  -5   4   2 1514.79 155.752  39
   5   4  -2 1594.03 167.321  23
   5   4  -1 59346.4 829.447  31
   5   4  -1 57609.5 936.521  42
  -5   4   1 59047.9 925.956  39
  -5   4   1 60261.7 962.878  14
   5   4  -1 60409.0 1018.48  23
   5   4   0 7438.13 300.578  31
  -5   4   0 7591.74 316.966  14
  -5   4   0 7526.20 323.135  39
   5   4   0 7938.02 362.774  23
   5   4   1 4879.46 256.992  32
   5   4   1 4873.23 237.046  31
  -5   4  -1 5296.69 254.846  39
   5   4   1 5089.02 270.011  23
   5   4   2 62549.3 781.335  32
   5   4   2 62089.0 751.454  31
   5   4   2 60334.5 658.622  17
  -5   4  -2 62842.4 755.764  39
   5   4   3 21978.7 336.145  32
   5   4   3 21816.4 302.780  17
  -5   4  -3 22121.9 343.670  39
  -5   5   6 3373.07 161.459  13
  -5   5   6 3542.92 168.386  33
  -5   5   6 3602.06 151.555  32
   5   5  -6 3307.73 153.345   9
   5   5  -6 3353.38 148.288  42
  -5   5   5 282.126 63.0175  13
  -5   5   5 320.252 64.9005  33
  -5   5   5 280.059 58.4714  32
   5   5  -5 355.292 69.1357   9
   5   5  -5 380.830 72.3084  42
  -5   5   4 127856. 1198.63  13
  -5   5   4 130467. 1230.17  33
  -5   5   4 132000. 1148.57  32
   5   5  -4 130123. 1196.57   9
   5   5  -4 132403. 1278.59  42
  -5   5   4 128382. 1123.76   8
  -5   5   4 128854. 1174.81  39
  -5   5   3 45064.3 701.773  13
  -5   5   3 46567.8 737.566  33
  -5   5   3 47490.9 698.088  32
   5   5  -3 46215.9 709.719   9
   5   5  -3 47519.3 805.271  42
  -5   5   3 47777.9 766.480   8
  -5   5   3 47309.4 802.607  14
  -5   5   3 46618.0 740.828  39
   5   5  -3 45853.5 720.821  23
  -5   5   2 4583.17 206.497  32
   5   5  -2 4762.47 205.646  31
   5   5  -2 5221.92 267.606  42
  -5   5   2 5053.41 267.206  14
  -5   5   2 4872.11 242.627  39
   5   5  -2 5156.77 263.305  23
  -5   5   1 304.658 76.5313  14
   5   5  -1 392.928 90.2101  23
   5   5  -1 392.825 68.4461  32
   5   5  -1 254.701 53.5841  31
   5   5  -1 340.459 72.3915  42
  -5   5   1 407.381 75.1407  39
   5   5   0 10007.7 307.591  32
   5   5   0 10277.9 299.524  31
  -5   5   0 10278.2 322.194  14
  -5   5   0 10596.7 330.266  39
   5   5   0 10864.2 370.525  23
   5   5   1 2915.49 155.024  32
   5   5   1 2831.56 144.832  31
  -5   5  -1 2753.53 153.863  39
   5   5   1 2801.61 168.682  23
   5   5   2 24049.6 329.715  31
  -5   5  -2 24242.5 354.689  39
   5   6  -5 346.416 44.9507   9
  -5   6   4 1087.30 77.6266  13
  -5   6   4 1086.22 83.9943  33
  -5   6   4 1177.56 76.4327  32
   5   6  -4 1371.63 91.4848   9
   5   6  -4 1205.29 94.9679  42
  -5   6   3 1096.05 77.2667  13
  -5   6   3 1108.37 84.1395  33
   5   6  -2 1072.71 99.5796  42
  -5   6   2 938.483 82.2954   8
  -5   6   2 957.717 73.1206  39
   5   6  -2 882.724 79.3888  23
   5   6  -1 26495.0 419.046  42
  -5   6   1 25157.0 417.676   8
  -5   6   1 28940.3 452.370  14
  -5   6   1 26948.0 377.648  39
   5   6  -1 28254.7 448.602  23
  -5   6   0 2789.18 128.039   8
   5   6   0 3971.78 157.446  23
  -6  -5   5 3695.78 154.166  40
   6  -5  -5 3459.51 156.334  25
   6  -5  -4 2056.77 120.159  12
   6  -5  -4 1923.17 108.579  41
  -6  -5   4 2284.58 136.078  40
   6  -5  -4 2177.42 138.657  25
   6  -5  -3 18728.8 407.268  12
   6  -5  -3 19379.3 402.909  41
  -6  -5   3 19650.9 400.488  40
   6  -5  -3 18947.2 399.759  25
   6  -5  -2 29803.4 525.021  12
   6  -5  -2 29782.0 525.724  41
  -6  -5   2 30306.3 483.281  40
   6  -5  -1 452.664 66.4729  12
   6  -5  -1 489.338 73.2541  41
  -6  -5   1 569.440 67.8018  40
   6  -5   0 22513.8 371.466  41
  -6  -5   0 21756.4 317.966  40
  -6  -4   6 53400.8 650.259  40
   6  -4  -6 52866.0 663.762  25
  -6  -4   5 2083.96 148.378  40
  -6  -4   4 49284.5 746.232  40
   6  -4  -4 48178.6 809.088  25
   6  -4  -3 45910.5 785.121  12
   6  -4  -3 47412.5 771.575  41
  -6  -4   3 48049.2 744.074  40
   6  -4  -3 47134.3 814.037  25
   6  -4  -2 16822.6 494.593  12
   6  -4  -2 17718.2 499.654  41
  -6  -4   2 18235.6 459.292  40
   6  -4  -2 17116.8 480.543  25
   6  -4  -1 38922.1 729.711  12
   6  -4  -1 40571.9 749.286  41
  -6  -4   1 40054.3 655.424  40
   6  -4  -1 39572.3 661.065  25
   6  -4   0 1415.58 128.225  12
   6  -4   0 1426.21 138.021  41
  -6  -4   0 1471.40 120.580  40
   6  -4   1 10288.5 299.515  41
  -6  -4  -1 10945.8 270.016  40
  -6  -3   8 15179.7 271.148  16
  -6  -3   7 6729.13 222.443  34
  -6  -3   7 6512.83 209.254  33
  -6  -3   6 27142.1 517.771  34
  -6  -3   6 27090.0 523.273  40
   6  -3  -6 26732.2 541.854  25
  -6  -3   5 5803.46 267.983  40
   6  -3  -4 3381.83 214.279  12
  -6  -3   4 3194.76 205.639  40
   6  -3  -3 31533.8 703.472  12
   6  -3  -3 31806.5 664.804  41
  -6  -3   3 31710.0 649.114  40
   6  -3  -3 31890.6 746.612  25
  -6  -3   3 31335.8 689.751  24
   6  -3  -2 46651.0 886.176  12
   6  -3  -2 46277.8 856.201  41
  -6  -3   2 47148.9 800.777  40
   6  -3  -2 47326.2 906.235  25
  -6  -3   2 47992.2 845.893  24
   6  -3  -1 808.983 125.357  12
   6  -3  -1 868.672 132.391  41
  -6  -3   1 777.344 110.579  40
   6  -3  -1 755.250 119.985  25
  -6  -3   1 824.836 118.043  24
   6  -3   0 39411.8 770.327  12
   6  -3   0 41430.8 818.396  41
  -6  -3   0 41386.0 727.611  40
   6  -3   0 40071.1 743.714  25
  -6  -3   0 40069.2 690.878  24
   6  -3   1 1761.82 160.232  41
  -6  -3  -1 1594.45 134.419  40
   6  -3   1 1391.96 112.752   7
  -6  -3  -1 1475.36 118.103  24
   6  -3   2 1198.35 110.736  41
   6  -3   2 1095.94 82.1988   7
  -6  -3  -2 1331.61 102.634  40
  -6  -2   8 32754.1 467.427  21
  -6  -2   8 32993.2 495.822  34
  -6  -2   8 32496.1 461.880  33
  -6  -2   7 9805.34 313.219  21
  -6  -2   7 9719.28 333.731  34
  -6  -2   7 9941.96 306.607  33
  -6  -2   6 82384.1 967.933  21
  -6  -2   6 81673.7 933.571  33
   6  -2  -6 79871.2 966.501  25
   6  -2  -5 3286.41 225.365  25
   6  -2  -4 67410.4 955.494  12
  -6  -2   4 67033.6 914.040  40
   6  -2  -4 67812.9 1063.14  25
  -6  -2   4 67625.3 1003.54  24
   6  -2  -3 70904.8 1053.50  12
  -6  -2   3 70206.4 956.833  40
   6  -2  -3 70690.2 1115.50  25
  -6  -2   3 69484.8 1029.76  24
   6  -2  -2 22848.4 626.418  12
   6  -2  -2 22275.7 593.555  41
  -6  -2   2 23358.8 567.631  40
   6  -2  -2 23406.3 657.575  25
  -6  -2   2 23019.4 597.402  24
   6  -2  -1 52831.6 963.430  12
   6  -2  -1 54452.4 966.061  41
  -6  -2   1 53624.2 889.206  40
   6  -2  -1 52392.7 995.533  25
   6  -2   0 2464.93 212.359  41
   6  -2   0 2092.25 202.416  25
   6  -2   1 16459.6 512.476  41
   6  -2   1 15877.9 413.185   7
   6  -2   2 2546.40 181.663  41
   6  -2   2 2214.29 139.868   7
  -6  -2  -2 2590.97 148.306  24
   6  -2   3 11957.3 268.281  19
  -6  -2  -3 11035.4 243.193  40
  -6  -1   8 22587.6 466.686  34
  -6  -1   8 22856.1 457.369  21
  -6  -1   8 22084.8 427.468  33
  -6  -1   7 8706.91 343.578  34
  -6  -1   7 8797.68 333.821  21
  -6  -1   7 8656.00 311.933  33
  -6  -1   6 36790.3 712.385  21
  -6  -1   6 36463.6 666.789  33
  -6  -1   5 7838.11 323.148  21
   6  -1  -5 7591.74 327.205  25
   6  -1  -4 3887.43 250.653  25
  -6  -1   4 3939.34 236.645  24
   6  -1  -3 41512.8 793.113  12
   6  -1  -3 42382.9 853.226  25
  -6  -1   3 41276.2 771.548  24
   6  -1  -2 58504.7 988.018  12
   6  -1  -2 58772.3 914.878  41
   6  -1  -2 60145.3 1041.67  25
   6  -1  -1 1295.54 148.498  41
   6  -1  -1 1285.52 164.370  25
   6  -1   0 51997.0 837.270  16
   6  -1   0 52653.6 942.948  41
   6  -1   0 51643.7 990.588  25
   6  -1   1 1816.84 171.428  34
   6  -1   1 2018.22 187.241  20
   6  -1   1 1833.20 152.629  16
   6  -1   1 1850.46 181.541  41
   6  -1   1 1809.67 147.415   7
   6  -1   2 1515.26 125.233  16
   6  -1   2 1658.37 153.121  41
   6  -1   3 22783.7 407.885  19
   6  -1   3 22354.7 432.189  41
  -6   0   9 348.080 47.2784  21
  -6   0   8 37055.0 602.416  34
  -6   0   8 39023.9 630.022  21
  -6   0   8 38302.0 589.110  33
   6   0  -8 37359.9 584.134  42
  -6   0   7 11116.2 363.052  13
  -6   0   7 11471.5 396.977  21
  -6   0   7 11183.1 367.580  33
  -6   0   6 97371.8 1101.87  13
  -6   0   6 96027.6 1206.17  21
  -6   0   6 95572.7 1123.07  33
  -6   0   6 96886.3 1264.41  39
  -6   0   5 3734.97 235.395  21
  -6   0   5 3478.69 239.027  39
  -6   0   4 75849.6 1043.76  39
   6   0  -4 76779.5 1066.98  25
   6   0  -3 83633.7 1165.10  25
  -6   0   3 83599.2 1052.69  24
   6   0  -2 25141.2 651.211  23
   6   0  -2 24903.0 658.592  25
   6   0  -1 61456.5 1012.14  23
   6   0  -1 59709.6 970.608  16
   6   0  -1 58665.4 931.720  41
   6   0  -1 59506.8 1041.35  25
   6   0   0 2575.62 221.283  20
   6   0   0 2504.08 201.255  16
   6   0   0 2640.95 210.840  41
   6   0   0 2545.02 221.853  25
   6   0   1 17771.3 536.790  20
   6   0   1 18919.9 525.868  16
   6   0   1 18688.7 540.351  41
   6   0   2 2571.26 173.694  20
   6   0   2 2399.64 168.301  19
   6   0   2 2499.52 178.167  16
   6   0   2 2597.61 186.383  41
   6   0   3 14719.8 329.760  19
   6   0   3 15164.8 365.011  41
  -6   1   8 23346.4 448.419  13
  -6   1   8 21865.7 406.270  34
  -6   1   8 23005.2 476.958  21
  -6   1   8 22649.9 449.540  33
   6   1  -8 22697.3 402.435   9
   6   1  -8 22094.4 428.570  42
   6   1  -7 8337.44 288.266  23
  -6   1   7 8841.66 322.467  13
  -6   1   7 8444.04 318.056  34
  -6   1   7 8733.19 348.274  21
  -6   1   7 8642.29 325.366  33
   6   1  -7 9059.51 339.021  42
  -6   1   6 37126.9 689.908  13
  -6   1   6 35934.3 745.495  21
  -6   1   6 37164.0 706.267  33
  -6   1   6 36459.7 797.037  39
  -6   1   5 7524.27 359.866  39
  -6   1   4 3999.63 267.617   8
   6   1  -4 4144.93 252.169  42
  -6   1   4 4123.95 255.188  39
   6   1  -3 42310.6 850.728  23
   6   1  -3 42714.3 800.520  20
   6   1  -3 43332.6 768.657  42
  -6   1   3 42292.4 827.979   8
  -6   1   3 40529.8 764.467  39
   6   1  -3 41390.7 787.723  25
   6   1  -2 59917.3 1008.63  23
   6   1  -2 60891.6 1009.23  20
  -6   1   2 60879.4 964.630   8
  -6   1   2 59650.9 892.071  39
   6   1  -2 59852.6 995.709  25
   6   1  -1 1112.64 146.925  23
   6   1  -1 1264.92 153.717  20
   6   1  -1 1128.23 142.289  16
   6   1  -1 944.902 115.177  41
   6   1  -1 964.763 135.516  25
   6   1   0 50911.2 938.271  20
   6   1   0 51795.1 927.407  16
   6   1   0 50904.2 866.721  41
   6   1   1 1942.06 180.676  20
   6   1   1 2003.73 155.715  19
   6   1   1 1899.97 177.579  16
   6   1   1 1962.84 172.093  41
   6   1   2 1925.95 146.451  20
   6   1   2 1483.82 124.261  19
   6   1   2 1554.30 115.992  31
   6   1   2 1485.09 143.254  16
   6   1   2 1490.02 139.866  41
   6   1   3 23102.2 421.289  16
  -6   2   8 34323.7 500.636  13
  -6   2   8 34700.2 525.964  21
  -6   2   8 34082.2 507.520  33
   6   2  -8 33471.4 444.101   9
   6   2  -8 33266.2 470.615  42
  -6   2   7 9968.28 329.095  13
  -6   2   7 9986.62 355.561  21
  -6   2   7 9645.90 330.610  33
   6   2  -7 9995.35 324.850   9
   6   2  -7 10489.6 342.342  42
   6   2  -6 84558.3 993.911  23
  -6   2   6 86108.5 1037.22  13
  -6   2   6 85586.6 1063.02  33
  -6   2   6 84288.8 956.855  32
   6   2  -6 87019.7 1100.79  42
  -6   2   6 86341.4 1199.68  39
   6   2  -5 3118.99 216.423  23
  -6   2   5 3248.08 206.011  33
  -6   2   5 3032.36 200.269  32
   6   2  -5 3103.02 221.128  42
  -6   2   5 3522.59 251.697  39
   6   2  -4 68827.4 1052.34  23
  -6   2   4 67206.5 965.059  32
   6   2  -4 67289.3 1007.77  42
  -6   2   4 68755.2 1097.73   8
  -6   2   4 67682.8 1053.27  39
   6   2  -3 71471.0 1088.91  23
   6   2  -3 71406.9 1012.21  20
  -6   2   3 72034.2 1011.91  32
   6   2  -3 72367.5 1027.87  42
  -6   2   3 73241.1 1118.39   8
  -6   2   3 70240.5 1038.95  39
   6   2  -2 23102.5 627.277  23
   6   2  -2 22914.5 607.067  20
  -6   2   2 25004.7 644.522   8
  -6   2   2 23396.8 588.323  39
   6   2  -1 52681.2 956.536  23
   6   2  -1 54393.0 958.431  20
   6   2  -1 53604.7 926.920  16
  -6   2   1 56414.8 932.161   8
  -6   2   1 53654.7 868.611  39
   6   2   0 2249.85 198.966  20
   6   2   0 2263.82 197.921  16
   6   2   0 2401.91 179.989  41
  -6   2   0 2434.46 176.409   8
  -6   2   0 2377.10 176.677  39
   6   2   0 2297.06 198.140  23
   6   2   1 15258.8 466.228  20
   6   2   1 15014.8 379.035  19
   6   2   1 16197.3 483.774  16
   6   2   1 14776.3 434.833  41
  -6   2  -1 15028.6 390.095  39
   6   2   2 2225.62 148.904  32
   6   2   2 2196.06 132.581  31
   6   2   2 2539.36 169.832  16
   6   2   3 11997.9 249.282  16
  -6   3   8 14345.4 257.243  13
  -6   3   7 7348.30 251.737  13
  -6   3   7 6984.95 258.777  21
  -6   3   7 7250.81 256.787  33
   6   3  -7 7147.39 246.862   9
   6   3  -7 7320.48 255.241  42
  -6   3   6 28307.5 559.313  13
  -6   3   6 28630.2 574.991  33
  -6   3   6 28946.4 538.287  32
   6   3  -6 29879.3 585.753   9
   6   3  -6 29923.3 606.490  42
  -6   3   6 29488.0 639.173  39
   6   3  -5 5829.17 269.404  23
  -6   3   5 5872.03 261.011  13
  -6   3   5 5932.85 273.152  33
  -6   3   5 6547.85 288.021  32
   6   3  -5 6406.72 288.516   9
   6   3  -5 6128.43 296.733  42
  -6   3   5 6067.65 310.557  39
   6   3  -4 3324.86 223.004  23
  -6   3   4 3450.56 219.844  32
   6   3  -4 3424.05 213.908   9
   6   3  -4 3481.87 232.569  42
  -6   3   4 3287.75 241.211   8
  -6   3   4 3394.85 234.963  39
   6   3  -3 32267.2 719.185  23
  -6   3   3 32481.4 671.302  32
   6   3  -3 32419.8 624.525   9
   6   3  -3 32767.2 692.954  42
  -6   3   3 34015.6 759.113   8
  -6   3   3 31932.4 701.920  39
   6   3  -2 46707.7 845.054  20
   6   3  -2 47970.6 804.826  42
  -6   3   2 46931.6 832.027  39
   6   3  -2 48465.7 891.781  23
   6   3  -1 736.545 120.215  23
   6   3  -1 910.636 128.320  20
  -6   3   1 814.438 116.358  39
  -6   3   0 39837.5 702.052  39
   6   3   0 39753.7 753.712  23
   6   3   1 1367.82 106.490  31
  -6   3  -1 1516.62 124.250  39
   6   3   1 1570.09 132.876  23
   6   3   2 990.107 86.5366  32
   6   3   2 1104.29 77.1506  31
   6   3   2 1055.71 69.3181  17
  -6   3  -2 1093.49 78.8251  39
  -6   4   7 6022.58 177.744  33
   6   4  -7 6356.72 178.470   9
  -6   4   6 57908.7 661.411  13
  -6   4   6 57999.6 689.313  33
  -6   4   6 58972.9 660.061  32
   6   4  -6 60311.9 706.084   9
   6   4  -6 59575.1 720.913  42
  -6   4   6 57810.7 730.384  39
  -6   4   5 2095.22 138.086  13
  -6   4   5 2040.41 142.695  33
  -6   4   5 2121.29 148.249  32
   6   4  -5 1879.57 141.293   9
   6   4  -5 2030.47 156.080  42
  -6   4   5 1839.54 149.805  39
  -6   4   4 51148.9 747.459  32
   6   4  -4 49354.4 725.501   9
   6   4  -4 50496.0 794.780  42
  -6   4   4 50578.6 799.656   8
  -6   4   4 50141.2 796.688  39
   6   4  -4 48550.3 751.122  23
  -6   4   3 48960.5 736.609  32
   6   4  -3 47086.4 670.486   9
   6   4  -3 47443.4 769.775  42
  -6   4   3 48443.2 827.609   8
  -6   4   3 48048.2 784.763  39
   6   4  -3 47792.6 801.034  23
   6   4  -2 17412.9 447.308  42
  -6   4   2 18597.6 519.958   8
  -6   4   2 18061.3 477.282  39
   6   4  -2 17428.8 495.559  23
  -6   4   1 39874.7 677.325  39
   6   4  -1 40434.9 727.122  23
   6   4   0 1418.97 122.657  32
  -6   4   0 1460.28 122.587  39
   6   4   0 1643.93 138.674  23
   6   4   1 10136.9 269.244  32
  -6   4  -1 10482.3 267.853  39
   6   4   1 8667.26 245.815  23
  -6   5   5 4219.02 155.111  32
   6   5  -5 4050.72 154.444   9
   6   5  -5 4026.88 168.036  42
  -6   5   4 2155.18 120.972  32
   6   5  -4 2100.49 116.592   9
   6   5  -4 2293.73 141.760  42
  -6   5   4 2144.38 130.417  39
   6   5  -3 19561.7 411.481  42
  -6   5   3 19554.7 410.505   8
  -6   5   3 20305.0 414.244  39
   6   5  -3 19524.9 396.484  23
  -6   5   2 31295.1 531.158   8
  -6   5   2 30751.4 506.622  39
   6   5  -2 30153.5 518.548  23
   6   5  -1 498.131 71.8175  23
   6   5  -1 349.331 44.3309  32
  -6   5   1 559.168 75.6235   8
  -6   5   1 491.823 66.7314  39
  -6   5   0 22238.4 345.608  39
   6   5   0 21834.3 362.943  23
  -7  -4   5 2130.88 104.574  40
   7  -4  -5 2774.71 139.334  25
  -7  -4   4 18183.2 340.775  40
   7  -4  -4 20539.9 410.156  25
   7  -4  -3 2303.87 138.169  12
   7  -4  -3 1889.16 107.737  41
  -7  -4   3 2197.06 125.240  40
   7  -4  -3 2433.29 144.971  25
   7  -4  -2 177.985 45.2172  41
  -7  -4   2 157.610 41.5215  40
   7  -4  -2 195.461 42.7339  25
   7  -4  -1 1418.77 95.2747  41
  -7  -4   1 1413.66 88.0122  40
   7  -3  -6 28243.3 446.665  25
  -7  -3   5 12240.7 295.482  40
   7  -3  -5 13426.2 373.772  25
  -7  -3   4 1514.23 117.628  40
   7  -3  -4 1485.72 140.513  25
   7  -3  -3 311.060 68.8060  12
  -7  -3   3 420.242 66.2414  40
   7  -3  -3 324.967 78.1448  25
  -7  -3   2 67156.0 770.164  40
   7  -3  -2 69528.1 910.568  25
  -7  -3   2 67573.7 851.057  24
   7  -3  -1 17730.9 417.902  41
  -7  -3   1 17692.2 374.790  40
   7  -3  -1 17065.0 397.079  25
  -7  -3   1 17381.3 394.396  24
   7  -3   0 14157.5 331.161  20
   7  -3   0 13894.2 333.886  41
  -7  -3   0 14180.1 292.534  40
  -7  -3   0 14179.2 296.142  24
  -7  -2   7 28019.0 452.004  34
   7  -2  -6 2342.89 142.962  25
   7  -2  -5 4381.30 232.633  25
   7  -2  -4 29758.0 650.579  25
  -7  -2   3 3330.05 179.268  40
   7  -2  -3 3763.19 246.746  25
  -7  -2   3 3473.81 215.564  24
   7  -2  -2 141.607 50.1377  41
  -7  -2   2 204.130 54.8972  40
   7  -2  -2 171.405 68.2444  25
  -7  -2   2 121.619 65.5115  24
   7  -2  -1 2517.06 175.398  41
  -7  -2   1 2646.44 161.150  40
   7  -2  -1 2693.78 194.252  25
  -7  -2   1 2549.00 175.760  24
   7  -2   0 1222.34 123.144  20
   7  -2   0 1429.26 125.993  41
  -7  -2   0 1296.27 104.389  40
  -7  -2   0 1283.38 113.203  24
   7  -2   1 20693.3 342.856  19
   7  -2   1 21503.8 397.368  41
  -7  -2  -1 20412.8 321.428  40
  -7  -2  -1 21391.0 350.348  24
  -7  -1   8 3249.01 139.135  34
   7  -1  -8 2949.97 129.203  42
  -7  -1   7 19732.8 435.040  34
  -7  -1   7 19544.5 378.706  21
   7  -1  -5 17531.6 463.423  25
   7  -1  -4 1850.71 171.154  25
  -7  -1   4 2131.95 165.750  24
   7  -1  -3 352.281 77.7926  23
   7  -1  -3 365.848 89.8125  25
  -7  -1   3 370.026 77.1360  24
   7  -1  -2 84852.2 1181.18  25
  -7  -1   2 85704.4 1069.39  24
   7  -1  -1 21694.2 518.763  41
   7  -1  -1 22591.1 588.943  25
   7  -1   0 18766.7 492.749  20
   7  -1   0 18754.0 461.123  41
  -7  -1   0 19103.5 396.139  40
   7  -1   1 14468.7 338.500  20
   7  -1   1 14725.1 309.644  19
   7  -1   1 14711.9 359.322  41
  -7  -1  -1 13543.3 274.125  40
  -7  -1  -1 14901.1 342.508  24
  -7   0   8 22073.9 362.893  34
  -7   0   8 22528.6 364.651  21
   7   0  -8 21910.7 360.606  42
   7   0  -7 32576.2 537.723  23
  -7   0   7 33172.3 574.353  34
  -7   0   7 33264.9 552.598  21
   7   0  -7 33471.0 562.451  42
  -7   0   6 2580.82 169.948  21
   7   0  -6 2476.56 171.904  42
  -7   0   5 4903.58 234.560  21
   7   0  -5 4853.71 245.643  42
  -7   0   5 4748.75 245.297  39
   7   0  -4 34551.7 649.177  20
   7   0  -4 33210.7 677.594  25
   7   0  -3 4106.63 257.826  23
   7   0  -3 4189.44 252.952  20
   7   0  -3 4359.23 262.309  25
  -7   0   3 4228.66 225.865  24
   7   0  -2 195.537 61.3501  23
   7   0  -2 86.6672 58.5224  20
   7   0  -2 176.198 73.4796  25
   7   0  -1 2860.11 214.854  20
   7   0  -1 2905.80 184.132  41
   7   0  -1 2945.03 220.978  25
   7   0   0 1396.89 141.469  20
   7   0   0 1371.91 122.818  16
   7   0   0 1307.97 125.061  41
   7   0   1 24834.0 463.930  20
   7   0   1 24411.5 387.385  19
   7   0   1 24681.8 427.834  16
   7   0   1 24461.5 462.250  41
  -7   1   8 3456.41 143.687  21
   7   1  -8 3302.64 125.384   9
   7   1  -8 3113.96 132.130  42
   7   1  -7 19636.3 381.641  23
  -7   1   7 19059.0 397.711  34
  -7   1   7 20383.0 439.330  21
   7   1  -7 20378.4 429.675  42
   7   1  -6 40758.4 683.499  23
  -7   1   6 40237.0 682.240  21
   7   1  -6 39928.4 673.579  42
  -7   1   6 39083.6 710.977  39
   7   1  -5 18002.4 505.081  23
   7   1  -5 18882.6 480.977  42
  -7   1   5 17271.3 486.133  39
   7   1  -4 2135.57 184.613  23
   7   1  -4 2312.37 168.454  42
  -7   1   4 2226.34 178.027  39
   7   1  -4 2029.25 155.413  25
   7   1  -3 543.118 101.208  23
   7   1  -3 512.425 87.9881  20
  -7   1   3 462.127 81.7964  39
   7   1  -3 435.821 85.6570  25
   7   1  -2 85711.8 1117.72  23
   7   1  -2 85584.4 1128.21  20
  -7   1   2 83068.0 994.555   8
   7   1  -2 82476.0 1104.63  25
   7   1  -1 22481.6 576.888  20
   7   1  -1 23103.1 548.048  23
   7   1   0 18692.2 481.573  20
   7   1   0 17676.4 411.089  41
   7   1   1 14210.6 342.639  20
  -7   2   7 29805.2 496.531  21
   7   2  -7 29670.1 462.929   9
   7   2  -7 28635.3 471.906  42
   7   2  -6 2629.98 157.245  23
  -7   2   6 2580.80 171.204  21
   7   2  -6 2472.93 158.552   9
   7   2  -6 2582.56 168.279  42
  -7   2   6 2462.98 177.767  39
   7   2  -5 4596.78 239.251  23
   7   2  -5 4399.48 218.924   9
   7   2  -5 4722.48 237.275  42
  -7   2   5 4274.73 242.863  39
   7   2  -4 30658.7 651.758  23
   7   2  -4 30298.2 561.324   9
   7   2  -4 30297.4 595.576  42
  -7   2   4 29609.8 632.126  39
   7   2  -3 3400.70 225.787  23
   7   2  -3 3155.26 198.093  20
  -7   2   3 3774.78 235.122   8
  -7   2   3 3541.07 216.511  39
   7   2  -2 90.4506 67.7286  23
   7   2  -2 71.2232 52.9490  20
  -7   2   2 189.693 64.0796   8
  -7   2   2 183.517 57.8524  39
   7   2  -1 2379.36 181.870  20
  -7   2   1 2367.66 151.173   8
  -7   2   1 2726.42 161.683  39
   7   2  -1 2826.45 188.850  23
   7   2   0 1153.80 117.543  20
   7   2   1 17276.0 323.194  32
  -7   3   7 14534.2 283.660  21
   7   3  -7 15108.1 269.889   9
   7   3  -7 14865.4 277.523  42
  -7   3   6 31406.2 516.081  21
   7   3  -6 31402.7 485.270   9
   7   3  -6 31474.4 505.355  42
  -7   3   6 31196.5 541.978  39
   7   3  -5 13856.2 345.874   9
   7   3  -5 13509.5 362.425  42
  -7   3   5 14151.5 397.365  39
   7   3  -5 13521.1 357.882  23
   7   3  -4 1500.57 112.394   9
   7   3  -4 1506.24 126.272  42
  -7   3   4 1548.11 147.098   8
  -7   3   4 1618.71 144.947  39
   7   3  -4 1426.49 133.426  23
   7   3  -3 356.361 75.2903  23
  -7   3   3 334.524 79.2790   8
  -7   3   3 361.683 74.9280  39
  -7   3   2 69989.6 895.529   8
  -7   3   2 68445.9 842.877  39
   7   3  -2 70093.0 909.501  23
  -7   3   1 17119.3 384.957   8
  -7   3   1 18053.6 391.811  39
   7   3  -1 18042.2 419.947  23
   7   3   0 13579.3 309.614  32
  -7   3   0 13059.2 266.469  39
  -7   4   6 1545.85 86.8321  21
   7   4  -5 2806.36 118.772   9
   7   4  -5 2785.99 134.643  42
  -7   4   5 2764.33 144.108  39
   7   4  -4 18917.3 357.018  42
  -7   4   4 20199.1 409.807  39
   7   4  -4 20141.5 382.347  23
  -7   4   3 2353.70 145.018   8
  -7   4   3 2319.83 142.570  39
   7   4  -3 2290.61 142.860  23
   7   4  -2 108.614 44.1592  23
   7   4  -2 81.4745 27.7322  32
  -7   4   2 156.608 49.4609   8
  -7   4   2 124.027 45.0705  39
  -7   4   1 1289.67 85.9156   8
  -7   4   1 1391.37 90.8916  39
   7   4  -1 1513.34 99.8834  23
   8  -3  -4 6785.89 192.668  25
   8  -3  -3 11845.9 239.740  20
   8  -3  -3 13071.6 258.936  25
   8  -2  -6 613.497 61.1332  23
   8  -2  -5 11911.1 270.175  23
   8  -2  -5 11940.0 277.629  25
   8  -2  -4 24041.5 380.692  20
   8  -2  -4 24982.6 450.749  25
   8  -2  -3 1934.41 124.947  20
   8  -2  -3 2018.50 133.627  25
   8  -2  -2 382.967 60.6473  20
   8  -2  -2 366.482 56.6173  25
  -8  -2   2 423.290 59.2958  24
   8  -2  -1 19739.2 317.825  20
  -8  -2   1 19943.4 299.843  24
   8  -1  -6 24919.9 420.152  23
   8  -1  -5 9140.71 277.455  23
   8  -1  -5 8511.54 244.593  25
   8  -1  -4 9132.78 277.738  23
   8  -1  -4 8799.80 252.837  20
   8  -1  -4 8912.83 288.174  25
   8  -1  -3 19143.1 416.429  20
   8  -1  -3 18792.9 431.986  25
  -8  -1   3 19064.5 382.580  24
   8  -1  -2 17441.5 395.950  20
   8  -1  -2 17248.3 396.026  25
  -8  -1   2 17551.3 360.913  24
   8  -1  -1 72.1303 33.8979  20
  -8  -1   1 160.737 40.7419  24
   8   0  -7 258.019 40.6330  23
   8   0  -7 233.181 41.7684   9
   8   0  -6 912.160 87.9347  23
   8   0  -5 15221.2 376.092  23
   8   0  -4 29008.0 528.403  23
   8   0  -4 27769.8 443.415  20
   8   0  -4 27923.8 490.898  25
   8   0  -3 2145.34 140.498  23
   8   0  -3 2104.41 142.168  20
   8   0  -3 2240.40 152.043  25
   8   0  -2 350.980 64.2537  20
  -8   0   2 458.642 61.0066  24
   8   0  -1 24971.8 434.222  20
  -8   0   1 24352.9 374.680  24
   8   1  -6 24265.4 405.008  23
   8   1  -6 24001.0 369.293   9
   8   1  -5 8740.65 280.354  23
   8   1  -5 8461.60 226.585   9
   8   1  -4 9515.95 303.301  23
   8   1  -3 19280.9 416.207  23
   8   1  -3 18621.1 391.384  20
   8   1  -2 17116.1 379.974  20
   8   1  -2 16000.6 323.037  23
   8   1  -1 84.5332 41.0587  20
   8   2  -6 585.203 52.8151   9
   8   2  -6 630.673 57.4700  23
  -8   2   5 12717.6 293.522  39
   8   2  -5 12741.8 303.600  23
  -8   2   4 25188.1 414.626  39
   8   2  -4 26113.5 465.721  23
   8   2  -3 1976.88 131.420  23
   8   2  -2 305.441 50.2686  23
   8   3  -4 6783.42 192.570  23
   8   3  -3 13570.5 267.530  23
   0   0   0    0.00    0.00   0

TITL mht18pt5_s1649 in P2(1)
REM P2(1) (#4 in standard setting)
CELL 1.54184   6.952741   6.302588   7.541556  90.0000 114.9631  90.0000
ZERR    2.00   0.000213   0.000159   0.000228   0.0000   0.0036   0.0000
LATT -1
SYMM -x, y+1/2,-z
SFAC C H N Cl
UNIT 10.00 6.00 8.00 2.00
TREF
HKLF 4
END
;
_shelx_hkl_checksum              7750
_olex2_date_sample_data_collection 2018-08-01
_olex2_date_sample_submission    2018-07-30
_olex2_exptl_crystal_mounting_method 'in paratone on a loop'
_olex2_submission_original_sample_id MK002-8
_olex2_submission_special_instructions 'No special instructions were received'
_oxdiff_exptl_absorpt_empirical_details
;
Empirical correction (ABSPACK) includes:
- Absorption correction using spherical harmonics
- Frame scaling
;
_oxdiff_exptl_absorpt_empirical_full_max 1.245
_oxdiff_exptl_absorpt_empirical_full_min 0.788
loop_
_space_group_symop_operation_xyz
'x, y, z'
'-x, y+1/2, -z'
'-x, -y, -z'
'x, -y-1/2, z'
loop_
_atom_site_label
_atom_site_type_symbol
_atom_site_fract_x
_atom_site_fract_y
_atom_site_fract_z
_atom_site_U_iso_or_equiv
_atom_site_adp_type
_atom_site_occupancy
_atom_site_site_symmetry_order
_atom_site_calc_flag
_atom_site_refinement_flags_posn
_atom_site_refinement_flags_adp
_atom_site_refinement_flags_occupancy
_atom_site_disorder_assembly
_atom_site_disorder_group
N1 N 0.9279(3) 0.250000 0.2545(3) 0.0114(4) Uani 1 2 d S T P . .
C2 C 1.1440(3) 0.250000 0.3405(3) 0.0141(5) Uani 1 2 d S T P . .
H2 H 1.232088 0.250000 0.272577 0.017 Uiso 1 2 calc RS T P . .
N3 N 1.2120(3) 0.250000 0.5312(3) 0.0161(4) Uani 1 2 d S T P . .
N4 N 1.0388(3) 0.250000 0.5767(3) 0.0152(4) Uani 1 2 d S T P . .
C5 C 0.8685(4) 0.250000 0.4081(3) 0.0127(5) Uani 1 2 d S T P . .
C6 C 0.6478(4) 0.250000 0.3606(3) 0.0157(5) Uani 1 2 d S T P . .
H6 H 0.603275 0.250000 0.463602 0.019 Uiso 1 2 calc RS T P . .
N7 N 0.5041(3) 0.250000 0.1797(3) 0.0164(4) Uani 1 2 d S T P . .
C8 C 0.5689(4) 0.250000 0.0302(3) 0.0150(5) Uani 1 2 d S T P . .
H8 H 0.464098 0.250000 -0.101089 0.018 Uiso 1 2 calc RS T P . .
C9 C 0.7765(4) 0.250000 0.0635(3) 0.0131(5) Uani 1 2 d S T P . .
Cl10 Cl 0.86934(8) 0.250000 -0.11319(7) 0.0158(2) Uani 1 2 d S T P . .
loop_
_atom_site_aniso_label
_atom_site_aniso_U_11
_atom_site_aniso_U_22
_atom_site_aniso_U_33
_atom_site_aniso_U_23
_atom_site_aniso_U_13
_atom_site_aniso_U_12
N1 0.0135(9) 0.0126(9) 0.0082(8) 0.000 0.0046(7) 0.000
C2 0.0129(11) 0.0151(11) 0.0149(11) 0.000 0.0063(9) 0.000
N3 0.0136(9) 0.0176(10) 0.0162(10) 0.000 0.0054(8) 0.000
N4 0.0164(10) 0.0181(10) 0.0115(9) 0.000 0.0063(8) 0.000
C5 0.0143(11) 0.0136(11) 0.0125(10) 0.000 0.0078(9) 0.000
C6 0.0146(11) 0.0203(12) 0.0140(11) 0.000 0.0079(9) 0.000
N7 0.0142(9) 0.0200(10) 0.0153(9) 0.000 0.0065(8) 0.000
C8 0.0139(10) 0.0168(11) 0.0118(10) 0.000 0.0028(8) 0.000
C9 0.0154(11) 0.0143(11) 0.0095(10) 0.000 0.0051(8) 0.000
Cl10 0.0191(3) 0.0204(3) 0.0096(3) 0.000 0.0079(2) 0.000
loop_
_atom_type_symbol
_atom_type_description
_atom_type_scat_dispersion_real
_atom_type_scat_dispersion_imag
_atom_type_scat_source
C C 0.0181 0.0091 'International Tables Vol C Tables 4.2.6.8 and 6.1.1.4'
H H 0.0000 0.0000 'International Tables Vol C Tables 4.2.6.8 and 6.1.1.4'
N N 0.0311 0.0180 'International Tables Vol C Tables 4.2.6.8 and 6.1.1.4'
Cl Cl 0.3639 0.7018 'International Tables Vol C Tables 4.2.6.8 and 6.1.1.4'
loop_
_exptl_crystal_face_index_h
_exptl_crystal_face_index_k
_exptl_crystal_face_index_l
_exptl_crystal_face_perp_dist
0 1 0 0.0359
0 -1 0 0.0359
1 0 -1 0.0274
-1 0 1 0.0374
2 1 3 0.1124
0 0 -1 0.0948
-4 -1 2 0.0672
-3 -3 2 0.0377
loop_
_geom_angle_atom_site_label_1
_geom_angle_atom_site_label_2
_geom_angle_atom_site_label_3
_geom_angle
_geom_angle_site_symmetry_1
_geom_angle_site_symmetry_3
_geom_angle_publ_flag
C2 N1 C5 105.09(18) . . ?
C2 N1 C9 134.4(2) . . ?
C9 N1 C5 120.51(19) . . ?
N1 C2 H2 125.2 . . ?
N3 C2 N1 109.70(19) . . ?
N3 C2 H2 125.2 . . ?
C2 N3 N4 108.88(19) . . ?
C5 N4 N3 106.33(18) . . ?
N1 C5 C6 117.4(2) . . ?
N4 C5 N1 110.01(19) . . ?
N4 C5 C6 132.5(2) . . ?
C5 C6 H6 118.9 . . ?
N7 C6 C5 122.1(2) . . ?
N7 C6 H6 118.9 . . ?
C6 N7 C8 118.9(2) . . ?
N7 C8 H8 118.7 . . ?
C9 C8 N7 122.5(2) . . ?
C9 C8 H8 118.7 . . ?
N1 C9 Cl10 116.18(17) . . ?
C8 C9 N1 118.5(2) . . ?
C8 C9 Cl10 125.35(18) . . ?
loop_
_geom_bond_atom_site_label_1
_geom_bond_atom_site_label_2
_geom_bond_distance
_geom_bond_site_symmetry_2
_geom_bond_publ_flag
N1 C2 1.362(3) . ?
N1 C5 1.385(3) . ?
N1 C9 1.380(3) . ?
C2 H2 0.9500 . ?
C2 N3 1.311(3) . ?
N3 N4 1.385(3) . ?
N4 C5 1.322(3) . ?
C5 C6 1.420(3) . ?
C6 H6 0.9500 . ?
C6 N7 1.307(3) . ?
N7 C8 1.379(3) . ?
C8 H8 0.9500 . ?
C8 C9 1.357(3) . ?
C9 Cl10 1.708(2) . ?
loop_
_geom_torsion_atom_site_label_1
_geom_torsion_atom_site_label_2
_geom_torsion_atom_site_label_3
_geom_torsion_atom_site_label_4
_geom_torsion
_geom_torsion_site_symmetry_1
_geom_torsion_site_symmetry_2
_geom_torsion_site_symmetry_3
_geom_torsion_site_symmetry_4
_geom_torsion_publ_flag
N1 C2 N3 N4 0.000(1) . . . . ?
N1 C5 C6 N7 0.000(1) . . . . ?
C2 N1 C5 N4 0.000(1) . . . . ?
C2 N1 C5 C6 180.000(0) . . . . ?
C2 N1 C9 C8 180.000(0) . . . . ?
C2 N1 C9 Cl10 0.000(0) . . . . ?
C2 N3 N4 C5 0.000(1) . . . . ?
N3 N4 C5 N1 0.000(1) . . . . ?
N3 N4 C5 C6 180.000(1) . . . . ?
N4 C5 C6 N7 180.000(1) . . . . ?
C5 N1 C2 N3 0.000(1) . . . . ?
C5 N1 C9 C8 0.000(0) . . . . ?
C5 N1 C9 Cl10 180.000(0) . . . . ?
C5 C6 N7 C8 0.000(1) . . . . ?
C6 N7 C8 C9 0.000(0) . . . . ?
N7 C8 C9 N1 0.000(0) . . . . ?
N7 C8 C9 Cl10 180.000(0) . . . . ?
C9 N1 C2 N3 180.000(1) . . . . ?
C9 N1 C5 N4 180.000(1) . . . . ?
C9 N1 C5 C6 0.000(1) . . . . ?
loop_
_exptl_oxdiff_crystal_face_indexfrac_h
_exptl_oxdiff_crystal_face_indexfrac_k
_exptl_oxdiff_crystal_face_indexfrac_l
_exptl_oxdiff_crystal_face_x
_exptl_oxdiff_crystal_face_y
_exptl_oxdiff_crystal_face_z
-0.0000 0.9994 -0.0002 -0.2091 0.0902 0.0882
0.0000 -0.9994 0.0002 0.2091 -0.0902 -0.0882
0.9991 0.0006 -0.9994 0.0353 0.2123 -0.1328
-0.9991 -0.0006 0.9994 -0.0353 -0.2123 0.1328
2.0011 1.0003 2.9938 0.2756 0.4530 0.8668
-0.0006 0.0001 -0.9986 -0.0828 0.0123 -0.2088
-3.9974 -1.0016 2.0007 -0.0978 -0.9146 0.0254
-2.9977 -2.9999 2.0001 0.4386 -0.8950 -0.0750
