#------------------------------------------------------------------------------
#$Date: 2020-06-12 02:26:12 +0300 (Fri, 12 Jun 2020) $
#$Revision: 253109 $
#$URL: file:///home/coder/svn-repositories/cod/cif/4/03/84/4038485.cif $
#------------------------------------------------------------------------------
#
# This file is available in the Crystallography Open Database (COD),
# http://www.crystallography.net/
#
# All data on this site have been placed in the public domain by the
# contributors.
#
data_4038485
loop_
_publ_author_name
'Wang, Yu-Jiang'
'Li, Xiao-Xiao'
'Chen, Zili'
_publ_section_title
;
 Gold-Catalyzed Diastereoselective Formal Intermolecular [4 + 2 + 1]
 Cycloaddition of 1,3-Dien-8-yne with Diazo Ester.
;
_journal_name_full               'The Journal of organic chemistry'
_journal_paper_doi               10.1021/acs.joc.0c00146
_journal_year                    2020
_chemical_formula_moiety         'C17 H17 F O3'
_chemical_formula_sum            'C17 H17 F O3'
_chemical_formula_weight         288.30
_space_group_crystal_system      triclinic
_space_group_IT_number           2
_space_group_name_Hall           '-P 1'
_space_group_name_H-M_alt        'P -1'
_atom_sites_solution_hydrogens   geom
_atom_sites_solution_primary     dual
_audit_creation_date             2019-12-02
_audit_creation_method
;
Olex2 1.2
(compiled 2018.05.29 svn.r3508 for OlexSys, GUI svn.r5506)
;
_cell_angle_alpha                73.415(4)
_cell_angle_beta                 83.009(4)
_cell_angle_gamma                72.760(4)
_cell_formula_units_Z            2
_cell_length_a                   7.5228(8)
_cell_length_b                   8.6162(9)
_cell_length_c                   12.1657(12)
_cell_measurement_reflns_used    4757
_cell_measurement_temperature    170(2)
_cell_measurement_theta_max      27.514
_cell_measurement_theta_min      2.566
_cell_volume                     721.20(13)
_computing_cell_refinement       'SAINT V8.38A (?, 2016)'
_computing_data_reduction        'SAINT V8.38A (?, 2016)'
_computing_molecular_graphics    'Olex2 (Dolomanov et al., 2009)'
_computing_publication_material  'Olex2 (Dolomanov et al., 2009)'
_computing_structure_refinement  'ShelXL (Sheldrick, 2015)'
_computing_structure_solution    'XT (Sheldrick, 2015)'
_diffrn_ambient_temperature      170.0
_diffrn_measured_fraction_theta_full 0.988
_diffrn_measured_fraction_theta_max 0.989
_diffrn_measurement_device_type  'Bruker APEX-II CCD'
_diffrn_measurement_method       '\f and \w scans'
_diffrn_radiation_type           MoK\a
_diffrn_radiation_wavelength     0.71073
_diffrn_reflns_av_R_equivalents  0.0288
_diffrn_reflns_av_unetI/netI     0.0325
_diffrn_reflns_Laue_measured_fraction_full 0.988
_diffrn_reflns_Laue_measured_fraction_max 0.989
_diffrn_reflns_limit_h_max       9
_diffrn_reflns_limit_h_min       -9
_diffrn_reflns_limit_k_max       11
_diffrn_reflns_limit_k_min       -10
_diffrn_reflns_limit_l_max       15
_diffrn_reflns_limit_l_min       -14
_diffrn_reflns_number            9210
_diffrn_reflns_point_group_measured_fraction_full 0.988
_diffrn_reflns_point_group_measured_fraction_max 0.989
_diffrn_reflns_theta_full        25.242
_diffrn_reflns_theta_max         27.543
_diffrn_reflns_theta_min         2.565
_diffrn_standards_number         0
_exptl_absorpt_coefficient_mu    0.098
_exptl_absorpt_correction_T_max  0.7456
_exptl_absorpt_correction_T_min  0.6334
_exptl_absorpt_correction_type   multi-scan
_exptl_absorpt_process_details
'SADABS-2016/2 (Bruker,2016/2) was used for absorption correction. wR2(int) was 0.1117 before and 0.0422 after correction. The Ratio of minimum to maximum transmission is 0.8495. The \l/2 correction factor is Not present.'
_exptl_crystal_colour            'clear light colourless'
_exptl_crystal_colour_lustre     clear
_exptl_crystal_colour_modifier   light
_exptl_crystal_colour_primary    colourless
_exptl_crystal_density_diffrn    1.328
_exptl_crystal_description       block
_exptl_crystal_F_000             304
_exptl_crystal_size_max          0.17
_exptl_crystal_size_mid          0.16
_exptl_crystal_size_min          0.13
_refine_diff_density_max         0.251
_refine_diff_density_min         -0.200
_refine_diff_density_rms         0.041
_refine_ls_extinction_method     none
_refine_ls_goodness_of_fit_ref   1.076
_refine_ls_hydrogen_treatment    constr
_refine_ls_matrix_type           full
_refine_ls_number_parameters     191
_refine_ls_number_reflns         3297
_refine_ls_number_restraints     0
_refine_ls_restrained_S_all      1.076
_refine_ls_R_factor_all          0.0622
_refine_ls_R_factor_gt           0.0451
_refine_ls_shift/su_max          0.000
_refine_ls_shift/su_mean         0.000
_refine_ls_structure_factor_coef Fsqd
_refine_ls_weighting_details
'w=1/[\s^2^(Fo^2^)+(0.0332P)^2^+0.3104P] where P=(Fo^2^+2Fc^2^)/3'
_refine_ls_weighting_scheme      calc
_refine_ls_wR_factor_gt          0.0969
_refine_ls_wR_factor_ref         0.1055
_reflns_Friedel_coverage         0.000
_reflns_number_gt                2624
_reflns_number_total             3297
_reflns_threshold_expression     'I > 2\s(I)'
_cod_data_source_file            jo0c00146_si_002.cif
_cod_data_source_block           mo_wyj2019042301_0m_a
_cod_database_code               4038485
_shelx_shelxl_version_number     2018/1
_shelx_space_group_comment
;
The symmetry employed for this shelxl refinement is uniquely defined
by the following loop, which should always be used as a source of
symmetry information in preference to the above space-group names.
They are only intended as comments.
;
_shelx_estimated_absorpt_t_max   0.987
_shelx_estimated_absorpt_t_min   0.983
_olex2_refinement_description
;
1. Fixed Uiso
 At 1.2 times of:
  All C(H) groups, All C(H,H) groups
 At 1.5 times of:
  All C(H,H,H) groups
2.a Ternary CH refined with riding coordinates:
 C00E(H00E)
2.b Secondary CH2 refined with riding coordinates:
 C009(H00A,H00B), C00J(H00H,H00J), C00K(H00K,H00L)
2.c Aromatic/amide H refined with riding coordinates:
 C006(H006), C007(H007), C00A(H00C), C00D(H00D), C00F(H00F), C00G(H00G),
 C00I(H00I)
2.d Idealised Me refined as rotating group:
 C00L(H00M,H00N,H00O)
;
_shelx_res_file
;
TITL mo_WYJ2019042301_0m_a.res in P-1
    mo_wyj2019042301_0m_a.res
    created by SHELXL-2018/1 at 14:23:18 on 02-Dec-2019
REM Old TITL mo_WYJ2019042301_0m in P-1
REM SHELXT solution in P-1
REM R1 0.146, Rweak 0.006, Alpha 0.039, Orientation as input
REM Formula found by SHELXT: C17 F O3
CELL 0.71073 7.5228 8.6162 12.1657 73.415 83.009 72.76
ZERR 2 0.0008 0.0009 0.0012 0.004 0.004 0.004
LATT 1
SFAC C H F O
UNIT 34 34 2 6

L.S. 4
PLAN  20
SIZE 0.13 0.16 0.17
TEMP -103.15
BOND $H
LIST 6
fmap 2
ACTA
REM <olex2.extras>
REM <HklSrc "%.\\mo_WYJ2019042301_0m_a.hkl">
REM </olex2.extras>

WGHT    0.033200    0.310400
FVAR       1.56043
F001  3    1.147023    0.699383    0.266889    11.00000    0.04209    0.04337 =
         0.07208   -0.01808   -0.00012   -0.02381
O002  4    0.567822    0.294428    0.481607    11.00000    0.04448    0.03502 =
         0.02789   -0.01059    0.00933   -0.00986
O003  4    0.359886    0.232372    0.018898    11.00000    0.04686    0.03711 =
         0.03418   -0.01211   -0.00726   -0.01747
O004  4    0.723310    0.023624    0.505636    11.00000    0.04953    0.03585 =
         0.04060    0.00586    0.00261   -0.00213
C005  1    0.847080    0.355570    0.307484    11.00000    0.02171    0.02360 =
         0.02397   -0.00911    0.00230   -0.00248
C006  1    0.570514    0.289253    0.251645    11.00000    0.02301    0.02369 =
         0.02872   -0.00899    0.00266   -0.00476
AFIX  43
H006  2    0.474436    0.373300    0.276762    11.00000   -1.20000
AFIX   0
C007  1    0.817239    0.498925    0.216100    11.00000    0.02438    0.02789 =
         0.02643   -0.00661   -0.00124   -0.00452
AFIX  43
H007  2    0.727404    0.516902    0.161965    11.00000   -1.20000
AFIX   0
C008  1    0.681192    0.165035    0.445968    11.00000    0.02442    0.02971 =
         0.03049   -0.00572   -0.00189   -0.00764
C009  1    0.884198    0.064897    0.288568    11.00000    0.02576    0.02339 =
         0.04032   -0.01002   -0.00035   -0.00235
AFIX  23
H00A  2    0.989157    0.020611    0.340941    11.00000   -1.20000
H00B  2    0.820267   -0.024170    0.300311    11.00000   -1.20000
AFIX   0
C00A  1    0.980203    0.331289    0.385560    11.00000    0.02852    0.02943 =
         0.02923   -0.00652   -0.00270   -0.00440
AFIX  43
H00C  2    1.002099    0.233956    0.448763    11.00000   -1.20000
AFIX   0
C00B  1    0.746086    0.220656    0.319848    11.00000    0.02288    0.02286 =
         0.02667   -0.00767    0.00057   -0.00341
C00C  1    0.533050    0.247874    0.161887    11.00000    0.02902    0.02364 =
         0.02865   -0.00707    0.00200   -0.01036
C00D  1    0.959766    0.103918    0.166718    11.00000    0.02776    0.02751 =
         0.05013   -0.01869    0.01218   -0.00826
AFIX  43
H00D  2    1.085723    0.107357    0.152470    11.00000   -1.20000
AFIX   0
C00E  1    0.656719    0.130184    0.094007    11.00000    0.03861    0.02505 =
         0.02963   -0.01077    0.00380   -0.01180
AFIX  13
H00E  2    0.652044    0.012533    0.133790    11.00000   -1.20000
AFIX   0
C00F  1    0.856037    0.133621    0.078705    11.00000    0.04045    0.02781 =
         0.03733   -0.01519    0.01391   -0.01108
AFIX  43
H00F  2    0.909936    0.157976    0.003172    11.00000   -1.20000
AFIX   0
C00G  1    1.081194    0.446833    0.372509    11.00000    0.02528    0.04021 =
         0.03591   -0.01569   -0.00340   -0.00699
AFIX  43
H00G  2    1.172587    0.429444    0.425504    11.00000   -1.20000
AFIX   0
C00H  1    1.045607    0.586918    0.281032    11.00000    0.02694    0.03117 =
         0.04525   -0.01749    0.00660   -0.01181
C00I  1    0.916198    0.616887    0.202126    11.00000    0.03098    0.02579 =
         0.03648   -0.00450    0.00208   -0.00723
AFIX  43
H00I  2    0.894602    0.715262    0.139704    11.00000   -1.20000
AFIX   0
C00J  1    0.349043    0.323104    0.102414    11.00000    0.03600    0.03447 =
         0.03731   -0.01395   -0.00648   -0.01157
AFIX  23
H00H  2    0.243879    0.309657    0.158308    11.00000   -1.20000
H00J  2    0.331111    0.444542    0.064879    11.00000   -1.20000
AFIX   0
C00K  1    0.551085    0.189118   -0.016511    11.00000    0.05334    0.03304 =
         0.02950   -0.01109    0.00178   -0.01897
AFIX  23
H00K  2    0.584820    0.287988   -0.069455    11.00000   -1.20000
H00L  2    0.579281    0.097976   -0.055744    11.00000   -1.20000
AFIX   0
C00L  1    0.493995    0.254961    0.598500    11.00000    0.05079    0.05967 =
         0.02872   -0.01581    0.01292   -0.02353
AFIX 137
H00M  2    0.423979    0.172142    0.608132    11.00000   -1.50000
H00N  2    0.411134    0.357724    0.615402    11.00000   -1.50000
H00O  2    0.596827    0.208264    0.651204    11.00000   -1.50000
AFIX   0
HKLF 4




REM  mo_WYJ2019042301_0m_a.res in P-1
REM R1 =  0.0451 for    2624 Fo > 4sig(Fo)  and  0.0622 for all    3297 data
REM    191 parameters refined using      0 restraints

END

WGHT      0.0332      0.3104

REM Highest difference peak  0.251,  deepest hole -0.200,  1-sigma level  0.041
Q1    1   0.6057  0.1826  0.1323  11.00000  0.05    0.25
Q2    1   0.8015  0.1509  0.2957  11.00000  0.05    0.25
Q3    1   0.7948  0.2837  0.3148  11.00000  0.05    0.24
Q4    1   0.7074  0.1960  0.3741  11.00000  0.05    0.24
Q5    1   0.6708  0.2495  0.2831  11.00000  0.05    0.21
Q6    1   0.9141  0.3400  0.3428  11.00000  0.05    0.20
Q7    1   0.4416  0.2798  0.1394  11.00000  0.05    0.20
Q8    1   0.7620  0.1297  0.1011  11.00000  0.05    0.19
Q9    1   0.9489  0.6209  0.2666  11.00000  0.05    0.19
Q10   1   0.9105  0.1169  0.2247  11.00000  0.05    0.18
Q11   1   0.8620  0.4044  0.2517  11.00000  0.05    0.16
Q12   1   1.0989  0.4934  0.3028  11.00000  0.05    0.16
Q13   1   1.0058  0.4070  0.3808  11.00000  0.05    0.16
Q14   1   1.0518  0.3773  0.3627  11.00000  0.05    0.16
Q15   1   0.9223  0.5261  0.2028  11.00000  0.05    0.15
Q16   1   0.6051  0.1380  0.0404  11.00000  0.05    0.15
Q17   1   1.0216  0.5387  0.3449  11.00000  0.05    0.15
Q18   1   0.9226  0.0739  0.1247  11.00000  0.05    0.15
Q19   1   0.5681  0.1353  0.6282  11.00000  0.05    0.14
Q20   1   0.5070  0.3564  0.6254  11.00000  0.05    0.14
;
_shelx_res_checksum              83723
_shelx_hkl_file
;
  -2   0   0 1251.97   27.70
  -2   0   0 1183.38   26.60
  -2   0   0 1251.57   25.70
   2   0   0 1221.98   26.60
   2   0   0 1174.18   27.30
  -3   0   0   43.80    2.30
  -3   0   0   42.40    4.20
   3   0   0   34.40    2.70
   3   0   0   39.40    3.10
  -4   0   0  463.05   11.50
  -4   0   0  484.35   15.80
   4   0   0  499.05   13.70
   4   0   0  472.65   14.40
  -5   0   0  122.59    4.40
  -5   0   0  119.49    9.90
   5   0   0  121.19    6.60
   5   0   0  124.99    7.20
  -6   0   0   58.49    3.20
  -6   0   0   53.59    8.10
   6   0   0   56.39    4.90
   6   0   0   61.79    7.70
  -7   0   0   39.80    3.10
   7   0   0   46.20    6.00
  -8   0   0   12.70    2.20
   8   0   0   10.90    5.60
  -9   0   0   -0.60    2.90
   9   0   0   -0.90    4.60
   9  -1   0    9.30    5.70
  -9   1   0   19.30    3.40
   8  -1   0   11.40    3.80
  -8   1   0   20.40    2.60
  -7   1   0   36.40    3.40
   6  -1   0  341.47   13.20
  -6   1   0  311.87    9.60
   5  -1   0  694.83   19.80
   5  -1   0  702.93   21.00
  -5   1   0  761.92   23.60
  -5   1   0  717.43   17.60
   4  -1   0 1185.18   29.60
   4  -1   0 1200.88   28.20
  -4   1   0 1183.18   30.80
  -4   1   0 1189.38   26.80
  -4   1   0 1163.78   28.40
   3  -1   0   34.00    3.20
   3  -1   0   33.70    2.70
  -3   1   0   40.00    4.40
  -3   1   0   30.00    2.30
   2  -1   0 1517.75   33.80
   2  -1   0 1562.34   32.90
  -2   1   0 1467.95   32.90
  -2   1   0 1507.05   34.10
   0  -1   0   37.10    1.60
   0  -1   0   46.90    1.40
   0   1   0   42.40    1.30
   0   1   0   44.90    2.00
  -1  -1   0 1565.14   33.20
  -1  -1   0 1554.74   32.40
   1   1   0 1532.25   33.10
   1   1   0 1542.95   32.20
   1   1   0 1513.95   32.30
  -2  -1   0  169.98    4.20
  -2  -1   0  161.68    5.60
  -2  -1   0  152.48    5.40
   2   1   0  133.19    5.90
   2   1   0  166.68    3.90
  -3  -1   0 2760.12   56.99
  -3  -1   0 2858.11   60.79
   3   1   0 2656.53   59.59
  -4  -1   0  717.93   15.90
  -4  -1   0  694.73   20.40
   4   1   0  704.73   19.00
   4   1   0  701.63   18.30
  -5  -1   0   22.40    4.60
  -5  -1   0   26.90    2.80
   5   1   0   31.70    4.30
   5   1   0   31.70    3.30
  -6  -1   0  483.55   19.90
  -6  -1   0  454.25   11.80
   6   1   0  469.05   15.90
   6   1   0  491.65   16.20
  -7  -1   0  356.66    9.80
   7   1   0  356.96   13.80
  -8  -1   0  471.55   20.70
  -8  -1   0  466.35   12.50
   8   1   0  486.25   19.60
  -9  -1   0  139.39   11.70
   9   1   0  153.98   11.50
   8  -2   0   61.69    8.90
  -8   2   0   64.29    5.50
   7  -2   0    2.70    3.80
  -7   2   0    5.80    2.00
   6  -2   0    0.00    2.20
  -6   2   0    7.50    2.00
  -6   2   0    6.60    1.70
   5  -2   0   16.00    4.20
   5  -2   0   10.60    2.20
  -5   2   0   17.10    2.30
  -5   2   0   14.00    2.40
  -5   2   0   10.80    5.30
   4  -2   0  485.55   14.20
   4  -2   0  480.05   15.00
  -4   2   0  455.15   13.80
  -4   2   0  483.35   16.80
   3  -2   0   41.10    3.30
   3  -2   0   44.30    3.80
  -3   2   0   38.40    2.80
  -3   2   0   42.40    5.20
   2  -2   0  589.04   15.50
   2  -2   0  610.84   14.90
  -2   2   0  586.54   14.90
  -2   2   0  625.34   16.40
   1  -2   0 1748.82   36.30
   1  -2   0 1498.35   37.10
  -1   2   0 1719.53   36.20
  -1   2   0 1742.53   36.40
  -2  -2   0 2618.24   54.89
  -2  -2   0 2513.95   56.39
   2   2   0 2602.44   56.19
   2   2   0 2618.34   54.59
  -3  -2   0  324.27   10.20
  -3  -2   0  300.37   10.30
   3   2   0  314.77    9.40
   3   2   0  329.17    7.70
  -4  -2   0 1742.33   37.40
  -4  -2   0 1804.02   41.50
  -4  -2   0 1754.42   41.80
   4   2   0 1750.42   36.60
   4   2   0 1730.13   40.30
  -5  -2   0   78.59    3.90
  -5  -2   0   73.99    7.90
  -5  -2   0   83.59    5.70
   5   2   0   71.09    4.70
  -6  -2   0  180.58   12.90
  -6  -2   0  165.28    8.80
   6   2   0  165.98    8.20
   6   2   0  172.48    9.60
  -7  -2   0  123.39    8.20
  -7  -2   0  119.19   16.00
   7   2   0  119.99    8.00
  -8  -2   0  382.66   17.60
   8   2   0  383.16   16.20
  -9  -2   0   57.29    7.90
   9   2   0   82.69    9.70
   8  -3   0    1.50    5.30
  -8   3   0   -3.00    3.80
   7  -3   0   32.50    6.60
  -7   3   0   36.80    4.90
   6  -3   0  165.38   10.20
  -6   3   0  170.98    7.20
  -6   3   0  157.68    9.40
   5  -3   0  334.47   13.80
   5  -3   0  331.97   12.90
  -5   3   0  325.47   11.90
  -5   3   0  351.66   17.60
   4  -3   0  486.35   15.60
   4  -3   0  468.25   14.80
  -4   3   0  473.05   14.60
  -4   3   0  487.95   17.70
   3  -3   0   14.00    3.00
  -3   3   0   12.90    3.30
   2  -3   0   83.99    4.80
   2  -3   0   85.69    4.20
  -2   3   0   84.29    4.00
  -2   3   0   88.59    5.50
   1  -3   0   15.60    2.40
   1  -3   0   12.10    1.40
  -1   3   0   13.10    1.90
  -1   3   0   12.30    1.40
   0   3   0  654.83   16.30
   0   3   0  684.33   15.10
   0   3   0  671.33   18.20
  -1  -3   0  289.27    9.60
   1   3   0  288.27    8.60
  -2  -3   0  244.38    6.90
  -2  -3   0  226.58    8.70
   2   3   0  238.98    9.20
   2   3   0  243.68    6.70
  -3  -3   0  311.87   11.10
  -3  -3   0  315.27    9.90
   3   3   0  311.37    9.10
   3   3   0  322.17   11.40
   3   3   0  317.77    9.10
  -4  -3   0  827.42   23.60
  -4  -3   0  867.01   22.70
   4   3   0  851.21   19.00
   4   3   0  846.72   21.40
  -5  -3   0  315.27   12.60
  -5  -3   0  340.47   13.80
   5   3   0  330.47   11.20
   5   3   0  320.87    7.70
  -6  -3   0  211.38   13.50
  -6  -3   0  207.38   10.30
   6   3   0  220.28    9.30
  -7  -3   0  338.67   19.70
  -7  -3   0  307.97   13.40
   7   3   0  317.47   12.60
  -8  -3   0  113.89   10.90
   8   3   0  117.69    8.60
  -9  -3   0   51.89    7.80
   9   3   0   46.00    6.30
   7  -4   0   17.10    5.30
  -7   4   0   20.20    7.10
  -7   4   0   21.50    4.60
   6  -4   0    1.20    3.20
  -6   4   0    4.80    4.50
  -6   4   0   -3.80    2.30
   5  -4   0   -3.90    2.40
  -5   4   0   -3.30    2.30
  -5   4   0    1.80    7.70
   4  -4   0  349.67   13.60
   4  -4   0  366.36   13.20
  -4   4   0  364.16   16.30
  -4   4   0  363.26   12.40
   3  -4   0 1032.00   26.90
   3  -4   0 1049.59   26.60
  -3   4   0 1052.99   26.40
  -3   4   0 1068.69   28.30
   2  -4   0  782.12   20.30
   2  -4   0  738.93   19.50
  -2   4   0  760.72   20.50
  -2   4   0  762.32   21.50
   1  -4   0 3199.78   71.09
   1  -4   0 3555.04   72.69
  -1   4   0 3281.07   71.79
  -1   4   0 3389.36   71.49
   0  -4   0  289.27    9.50
   0   4   0  260.07    7.40
   0   4   0  267.37    8.60
  -1  -4   0  797.12   21.60
   1   4   0  784.72   20.10
   1   4   0  816.72   22.30
  -2  -4   0  220.88    9.20
   2   4   0  230.98    8.20
   2   4   0  227.58    6.20
  -3  -4   0  157.98    6.20
  -3  -4   0  154.28    7.60
   3   4   0  146.09    5.30
   3   4   0  159.68    9.10
   3   4   0  153.78    7.20
  -4  -4   0   39.40    4.30
  -4  -4   0   39.60    5.00
   4   4   0   43.90    4.00
   4   4   0   40.90    5.80
   4   4   0   35.90    2.80
  -5  -4   0    0.80    3.40
  -5  -4   0   -1.30    2.40
   5   4   0    3.50    1.30
   5   4   0    1.20    1.50
  -6  -4   0  167.98    9.60
  -6  -4   0  178.58   12.30
   6   4   0  176.18    8.00
  -7  -4   0   25.70    8.20
  -7  -4   0    6.50    3.70
   7   4   0   17.00    2.80
  -8  -4   0  117.09   13.10
   8   4   0  103.29    8.20
  -9  -4   0    6.60    5.70
   9   4   0    3.20    4.90
   7  -5   0   -2.20    4.80
  -7   5   0   -8.30    4.50
  -7   5   0   -5.00    5.40
   6  -5   0    3.00    4.40
  -6   5   0   12.10    3.90
  -6   5   0    4.90    4.00
   5  -5   0  468.55   17.30
  -5   5   0  515.75   17.60
   4  -5   0  180.58    8.70
  -4   5   0  193.68    8.30
  -4   5   0  191.88   14.60
   3  -5   0  240.28   11.70
   3  -5   0  230.78    9.40
  -3   5   0  230.78   12.30
  -3   5   0  235.68    9.20
   2  -5   0   24.70    4.70
   2  -5   0   26.70    2.90
  -2   5   0   26.80    2.90
  -2   5   0   34.60    4.80
   1  -5   0   22.70    4.30
  -1   5   0   23.10    2.50
  -1   5   0   21.30    3.10
   0  -5   0  318.07   11.50
   0   5   0  314.57   10.20
   0   5   0  318.47    8.90
   0   5   0  297.97   13.30
   1   5   0  169.48   10.30
   1   5   0  170.98    7.10
  -2  -5   0  166.78    8.30
   2   5   0  158.88    7.00
   2   5   0  174.68   10.70
  -3  -5   0  176.08    9.00
   3   5   0  175.78    5.70
   3   5   0  172.08   10.80
  -4  -5   0  154.58    7.60
  -4  -5   0  143.69    8.50
   4   5   0  142.89   10.90
   4   5   0  151.78    8.20
   4   5   0  148.29    5.50
  -5  -5   0   75.49    6.60
   5   5   0   74.09    4.20
   5   5   0   69.99   10.00
  -6  -5   0  327.07   15.40
  -6  -5   0  297.97   14.60
   6   5   0  310.17   11.00
   6   5   0  305.57    8.70
  -7  -5   0  321.67   16.30
  -7  -5   0  322.87   18.60
   7   5   0  297.17   11.70
  -8  -5   0  -11.40    6.00
   8   5   0    2.00    2.70
  -9  -5   0    7.70    6.40
   9   5   0    8.00    5.30
   6  -6   0  134.99   11.00
  -6   6   0  134.99   10.20
  -6   6   0  152.98   10.60
  -5   6   0    6.60    3.60
   4  -6   0   56.09    5.50
  -4   6   0   56.19   10.30
  -4   6   0   54.89    6.00
  -3   6   0  261.97   14.90
  -3   6   0  258.37    9.80
   2  -6   0  431.06   16.90
  -2   6   0  425.06   15.60
  -2   6   0  442.16   14.00
   1  -6   0   15.90    4.90
  -1   6   0   14.60    2.40
  -1   6   0   15.30    3.70
  -1   6   0    8.70    6.30
   0  -6   0   24.60    5.00
   0   6   0   19.00    6.30
   0   6   0   25.20    2.90
   0   6   0   27.30    3.70
   1   6   0   26.90    3.00
   1   6   0   26.50    5.90
  -2  -6   0  322.07   13.20
   2   6   0  336.17   11.70
   2   6   0  331.17   15.80
  -3  -6   0  550.64   19.10
   3   6   0  540.95   16.90
   3   6   0  549.45   20.70
  -4  -6   0    6.00    2.80
   4   6   0    7.90    1.40
   4   6   0   15.00    5.10
   4   6   0    8.10    6.60
  -5  -6   0  316.17   14.20
   5   6   0  302.07    9.60
   5   6   0  316.57   12.70
  -6  -6   0   81.69   10.80
  -6  -6   0   75.39    8.00
   6   6   0   78.69    4.90
   6   6   0   76.89    6.40
  -7  -6   0   22.30    5.20
  -7  -6   0   34.90    9.20
   7   6   0   38.80    4.50
  -8  -6   0   57.99    9.20
   8   6   0   67.89    6.90
  -9  -6   0   12.90    7.20
   9   6   0   10.20    5.30
  -5   7   0    8.60    4.10
  -4   7   0    3.00    3.60
  -3   7   0   28.20    4.40
  -3   7   0   24.10    8.60
  -2   7   0   26.60    3.80
  -2   7   0   38.70    6.90
   1  -7   0  172.28   13.60
  -1   7   0  193.18    8.70
  -1   7   0  168.38    9.60
   0  -7   0   38.90    7.10
   0   7   0   39.40    4.70
   0   7   0   43.30    3.90
   0   7   0   19.00    8.40
   1   7   0   13.00    8.10
   2   7   0   14.50    2.60
   2   7   0   13.20   12.60
  -3  -7   0   10.60    3.50
   3   7   0   11.50    2.30
  -4  -7   0   71.09    8.00
   4   7   0   51.09    5.00
   4   7   0   74.69    9.20
  -5  -7   0   28.10    5.80
   5   7   0   36.00    2.90
   5   7   0   34.30    7.20
  -6  -7   0   74.39   10.00
   6   7   0   76.29    9.60
   6   7   0   71.99    4.50
  -7  -7   0    5.40    8.20
  -7  -7   0   -0.50    6.40
   7   7   0    3.30    4.20
   7   7   0    7.80    2.50
  -8  -7   0    4.20    6.40
   8   7   0   11.80    3.40
  -4   8   0   -1.20    4.30
  -3   8   0   45.90    6.60
  -2   8   0   32.00    8.60
  -2   8   0   31.40    5.10
   0   8   0    9.00    2.70
   0   8   0   10.70    3.50
   1   8   0   52.99    4.40
   2   8   0  305.47   11.70
   3   8   0   13.80    2.50
  -4  -8   0   21.30    5.20
   4   8   0   22.20    4.00
   4   8   0   27.20    9.80
  -5  -8   0   38.90    6.90
   5   8   0   58.69   10.50
   5   8   0   46.20    6.60
  -6  -8   0   22.20    7.00
   6   8   0   25.20    2.60
   6   8   0   19.90    8.60
   6   8   0   18.60    4.60
  -7  -8   0    8.10    6.40
   7   8   0   30.80    4.50
  -8  -8   0   -3.50    7.10
   8   8   0   -4.50    3.50
  -2   9   0    9.40    3.70
  -1   9   0    1.20    3.30
   0   9   0    8.40    4.20
   1   9   0   13.70    4.10
   2   9   0   13.30    3.50
   3   9   0   10.40    3.90
   4   9   0   34.30    5.60
  -5  -9   0   33.40    6.30
   5   9   0   42.40    6.30
   5   9   0   51.59   14.00
  -6  -9   0    1.00    6.10
   6   9   0    1.10    4.00
  -7  -9   0   18.90    7.70
   7   9   0   27.90    5.80
   0  10   0   10.50    4.00
   1  10   0    9.70    3.60
   2  10   0   66.29    7.60
   3  10   0   22.00    4.90
   4  10   0   63.49    8.30
   5  10   0  217.18   11.80
   5  10  -1  200.78   12.20
   4  10  -1    0.70    4.20
   3  10  -1   56.69    7.40
   2  10  -1   37.00    5.10
   1  10  -1   27.20    4.10
   0  10  -1   22.70    5.00
  -7  -9   1   -6.30    8.30
   6   9  -1  118.59    9.90
  -6  -9   1  106.99   12.00
   5   9  -1   49.99    6.90
  -5  -9   1   37.20    7.10
   4   9  -1  147.29   10.90
   3   9  -1  122.79   10.20
   2   9  -1    4.90    3.60
   1   9  -1   -1.00    3.80
   0   9  -1   76.89    8.00
  -1   9  -1   44.30    5.90
  -2   9  -1    8.70    3.80
  -7  -8   1   92.79   12.40
   6   8  -1   13.00    5.00
   6   8  -1   19.70    9.30
  -6  -8   1   -0.10    5.70
   5   8  -1    2.50    9.40
   5   8  -1    8.30    4.40
  -5  -8   1   -0.60    6.40
   4   8  -1   87.49   12.50
  -4  -8   1   62.19    9.60
   3   8  -1   13.20   10.20
   2   8  -1   31.30    4.90
   1   8  -1  411.36   15.20
  -1   8  -1    3.00    3.10
  -1   8  -1   -1.20    5.40
  -2   8  -1   13.20    8.30
  -2   8  -1   23.70    4.70
  -3   8  -1    1.80    3.40
  -4   8  -1   11.80    4.70
   8   7  -1   28.60    4.00
  -8  -7   1   18.10    6.50
   7   7  -1   95.19   10.10
   7   7  -1   92.29    6.00
  -7  -7   1   79.29   11.90
  -7  -7   1  107.79   14.80
   6   7  -1    4.50    1.90
   6   7  -1    3.10    5.90
  -6  -7   1    4.80    5.80
   5   7  -1   10.80    3.20
   5   7  -1   18.90    7.00
  -5  -7   1   11.00    5.70
   4   7  -1   34.80    4.40
   4   7  -1   41.60    8.50
  -4  -7   1   25.70    3.80
   3   7  -1  102.39    6.40
   3   7  -1   92.79   12.90
  -3  -7   1   98.49    8.10
   2   7  -1  643.74   26.30
   2   7  -1  694.43   20.70
   1   7  -1  308.37   11.60
   1   7  -1  301.57   18.80
   0   7  -1   14.80    2.90
   0   7  -1   13.80    8.50
   0  -7   1   20.40    7.30
  -1   7  -1   79.89    8.30
  -1   7  -1   79.69    4.90
  -2   7  -1  457.05   15.90
  -2   7  -1  455.65   18.30
  -3   7  -1    5.90    4.20
  -3   7  -1    7.00    8.50
  -4   7  -1    0.30    3.90
  -5   7  -1    0.30    4.30
   9   6  -1    3.40    5.30
  -9  -6   1   -6.50    7.70
   8   6  -1   25.90    4.70
  -8  -6   1   15.70   11.80
  -8  -6   1   24.20    6.80
   7   6  -1    0.80    3.40
   7   6  -1    1.00    2.40
  -7  -6   1    7.20    8.50
  -7  -6   1    3.50    7.20
   6   6  -1   48.20    7.10
   6   6  -1   53.69    4.10
  -6  -6   1   48.60    7.40
  -6  -6   1   62.89    8.90
   5   6  -1   70.39    8.70
   5   6  -1   69.29    3.90
  -5  -6   1   86.29    8.30
  -5  -6   1   63.99    7.40
   4   6  -1  357.86   14.90
   4   6  -1  352.76    9.30
   4   6  -1  318.87   17.40
   4   6  -1  332.37   12.80
  -4  -6   1  348.07   14.80
   3   6  -1  342.17   15.40
   3   6  -1  324.77   12.20
   3   6  -1  334.67   16.80
  -3  -6   1  327.57   13.80
   2   6  -1  474.05   19.60
   2   6  -1  490.45   15.60
  -2  -6   1  481.95   17.20
   1   6  -1  147.59   12.20
   1   6  -1  158.08    7.40
   0   6  -1  115.09    5.30
   0   6  -1  119.79   11.60
   0   6  -1  117.39    6.10
   0  -6   1   98.19    8.90
  -1   6  -1  261.47   10.30
  -1   6  -1  259.47    9.90
  -1   6  -1  269.97   16.00
   1  -6   1  277.87   13.50
  -2   6  -1    4.70    4.80
  -2   6  -1    3.90    1.80
   2  -6   1    3.00    5.90
   2  -6   1    1.70    1.60
  -3   6  -1  431.86   15.10
  -3   6  -1  469.05   19.30
   3  -6   1  459.05   14.80
  -4   6  -1   37.60   10.70
  -4   6  -1   46.00    6.80
   4  -6   1   38.30    5.10
  -5   6  -1   45.40    5.90
   5  -6   1   40.20    6.90
  -6   6  -1   42.60    5.60
   6  -6   1   41.40    6.00
   9   5  -1   -6.20    5.20
  -9  -5   1    1.10    6.80
   8   5  -1   -0.60    2.90
  -8  -5   1    1.70    6.20
   7   5  -1  268.17   10.60
   7   5  -1  248.18    7.60
  -7  -5   1  250.37   17.10
   6   5  -1  126.09    6.40
   6   5  -1  133.19    6.50
  -6  -5   1  136.19   13.40
  -6  -5   1  124.49    9.00
   5   5  -1  310.87   10.00
   5   5  -1  312.87   11.20
   5   5  -1  323.77   16.20
  -5  -5   1  311.37   13.90
  -5  -5   1  310.87   12.60
   4   5  -1   -0.80    4.90
   4   5  -1    0.40    3.40
   4   5  -1   -0.40    0.90
  -4  -5   1   -0.30    2.40
  -4  -5   1   -1.20    2.10
   3   5  -1   21.90    2.90
   3   5  -1   33.00    5.30
   3   5  -1   26.70    5.90
  -3  -5   1   30.60    4.30
   2   5  -1  862.71   23.10
   2   5  -1  880.61   26.00
  -2  -5   1  863.31   24.90
   1   5  -1  965.80   27.70
   0   5  -1   15.10    2.20
   0   5  -1   15.70    2.20
   0   5  -1   14.00    5.10
   0  -5   1   11.30    3.40
  -1   5  -1    0.80    4.90
  -1   5  -1    0.80    1.00
   1  -5   1    2.40    3.40
   1  -5   1   -0.30    1.00
  -2   5  -1  242.78    9.20
  -2   5  -1  255.37   11.30
   2  -5   1  267.07   11.80
   2  -5   1  241.48    8.70
  -3   5  -1  511.15   15.60
  -3   5  -1  514.15   18.60
   3  -5   1  497.75   17.40
   3  -5   1  477.35   15.20
  -4   5  -1   -3.40    2.30
  -4   5  -1    0.30    6.90
   4  -5   1    2.10    2.10
  -5   5  -1   92.09    8.20
   5  -5   1   62.19    6.30
  -6   5  -1  353.26   15.10
   6  -5   1  350.76   16.50
   9   4  -1   10.50    5.60
  -9  -4   1   18.70    5.90
   8   4  -1   -2.00    3.00
  -8  -4   1    5.70    6.10
   7   4  -1   24.10    2.90
   7   4  -1   22.30    3.50
  -7  -4   1   27.30    8.40
  -7  -4   1   11.10    5.00
   6   4  -1   87.19    4.30
   6   4  -1   83.99    5.40
  -6  -4   1   93.29    7.00
  -6  -4   1   86.09   10.60
   5   4  -1   73.39    4.20
   5   4  -1   79.79    4.70
  -5  -4   1   81.49    8.00
  -5  -4   1   66.79    6.20
   4   4  -1  622.64   16.20
   4   4  -1  639.94   20.50
   4   4  -1  637.24   17.30
  -4  -4   1  656.13   20.60
  -4  -4   1  628.94   17.50
   3   4  -1  224.28    9.20
   3   4  -1  214.88    6.60
   3   4  -1  224.28   10.80
  -3  -4   1  203.28    9.40
  -3  -4   1  220.68    7.30
   2   4  -1 1756.52   41.40
   2   4  -1 1677.33   40.20
   2   4  -1 1682.43   39.30
  -2  -4   1 1665.93   41.00
   1   4  -1  202.58    7.40
  -1  -4   1  182.38    8.00
   0   4  -1   48.10    6.10
   0   4  -1   48.20    2.90
   0   4  -1   42.20    3.00
   0  -4   1   49.00    4.70
  -1   4  -1   68.39    3.90
  -1   4  -1   75.19    4.70
   1  -4   1   73.59    5.70
   1  -4   1   68.69    3.40
  -2   4  -1   76.89    4.30
  -2   4  -1   75.09    6.30
   2  -4   1   77.29    4.20
   2  -4   1   81.49    6.30
  -3   4  -1  193.48   10.70
  -3   4  -1  178.58    7.50
   3  -4   1  177.88    7.70
   3  -4   1  191.28    9.30
  -4   4  -1  455.25   14.90
  -4   4  -1  477.95   19.10
   4  -4   1  468.35   21.10
   4  -4   1  454.25   15.30
  -5   4  -1  497.75   17.20
  -5   4  -1  530.25   24.10
   5  -4   1  531.05   18.00
  -6   4  -1   -0.60    4.00
   6  -4   1    2.90    3.80
  -7   4  -1   12.00    4.30
   7  -4   1    2.40    4.80
   9   3  -1   12.70    4.90
  -9  -3   1   26.30    6.20
   8   3  -1   17.90    4.40
  -8  -3   1   10.90    6.40
   7   3  -1   27.30    4.30
  -7  -3   1   30.00    9.00
  -7  -3   1   31.70    5.10
   6   3  -1  516.15   16.30
   6   3  -1  523.45   12.40
  -6  -3   1  512.05   18.40
  -6  -3   1  520.65   19.40
   5   3  -1 1448.85   31.70
   5   3  -1 1471.75   35.10
  -5  -3   1 1494.85   36.80
  -5  -3   1 1444.86   38.10
   4   3  -1  624.24   15.30
   4   3  -1  611.24   16.30
  -4  -3   1  610.44   19.00
  -4  -3   1  647.34   17.80
   3   3  -1   79.19    9.10
   3   3  -1   87.39    3.60
   3   3  -1   89.39    4.80
  -3  -3   1   88.59    4.70
  -3  -3   1   81.99    5.20
   2   3  -1  792.72   20.10
   2   3  -1  813.22   21.30
   2   3  -1  786.52   17.30
  -2  -3   1  792.52   21.20
  -2  -3   1  772.22   17.70
   1   3  -1 5205.48  109.39
   1   3  -1 5102.19  107.79
  -1  -3   1 5113.69  109.09
   0   3  -1 1775.62   39.90
   0   3  -1 1705.83   38.20
   0   3  -1 1692.13   36.50
   0  -3   1 1702.03   36.50
   0  -3   1 1758.02   38.60
  -1   3  -1  101.39    4.80
  -1   3  -1   94.49    4.20
   1  -3   1   99.29    3.80
   1  -3   1  100.49    5.10
  -2   3  -1    0.70    0.90
  -2   3  -1   -0.10    2.10
   2  -3   1    2.00    0.90
   2  -3   1    2.60    2.00
  -3   3  -1    7.90    1.70
  -3   3  -1    4.40    3.30
   3  -3   1    5.90    1.40
   3  -3   1    5.30    2.50
  -4   3  -1  355.36   15.20
  -4   3  -1  327.57   11.40
   4  -3   1  332.17   12.10
   4  -3   1  334.37   12.30
  -5   3  -1   16.70    7.70
  -5   3  -1   12.10    2.60
   5  -3   1   10.60    2.30
  -6   3  -1    1.70    2.00
  -6   3  -1    1.30    3.80
   6  -3   1   -4.00    3.10
  -7   3  -1   71.79    8.10
  -7   3  -1   88.59    6.10
   7  -3   1   97.29   10.60
  -8   3  -1    7.50    3.80
   8  -3   1   -0.90    5.40
   9   2  -1   25.30    5.60
  -9  -2   1   16.50    5.70
   8   2  -1   -1.20    3.00
  -8  -2   1   11.30    5.80
   7   2  -1   60.99    5.90
  -7  -2   1   50.29   10.20
  -7  -2   1   50.49    5.50
  -7  -2   1   47.00    3.50
   6   2  -1   -0.50    1.50
   6   2  -1    1.50    3.80
  -6  -2   1    4.50    5.40
  -6  -2   1   -1.20    2.20
  -6  -2   1    0.40    1.40
   5   2  -1  593.14   17.30
   5   2  -1  596.14   13.90
  -5  -2   1  623.34   19.40
  -5  -2   1  600.94   14.90
  -5  -2   1  566.74   18.50
   4   2  -1    2.10    1.00
   4   2  -1    1.10    1.00
  -4  -2   1    0.90    1.20
  -4  -2   1    1.90    2.40
   3   2  -1  636.64   16.00
   3   2  -1  652.73   15.20
  -3  -2   1  631.64   16.60
  -3  -2   1  640.94   17.90
  -3  -2   1  662.03   16.00
   2   2  -1   31.40    3.40
   2   2  -1   30.90    3.50
  -2  -2   1   28.10    2.50
  -2  -2   1   31.40    3.00
  -2  -2   1   28.90    2.20
   1   2  -1 2468.95   53.99
   1   2  -1 2543.45   54.39
  -1  -2   1 2499.35   54.29
   0   2  -1  301.37    9.00
   0   2  -1  295.37    8.10
   0   2  -1  294.57    7.20
   0  -2   1  289.27    6.90
   0  -2   1  299.77    8.30
  -1   2  -1 1050.99   24.00
  -1   2  -1 1065.69   24.40
   1  -2   1 1095.89   24.20
   1  -2   1 1058.39   23.90
  -2   2  -1 1476.65   34.30
  -2   2  -1 1630.84   38.20
   2  -2   1 1503.05   34.90
   2  -2   1 1581.04   34.40
  -3   2  -1 1167.78   27.90
  -3   2  -1 1111.49   34.80
   3  -2   1 1198.98   28.80
   3  -2   1 1235.58   27.90
  -4   2  -1   57.69    3.80
   4  -2   1   56.79    5.40
   4  -2   1   56.99    4.30
  -5   2  -1  627.34   18.30
  -5   2  -1  683.23   26.20
   5  -2   1  623.34   18.50
   5  -2   1  600.64   19.20
  -6   2  -1   -0.10    1.50
  -6   2  -1    1.00    2.10
   6  -2   1    1.90    2.20
  -7   2  -1   26.10    3.00
   7  -2   1   29.70    5.70
  -8   2  -1    5.10    2.70
   8  -2   1    4.00    4.40
   9   1  -1   -5.20    4.40
  -9  -1   1    2.90    5.10
  -9  -1   1    5.10    3.60
   8   1  -1   -2.20    4.30
  -8  -1   1   -0.90    2.20
  -8  -1   1   -2.80    5.00
   7   1  -1   29.20    3.90
  -7  -1   1   21.30    3.00
   6   1  -1   45.00    4.30
   6   1  -1   51.09    7.20
  -6  -1   1   53.49    3.10
  -6  -1   1   40.20    7.10
   5   1  -1  339.57   12.00
   5   1  -1  345.67   12.10
  -5  -1   1  363.06   14.20
  -5  -1   1  328.17    9.30
   4   1  -1 1476.65   34.60
   4   1  -1 1443.56   31.40
   4   1  -1 1485.45   34.00
  -4  -1   1 1500.95   35.50
  -4  -1   1 1407.56   31.90
   3   1  -1   65.29    3.50
   3   1  -1   75.89    2.80
  -3  -1   1   67.29    4.30
  -3  -1   1   68.19    3.20
  -2  -1   1 3559.34   75.09
  -2  -1   1 3513.15   73.99
   1   1  -1 3369.76   67.89
  -1  -1   1 3157.48   67.89
  -1   1  -1 1879.11   39.70
   1  -1   1 1810.02   39.40
   1  -1   1 1842.92   39.00
  -2   1  -1  296.67    8.30
  -2   1  -1  311.27    9.60
   2  -1   1  310.87    8.40
   2  -1   1  290.87    9.00
  -3   1  -1  428.16   13.50
  -3   1  -1  398.76   11.40
   3  -1   1  426.26   11.50
   3  -1   1  398.26   12.30
  -4   1  -1  770.02   22.50
  -4   1  -1  736.33   19.60
   4  -1   1  767.82   19.50
   4  -1   1  766.12   21.00
  -5   1  -1   67.29   10.00
  -5   1  -1   55.39    4.10
  -5   1  -1   51.79    3.00
   5  -1   1   61.79    6.10
   5  -1   1   50.79    4.40
  -6   1  -1   19.20    8.00
  -6   1  -1   29.40    2.80
   6  -1   1   34.10    4.50
  -7   1  -1   -0.30    1.60
   7  -1   1   -2.70    4.80
  -8   1  -1   -0.40    2.20
   8  -1   1   -0.80    3.40
  -9   1  -1   76.89    6.10
   9  -1   1   79.89   11.20
   9   0  -1   -0.70    4.70
  -9   0   1   -1.70    3.20
   8   0  -1    1.40    4.50
  -8   0   1   -2.20    2.20
   7   0  -1  206.18   11.30
  -7   0   1  209.88    7.30
   6   0  -1  252.97   11.80
   6   0  -1  268.17   11.20
  -6   0   1  257.87    8.10
  -6   0   1  262.67   15.20
   5   0  -1   10.60    2.20
   5   0  -1    7.90    2.90
  -5   0   1   10.60    4.50
  -5   0   1   12.60    1.70
   4   0  -1  436.86   12.90
   4   0  -1  440.86   13.60
  -4   0   1  430.66   11.10
  -4   0   1  457.35   14.70
   3   0  -1    5.00    1.10
  -3   0   1    5.00    1.80
  -3   0   1    6.60    0.90
   2   0  -1   76.49    3.20
   2   0  -1   65.39    2.50
  -2   0   1   65.19    2.60
  -2   0   1   61.09    3.30
  -1   0  -1  897.21   20.50
  -1   0  -1  913.21   19.60
   1   0   1  911.11   19.50
   1   0   1  945.91   20.60
  -2   0  -1   32.70    1.80
  -2   0  -1   31.00    3.00
   2   0   1   31.10    2.20
  -3   0  -1  282.07    8.50
  -3   0  -1  309.77   10.60
   3   0   1  278.07    9.40
  -4   0  -1 1928.81   41.40
  -4   0  -1 2015.90   46.60
   4   0   1 1856.61   45.00
   4   0   1 1992.00   43.60
  -5   0  -1  297.77   14.20
  -5   0  -1  306.17    8.20
   5   0   1  305.97   11.60
   5   0   1  308.67   11.10
  -6   0  -1    3.10    1.10
  -6   0  -1   -2.60    5.90
   6   0   1    4.50    1.80
   6   0   1    6.40    3.90
  -7   0  -1   62.09    3.40
   7   0   1   55.29    6.80
  -8   0  -1    8.70    2.00
   8   0   1    3.90    4.30
   9   0   1   18.60    5.40
   9  -1  -1   80.09   10.90
  -9   1   1   81.59    6.70
   8  -1  -1    7.20    4.10
  -8   1   1    3.60    2.50
  -7   1   1   35.20    3.60
   6  -1  -1   39.30    4.60
   6  -1  -1   39.80    6.20
  -6   1   1   33.90    3.00
   5  -1  -1   29.30    4.50
   5  -1  -1   26.20    3.50
  -5   1   1   21.10    2.20
  -5   1   1   26.10    5.60
   4  -1  -1  752.52   19.10
   4  -1  -1  705.33   20.10
  -4   1   1  731.63   21.10
  -4   1   1  735.03   17.70
   3  -1  -1 1668.93   36.50
   3  -1  -1 1613.74   37.80
  -3   1   1 1563.54   36.50
  -3   1   1 1649.83   35.70
  -3   1   1 1698.03   38.10
   2  -1  -1   20.20    1.80
   2  -1  -1   22.40    2.00
  -2   1   1   22.00    1.40
  -2   1   1   18.30    1.60
  -2   1   1   17.30    2.30
  -1   1   1 2955.40   61.79
  -1  -1  -1  285.77    7.40
  -1  -1  -1  288.07    7.50
   1   1   1  286.27    7.30
   1   1   1  278.57    7.50
   1   1   1  293.27    6.20
  -3  -1  -1  113.79    6.20
   3   1   1  111.19    5.10
   3   1   1  127.69    5.00
  -4  -1  -1  166.68    4.50
  -4  -1  -1  175.48    9.00
   4   1   1  171.28    7.30
   4   1   1  161.68    6.80
  -5  -1  -1  152.38    4.70
  -5  -1  -1  162.78   10.90
   5   1   1  149.88    7.40
   5   1   1  161.28    7.80
  -6  -1  -1    1.50    5.60
   6   1   1    2.10    3.80
   6   1   1    5.10    1.80
  -7  -1  -1   32.90    2.40
   8   1   1   14.90    5.60
  -9  -1  -1    3.80    4.90
   9   1   1   -1.30    4.00
   8  -2  -1   21.90    5.10
  -8   2   1   20.90    3.40
   7  -2  -1    5.40    4.20
  -7   2   1    8.50    2.20
   6  -2  -1    0.10    2.10
  -6   2   1   -0.80    1.50
   5  -2  -1 1543.55   39.10
   5  -2  -1 1599.64   37.30
  -5   2   1 1493.65   37.30
  -5   2   1 1508.25   35.50
  -5   2   1 1597.54   41.10
   4  -2  -1  659.83   17.50
   4  -2  -1  621.74   18.60
  -4   2   1  623.64   16.40
  -4   2   1  636.84   19.70
  -4   2   1  653.63   17.60
   3  -2  -1 1238.98   30.30
   3  -2  -1 1269.97   28.90
  -3   2   1 1231.68   29.10
  -3   2   1 1305.67   30.80
  -3   2   1 1217.48   28.50
   2  -2  -1  170.08    6.40
   2  -2  -1  187.38    6.00
  -2   2   1  174.78    5.80
  -2   2   1  169.48    6.60
   1  -2  -1 3982.50   78.09
   1  -2  -1 3590.84   78.59
  -1   2   1 3752.82   77.99
  -1   2   1 3707.13   78.59
  -1  -2  -1   53.09    3.40
   1   2   1   54.89    2.70
   1   2   1   50.89    3.30
  -2  -2  -1 2259.37   48.40
  -2  -2  -1 2242.98   49.00
   2   2   1 2249.87   48.80
   2   2   1 2213.08   48.40
  -3  -2  -1    4.10    1.10
  -3  -2  -1    6.20    2.00
   3   2   1    6.40    1.30
  -4  -2  -1   28.80    3.00
  -4  -2  -1   22.10    4.00
   4   2   1   28.10    2.70
  -5  -2  -1  113.09    6.60
  -5  -2  -1  126.09    9.80
   5   2   1  128.59    6.40
   5   2   1  127.29    7.00
  -6  -2  -1  102.99   12.00
  -6  -2  -1   85.99    6.40
   6   2   1  103.09    6.50
   6   2   1   99.19    7.70
  -7  -2  -1  273.17   13.20
  -7  -2  -1  280.67   19.20
   7   2   1  295.37   12.70
  -8  -2  -1    4.30    3.80
   8   2   1   15.70    4.30
  -9  -2  -1   37.90    7.90
   9   2   1   53.79    8.20
   8  -3  -1   34.80    5.90
  -8   3   1   27.80    5.40
   7  -3  -1   30.40    6.00
  -7   3   1   30.70    4.20
   6  -3  -1  165.68   10.30
  -6   3   1  165.48    9.50
  -6   3   1  164.48    7.20
   5  -3  -1   17.40    4.70
   5  -3  -1   23.80    3.80
  -5   3   1   18.90    6.90
  -5   3   1   18.10    2.40
  -5   3   1   22.10    3.10
   4  -3  -1   62.39    6.20
   4  -3  -1   53.89    4.40
  -4   3   1   58.19    7.70
  -4   3   1   60.99    3.70
  -4   3   1   51.69    4.00
   3  -3  -1   81.69    4.80
   3  -3  -1   87.49    5.40
  -3   3   1   80.09    6.40
  -3   3   1   82.29    4.30
   2  -3  -1   11.10    2.30
   2  -3  -1   20.70    2.20
  -2   3   1   11.80    2.40
  -2   3   1   16.50    1.70
   1  -3  -1  410.26   10.80
  -1   3   1  380.06   10.40
  -1   3   1  402.26   10.90
   0  -3  -1 3350.76   69.99
   0   3   1 3247.68   69.19
   0   3   1 3367.96   69.79
   1   3   1  512.05   14.70
   1   3   1  541.55   13.40
  -2  -3  -1  465.95   13.90
   2   3   1  480.95   14.10
   2   3   1  481.15   12.40
  -3  -3  -1 4279.07   92.89
  -3  -3  -1 4283.07   94.39
   3   3   1 4547.54   90.89
   3   3   1 4355.46   92.59
   3   3   1 4438.76   94.09
  -4  -3  -1  657.83   18.80
  -4  -3  -1  645.64   19.10
   4   3   1  636.24   17.50
  -5  -3  -1   18.70    4.50
  -5  -3  -1   28.20    3.80
   5   3   1   27.40    3.00
  -6  -3  -1   29.60    4.50
  -6  -3  -1   35.90    7.00
   6   3   1   26.90    5.00
   6   3   1   33.50    3.70
  -7  -3  -1  430.46   21.20
  -7  -3  -1  465.95   18.00
   7   3   1  473.95   16.40
  -8  -3  -1   70.39    9.00
   8   3   1   90.79    8.40
  -9  -3  -1    6.60    5.70
   9   3   1   -3.00    4.10
   7  -4  -1   19.80    5.60
  -7   4   1   23.40    4.80
   6  -4  -1    3.90    3.60
  -6   4   1   -1.80    3.70
  -6   4   1    3.10    2.30
   5  -4  -1   14.50    3.40
  -5   4   1   16.60    2.50
  -5   4   1    2.80   11.70
  -5   4   1   14.70    2.60
   4  -4  -1   -2.20    3.80
   4  -4  -1    2.40    1.70
  -4   4   1    0.30    1.50
  -4   4   1    3.30    4.80
   3  -4  -1  255.67   10.00
   3  -4  -1  241.58    9.50
  -3   4   1  245.08    9.00
  -3   4   1  252.87   11.20
   2  -4  -1    3.60    2.40
  -2   4   1    4.20    1.10
  -1   4   1  107.39    6.20
  -1   4   1   98.49    4.40
   0  -4  -1 1064.29   24.60
   0   4   1 1012.60   23.00
   0   4   1 1001.30   26.60
   0   4   1  989.30   23.80
   1   4   1  730.23   20.50
   1   4   1  728.43   18.30
  -2  -4  -1 2300.87   53.29
   2   4   1 2323.17   49.99
   2   4   1 2295.87   51.39
   2   4   1 2406.36   53.79
  -3  -4  -1 1957.20   44.40
  -3  -4  -1 1965.80   47.50
   3   4   1 2114.89   47.60
   3   4   1 1992.40   44.20
  -4  -4  -1  300.07   12.10
  -4  -4  -1  319.67   11.80
   4   4   1  328.37    9.30
   4   4   1  331.67   13.10
   4   4   1  321.57   10.30
  -5  -4  -1   49.60    7.40
  -5  -4  -1   51.49    5.40
   5   4   1   50.39    3.80
  -6  -4  -1  277.97   12.60
  -6  -4  -1  297.77   15.00
   6   4   1  280.47   11.00
  -7  -4  -1    0.70    7.10
  -7  -4  -1   -0.90    3.30
   7   4   1    2.60    2.00
  -8  -4  -1    3.80    4.90
   8   4   1    2.10    3.50
  -9  -4  -1   15.70    6.60
   9   4   1   15.00    5.40
   7  -5  -1   29.00    5.00
  -7   5   1   29.40    5.40
   6  -5  -1  167.68   12.60
  -6   5   1  169.98   10.20
  -6   5   1  170.18    9.60
   5  -5  -1  158.78    9.70
  -5   5   1  158.58   11.90
  -5   5   1  177.98    8.40
   4  -5  -1   44.00    4.80
  -4   5   1   41.00    4.40
  -4   5   1   32.70    7.60
   3  -5  -1    6.30    4.20
   3  -5  -1    8.70    1.90
  -3   5   1    8.70    4.50
  -3   5   1    6.60    1.80
   2  -5  -1    9.70    3.70
  -2   5   1   10.80    3.50
  -2   5   1   16.40    2.30
   1  -5  -1    1.70    2.90
  -1   5   1    0.00    2.00
  -1   5   1    3.50    1.10
   0  -5  -1   34.80    4.30
   0   5   1   26.70    2.50
   0   5   1   26.80    3.00
   0   5   1   30.40    5.30
   1   5   1  428.46   12.70
   1   5   1  418.76   15.50
   1   5   1  431.36   10.70
  -2  -5  -1 1295.07   33.50
   2   5   1 1315.37   29.10
   2   5   1 1309.27   34.10
   2   5   1 1294.17   31.30
  -3  -5  -1  192.88    9.20
   3   5   1  180.58    6.20
   3   5   1  187.58   10.90
  -4  -5  -1    3.80    2.10
  -4  -5  -1    5.00    2.80
   4   5   1    0.90    4.20
   4   5   1    3.90    5.00
   4   5   1    2.50    1.20
  -5  -5  -1   14.70    4.40
  -5  -5  -1   20.20    3.80
   5   5   1   15.60    2.80
   5   5   1   15.10    2.40
   5   5   1   16.40    5.60
  -6  -5  -1   -0.60    3.00
  -6  -5  -1   -0.40    5.00
   6   5   1   -2.50    1.70
  -7  -5  -1    0.80    4.00
  -7  -5  -1   -0.50    7.40
   7   5   1   -0.60    2.10
  -8  -5  -1   31.30    8.40
   8   5   1   34.30    4.60
  -9  -5  -1   12.00    6.80
   9   5   1    5.60    5.10
  -6   6   1   96.49    8.80
  -6   6   1   99.19    9.10
  -5   6   1    0.40    3.90
  -5   6   1   -2.10    4.10
  -4   6   1   32.40    9.10
  -4   6   1   44.40    5.90
  -3   6   1   -3.10    5.30
  -3   6   1    4.60    2.20
   2  -6  -1  248.98   12.30
  -2   6   1  240.48    9.30
  -2   6   1  252.97   11.50
   1  -6  -1   54.19    6.30
  -1   6   1   51.49    3.80
  -1   6   1   47.90    5.50
   0  -6  -1   18.00    4.40
   0   6   1   14.60    6.00
   0   6   1   16.00    2.40
   0   6   1   15.50    2.60
   1   6   1  334.17    9.00
   1   6   1  329.77   11.00
   1   6   1  326.07   15.40
   2   6   1  189.48    6.50
   2   6   1  188.98   12.40
   2   6   1  186.58    7.90
  -3  -6  -1    1.20    2.00
   3   6   1    7.20    5.60
   3   6   1    3.90    1.60
  -4  -6  -1  215.98   10.80
   4   6   1  208.08    7.20
   4   6   1  219.78   12.60
   4   6   1  228.98   14.20
  -5  -6  -1   44.20    6.10
  -5  -6  -1   61.39    7.70
   5   6   1   58.69    7.20
   5   6   1   41.90    3.40
   5   6   1   50.69    8.70
  -6  -6  -1   29.30    4.10
  -6  -6  -1   31.30    7.00
   6   6   1   31.10    3.60
   6   6   1   30.40    3.70
  -7  -6  -1   21.90    8.40
  -8  -6  -1   19.50    7.40
  -9  -6  -1   21.10    6.90
   9   6   1   28.20    6.80
  -5   7   1    1.80    4.30
  -5   7   1   -3.00    4.10
  -4   7   1   35.40    5.90
  -3   7   1   62.09    9.50
  -2   7   1   85.89   10.30
  -2   7   1   78.89    4.90
   1  -7  -1  546.55   19.70
  -1   7   1  563.94   16.80
  -1   7   1  568.64   17.20
   0  -7  -1   79.19    9.50
   0   7   1   90.79    5.10
   0   7   1   85.79    5.80
   1   7   1  302.57   17.10
   1   7   1  306.97    8.70
   1   7   1  285.17   10.70
   2   7   1  942.61   25.50
   2   7   1  935.01   30.60
  -3  -7  -1   88.99    6.80
   3   7   1   75.99    5.20
   3   7   1   91.39   13.00
  -4  -7  -1   73.89    6.80
   4   7   1   63.99    5.10
   4   7   1   54.69    9.60
   4   7   1   64.19    3.40
  -5  -7  -1   28.80    4.50
   5   7   1   19.50    6.50
   5   7   1   28.80    2.90
  -6  -7  -1  122.29   11.30
   6   7   1  140.09    9.70
   6   7   1  124.09    6.10
  -7  -7  -1   -3.90    7.80
  -7  -7  -1   -9.10    5.70
   7   7   1    2.80    2.40
  -8  -7  -1   -0.40    6.00
   8   7   1    2.10    3.20
  -4   8   1   -2.10    4.20
  -3   8   1   -5.60    3.60
  -3   8   1    2.50    9.90
  -2   8   1   11.80    7.60
  -2   8   1   18.70    3.70
  -1   8   1   61.79    6.10
  -1   8   1   62.39    7.40
   0   8   1  612.74   17.30
   0   8   1  627.14   18.40
   1   8   1  977.70   26.60
   2   8   1  139.79    7.70
   3   8   1   80.89    6.30
  -4  -8  -1   79.09    9.50
   4   8   1   65.49    5.30
  -5  -8  -1  188.28   15.00
   5   8   1  194.88   10.80
   5   8   1  197.08    6.50
   5   8   1  207.88   16.20
  -6  -8  -1   96.99   12.80
   6   8   1   86.39   12.20
   6   8   1   78.19    4.80
  -7  -8  -1   -1.30    5.80
  -8  -8  -1   -0.70    7.30
   8   8   1   -1.30    3.40
  -3   9   1   77.99    8.20
  -2   9   1   -4.10    3.70
  -1   9   1   57.79    7.90
   0   9   1    0.50    3.30
   0   9   1    5.40    5.50
   1   9   1  158.38   11.30
   2   9   1    8.80    3.60
   4   9   1    1.30   11.30
  -5  -9  -1   -1.30    5.80
   5   9   1   -1.30    4.10
   5   9   1    5.20   11.30
  -6  -9  -1   -2.60    6.00
   6   9   1   -7.80    4.20
  -7  -9  -1   -3.80    7.10
   7   9   1   -4.00    4.60
   7   9   1    8.90    3.00
  -1  10   1   29.00    4.10
   0  10   1   10.50    3.70
   1  10   1   -5.50    3.30
   2  10   1   16.30    4.70
   3  10   1   10.30    4.20
   4  10   1    2.70    4.00
   5  10   1    6.70    4.20
  -6 -10  -1    4.30    7.30
   6  10   1   10.20    4.50
   4  10  -2  136.09   11.00
   3  10  -2   21.00    4.90
   2  10  -2    5.60    4.10
   1  10  -2   61.69    8.10
   6   9  -2   33.60    5.60
  -6  -9   2   44.20    8.00
   5   9  -2    6.50    4.40
  -5  -9   2   19.00    6.50
   4   9  -2    1.50    4.10
   3   9  -2   87.39    8.40
   2   9  -2   75.69    8.20
   1   9  -2   -0.30    3.40
   0   9  -2  100.99    8.60
  -1   9  -2   51.79    7.20
  -2   9  -2    8.10    4.40
   7   8  -2    7.00    4.20
  -7  -8   2   -8.00    6.50
   6   8  -2    0.70    4.50
   6   8  -2   -1.60    9.40
  -6  -8   2    3.30    6.20
   5   8  -2    4.10   10.00
   5   8  -2    4.90    4.80
  -5  -8   2   15.20    7.20
   4   8  -2    3.50   11.80
   4   8  -2    5.20    3.80
  -4  -8   2   -0.20    5.00
   3   8  -2  102.89    8.80
   1   8  -2   93.59    9.00
   0   8  -2    9.80    3.90
  -1   8  -2   23.90    5.00
  -1   8  -2   17.70    6.60
  -2   8  -2    5.80    3.40
  -3   8  -2   42.00    5.00
  -8  -7   2  -13.60    6.80
  -7  -7   2  114.99   13.10
   6   7  -2   20.10    7.30
  -6  -7   2   17.40    7.70
  -6  -7   2   13.50    5.90
   5   7  -2  168.08   14.50
  -5  -7   2  138.19   16.60
   4   7  -2   48.60    9.10
   4   7  -2   36.40    5.40
  -4  -7   2   37.20    5.60
   3   7  -2   96.49   14.40
   3   7  -2   80.39    5.80
  -3  -7   2   97.39    8.10
   2   7  -2 1552.44   45.10
   2   7  -2 1521.75   44.20
   2   7  -2 1608.54   40.20
   1   7  -2    2.40    2.40
   1   7  -2   -1.10    8.80
   0   7  -2    8.90    2.00
  -1   7  -2   29.40    5.20
  -1   7  -2   35.10    5.10
  -2   7  -2    9.90    6.70
  -2   7  -2   14.40    3.70
  -3   7  -2    5.60    8.90
  -3   7  -2    2.70    3.70
  -4   7  -2   13.70    4.00
   4  -7   2   18.30    4.10
   8   6  -2   26.60    4.40
  -8  -6   2   31.60    7.40
   7   6  -2  153.08    7.70
   7   6  -2  153.98    9.10
  -7  -6   2  149.59   15.10
  -7  -6   2  156.18   16.30
   6   6  -2  204.68    8.00
   6   6  -2  208.58   11.20
  -6  -6   2  215.98   15.80
  -6  -6   2  226.68   13.30
   5   6  -2   23.60    6.00
  -5  -6   2   24.60    3.90
   4   6  -2  374.46   14.00
   4   6  -2  383.56   16.20
   4   6  -2  350.86   19.00
  -4  -6   2  368.76   15.70
   3   6  -2  393.76   14.00
   3   6  -2  389.86   18.60
   3   6  -2  394.86   17.20
  -3  -6   2  378.66   15.40
   2   6  -2  262.87   10.50
   2   6  -2  258.77   15.50
   2   6  -2  266.87   15.20
  -2  -6   2  265.67   11.90
   1   6  -2    3.00    1.60
   1   6  -2    3.80    5.90
   0   6  -2   15.90    2.50
   0   6  -2   11.40    6.70
   0  -6   2   12.30    5.30
  -1   6  -2   25.50    7.40
  -1   6  -2   38.10    6.10
  -1   6  -2   36.70    3.80
  -2   6  -2   77.99    9.60
  -2   6  -2   80.79    5.00
  -2   6  -2   65.39   10.30
   2  -6   2   67.19    4.40
  -3   6  -2    6.90    6.80
  -3   6  -2    2.20    2.50
   3  -6   2   -0.60    2.10
  -4   6  -2   -0.20    3.30
  -4   6  -2   -4.40    9.40
   4  -6   2    4.60    2.70
  -5   6  -2  190.18   10.60
   5  -6   2  190.48   13.30
   9   5  -2    0.90    5.20
   8   5  -2   37.70    5.70
  -8  -5   2   36.90    6.60
   7   5  -2  108.59    6.40
   7   5  -2  102.89    6.40
  -7  -5   2   86.09   10.70
  -7  -5   2  112.29   15.20
   6   5  -2  197.08   14.30
   6   5  -2  258.47    9.30
  -6  -5   2  237.88   12.60
  -6  -5   2  253.77   14.00
   5   5  -2    3.20    3.70
   5   5  -2   -3.00    5.80
   5   5  -2    1.60    1.40
  -5  -5   2    3.20    2.80
  -5  -5   2    4.40    4.00
   4   5  -2    9.30    5.70
   4   5  -2    0.40    4.00
  -4  -5   2   -0.60    2.40
  -4  -5   2   -0.80    2.60
   3   5  -2 1337.37   34.30
   3   5  -2 1348.86   33.60
   3   5  -2 1291.27   35.70
  -3  -5   2 1321.97   35.60
   2   5  -2  100.99    5.70
   2   5  -2  108.19    9.40
   2   5  -2  123.29   10.20
  -2  -5   2  107.39    6.70
   1   5  -2  167.28   11.10
   1   5  -2  150.28    7.10
   0   5  -2  287.17   10.20
   0   5  -2  290.67    8.10
   0   5  -2  299.27   14.00
   0  -5   2  292.57   11.90
  -1   5  -2   35.30    6.40
  -1   5  -2   31.30    4.80
  -1   5  -2   31.20    3.10
   1  -5   2   25.80    2.30
   1  -5   2   33.70    5.40
  -2   5  -2   25.50    2.80
   2  -5   2   17.60    2.60
   2  -5   2   21.10    5.20
  -3   5  -2   52.59    7.60
  -3   5  -2   49.40    4.40
   3  -5   2   55.29    4.30
  -4   5  -2  107.89    7.60
  -4   5  -2  111.99   15.10
   4  -5   2  122.09    6.90
  -5   5  -2   17.90    4.30
   5  -5   2    8.60    3.40
  -6   5  -2   61.49    7.90
   6  -5   2   81.59   10.50
   9   4  -2   -1.10    4.90
  -9  -4   2   -7.50    6.60
   8   4  -2   -1.40    3.60
  -8  -4   2   -5.90    5.60
   7   4  -2  331.57    9.80
   7   4  -2  334.87   12.60
  -7  -4   2  323.27   17.60
   6   4  -2   92.49    5.70
   6   4  -2   93.69    5.60
  -6  -4   2   91.19   10.50
  -6  -4   2   98.39    8.70
   5   4  -2   10.80    2.90
   5   4  -2   11.00    1.80
  -5  -4   2    6.60    2.80
  -5  -4   2    7.90    3.80
   4   4  -2  320.47   14.10
   4   4  -2  323.97   11.30
   4   4  -2  302.37    9.40
  -4  -4   2  327.37   11.30
  -4  -4   2  334.37   13.30
   3   4  -2   72.69    6.60
   3   4  -2   69.09    7.70
  -3  -4   2   69.69    5.20
  -3  -4   2   73.09    4.10
   2   4  -2  432.86   15.30
   2   4  -2  430.46   13.30
  -2  -4   2  428.96   14.50
   1   4  -2   23.40    4.70
   1   4  -2   19.80    2.30
  -1  -4   2   21.60    2.90
   0   4  -2  392.06   10.10
   0   4  -2  399.86   12.10
   0   4  -2  408.26   14.50
   0  -4   2  406.36    9.70
   0  -4   2  417.86   13.20
  -1   4  -2   -1.20    2.00
  -1   4  -2   -0.20    0.90
  -1   4  -2   -0.90    3.30
   1  -4   2    0.60    0.80
   1  -4   2   -2.60    2.50
  -2   4  -2  149.19    8.60
  -2   4  -2  152.78    6.50
   2  -4   2  151.98    6.10
   2  -4   2  154.88    8.40
  -3   4  -2  562.14   18.90
  -3   4  -2  515.35   15.70
   3  -4   2  532.05   17.00
   3  -4   2  550.04   16.00
  -4   4  -2  156.18   13.70
  -4   4  -2  160.58    7.70
   4  -4   2  153.38    7.60
  -5   4  -2  470.75   16.10
  -5   4  -2  422.66   23.50
   5  -4   2  434.06   16.20
  -6   4  -2  302.57   14.20
   6  -4   2  270.07   13.80
  -7   4  -2   -1.80    4.00
  -7   4  -2   -3.30    4.20
   7  -4   2    4.80    5.10
   9   3  -2    2.70    4.40
  -9  -3   2   10.30    6.00
   8   3  -2    5.80    4.60
  -8  -3   2    1.10    5.30
   7   3  -2    4.90    2.30
   7   3  -2    4.90    2.40
  -7  -3   2    4.00    4.30
  -7  -3   2    3.70    7.50
  -7  -3   2    8.00    2.20
   6   3  -2   65.59    4.20
   6   3  -2   71.49    5.10
  -6  -3   2   64.39    6.00
  -6  -3   2   68.39    9.70
  -6  -3   2   61.09    4.30
   5   3  -2    8.40    2.10
   5   3  -2    7.60    1.70
  -5  -3   2    6.50    2.20
  -5  -3   2    6.40    1.70
  -5  -3   2    9.60    3.90
   4   3  -2  890.11   21.20
   4   3  -2  861.11   21.50
  -4  -3   2  844.92   22.10
  -4  -3   2  889.71   22.60
  -4  -3   2  862.11   24.80
   3   3  -2 1611.34   37.30
   3   3  -2 1751.52   39.10
   3   3  -2 1781.82   41.10
  -3  -3   2 1706.93   41.40
  -3  -3   2 1726.43   38.00
   2   3  -2 1100.09   27.60
   2   3  -2 1087.39   26.70
  -2  -3   2 1073.69   23.50
  -2  -3   2 1077.99   27.60
   1   3  -2 2118.19   48.60
   1   3  -2 2153.78   48.90
  -1  -3   2 2135.89   48.50
   0   3  -2  982.20   22.10
   0   3  -2 1021.50   25.30
   0   3  -2 1023.10   24.00
   0  -3   2 1010.40   24.30
   0  -3   2  981.60   21.70
  -1   3  -2 1173.48   26.70
  -1   3  -2 1119.19   26.70
   1  -3   2 1129.49   25.80
  -2   3  -2  278.47    9.00
  -2   3  -2  279.37   10.70
   2  -3   2  282.07    9.10
   2  -3   2  286.07    9.90
  -3   3  -2  348.47   13.70
  -3   3  -2  329.47   10.80
   3  -3   2  326.27   11.00
   3  -3   2  332.07   11.50
  -4   3  -2  544.05   16.40
  -4   3  -2  561.04   20.30
   4  -3   2  539.45   16.90
   4  -3   2  552.24   16.90
  -5   3  -2  525.05   22.90
  -5   3  -2  532.55   17.00
   5  -3   2  524.65   17.40
  -6   3  -2   49.40    7.00
   6  -3   2   57.79    7.20
  -7   3  -2   -4.00    3.80
  -7   3  -2    6.50    3.20
   7  -3   2    6.20    4.60
  -8   3  -2    0.00    4.20
   8  -3   2    7.00    5.20
   9   2  -2    4.70    4.40
  -9  -2   2    2.30    5.50
   8   2  -2   80.19    8.00
  -8  -2   2   69.89   10.90
  -8  -2   2   76.69    5.30
   7   2  -2  468.05   17.00
  -7  -2   2  420.16   17.70
  -7  -2   2  465.15   13.30
  -7  -2   2  497.35   25.70
   6   2  -2  352.16   14.10
   6   2  -2  350.96   12.90
   6   2  -2  353.96   10.00
  -6  -2   2  355.76   10.80
  -6  -2   2  344.07   13.90
  -6  -2   2  348.67   16.00
   5   2  -2  566.34   17.00
   5   2  -2  589.94   17.30
  -5  -2   2  584.94   15.60
  -5  -2   2  580.54   18.80
  -5  -2   2  597.24   18.80
   4   2  -2  117.59    4.70
   4   2  -2  111.69    5.30
  -4  -2   2  122.89    6.80
  -4  -2   2  109.49    6.20
  -4  -2   2  115.39    5.00
   3   2  -2  238.38    7.50
   3   2  -2  232.88    7.40
  -3  -2   2  244.48    8.00
  -3  -2   2  232.58    7.80
  -3  -2   2  229.08    8.90
   2   2  -2    1.40    1.70
   2   2  -2    0.70    1.40
  -2  -2   2    0.80    0.80
  -2  -2   2    1.50    0.90
  -2  -2   2    2.50    1.00
   1   2  -2 1890.91   42.30
   1   2  -2 1920.81   41.60
   1   2  -2 1995.70   42.50
  -1  -2   2 1883.31   42.40
  -1  -2   2 1800.02   39.30
   0   2  -2  217.78    8.30
   0   2  -2  213.48    6.80
   0   2  -2  231.98    7.80
   0  -2   2  227.58    7.20
   0  -2   2  235.08    6.40
  -1   2  -2 1672.53   37.40
  -1   2  -2 1730.23   37.80
   1  -2   2 1728.23   37.60
  -2   2  -2  131.89    5.10
  -2   2  -2  142.99    6.90
   2  -2   2  145.69    5.80
   2  -2   2  134.79    5.60
  -3   2  -2   56.29    3.40
  -3   2  -2   70.99    6.80
   3  -2   2   60.69    3.90
   3  -2   2   58.19    4.70
  -4   2  -2  455.25   14.00
  -4   2  -2  512.35   18.20
   4  -2   2  483.05   15.30
   4  -2   2  462.85   14.40
  -5   2  -2   85.59    5.20
  -5   2  -2   84.59   12.30
   5  -2   2   91.69    8.00
   5  -2   2   78.49    5.60
  -6   2  -2   21.40    3.80
   6  -2   2   28.70    3.90
  -7   2  -2   -2.90    3.90
  -7   2  -2    4.30    2.20
   7  -2   2    0.60    4.60
  -8   2  -2   -1.20    2.70
   8  -2   2    2.10    4.40
   9   1  -2  508.75   20.40
  -9  -1   2  495.55   21.30
  -9  -1   2  517.35   15.00
   8   1  -2  210.88   13.10
  -8  -1   2  215.38   14.60
  -8  -1   2  215.28    8.30
   7   1  -2  105.39    6.80
  -7  -1   2  109.59    9.30
  -7  -1   2  118.09    5.60
   6   1  -2   61.29    7.70
   6   1  -2   68.79    5.30
  -6  -1   2   68.09    8.50
  -6  -1   2   67.39    3.90
   5   1  -2  179.08    8.80
   5   1  -2  192.78    8.40
   5   1  -2  202.28    6.70
  -5  -1   2  200.88   10.70
  -5  -1   2  192.18    6.70
   4   1  -2    1.10    1.00
   4   1  -2    2.20    1.30
  -4  -1   2    3.70    1.00
  -4  -1   2    2.20    2.30
   3   1  -2   65.19    3.60
   3   1  -2   73.29    3.30
  -3  -1   2   72.29    3.40
  -3  -1   2   67.09    4.10
  -3  -1   2   73.69    4.40
   2   1  -2   12.00    1.60
   2   1  -2   12.40    1.20
  -2  -1   2   10.20    1.30
  -2  -1   2   10.60    1.60
  -2  -1   2   15.30    2.00
   1   1  -2 3551.14   69.79
   1   1  -2 3336.97   69.49
  -1  -1   2 2959.50   70.89
  -1  -1   2 3390.36   69.79
  -1   1  -2  116.49    4.80
  -1   1  -2  118.29    3.90
   1  -1   2  123.49    4.20
   1  -1   2  125.49    4.90
  -2   1  -2  192.88    6.10
  -2   1  -2  202.08    7.80
   2  -1   2  194.18    7.00
   2  -1   2  204.68    6.50
  -3   1  -2  100.09    6.90
  -3   1  -2   93.69    4.30
   3  -1   2   96.39    5.10
  -4   1  -2  106.39    9.00
  -4   1  -2  107.49    5.10
   4  -1   2  103.49    5.70
   4  -1   2  111.99    6.20
  -5   1  -2  577.84   21.40
  -5   1  -2  531.85   16.30
   5  -1   2  537.25   16.50
   5  -1   2  552.24   17.60
  -6   1  -2  386.26   13.80
  -6   1  -2  394.96   11.20
  -6   1  -2  383.56   21.10
   6  -1   2  419.06   15.20
   6  -1   2  365.76   15.00
  -7   1  -2    3.70    1.70
  -8   1  -2    7.80    2.40
   8  -1   2    7.50    3.70
   9   0  -2   68.99    9.90
  -9   0   2   54.89    6.30
   8   0  -2    6.10    4.00
  -8   0   2    9.10    2.60
   7   0  -2   26.10    5.00
  -7   0   2   29.10    3.40
   6   0  -2    1.30    3.90
   6   0  -2    1.70    2.00
  -6   0   2   -1.10    1.40
  -6   0   2    5.30    5.90
   5   0  -2   53.69    5.80
   5   0  -2   55.49    4.50
  -5   0   2   54.89    3.10
  -5   0   2   53.09    7.40
   4   0  -2    2.00    2.20
   4   0  -2    0.60    1.30
   4   0  -2    1.70    1.10
  -4   0   2   -0.20    0.80
  -4   0   2    0.40    2.20
   3   0  -2  824.92   18.80
   3   0  -2  816.62   19.80
   3   0  -2  820.62   20.70
  -3   0   2  797.42   18.90
  -3   0   2  827.12   20.80
   2   0  -2 2335.17   49.80
   2   0  -2 2335.17   48.50
  -2   0   2 2325.17   49.70
  -2   0   2 2219.98   48.80
   0   0  -2  139.59    4.40
   0   0  -2  144.19    3.70
   0   0   2  138.99    3.50
   0   0   2  142.19    4.50
  -2   0  -2  668.83   15.70
  -2   0  -2  671.93   17.50
   2   0   2  713.13   15.70
   2   0   2  657.83   17.30
  -3   0  -2 4677.23   98.39
  -3   0  -2 4957.40  101.19
   3   0   2 4392.86  100.19
   3   0   2 4788.32   98.29
  -4   0  -2  156.58    9.40
  -4   0  -2  142.09    5.90
   4   0   2  153.58    6.60
   4   0   2  138.79    6.80
  -5   0  -2   15.40    5.50
   5   0   2    9.20    1.70
   5   0   2   11.40    3.20
  -6   0  -2   25.10    2.10
  -6   0  -2   16.60    9.40
   6   0   2   20.20    3.40
   6   0   2   19.60    4.70
  -7   0  -2   -2.70    1.30
   7   0   2    5.60    3.40
  -8   0  -2    4.80    1.80
   8   0   2    0.70    4.50
   9   0   2    1.30    4.60
   8  -1  -2   51.69    7.50
  -8   1   2   58.09    5.20
   7  -1  -2    6.90    4.00
  -7   1   2   10.70    2.30
   6  -1  -2   32.00    4.70
   6  -1  -2   34.60    6.00
  -6   1   2   34.60    3.20
   5  -1  -2    8.30    1.80
   5  -1  -2   11.50    3.80
  -5   1   2   13.10    5.00
  -5   1   2    9.90    1.60
   4  -1  -2   66.89    5.00
   4  -1  -2   62.49    4.40
  -4   1   2   61.69    3.20
   3  -1  -2   89.09    4.50
   3  -1  -2   79.49    4.40
  -3   1   2   83.59    6.00
  -3   1   2   90.29    3.70
   2  -1  -2   94.69    3.80
   2  -1  -2   94.69    3.80
   2  -1  -2   88.39    4.20
  -2   1   2   93.09    3.50
  -2   1   2   88.29    3.50
  -1  -1  -2  554.94   12.50
  -1  -1  -2  573.24   13.00
   1   1   2  570.94   12.40
   1   1   2  582.84   12.80
   1   1   2  580.44   14.20
  -2  -1  -2 5941.51  122.09
   2   1   2 5728.13  121.89
  -3  -1  -2   30.00    4.00
  -3  -1  -2   33.20    1.90
   3   1   2   28.90    2.60
   3   1   2   30.00    2.70
  -4  -1  -2   96.69    7.40
   4   1   2   91.59    5.10
   4   1   2   93.99    5.40
  -5  -1  -2   62.19    8.30
  -5  -1  -2   59.69    2.60
   5   1   2   61.69    5.50
   5   1   2   70.39    5.00
  -6  -1  -2   75.39    3.60
  -6  -1  -2   78.89    9.60
   6   1   2   66.99    5.60
   6   1   2   69.99    7.10
   7   1   2  290.47   12.30
   8   1   2   44.70    7.30
  -9  -1  -2   13.60    5.90
   9   1   2   20.30    4.80
   8  -2  -2   13.40    4.50
  -8   2   2    3.10    3.10
   7  -2  -2    1.70    4.50
  -7   2   2    4.20    2.20
   6  -2  -2  109.89    6.80
  -6   2   2  114.89    5.60
   5  -2  -2    4.20    1.70
   5  -2  -2    3.00    3.40
  -5   2   2   -1.90    4.70
  -5   2   2    3.90    1.30
   4  -2  -2  111.39    6.40
   4  -2  -2  109.79    6.10
  -4   2   2   96.19    5.00
  -4   2   2  119.19    8.00
  -4   2   2  100.89    4.60
   3  -2  -2   11.90    2.30
   3  -2  -2   15.30    2.20
  -3   2   2   13.20    1.80
  -3   2   2   16.10    3.10
  -3   2   2   13.50    1.70
   2  -2  -2 1664.73   35.00
   2  -2  -2 1573.34   36.40
  -2   2   2 1567.64   35.20
  -2   2   2 1629.54   36.40
  -2   2   2 1553.54   35.00
  -1  -2  -2 1417.56   31.00
   1   2   2 1374.06   29.60
   1   2   2 1400.56   31.00
  -2  -2  -2 3589.64   76.99
  -2  -2  -2 3628.94   77.29
   2   2   2 3701.03   76.79
   2   2   2 3633.34   77.49
  -3  -2  -2  229.78    8.10
  -3  -2  -2  243.18    9.10
   3   2   2  236.08    8.50
  -4  -2  -2  732.13   20.10
  -4  -2  -2  769.12   22.00
   4   2   2  751.12   20.60
   4   2   2  718.13   20.20
  -5  -2  -2  390.76   13.70
  -5  -2  -2  433.16   16.30
   5   2   2  395.46   13.90
   5   2   2  423.76   13.10
  -6  -2  -2   19.60    6.40
  -6  -2  -2   16.40    3.20
   6   2   2   19.30    3.30
   6   2   2   17.50    4.30
  -7  -2  -2  488.25   17.60
   7   2   2  463.45   17.00
   8   2   2  139.49    9.80
  -9  -2  -2    0.00    5.50
   9   2   2   -2.10    4.20
   8  -3  -2   24.90    5.80
  -8   3   2   26.70    5.40
   7  -3  -2    8.20    4.10
  -7   3   2    9.30    2.90
   6  -3  -2    7.80    3.30
  -6   3   2   14.00    2.10
   5  -3  -2   17.30    4.70
   5  -3  -2   18.10    3.10
  -5   3   2   24.50    9.50
  -5   3   2   13.40    2.10
  -5   3   2   17.60    2.90
   4  -3  -2  232.18    9.90
   4  -3  -2  232.48    9.50
  -4   3   2  237.48    8.80
  -4   3   2  218.48   17.30
  -4   3   2  233.28    8.30
   3  -3  -2  181.18    7.30
   3  -3  -2  167.48    7.40
  -3   3   2  169.58    6.50
  -3   3   2  174.48    8.70
  -3   3   2  160.18    6.40
   2  -3  -2  654.43   15.70
   2  -3  -2  578.44   16.50
  -2   3   2  614.74   15.90
  -2   3   2  615.44   15.60
  -2   3   2  626.44   16.90
   1  -3  -2  742.03   17.60
  -1   3   2  729.73   17.30
  -1   3   2  742.43   22.30
   0  -3  -2  335.97    9.00
   0   3   2  330.07    8.60
  -1  -3  -2  410.86   11.70
   1   3   2  409.56   10.60
   1   3   2  399.36   12.00
  -2  -3  -2  490.05   14.10
   2   3   2  507.45   14.60
   2   3   2  503.15   13.40
  -3  -3  -2 1282.67   31.60
  -3  -3  -2 1213.58   30.00
   3   3   2 1223.28   25.80
   3   3   2 1229.28   29.70
   3   3   2 1177.78   29.20
  -4  -3  -2  577.54   18.00
  -4  -3  -2  583.04   17.30
   4   3   2  564.44   16.60
  -5  -3  -2   99.29    6.20
  -5  -3  -2  101.49    8.80
   5   3   2   98.79    5.80
  -6  -3  -2  308.57   13.10
  -6  -3  -2  354.26   16.90
   6   3   2  339.87   13.00
   6   3   2  348.97   13.00
  -7  -3  -2  447.06   22.50
  -7  -3  -2  434.66   17.10
   7   3   2  446.56   16.20
  -9  -3  -2   31.80    6.70
   9   3   2   34.10    5.50
   7  -4  -2   -6.60    4.00
  -7   4   2   -0.50    3.70
  -6   4   2   36.60    5.10
  -6   4   2   30.30    4.20
   5  -4  -2   35.60    4.70
  -5   4   2   42.40    3.90
  -5   4   2   39.30    4.30
   4  -4  -2   27.40    4.90
  -4   4   2   23.30    3.00
  -4   4   2   19.80    5.40
  -4   4   2   22.00    3.00
   3  -4  -2  439.96   14.50
   3  -4  -2  477.25   14.10
  -3   4   2  464.35   15.50
  -3   4   2  442.16   13.40
  -3   4   2  450.55   13.50
   2  -4  -2 1402.06   32.00
  -2   4   2 1371.46   31.70
  -2   4   2 1347.17   32.80
   1  -4  -2  427.96   12.00
  -1   4   2  402.26   12.00
  -1   4   2  412.26   11.30
   0  -4  -2    5.90    1.90
   0   4   2    6.40    1.20
   0   4   2    6.80    1.80
   1   4   2   92.19    4.00
   1   4   2   89.29    6.40
  -2  -4  -2    8.50    1.80
   2   4   2    5.30    2.90
   2   4   2    8.50    1.50
  -3  -4  -2   13.00    2.40
   3   4   2   14.80    2.20
   3   4   2    7.80    3.70
  -4  -4  -2   -1.10    2.70
  -4  -4  -2    1.30    1.60
   4   4   2    0.20    1.50
   4   4   2   -1.10    3.00
   4   4   2    1.90    1.20
  -5  -4  -2  470.95   16.90
  -5  -4  -2  465.45   16.20
   5   4   2  443.66   14.60
  -6  -4  -2   36.00    6.80
  -6  -4  -2   25.80    4.10
   6   4   2   20.70    3.10
  -7  -4  -2    8.50    3.90
  -7  -4  -2   22.60    8.60
   7   4   2   15.80    3.50
  -8  -4  -2   16.10    5.80
   8   4   2   27.00    4.90
  -9  -4  -2   14.40    6.20
   9   4   2   21.40    5.40
  -7   5   2    1.20    4.20
  -7   5   2    8.60    5.00
  -6   5   2    8.50    4.70
  -6   5   2   12.00    3.80
   5  -5  -2    3.80    3.30
  -5   5   2   -0.60    3.10
  -5   5   2   -3.90    2.40
   4  -5  -2  119.29   10.20
  -4   5   2  122.99   12.20
  -4   5   2  115.69    6.30
  -4   5   2  111.09    6.50
   3  -5  -2    9.20    4.00
  -3   5   2    9.30    1.80
  -3   5   2   25.40    5.30
   2  -5  -2  457.65   14.20
  -2   5   2  414.46   12.80
  -2   5   2  441.96   14.40
   1  -5  -2  741.63   19.50
  -1   5   2  698.63   18.80
  -1   5   2  718.23   18.40
   0  -5  -2  335.47   11.00
   0   5   2  333.77   13.40
   0   5   2  314.07    9.70
   1   5   2  176.98   10.00
   1   5   2  167.48    6.40
  -2  -5  -2  779.92   22.20
   2   5   2  778.12   20.10
   2   5   2  774.72   19.30
   2   5   2  796.62   23.10
  -3  -5  -2  171.98    8.50
   3   5   2  182.98   10.40
   3   5   2  177.98    6.80
  -4  -5  -2  902.71   26.20
   4   5   2  929.41   26.50
   4   5   2  903.41   23.30
  -5  -5  -2   24.70    3.60
  -5  -5  -2   26.80    5.50
   5   5   2   28.60    5.90
   5   5   2   31.00    3.40
   5   5   2   32.60    3.50
  -6  -5  -2    4.30    2.80
  -6  -5  -2    2.40    5.60
   6   5   2    4.00    1.80
  -7  -5  -2    4.40    3.60
  -7  -5  -2   -7.20    7.40
   7   5   2   -0.30    2.30
  -8  -5  -2    5.90    5.80
   8   5   2    9.00    3.40
  -9  -5  -2    2.00    6.20
   9   5   2    2.90    5.20
  -6   6   2    8.00    4.30
  -6   6   2   -0.40    4.30
  -5   6   2   94.29    9.10
  -5   6   2  104.49    9.50
  -4   6   2   49.10    5.80
  -4   6   2   64.99    6.40
   3  -6  -2  217.18   12.70
  -3   6   2  214.78    8.90
  -3   6   2  224.38   13.00
   2  -6  -2    5.20    4.60
  -2   6   2    4.30    1.70
  -2   6   2    8.90    4.10
   1  -6  -2  111.09    8.40
  -1   6   2  110.29    5.40
  -1   6   2  108.19    6.90
   0  -6  -2  958.90   25.10
   0   6   2  933.31   23.70
   0   6   2  930.51   28.20
   0   6   2  971.10   23.20
   1   6   2   22.40    3.40
   1   6   2   22.30    2.50
   1   6   2   20.20    5.80
   2   6   2  202.38   12.40
   2   6   2  194.18    7.00
   2   6   2  210.38    8.10
  -3  -6  -2    2.00    2.00
   3   6   2    0.20    4.90
   3   6   2   -0.70    1.30
   3   6   2   -0.60    1.30
  -4  -6  -2    5.80    2.30
   4   6   2   11.90    2.10
   4   6   2   12.60    5.80
  -5  -6  -2  246.88   11.90
   5   6   2  240.48    9.20
   5   6   2  256.77   15.30
  -6  -6  -2  109.39    9.00
  -6  -6  -2  104.49   12.80
   6   6   2   89.59    5.80
   6   6   2   63.79   14.70
  -7  -6  -2   14.00    8.40
  -7  -6  -2    6.00    4.40
   7   6   2    9.70    2.70
  -8  -6  -2   14.20    7.60
   8   6   2   13.50    3.20
  -9  -6  -2    7.00    6.50
   9   6   2    8.70    5.10
  -5   7   2   95.89    8.50
  -5   7   2   95.19    8.00
  -4   7   2   -2.20    3.70
  -4   7   2    7.70    3.90
  -3   7   2   27.60    8.20
  -3   7   2   35.70    4.90
   2  -7  -2   49.50    9.00
  -2   7   2   50.09    4.90
  -2   7   2   51.19    7.00
   1  -7  -2  106.79   10.30
  -1   7   2   81.39    5.00
  -1   7   2   89.89    7.70
   0  -7  -2  726.53   22.00
   0   7   2  721.53   19.90
   0   7   2  719.63   19.00
   0   7   2  718.33   26.30
   1   7   2  518.95   15.90
   1   7   2  564.34   22.30
   1   7   2  551.44   16.20
   2   7   2    5.90    1.80
   2   7   2   11.30    6.60
   2   7   2    7.20    1.80
  -3  -7  -2    3.80    2.60
   3   7   2   -1.10    1.60
   3   7   2    1.80    1.50
   3   7   2    6.70    6.20
  -4  -7  -2  309.77   13.90
   4   7   2  311.07   11.90
   4   7   2  319.27    9.90
   4   7   2  304.57   18.30
  -5  -7  -2   10.00    3.60
   5   7   2   -3.20    5.90
   5   7   2    4.70    1.80
  -6  -7  -2   19.60    5.70
   6   7   2   19.30    4.60
   6   7   2   16.10    2.70
  -7  -7  -2   20.90    7.00
   7   7   2   32.30    4.50
  -8  -7  -2   -1.50    5.70
   8   7   2   -1.50    3.30
  -9  -7  -2   83.49   11.40
   9   7   2   96.09   11.70
  -4   8   2   88.19    8.00
  -4   8   2   84.29    8.40
  -3   8   2   23.90    5.00
  -3   8   2   26.30   12.10
  -2   8   2   15.40    7.50
  -1   8   2  390.86   15.20
  -1   8   2  361.26   12.60
   0  -8  -2   33.50    7.80
   0   8   2   26.30    3.80
   0   8   2   30.20    5.30
   1   8   2  392.56   13.30
   2   8   2  218.38    7.30
   2   8   2  221.38    7.60
   2   8   2  228.48    9.40
   3   8   2   72.09    5.40
   3   8   2   75.39    3.90
   4   8   2   19.60    2.90
   4   8   2   17.70    3.40
  -5  -8  -2   60.89    8.90
   5   8   2   57.49    4.10
   5   8   2   69.49    9.70
   5   8   2   52.49    5.90
  -6  -8  -2    6.80    6.30
   6   8   2    5.00    6.90
   6   8   2    6.30    2.20
  -7  -8  -2    3.80    6.20
   7   8   2   12.30    2.80
   7   8   2   14.10    1.70
  -8  -8  -2    6.00    6.60
   8   8   2    5.90    3.60
  -3   9   2    9.30    4.10
  -2   9   2   26.60    4.50
  -1   9   2   56.29    7.60
  -1   9   2   35.90    8.20
   1   9   2  234.38   11.10
   1   9   2  234.48   10.80
   2   9   2   40.80    5.50
   3   9   2   32.70    4.90
   4   9   2    4.50    3.10
  -5  -9  -2    2.40    6.20
   5   9   2   10.20   10.80
   5   9   2    1.00    1.70
   5   9   2    2.90    3.40
  -6  -9  -2    3.20    5.60
   6   9   2   18.90    5.60
   6   9   2   17.40    2.50
  -7  -9  -2   14.10    6.80
   7   9   2    6.30    3.00
   7   9   2    0.40    4.30
   7   9   2    8.80    2.10
  -1  10   2   10.20    4.00
   0  10   2  131.89    8.80
   1  10   2   12.40    4.60
   2  10   2  163.98   10.50
   3  10   2   41.50    5.70
   4  10   2  107.79   10.40
   5  10   2   15.20    4.50
  -6 -10  -2   60.29    8.80
   2  11   2   -5.30    3.80
   3  11   2    7.60    4.00
   5   9  -3   28.30    5.40
  -5  -9   3   20.00    6.70
   4   9  -3   -4.90    4.20
   3   9  -3   12.20    4.00
   2   9  -3    8.60    3.90
   1   9  -3   35.50    5.40
   0   9  -3   47.50    6.40
  -1   9  -3    5.10    4.10
   7   8  -3   51.29    7.10
  -7  -8   3   57.09    9.10
   6   8  -3  250.37   13.30
  -6  -8   3  218.88   15.50
   5   8  -3    4.10    3.70
  -5  -8   3   -9.60    5.40
   4   8  -3   17.80    5.80
  -4  -8   3   20.80    6.70
   3   8  -3   45.40    7.20
   2   8  -3    5.30    4.10
   1   8  -3   72.49    8.10
   0   8  -3   45.80    6.50
  -1   8  -3   35.20    5.10
  -2   8  -3  197.88   10.50
  -3   8  -3   10.00    4.30
  -8  -7   3   44.60    9.30
  -7  -7   3    9.50    6.20
   6   7  -3  117.09   14.10
  -6  -7   3  127.89   13.70
   5   7  -3  132.89   15.30
   5   7  -3  120.39    9.80
  -5  -7   3  133.39   11.30
   4   7  -3   15.60    3.70
   4   7  -3    3.10    8.30
  -4  -7   3   16.10    5.30
   3   7  -3    2.60    8.80
   3   7  -3    6.50    2.60
  -3  -7   3   10.20    3.20
   2   7  -3   83.99   12.60
   2   7  -3   68.79    5.90
   1   7  -3   83.29    6.20
   0   7  -3   65.49    6.20
  -1   7  -3  356.66   12.40
  -2   7  -3  210.98   11.30
  -2   7  -3  206.08   14.30
  -3   7  -3   -2.10    3.40
  -3   7  -3   14.10    9.40
   3  -7   3    1.00    2.70
  -4   7  -3   52.89    6.80
   4  -7   3   45.60    5.20
  -8  -6   3   39.20    6.40
   7   6  -3   15.60    5.80
  -7  -6   3   14.20    8.90
  -7  -6   3   15.70    6.70
   6   6  -3   22.10    6.20
  -6  -6   3   13.50    5.60
  -6  -6   3   16.50    6.50
   5   6  -3  425.56   17.30
  -5  -6   3  436.16   13.90
  -5  -6   3  398.06   17.70
   4   6  -3   59.29    5.80
   4   6  -3   57.79    8.20
   4   6  -3   40.40    9.20
  -4  -6   3   65.69    6.90
   3   6  -3   39.50    4.40
   3   6  -3   25.00    8.10
   3   6  -3   43.90    8.10
  -3  -6   3   43.10    5.50
   2   6  -3  866.11   24.50
   2   6  -3  883.21   28.70
   2   6  -3  851.11   28.20
  -2  -6   3  838.82   25.90
   1   6  -3    6.20    7.20
   1   6  -3   18.60    7.60
   1   6  -3    1.70    1.60
   0   6  -3  374.46   13.10
   0   6  -3  365.46   18.60
  -1   6  -3    8.20    7.70
  -1   6  -3   17.40    3.60
   1  -6   3   18.30    2.40
  -2   6  -3  157.38   11.20
  -2   6  -3  139.89    7.80
  -2   6  -3  149.79   17.40
   2  -6   3  154.28    6.50
  -3   6  -3   98.69    7.30
  -3   6  -3   93.89   14.10
   3  -6   3   95.19    6.00
  -4   6  -3  190.58   20.60
  -4   6  -3  188.78   10.90
   4  -6   3  193.48    9.30
  -5   6  -3    9.10    3.80
   8   5  -3   11.70    3.40
  -8  -5   3   18.70    5.90
   7   5  -3   82.39    7.50
   7   5  -3   78.89    5.80
  -7  -5   3   77.89   10.90
  -7  -5   3   98.69   12.90
   6   5  -3  184.08    9.90
  -6  -5   3  191.08   13.00
  -6  -5   3  179.78   12.90
   5   5  -3  117.99   14.20
   5   5  -3  108.09    8.90
  -5  -5   3  100.89    8.50
  -5  -5   3  100.09    8.10
   4   5  -3   54.59    6.90
   4   5  -3   58.29    8.60
  -4  -5   3   58.99    5.90
  -4  -5   3   54.19    5.10
   3   5  -3  110.69    6.60
   3   5  -3  119.89   11.20
   3   5  -3  119.59   10.00
  -3  -5   3  124.99    7.80
   2   5  -3  582.14   17.70
   2   5  -3  581.94   20.50
   2   5  -3  616.24   21.10
  -2  -5   3  589.84   19.30
   1   5  -3  174.08   11.90
   1   5  -3  178.08   11.90
   0   5  -3    3.30    5.00
   0   5  -3    5.20    1.50
   0  -5   3   -2.50    3.70
  -1   5  -3    8.30    3.00
  -1   5  -3    0.50    5.00
   1  -5   3    6.10    4.40
   1  -5   3    3.20    1.20
  -2   5  -3    1.00    5.00
  -2   5  -3   -0.20    1.60
   2  -5   3    2.60    1.50
   2  -5   3   -0.30    5.00
  -3   5  -3    6.20    6.10
  -3   5  -3    5.00    2.00
   3  -5   3    9.80    2.00
  -4   5  -3    0.40    7.80
   4  -5   3   -1.30    2.30
  -5   5  -3  148.99    9.90
   5  -5   3  118.49    8.50
  -6   5  -3   15.90    4.80
   6  -5   3   16.90    6.40
   9   4  -3   -2.20    4.80
  -9  -4   3   14.90    6.70
   8   4  -3   36.00    6.00
  -8  -4   3   23.90    6.70
   7   4  -3   15.10    2.90
   7   4  -3    6.90    3.40
  -7  -4   3    6.50    5.00
  -7  -4   3    7.00    7.70
   6   4  -3   91.09    5.70
   6   4  -3   96.79    6.60
  -6  -4   3   83.79    7.50
  -6  -4   3   93.39   10.40
   5   4  -3  377.86   12.00
   5   4  -3  389.06   12.80
  -5  -4   3  389.26   15.60
  -5  -4   3  370.06   13.90
   4   4  -3   20.70    4.20
   4   4  -3   17.40    5.10
  -4  -4   3   22.60    3.50
  -4  -4   3   23.80    4.10
   3   4  -3  268.57   11.40
   3   4  -3  282.17   12.80
  -3  -4   3  253.07    7.90
  -3  -4   3  249.78   11.00
   2   4  -3   14.40    4.30
   2   4  -3   18.80    4.60
   2   4  -3    6.80    1.60
  -2  -4   3    8.10    2.10
   1   4  -3  447.56   16.00
   1   4  -3  458.95   16.50
  -1  -4   3  441.96   14.50
   0   4  -3  121.19    8.70
   0   4  -3  114.79    5.50
   0   4  -3  113.39    9.20
   0  -4   3  124.09    7.40
   0  -4   3  114.69    4.10
  -1   4  -3   80.69    5.60
  -1   4  -3   84.49    8.10
   1  -4   3   82.59    3.80
   1  -4   3   90.89    7.10
  -2   4  -3   31.60    5.00
  -2   4  -3   29.00    2.90
   2  -4   3   34.20    4.90
   2  -4   3   29.20    2.70
  -3   4  -3   69.09    9.20
  -3   4  -3   71.19    4.50
   3  -4   3   69.69    4.60
   3  -4   3   67.59    8.10
  -4   4  -3   55.79    8.50
  -4   4  -3   47.80    4.40
   4  -4   3   53.49    4.80
   5  -4   3  419.86   15.60
  -6   4  -3    5.70    4.10
   6  -4   3   14.10    4.00
  -7   4  -3  113.89   10.10
   7  -4   3  104.19   10.30
   9   3  -3   25.50    5.80
  -9  -3   3   25.50    7.30
  -8  -3   3  184.88   13.70
  -8  -3   3  199.68    8.70
   7   3  -3    7.90    2.40
   7   3  -3   13.30    3.50
  -7  -3   3    2.80    2.50
  -7  -3   3   24.80    5.60
  -7  -3   3   13.50    8.30
   6   3  -3   49.40    4.40
  -6  -3   3   39.70    4.20
  -6  -3   3   35.40    6.70
  -6  -3   3   54.19    6.30
   5   3  -3  168.48    7.30
   5   3  -3  186.18    7.50
  -5  -3   3  166.28    9.70
  -5  -3   3  171.48    7.50
  -5  -3   3  165.28    9.30
   4   3  -3   59.59    5.20
   4   3  -3   61.09    3.70
  -4  -3   3   51.79    5.10
  -4  -3   3   52.59    4.10
  -4  -3   3   62.19    5.30
   3   3  -3  459.35   13.90
   3   3  -3  449.16   15.20
  -3  -3   3  431.46   14.00
  -3  -3   3  433.16   14.70
  -3  -3   3  443.96   12.00
   2   3  -3  191.38    9.20
   2   3  -3  202.98    8.90
  -2  -3   3  195.08    5.70
  -2  -3   3  198.68    8.50
   1   3  -3 1511.05   35.80
   1   3  -3 1495.65   36.10
   1   3  -3 1494.35   34.40
  -1  -3   3 1412.96   35.10
   0   3  -3   17.60    3.30
   0   3  -3   11.10    3.50
  -1   3  -3  219.78    8.00
  -1   3  -3  219.08    9.30
   1  -3   3  205.98    6.90
   1  -3   3  222.48    8.80
  -2   3  -3 1174.88   28.30
  -2   3  -3 1204.88   29.80
   2  -3   3 1159.78   28.40
   2  -3   3 1209.48   28.90
  -3   3  -3  454.35   13.80
  -3   3  -3  484.15   16.70
   3  -3   3  455.05   14.50
   3  -3   3  450.75   14.20
  -4   3  -3    0.00    5.40
  -4   3  -3    1.10    1.40
   4  -3   3   -2.10    1.60
   4  -3   3   -5.90    3.40
  -5   3  -3  241.58   18.00
  -5   3  -3  261.07   10.10
   5  -3   3  260.67   11.10
  -6   3  -3  280.27   12.60
   6  -3   3  283.97   13.60
  -7   3  -3    0.90    4.50
   7  -3   3   14.30    4.80
   9   2  -3    2.90    4.60
  -9  -2   3    9.40    4.70
  -9  -2   3   -0.70    6.00
   8   2  -3  128.69   10.50
  -8  -2   3  128.39   11.80
  -8  -2   3  115.39    6.80
   7   2  -3   12.00    3.10
  -7  -2   3   15.00    2.60
  -7  -2   3   18.70    4.90
   6   2  -3  116.49    6.80
  -6  -2   3  132.99   11.40
  -6  -2   3  121.89    8.10
  -6  -2   3  123.19    6.10
   5   2  -3   36.10    3.80
   5   2  -3   31.70    3.40
  -5  -2   3   35.90    4.20
  -5  -2   3   29.90    3.30
  -5  -2   3   33.00    4.90
   4   2  -3 1121.79   25.60
   4   2  -3 1038.00   26.70
  -4  -2   3 1066.99   26.80
  -4  -2   3 1140.09   32.70
   3   2  -3   75.69    4.70
  -3  -2   3   80.89    5.20
  -3  -2   3   78.79    5.00
  -3  -2   3   74.39    4.20
   2   2  -3 1456.35   33.40
   2   2  -3 1458.85   33.00
  -2  -2   3 1365.06   33.30
  -2  -2   3 1404.16   33.60
  -2  -2   3 1397.76   31.00
   1   2  -3  863.51   21.20
   1   2  -3  851.11   21.70
   1   2  -3  861.11   20.60
  -1  -2   3  820.82   21.80
  -1  -2   3  829.22   21.10
   0   2  -3 1793.62   40.30
   0   2  -3 1784.72   39.60
   0   2  -3 1847.12   41.70
   0  -2   3 1759.22   38.90
   0  -2   3 1816.82   39.90
  -1   2  -3  720.73   17.70
  -1   2  -3  743.33   18.40
  -1   2  -3  718.13   20.20
   1  -2   3  711.03   18.00
   1  -2   3  755.42   18.30
  -2   2  -3   26.00    2.20
  -2   2  -3   32.90    4.70
   2  -2   3   30.80    2.60
   2  -2   3   22.10    3.40
  -3   2  -3  133.49    5.60
  -3   2  -3  128.69    8.50
   3  -2   3  123.39    6.10
   3  -2   3  133.49    6.50
  -4   2  -3   62.09    9.20
  -4   2  -3   45.00    3.60
   4  -2   3   63.79    6.10
   4  -2   3   52.19    4.40
  -5   2  -3    6.00    1.80
  -5   2  -3    2.60    6.10
   5  -2   3    7.70    2.10
   5  -2   3    7.00    4.60
  -6   2  -3  184.28    9.70
   6  -2   3  202.98    9.60
  -7   2  -3   46.20    6.80
   7  -2   3   37.30    6.60
  -8   2  -3    4.20    3.00
   8  -2   3    4.30    4.20
   9   1  -3  156.58   11.00
  -9  -1   3  155.18    8.60
  -9  -1   3  176.38   13.90
   8   1  -3   89.89   10.00
  -8  -1   3  101.69    6.40
  -8  -1   3  109.99   10.60
   7   1  -3  145.99    9.40
  -7  -1   3  175.08    7.40
  -7  -1   3  177.48   11.20
   6   1  -3   69.89    5.30
   6   1  -3   53.59    6.50
   6   1  -3   72.99    5.30
  -6  -1   3   77.19   10.70
  -6  -1   3   62.39    5.90
  -6  -1   3   69.19    4.40
   5   1  -3  223.08   10.00
   5   1  -3  219.88    7.60
   5   1  -3  202.28    9.00
  -5  -1   3  213.68   11.00
  -5  -1   3  214.58    7.80
   4   1  -3  982.70   25.70
   4   1  -3 1025.50   23.70
  -4  -1   3 1048.20   26.20
  -4  -1   3 1020.20   24.70
  -4  -1   3 1027.70   27.00
   3   1  -3   35.10    2.80
   3   1  -3   42.00    3.20
  -3  -1   3   38.10    3.80
  -3  -1   3   35.90    2.70
  -3  -1   3   37.20    3.10
   2   1  -3 1409.46   31.60
  -2  -1   3 1390.96   31.40
  -2  -1   3 1411.56   32.30
  -2  -1   3 1414.56   32.50
   1   1  -3   28.00    2.50
   1   1  -3   27.40    2.80
  -1  -1   3   24.80    2.30
   0   1  -3  843.82   21.00
   0   1  -3  898.41   19.90
   0   1  -3  839.52   19.70
   0  -1   3  893.31   19.90
   0  -1   3  872.01   19.80
   0  -1   3  835.12   21.20
  -1   1  -3 1340.07   29.90
  -1   1  -3 1429.06   31.30
  -1   1  -3 1350.36   31.80
   1  -1   3 1414.06   30.20
   1  -1   3 1319.57   31.10
  -2   1  -3 3167.78   67.59
  -2   1  -3 3294.07   69.89
  -2   1  -3 3144.49   71.39
   2  -1   3 3062.09   69.29
   2  -1   3 3324.07   67.69
  -3   1  -3  241.78    8.00
   3  -1   3  241.58    9.20
   3  -1   3  254.97    8.40
  -4   1  -3  660.73   18.00
  -4   1  -3  694.03   21.80
   4  -1   3  658.23   19.70
   4  -1   3  689.33   18.10
  -5   1  -3   27.90    6.20
  -5   1  -3   34.00    3.40
   5  -1   3   27.80    3.80
   5  -1   3   26.00    4.50
  -6   1  -3  183.78   18.50
  -6   1  -3  171.58    8.80
   6  -1   3  198.88   13.30
   6  -1   3  190.88   10.00
  -7   1  -3   23.70    3.20
   7  -1   3   18.40    4.40
  -8   1  -3   60.89    4.70
   8  -1   3   56.59    8.10
   9   0  -3   63.89    8.10
  -9   0   3   53.89    6.90
  -9   0   3   43.60    8.10
   8   0  -3    8.50    4.30
  -8   0   3   18.30    3.10
   7   0  -3   86.69    7.60
  -7   0   3   74.59    5.10
   6   0  -3   15.30    3.10
   6   0  -3   21.90    5.40
  -6   0   3   13.70    6.30
  -6   0   3   20.60    2.80
   5   0  -3   94.29    6.00
   5   0  -3  103.09    7.30
  -5   0   3   96.29    8.60
  -5   0   3   89.09    4.50
   4   0  -3  506.05   15.70
   4   0  -3  541.25   13.80
   4   0  -3  564.44   15.40
  -4   0   3  516.15   14.10
  -4   0   3  524.65   16.30
   3   0  -3   55.89    3.30
   3   0  -3   50.79    3.40
  -3   0   3   55.19    4.50
  -3   0   3   56.19    3.10
   2   0  -3    0.30    1.00
  -2   0   3    1.80    1.50
  -2   0   3    1.90    0.60
   1   0  -3  797.52   18.40
  -1   0   3  782.72   18.70
   0   0  -3   42.90    2.80
   0   0  -3   45.40    2.00
   0   0   3   45.40    2.00
  -1   0  -3  294.47    7.10
  -1   0  -3  273.47    8.20
   1   0   3  285.07    7.00
   1   0   3  271.77    8.50
  -2   0  -3  116.89    4.10
  -2   0  -3  124.09    5.10
  -2   0  -3  114.59    6.90
   2   0   3  114.59    4.20
   2   0   3  119.59    5.40
  -3   0  -3  232.58   10.00
  -3   0  -3  217.98    7.80
  -3   0  -3  224.08    7.20
   3   0   3  241.18    7.50
   3   0   3  217.98    8.70
  -4   0  -3   69.69    3.90
  -4   0  -3   67.79    7.40
  -4   0  -3   81.59    5.40
   4   0   3   72.39    4.80
   4   0   3   76.29    5.00
  -5   0  -3    2.90    4.30
  -5   0  -3    1.20    1.40
   5   0   3    1.50    1.60
   5   0   3    2.00    2.80
  -6   0  -3    9.90    6.70
  -7   0  -3   97.79    9.90
  -7   0  -3   95.39    4.10
   7   0   3   92.89    8.40
  -8   0  -3  289.77   14.00
  -8   0  -3  288.17    8.40
   8   0   3  276.27   14.70
   9   0   3   42.40    6.10
   8  -1  -3   -8.00    4.00
  -8   1   3    7.30    3.00
   7  -1  -3   21.00    4.80
  -7   1   3   16.70    2.70
   6  -1  -3  153.48   10.80
   6  -1  -3  143.09    8.40
  -6   1   3  146.39    6.40
   5  -1  -3  356.96   12.70
   5  -1  -3  340.87   13.00
  -5   1   3  343.27   10.70
  -5   1   3  350.16   14.70
   4  -1  -3   58.09    5.10
   4  -1  -3   56.79    4.20
  -4   1   3   58.79    6.00
  -4   1   3   62.09    3.40
   3  -1  -3 1065.09   24.20
   3  -1  -3 1002.40   25.70
   3  -1  -3 1049.59   23.90
  -3   1   3  982.30   25.40
  -3   1   3 1009.00   23.80
   2  -1  -3  547.75   14.40
   2  -1  -3  537.75   13.10
  -2   1   3  530.25   13.40
  -2   1   3  529.55   14.50
  -1  -1  -3  688.03   14.50
  -1  -1  -3  623.04   14.20
  -1  -1  -3  678.33   15.20
   1   1   3  675.63   15.50
   1   1   3  664.33   14.30
   1   1   3  660.03   14.10
  -2  -1  -3 4313.17   90.19
   2   1   3 4131.39   90.09
  -3  -1  -3 4113.09   84.79
  -3  -1  -3 4230.48   89.09
   3   1   3 4069.49   85.59
   3   1   3 3972.00   88.59
  -4  -1  -3  179.58    9.90
  -4  -1  -3  172.58    5.70
   4   1   3  175.98    9.40
   4   1   3  161.48    7.70
  -5  -1  -3   30.50    3.50
  -5  -1  -3   27.90    5.70
   5   1   3   35.10    4.50
   5   1   3   34.10    3.80
  -6  -1  -3  305.67    9.20
  -6  -1  -3  286.37    8.50
  -6  -1  -3  308.27   16.90
   6   1   3  300.97   12.50
   7   1   3   -5.60    2.90
   8   1   3    4.60    4.40
  -9  -1  -3   -2.40    5.20
   9   1   3    4.70    4.60
   8  -2  -3    5.50    4.20
  -8   2   3   -4.40    3.20
   7  -2  -3   15.40    4.50
  -7   2   3   25.90    2.90
   6  -2  -3   34.90    5.10
  -6   2   3   40.00    3.80
   5  -2  -3  209.88   10.00
   5  -2  -3  198.98    9.60
  -5   2   3  206.48   12.40
  -5   2   3  211.38    7.80
   4  -2  -3  159.08    7.60
   4  -2  -3  157.38    7.80
  -4   2   3  165.98    9.20
  -4   2   3  164.98    6.40
   3  -2  -3   40.60    3.40
  -3   2   3   47.00    5.00
  -3   2   3   40.50    2.80
  -3   2   3   41.00    2.70
  -2   2   3 9999.00  206.88
   1  -2  -3 4893.11  102.89
   0  -2  -3  158.68    5.10
   0  -2  -3  163.88    4.10
   0   2   3  156.28    4.90
  -1  -2  -3   29.40    1.80
  -1  -2  -3   30.10    2.40
   1   2   3   27.10    2.40
   1   2   3   28.80    2.00
  -2  -2  -3   39.80    4.00
  -2  -2  -3   49.00    2.00
   2   2   3   52.09    3.40
   2   2   3   49.40    2.30
  -3  -2  -3  144.09    3.60
  -3  -2  -3  144.69    7.50
  -3  -2  -3  140.29    5.70
   3   2   3  147.69    4.20
   3   2   3  141.39    6.00
   3   2   3  137.49    6.50
  -4  -2  -3  301.77   10.30
  -4  -2  -3  302.67   12.60
   4   2   3  305.27   11.20
  -5  -2  -3  194.68   11.90
  -5  -2  -3  191.38    8.40
   5   2   3  183.68    8.80
   5   2   3  189.98    8.20
  -6  -2  -3  195.88    9.40
  -6  -2  -3  201.58   14.60
   6   2   3  196.18    9.70
   6   2   3  190.48    9.50
  -7  -2  -3  289.37   12.60
   7   2   3  286.27   12.20
  -8  -2  -3  135.89   10.20
   8   2   3  117.59   10.70
   9   2   3    9.00    4.30
   8  -3  -3   19.20    5.30
  -8   3   3   25.10    4.80
   7  -3  -3    7.30    4.60
  -7   3   3    7.00    2.80
   6  -3  -3  245.08   18.40
  -6   3   3  321.77   10.90
   5  -3  -3   50.79    6.40
   5  -3  -3   29.80    4.40
  -5   3   3   36.70    3.40
  -5   3   3   27.50    3.70
  -5   3   3   21.40    6.30
   4  -3  -3   37.10    4.00
   4  -3  -3   42.60    5.70
  -4   3   3   34.30    5.60
  -4   3   3   42.00    3.30
  -4   3   3   40.60    3.60
   3  -3  -3  882.11   21.50
  -3   3   3  856.51   21.60
  -3   3   3  868.01   21.80
  -3   3   3  892.21   23.70
   2  -3  -3  578.94   14.20
  -2   3   3  549.35   14.00
  -2   3   3  551.74   15.80
  -2   3   3  517.65   14.40
   1  -3  -3 2003.50   42.70
  -1   3   3 1941.51   42.60
  -1   3   3 2042.50   44.60
   0  -3  -3 1654.83   34.00
   0   3   3 1518.35   33.60
   0   3   3 1553.04   34.60
   1   3   3 1017.30   22.00
   1   3   3  953.80   22.20
   1   3   3 1012.40   24.00
  -2  -3  -3    3.60    1.10
   2   3   3    3.20    1.10
   2   3   3    3.40    1.00
   2   3   3    6.10    2.40
  -3  -3  -3  177.88    8.10
  -3  -3  -3  171.08    7.10
   3   3   3  176.58    7.50
   3   3   3  171.08    4.60
   3   3   3  163.58    7.20
  -4  -3  -3 1661.43   40.30
  -4  -3  -3 1733.03   41.40
   4   3   3 1718.53   41.10
  -5  -3  -3  150.68    7.70
  -5  -3  -3  169.78   11.00
   5   3   3  162.48    7.70
   5   3   3  158.78    8.00
  -6  -3  -3  741.23   25.40
  -6  -3  -3  737.53   22.60
   6   3   3  750.72   22.70
   6   3   3  728.83   21.00
  -7  -3  -3  217.18   21.60
  -7  -3  -3  210.18   10.70
   7   3   3  205.38   11.00
   7   3   3  203.08   12.40
  -8  -3  -3   36.90    6.40
   8   3   3   39.40    6.40
  -9  -3  -3   -1.90    5.70
   9   3   3   10.30    5.00
  -7   4   3    5.40    3.90
  -6   4   3   35.60    5.20
  -5   4   3   28.40    3.50
  -5   4   3   26.10    3.50
   4  -4  -3  162.08    9.00
  -4   4   3  164.48    7.10
  -4   4   3  152.28   10.90
  -4   4   3  166.38    7.40
   3  -4  -3  256.07    9.60
  -3   4   3  249.08   11.10
  -3   4   3  242.48    8.70
  -3   4   3  238.08    8.70
   2  -4  -3  255.47    8.70
  -2   4   3  245.98    9.90
  -2   4   3  240.78    8.50
  -2   4   3  235.18    7.90
   1  -4  -3  754.92   18.30
  -1   4   3  739.03   17.80
  -1   4   3  720.23   18.80
  -1   4   3  761.22   19.60
   0  -4  -3   26.10    2.90
   0   4   3   21.40    1.70
   0   4   3   22.60    2.00
   1   4   3   76.69    3.40
   1   4   3   79.19    6.00
  -2  -4  -3 1160.28   29.40
   2   4   3 1228.38   30.10
   2   4   3 1190.08   28.60
   2   4   3 1211.88   26.70
  -3  -4  -3 1273.17   32.50
   3   4   3 1378.76   32.90
   3   4   3 1317.47   32.10
   3   4   3 1306.97   28.50
  -4  -4  -3    8.20    3.60
  -4  -4  -3    8.00    2.00
   4   4   3    8.70    3.60
   4   4   3    4.90    1.40
   4   4   3    8.00    1.10
  -5  -4  -3 1223.18   32.60
  -5  -4  -3 1164.28   31.70
   5   4   3 1191.98   31.20
  -6  -4  -3  314.87   13.30
  -6  -4  -3  317.67   16.60
   6   4   3  317.87   12.60
  -7  -4  -3  521.85   24.30
  -7  -4  -3  557.74   20.40
   7   4   3  637.14   24.00
   7   4   3  580.04   19.60
  -8  -4  -3   63.39    9.70
   8   4   3   62.39   10.00
  -9  -4  -3   -7.80    5.90
   9   4   3   -9.80    4.10
  -7   5   3   -4.80    4.30
  -6   5   3   -3.20    3.90
  -6   5   3   -1.00    4.10
  -5   5   3   -1.80    3.00
  -5   5   3    1.50    3.10
   4  -5  -3    3.10    4.80
  -4   5   3    4.30    6.00
  -4   5   3    1.70    1.90
  -4   5   3    4.40    2.20
   3  -5  -3  194.28    9.70
  -3   5   3  193.78    7.90
  -3   5   3  191.58    8.00
  -3   5   3  206.78   11.30
   2  -5  -3  218.78    9.30
  -2   5   3  206.38    7.60
  -2   5   3  215.68    9.90
  -2   5   3  204.38    8.10
   1  -5  -3   18.10    3.30
  -1   5   3   15.10    3.20
  -1   5   3   15.80    1.90
   0  -5  -3 2194.48   48.30
   0   5   3 2196.48   48.60
   0   5   3 2153.08   47.60
   1   5   3 1541.05   38.10
   1   5   3 1532.95   34.70
  -2  -5  -3    2.90    1.40
   2   5   3    2.80    3.70
   2   5   3    0.60    1.10
   2   5   3    2.10    0.90
  -3  -5  -3  113.79    6.60
   3   5   3  117.19    5.70
   3   5   3  127.89    9.00
  -4  -5  -3   69.79    5.50
   4   5   3   61.49    8.10
   4   5   3   63.59    2.70
   4   5   3   59.19    4.40
  -5  -5  -3  235.38   12.00
  -5  -5  -3  232.98   11.00
   5   5   3  226.28    9.50
   5   5   3  229.58   12.70
  -6  -5  -3  235.48   14.70
  -6  -5  -3  246.28   11.90
   6   5   3  247.48   10.70
  -7  -5  -3   -0.20    3.40
  -7  -5  -3    6.90    8.30
   7   5   3    5.60    2.60
  -8  -5  -3   -3.10    4.70
   8   5   3   -5.40    3.70
  -9  -5  -3   18.90    6.80
   9   5   3   12.70    5.30
  -6   6   3  163.38   10.70
  -6   6   3  173.08   10.10
  -5   6   3   43.50    6.60
  -5   6   3   54.89    6.20
  -4   6   3   65.29    6.50
  -4   6   3   46.90    5.60
   3  -6  -3  616.34   19.90
  -3   6   3  613.44   18.00
  -3   6   3  612.94   21.00
  -3   6   3  618.44   18.00
   2  -6  -3    2.10    4.10
  -2   6   3    5.10    1.50
  -2   6   3    2.10    3.70
   1  -6  -3    3.60    3.60
  -1   6   3    2.20    1.30
  -1   6   3    4.30    3.10
   0  -6  -3  203.48    9.30
   0   6   3  223.98    7.70
   0   6   3  215.08    8.80
   0   6   3  218.08   13.00
   1   6   3  574.34   20.10
   1   6   3  578.44   15.60
   2   6   3  391.16   12.10
   2   6   3  403.76   16.40
  -3  -6  -3    6.40    2.50
   3   6   3    6.30    1.70
   3   6   3    3.10    1.40
   3   6   3    9.70    5.40
  -4  -6  -3   13.90    3.00
   4   6   3   12.00    2.20
   4   6   3    7.30    5.10
  -5  -6  -3   55.79    6.10
   5   6   3   55.49    2.60
   5   6   3   54.39    4.50
   5   6   3   53.29    6.20
   5   6   3   62.79    8.70
  -6  -6  -3   15.40    6.30
  -6  -6  -3    9.30    3.30
   6   6   3    8.90    2.40
   6   6   3   18.80    8.00
  -7  -6  -3   31.70    9.20
  -7  -6  -3   39.70    7.10
   7   6   3   42.10    5.10
  -8  -6  -3    8.30    6.90
   8   6   3    6.80    3.80
  -9  -6  -3   -4.40    6.50
   9   6   3    0.20    5.60
  -5   7   3  108.19    8.40
  -5   7   3  118.29    9.00
  -4   7   3   -3.60    3.50
  -4   7   3    8.20    4.20
  -3   7   3   85.69    6.30
  -3   7   3  102.99    7.40
  -3   7   3  106.39   13.80
   2  -7  -3    4.40    6.00
  -2   7   3   -1.40    1.80
  -2   7   3    4.50    5.20
   1  -7  -3   13.20    5.40
  -1   7   3   10.20    4.00
  -1   7   3    9.40    1.90
   0  -7  -3  396.46   14.80
   0   7   3  390.36   19.10
   0   7   3  377.36   12.20
   0   7   3  415.06   13.30
   1   7   3 1083.99   27.30
   1   7   3 1112.59   26.90
   1   7   3 1105.19   33.50
   2   7   3  168.58    7.30
   2   7   3  158.08    6.80
   2   7   3  164.98   13.70
   3   7   3  109.89    5.70
   3   7   3  113.49    6.00
   3   7   3  110.39   12.70
  -4  -7  -3   35.30    5.10
   4   7   3   29.30    8.00
   4   7   3   32.00    3.60
   4   7   3   34.40    3.90
  -5  -7  -3  196.48   11.50
   5   7   3  202.48   16.80
   5   7   3  212.18    8.70
   6   7   3   53.99    2.70
   6   7   3   63.99    6.60
   6   7   3   50.69    5.00
  -7  -7  -3   35.00    6.70
   7   7   3   33.00    5.10
  -8  -7  -3   63.49    9.50
   8   7   3   42.20    6.60
  -9  -7  -3  171.18   14.30
   9   7   3  175.88   13.10
  -4   8   3   28.20    5.00
  -4   8   3   18.40    4.00
  -3   8   3   34.10    4.80
  -3   8   3   25.10    5.60
  -2   8   3   -5.00    6.60
  -2   8   3    5.30    3.30
  -1   8   3   51.79    7.00
  -1   8   3   42.80    4.50
   0  -8  -3  268.27   14.70
   0   8   3  274.47   10.10
   0   8   3  276.57   11.60
   1   8   3  360.56   12.20
   1   8   3  374.66   12.50
   2   8   3   37.30    5.70
   2   8   3   38.20    3.80
   2   8   3   37.80    3.80
   3   8   3  565.14   17.40
   3   8   3  563.24   15.80
  -4  -8  -3   67.59    6.60
   4   8   3   57.89    4.90
   4   8   3   57.39    4.70
  -5  -8  -3   44.80    7.70
   5   8   3   51.19    5.50
   5   8   3   48.30    4.40
  -6  -8  -3   28.30    6.00
   6   8   3   30.00    4.50
   6   8   3   31.90    2.90
  -7  -8  -3   16.30    6.80
   7   8   3   13.50    2.90
  -8  -8  -3   25.90    7.40
   8   8   3   19.10    3.90
  -3   9   3   12.80    4.20
  -3   9   3   19.20    4.60
  -2   9   3  118.79    9.30
  -2   9   3  112.89    8.50
  -1   9   3   29.20    4.50
  -1   9   3   25.20    7.50
   0   9   3   53.49    6.90
   0   9   3   52.59    6.00
   1   9   3    8.90    2.30
   1   9   3    3.20    4.90
   2   9   3   55.39    6.40
   2   9   3   43.90    4.60
   2   9   3   53.99    4.50
   3   9   3    1.60    2.10
   3   9   3   -2.90    2.40
   4   9   3   22.90    2.70
   4   9   3   21.80    3.90
  -5  -9  -3    0.50    5.70
   5   9   3   -1.90    2.20
   5   9   3    3.10    3.60
  -6  -9  -3   20.10    7.20
   6   9   3   20.80    2.60
   6   9   3   18.20    5.80
   6   9   3   17.30    2.80
  -7  -9  -3   16.20    6.70
   7   9   3   22.70    3.10
   7   9   3   19.90    4.70
   7   9   3   20.80    3.50
  -1  10   3   14.60    4.20
   0  10   3  258.27   12.80
   1  10   3  100.69    9.20
   2  10   3    6.40    3.60
   3  10   3   41.20    5.60
   4  10   3  149.99   11.50
   5  10   3   17.00    5.70
  -6 -10  -3    5.60    6.20
   6  10   3   17.50    5.20
   6  10   3   15.00    2.80
   2  11   3   18.30    4.10
   3  11   3   39.00    5.40
   4  11   3   -2.90    4.20
   5   9  -4   -5.60    5.10
  -5  -9   4   -7.40    6.60
   4   9  -4    0.10    4.60
   3   9  -4   50.49    7.50
   2   9  -4    6.90    3.90
   1   9  -4  117.49    8.80
   0   9  -4    9.20    4.80
   6   8  -4    3.10    4.60
  -6  -8   4   -1.30    6.30
   5   8  -4  242.28   12.80
  -5  -8   4  245.88   16.30
   4   8  -4   -0.40    3.60
  -4  -8   4    3.80    6.10
   3   8  -4  168.78   11.30
   2   8  -4    1.10    4.10
   1   8  -4  188.38   11.20
   0   8  -4   86.49    8.00
  -1   8  -4   10.20    3.80
  -2   8  -4    0.90    3.70
  -7  -7   4   44.00    7.30
   6   7  -4  216.08   18.10
   6   7  -4  258.67   13.90
  -6  -7   4  264.67   15.90
   5   7  -4   87.19    9.80
   5   7  -4   67.69   11.80
  -5  -7   4   92.49   12.80
   4   7  -4  121.29    8.80
  -3  -7   4   37.50    6.30
   2   7  -4   18.90    4.00
   1   7  -4  213.98   10.70
  -1   7  -4  269.47   12.50
  -2   7  -4   85.49    8.00
  -2   7  -4   72.09    8.50
   2  -7   4   59.89    4.80
  -3   7  -4   -2.20    3.40
   3  -7   4    4.70    2.90
  -4   7  -4   32.20    5.30
   4  -7   4   18.80    4.20
  -8  -6   4   12.30    7.00
  -7  -6   4    7.20    6.30
   6   6  -4   68.59    8.70
  -6  -6   4   84.29   11.50
  -6  -6   4   61.49   10.10
   5   6  -4  134.69   13.70
   5   6  -4  149.09   13.40
  -5  -6   4  160.58    8.90
  -5  -6   4  158.58   12.30
   4   6  -4  202.58   14.80
   4   6  -4  204.78   10.10
  -4  -6   4  213.28   11.50
   3   6  -4 1390.86   36.40
   3   6  -4 1392.66   40.60
   3   6  -4 1413.56   39.60
  -3  -6   4 1397.56   38.70
   2   6  -4    8.50    7.50
   2   6  -4   12.80    2.70
   2   6  -4   14.20    8.10
  -2  -6   4   14.70    2.90
   1   6  -4    1.50    1.90
   1   6  -4    3.60    7.80
   1   6  -4    5.40    8.30
   0   6  -4  166.58    8.40
   0   6  -4  165.48   15.40
  -1   6  -4   -3.40    1.90
  -1   6  -4   11.80    8.60
   1  -6   4   -0.90    1.30
  -2   6  -4    3.00    2.50
  -2   6  -4    0.90    5.50
  -2   6  -4   -9.10   10.40
   2  -6   4    2.50    1.90
  -3   6  -4   11.80    7.90
  -3   6  -4    6.70    3.70
   3  -6   4    3.30    2.40
  -4   6  -4    3.50   11.30
  -4   6  -4    2.70    3.30
   4  -6   4    1.70    3.10
  -5   6  -4   -0.10    4.50
   5  -6   4    6.90    5.40
  -8  -5   4    3.70    5.70
   7   5  -4  190.58   11.10
  -7  -5   4  167.58   17.20
  -7  -5   4  173.78   16.00
   6   5  -4   11.40    5.40
  -6  -5   4   14.30    5.40
  -6  -5   4   17.70    6.40
   5   5  -4   38.40    6.50
  -5  -5   4   38.30    5.50
  -5  -5   4   30.20    4.80
   4   5  -4 1008.30   30.60
   4   5  -4  973.20   28.10
  -4  -5   4  956.80   29.50
  -4  -5   4  964.90   23.60
   3   5  -4 1584.54   40.50
   3   5  -4 1518.05   38.70
   3   5  -4 1521.95   41.10
  -3  -5   4 1559.94   41.00
   2   5  -4   39.30    7.10
   2   5  -4   42.00    7.30
   2   5  -4   30.00    3.50
  -2  -5   4   31.30    4.50
   1   5  -4   -1.80    5.20
   1   5  -4   -0.40    1.50
   1   5  -4    0.80    5.40
   0   5  -4    6.30    5.50
   0   5  -4    4.00    6.30
   0   5  -4    7.40    1.80
   0  -5   4   10.40    4.90
  -1   5  -4    2.50    6.50
  -1   5  -4   -0.90    1.40
  -1   5  -4   -6.20    5.20
   1  -5   4    5.00    4.80
   1  -5   4    1.00    1.20
  -2   5  -4  142.89   13.70
  -2   5  -4  136.49    7.00
  -2   5  -4  152.28   10.20
   2  -5   4  125.09   11.80
   2  -5   4  137.99    6.00
  -3   5  -4  153.58    8.00
  -3   5  -4  160.88   13.40
   3  -5   4  180.68    7.80
  -4   5  -4    5.40    2.90
  -4   5  -4   -5.30    8.20
   4  -5   4   -1.50    2.40
  -5   5  -4   55.09    7.10
   5  -5   4   63.29    7.80
  -6   5  -4   -1.30    4.40
   6  -5   4    0.80    5.50
  -8  -4   4    9.10    5.50
   7   4  -4   18.10    4.60
  -7  -4   4   20.90    9.00
  -7  -4   4   12.30    6.50
   6   4  -4   62.39    7.20
  -6  -4   4   50.29    7.60
  -6  -4   4   64.69    8.30
   5   4  -4  613.04   18.30
  -5  -4   4  602.94   18.70
  -5  -4   4  583.34   20.90
   4   4  -4 2074.49   50.79
   4   4  -4 2087.09   48.40
  -4  -4   4 2065.59   46.20
  -4  -4   4 2016.70   51.59
   3   4  -4  422.26   15.30
   3   4  -4  424.16   16.20
  -3  -4   4  390.26   15.00
  -3  -4   4  403.46   11.10
   2   4  -4  549.74   18.30
   2   4  -4  529.95   18.20
   2   4  -4  513.95   15.90
  -2  -4   4  515.35   17.00
   1   4  -4  611.14   17.40
   1   4  -4  585.14   20.10
   1   4  -4  594.84   19.50
  -1  -4   4  594.14   18.00
   0   4  -4  479.15   18.40
   0   4  -4  513.45   15.00
   0   4  -4  526.45   17.70
   0  -4   4  511.65   12.80
   0  -4   4  508.25   16.50
  -1   4  -4  749.33   24.60
  -1   4  -4  750.32   20.10
  -1   4  -4  717.33   21.30
  -1   4  -4  744.83   22.60
   1  -4   4  743.13   18.50
   1  -4   4  744.93   21.50
  -2   4  -4    2.30    1.30
   2  -4   4    3.30    4.10
   2  -4   4    4.40    1.50
  -3   4  -4   17.60    2.90
  -3   4  -4   25.70    6.10
   3  -4   4   24.70    3.40
   3  -4   4   23.10    5.80
  -4   4  -4  175.98   15.30
  -4   4  -4  158.98    7.40
   4  -4   4  151.78    7.80
  -5   4  -4  376.96   14.70
   5  -4   4  378.36   14.00
  -6   4  -4  290.67   13.50
   6  -4   4  290.47   14.80
  -7   4  -4   18.90    5.00
   7  -4   4    1.60    4.80
  -9  -3   4   53.49    9.80
   8   3  -4   57.59    7.60
  -8  -3   4   46.10    6.30
  -8  -3   4   39.70    7.60
   7   3  -4   18.80    4.30
   7   3  -4   14.00    3.70
  -7  -3   4   10.20    4.90
  -7  -3   4   17.50    3.20
   6   3  -4   23.00    4.00
  -6  -3   4   18.50    3.20
  -6  -3   4   18.60    6.20
  -6  -3   4   18.90    3.80
   5   3  -4  132.39    7.40
  -5  -3   4  132.89    9.00
  -5  -3   4  128.29    8.10
  -5  -3   4  130.19    7.00
   4   3  -4   18.40    3.90
  -4  -3   4   13.70    2.80
  -4  -3   4   12.60    3.20
  -4  -3   4   14.80    2.60
   3   3  -4  831.32   22.20
   3   3  -4  848.72   23.20
  -3  -3   4  773.42   22.60
  -3  -3   4  796.22   19.80
  -3  -3   4  803.82   23.30
   2   3  -4   14.70    2.30
   2   3  -4   13.90    3.80
   2   3  -4   10.30    3.50
  -2  -3   4   18.10    3.00
  -2  -3   4   14.20    2.60
  -2  -3   4   16.00    2.30
   1   3  -4    0.00    2.90
   1   3  -4    0.70    3.30
   1   3  -4    0.60    1.00
  -1  -3   4   -1.00    1.30
  -1  -3   4    0.00    1.30
   0   3  -4  716.93   18.80
   0   3  -4  730.03   20.40
   0   3  -4  701.33   21.50
   0  -3   4  750.22   19.80
  -1   3  -4   -0.40    3.50
  -1   3  -4    1.40    0.90
  -1   3  -4    2.80    2.30
  -1   3  -4    1.50    2.80
   1  -3   4    2.10    1.00
   1  -3   4    0.90    2.60
  -2   3  -4   21.70    4.20
  -2   3  -4   16.90    2.40
  -2   3  -4   25.70    5.90
   2  -3   4   21.10    2.60
   2  -3   4   23.10    4.10
  -3   3  -4  452.75   17.10
  -3   3  -4  454.55   13.90
   3  -3   4  457.25   14.60
   3  -3   4  463.55   15.20
  -4   3  -4  810.42   22.60
  -4   3  -4  823.62   27.10
   4  -3   4  812.02   23.30
   4  -3   4  851.11   23.80
  -5   3  -4  260.87   19.50
  -5   3  -4  260.87   10.70
   5  -3   4  280.07   11.60
  -6   3  -4  120.19    9.70
   6  -3   4  139.29   11.50
  -7   3  -4  282.77   13.20
   7  -3   4  270.97   14.10
   9   2  -4   37.00    5.80
  -9  -2   4   44.60    7.70
  -9  -2   4   34.80    4.90
   8   2  -4  274.07   15.00
  -8  -2   4  271.97   15.60
  -8  -2   4  252.47   10.80
   7   2  -4   51.79    5.20
   7   2  -4   58.19    6.90
  -7  -2   4   50.69    5.30
   6   2  -4  139.19    7.10
   6   2  -4  128.49    7.20
  -6  -2   4  128.69    9.10
  -6  -2   4  131.79   11.80
  -6  -2   4  139.49    6.90
   5   2  -4   44.80    4.80
  -5  -2   4   54.69    7.20
  -5  -2   4   41.10    4.00
   4   2  -4  820.02   20.60
  -4  -2   4  798.12   23.30
  -4  -2   4  787.42   21.80
  -4  -2   4  823.22   21.60
   3   2  -4 1487.75   35.50
  -3  -2   4 1513.05   37.20
  -3  -2   4 1519.85   36.60
  -3  -2   4 1548.55   34.70
   2   2  -4    6.80    2.70
   2   2  -4    3.20    2.30
  -2  -2   4    4.70    1.60
  -2  -2   4    3.40    1.20
  -2  -2   4    5.30    1.40
   1   2  -4  203.58    9.10
   1   2  -4  197.18    8.70
   1   2  -4  208.68    7.20
  -1  -2   4  189.98    8.20
  -1  -2   4  202.08    7.50
   0   2  -4   74.19    3.70
   0   2  -4   73.29    6.00
   0   2  -4   77.59    5.10
   0  -2   4   69.79    3.60
   0  -2   4   77.39    4.90
  -1   2  -4 1116.79   26.20
  -1   2  -4 1053.09   25.30
   1  -2   4 1104.09   26.10
   1  -2   4 1071.89   26.00
  -2   2  -4 1253.97   29.40
  -2   2  -4 1252.97   32.50
  -2   2  -4 1275.37   31.40
   2  -2   4 1289.17   29.80
   2  -2   4 1264.27   30.70
  -3   2  -4  567.84   18.70
  -3   2  -4  581.24   19.10
  -3   2  -4  574.34   15.70
   3  -2   4  578.94   16.20
   3  -2   4  550.04   16.90
  -4   2  -4  238.18    9.20
  -4   2  -4  244.78   14.10
   4  -2   4  247.98   10.70
   4  -2   4  255.07   10.40
  -5   2  -4   99.79   14.10
  -5   2  -4  105.49    6.00
   5  -2   4  117.69    7.00
   5  -2   4   90.49   11.60
  -6   2  -4    2.10    3.10
  -6   2  -4    2.00    7.90
  -7   2  -4   23.10    5.40
  -7   2  -4   25.50   11.50
   7  -2   4   15.40    5.00
  -8   2  -4   17.20    3.30
   8  -2   4   -0.30    4.40
   9   1  -4   22.90    5.70
  -9  -1   4   32.50    7.90
  -9  -1   4   10.20    4.60
   8   1  -4  383.86   17.80
  -8  -1   4  350.66   18.10
  -8  -1   4  390.36   13.50
   7   1  -4   -1.10    3.30
  -7  -1   4    0.30    2.50
  -7  -1   4   -4.10    4.60
   6   1  -4  293.17   13.70
   6   1  -4  297.97   12.40
   6   1  -4  306.87   10.70
  -6  -1   4  315.47   13.70
  -6  -1   4  313.37   11.00
  -6  -1   4  304.77   15.90
   5   1  -4   80.19    5.40
   5   1  -4   86.99    5.50
  -5  -1   4   76.49    5.80
  -5  -1   4   82.09    4.90
  -5  -1   4   95.59    8.40
  -4  -1   4  741.83   20.50
  -4  -1   4  732.53   21.20
  -4  -1   4  755.32   19.90
   3   1  -4  323.57    9.80
  -3  -1   4  313.37   10.30
  -3  -1   4  294.87   10.10
  -3  -1   4  304.37   10.70
   2   1  -4 2245.78   47.20
  -2  -1   4 2073.79   47.90
  -2  -1   4 2066.99   47.50
  -2  -1   4 2127.09   48.00
   1   1  -4    5.90    1.80
   1   1  -4    7.00    1.60
  -1  -1   4    6.20    1.30
  -1  -1   4   10.40    1.90
   0   1  -4  217.68    6.70
   0   1  -4  210.78    8.10
   0   1  -4  206.68    6.50
   0  -1   4  213.38    8.00
   0  -1   4  215.38    6.70
   0  -1   4  215.98    7.00
  -1   1  -4   84.49    3.40
  -1   1  -4   86.89    5.60
  -1   1  -4   85.09    4.00
   1  -1   4   85.99    4.10
   1  -1   4   78.99    4.60
   1  -1   4   86.79    4.40
  -2   1  -4  414.36   14.90
  -2   1  -4  414.06   11.10
  -2   1  -4  416.06   13.40
   2  -1   4  426.36   12.00
   2  -1   4  399.46   12.70
  -3   1  -4    2.50    2.90
  -3   1  -4   -1.10    3.00
  -3   1  -4   -0.70    0.80
   3  -1   4    0.40    1.20
  -4   1  -4  182.98    7.30
  -4   1  -4  183.98   11.70
   4  -1   4  182.28    8.10
   4  -1   4  177.68    8.50
  -5   1  -4  384.26   18.50
  -5   1  -4  378.66   12.70
  -5   1  -4  395.66   15.50
   5  -1   4  380.96   13.50
   5  -1   4  380.86   14.30
  -6   1  -4   18.00    3.00
  -6   1  -4   22.00    6.80
   6  -1   4   15.80    2.60
  -7   1  -4   42.60    8.90
   7  -1   4   23.90    5.10
  -8   1  -4   65.79    4.90
   8  -1   4   77.99    8.70
   8   0  -4  138.49   10.40
  -8   0   4  126.19    7.50
   7   0  -4  764.12   35.00
  -7   0   4  893.91   23.10
   6   0  -4    2.20    2.30
   6   0  -4   -3.20    4.60
  -6   0   4    4.90    6.30
  -6   0   4    0.70    1.80
   5   0  -4  409.16   12.30
   5   0  -4  389.26   14.10
   5   0  -4  418.86   14.00
  -5   0   4  391.86   12.30
  -5   0   4  407.26   15.50
   4   0  -4   62.79    4.40
   4   0  -4   60.49    5.30
  -4   0   4   68.89    6.20
  -4   0   4   65.69    3.90
   3   0  -4  161.58    6.10
  -3   0   4  143.29    7.20
  -3   0   4  144.09    5.90
   2   0  -4 1936.01   42.40
  -2   0   4 1883.51   42.90
  -2   0   4 1976.60   43.30
   1   0  -4   93.69    5.20
  -1   0   4   91.89    4.30
   0   0  -4 1499.05   31.50
   0   0  -4 1538.95   33.30
   0   0   4 1393.76   31.80
   0   0   4 1462.75   33.70
  -1   0  -4  829.52   18.20
  -1   0  -4  836.22   17.60
  -1   0  -4  805.62   20.00
   1   0   4  806.82   20.30
   1   0   4  814.12   20.60
   1   0   4  831.82   18.50
  -2   0  -4   85.89    3.40
  -2   0  -4   87.19    5.80
  -2   0  -4   85.39    4.80
   2   0   4   83.09    4.80
   2   0   4   84.19    3.70
  -3   0  -4 2570.94   55.59
  -3   0  -4 2602.74   58.89
  -3   0  -4 2449.45   54.59
   3   0   4 2539.85   54.39
   3   0   4 2524.45   57.89
  -4   0  -4  519.15   14.60
  -4   0  -4  520.25   18.50
  -4   0  -4  561.54   16.50
   4   0   4  520.05   17.00
   4   0   4  528.75   14.60
  -5   0  -4   30.80    7.10
  -5   0  -4   36.80    4.80
  -5   0  -4   35.50    3.40
   5   0   4   32.10    4.20
   5   0   4   36.30    4.20
  -6   0  -4  213.78   10.90
  -6   0  -4  218.08   17.50
   6   0   4  213.68   11.40
   6   0   4  227.68   11.00
  -7   0  -4    3.40    1.60
  -7   0  -4    5.60    5.40
  -8   0  -4    3.40    1.80
   8   0   4    1.80    4.00
   9   0   4    9.50    5.40
   8  -1  -4   19.00    5.00
  -8   1   4   21.70    3.60
   7  -1  -4   57.19    8.00
  -7   1   4   57.49    4.90
   6  -1  -4   35.70    4.30
   6  -1  -4   37.30    6.40
  -6   1   4   35.10    3.70
   5  -1  -4   75.29    7.00
   5  -1  -4   70.89    5.50
  -5   1   4   71.79    8.50
  -5   1   4   64.19    4.20
   4  -1  -4 1223.78   28.70
   4  -1  -4 1251.17   29.30
  -4   1   4 1188.18   28.80
  -4   1   4 1182.78   31.10
   3  -1  -4  197.58    7.10
  -3   1   4  177.18    6.70
  -3   1   4  189.28    8.50
   2  -1  -4   24.50    2.80
   2  -1  -4   19.60    2.40
  -2   1   4   24.00    3.80
  -2   1   4   23.70    2.10
   1  -1  -4 2927.41   60.59
  -1   1   4 2767.12   60.69
   0  -1  -4   39.80    1.50
   0  -1  -4   44.30    2.70
   0   1   4   36.70    2.30
  -1  -1  -4 1671.03   35.60
   1   1   4 1602.54   35.90
   1   1   4 1622.04   33.90
  -2  -1  -4 1842.12   41.10
  -2  -1  -4 1754.12   37.60
  -2  -1  -4 1797.82   38.40
   2   1   4 1744.43   37.40
   2   1   4 1750.32   41.10
   2   1   4 1722.43   39.10
  -3  -1  -4 2143.79   47.10
  -3  -1  -4 2230.78   46.90
  -3  -1  -4 2210.08   55.19
   3   1   4 2208.68   46.90
   3   1   4 2126.29   50.49
  -4  -1  -4    0.60    1.60
  -4  -1  -4    0.00    3.10
   4   1   4    0.20    1.40
   4   1   4    3.90    2.00
  -5  -1  -4   12.50    5.30
  -5  -1  -4   10.90    2.50
   5   1   4   16.70    3.50
   5   1   4    7.20    2.20
   6   1   4  407.66   14.40
   6   1   4  395.76   15.40
   7   1   4    2.00    3.40
  -8  -1  -4   32.20    5.60
   8   1   4   36.10    6.90
  -9  -1  -4   -4.00    5.20
   9   1   4    1.80    4.90
  -8   2   4   23.10    4.40
  -7   2   4   32.00    4.70
   6  -2  -4  426.56   17.30
  -6   2   4  427.76   13.60
   5  -2  -4  110.69    8.20
  -5   2   4  115.19    5.70
   4  -2  -4  617.04   17.00
  -4   2   4  600.54   16.60
  -3   2   4    5.50    1.20
  -3   2   4    5.20    2.80
   2  -2  -4   29.60    3.00
   2  -2  -4   28.80    3.60
  -2   2   4   32.20    4.50
  -2   2   4   36.80    2.50
   1  -2  -4  821.02   18.00
   1  -2  -4  827.12   19.40
  -1   2   4  800.92   19.50
   0  -2  -4   55.89    3.50
   0   2   4   56.99    2.80
  -1  -2  -4  108.99    4.00
   1   2   4  103.99    3.90
   1   2   4  113.19    4.20
  -2  -2  -4  738.73   17.40
  -2  -2  -4  722.83   16.40
   2   2   4  736.03   17.00
   2   2   4  717.13   16.20
   2   2   4  706.23   19.50
  -3  -2  -4  241.08   10.20
  -3  -2  -4  222.38    7.60
  -3  -2  -4  241.18    6.20
   3   2   4  251.57    7.20
   3   2   4  218.28    9.10
   3   2   4  244.18    7.20
  -4  -2  -4  679.23   18.50
  -4  -2  -4  725.23   21.70
  -4  -2  -4  705.83   15.30
   4   2   4  719.83   18.00
   4   2   4  672.63   20.60
  -5  -2  -4  131.59    6.60
  -5  -2  -4  132.59   10.80
   5   2   4  145.99    7.20
   5   2   4  129.99    7.40
  -6  -2  -4   17.50    6.90
  -6  -2  -4   17.40    2.90
   6   2   4   18.60    3.20
   6   2   4   19.50    4.20
  -7  -2  -4   41.70    5.20
   7   2   4   43.60    5.60
  -8  -2  -4   48.50    7.10
   8   2   4   60.89    9.50
  -9  -2  -4   18.40    6.20
   9   2   4   11.80    4.30
  -7   3   4    5.60    3.50
  -6   3   4  146.89    7.50
   5  -3  -4   -4.20    4.00
  -5   3   4    0.20    1.70
   4  -3  -4    9.60    3.30
  -4   3   4    8.70    1.70
  -4   3   4    7.60    1.90
  -4   3   4    5.90    4.30
   3  -3  -4  321.17   10.10
  -3   3   4  306.77    9.70
  -3   3   4  309.17   10.00
  -3   3   4  295.47   12.00
   2  -3  -4  234.38    7.60
  -2   3   4  231.38    7.40
  -2   3   4  260.37    8.30
  -2   3   4  245.58   10.00
   1  -3  -4   20.40    2.20
  -1   3   4   23.70    1.60
  -1   3   4   22.00    2.00
   0  -3  -4   92.69    4.40
   0  -3  -4   96.39    3.40
   0   3   4   89.99    3.90
   0   3   4   92.19    3.10
  -1  -3  -4   94.99    4.20
   1   3   4  100.69    3.30
   1   3   4  100.79    4.90
   1   3   4   95.39    3.70
  -2  -3  -4   55.09    3.30
  -2  -3  -4   53.69    2.80
   2   3   4   49.70    3.50
   2   3   4   52.29    2.40
   2   3   4   55.59    4.20
  -3  -3  -4  100.79    5.10
   3   3   4  108.79    3.90
   3   3   4  119.49    6.80
   3   3   4   98.49    5.60
  -4  -3  -4  844.92   24.10
  -4  -3  -4  793.12   21.80
   4   3   4  836.52   20.40
   4   3   4  833.32   23.40
  -5  -3  -4   11.30    4.90
  -5  -3  -4    9.50    1.90
   5   3   4   11.30    3.00
   5   3   4   12.20    2.70
  -6  -3  -4   66.29    5.30
  -6  -3  -4   74.39   10.00
   6   3   4   63.79    5.60
   6   3   4   69.19    6.90
  -7  -3  -4   27.10    4.10
   7   3   4   19.40    2.90
   7   3   4   27.80    5.90
  -8  -3  -4    1.40    4.20
   8   3   4    4.20    4.20
  -9  -3  -4   95.79   12.50
   9   3   4   80.99    9.50
  -7   4   4  175.48   11.40
  -6   4   4    2.60    3.40
   5  -4  -4   31.40    7.20
  -5   4   4   35.50    5.10
  -5   4   4   43.50    4.80
   4  -4  -4   74.49    7.20
  -4   4   4   73.29    4.80
  -4   4   4   73.09    4.50
  -4   4   4   82.59    9.50
   3  -4  -4  112.19    6.60
  -3   4   4  112.19    5.30
  -3   4   4  125.99    8.80
  -3   4   4  107.89    5.60
   2  -4  -4    0.10    2.00
  -2   4   4   -0.10    1.10
  -2   4   4    1.10    1.00
  -2   4   4    0.20    2.70
   1  -4  -4  324.67    9.50
  -1   4   4  338.57   11.60
  -1   4   4  318.37   10.00
  -1   4   4  315.07    8.90
   0  -4  -4  935.61   21.20
   0   4   4  899.01   22.00
   0   4   4  913.91   20.60
   1   4   4   85.49    3.80
   1   4   4   91.59    3.40
   1   4   4   89.99    6.10
  -2  -4  -4 1087.49   27.20
   2   4   4 1108.59   25.10
   2   4   4 1133.29   27.70
   2   4   4 1084.19   24.80
  -3  -4  -4   72.99    4.70
   3   4   4   79.59    4.90
   3   4   4   68.89    6.10
   3   4   4   76.29    3.00
  -4  -4  -4    3.90    1.60
   4   4   4    3.30    3.10
   4   4   4    3.50    1.60
  -5  -4  -4  530.95   17.20
  -5  -4  -4  545.05   19.40
   5   4   4  510.05   17.40
  -6  -4  -4   20.70    3.50
  -6  -4  -4   18.60    7.00
   6   4   4   25.10    4.90
   6   4   4   20.90    3.80
  -7  -4  -4   17.30    3.60
   7   4   4   15.90    5.90
   7   4   4   15.20    3.80
  -8  -4  -4   19.50    6.10
   8   4   4   14.50    4.50
  -9  -4  -4   -8.00    6.10
   9   4   4    1.90    4.40
  -6   5   4   38.40    5.60
  -5   5   4  102.39    7.30
  -5   5   4   95.89    7.80
   4  -5  -4   -1.20    4.50
  -4   5   4    0.90    2.00
  -4   5   4   -0.70    7.40
  -4   5   4    5.40    2.10
   3  -5  -4  144.99    8.40
  -3   5   4  138.09   10.20
  -3   5   4  141.79    6.60
  -3   5   4  139.29    6.40
   2  -5  -4   89.19    6.10
  -2   5   4   79.89    4.20
  -2   5   4   78.29    7.50
  -2   5   4   81.89    4.70
   1  -5  -4    3.10    2.60
  -1   5   4    4.50    1.00
  -1   5   4    5.30    3.20
  -1   5   4    3.40    1.10
   0  -5  -4   99.89    5.50
   0   5   4   98.29    4.80
   0   5   4   98.09    4.00
   1   5   4  436.16   12.60
   1   5   4  462.15   15.70
   1   5   4  462.75   12.00
   2   5   4  976.50   26.40
   2   5   4  948.41   22.70
   2   5   4  968.40   23.00
  -3  -5  -4  182.28    8.40
   3   5   4  184.88   10.20
   3   5   4  181.88    5.90
   3   5   4  184.78    8.00
  -4  -5  -4   -2.00    2.00
   4   5   4    4.30    3.80
   4   5   4    0.60    1.50
   4   5   4    0.00    0.70
  -5  -5  -4   91.49    6.40
   5   5   4   81.89    9.10
   5   5   4   88.39    6.20
  -6  -5  -4   78.09   11.60
  -6  -5  -4   59.69    6.20
   6   5   4   63.09    5.90
  -7  -5  -4  145.59   17.30
  -7  -5  -4  172.28   10.70
   7   5   4  139.99    9.30
  -9  -5  -4   -1.30    6.90
   9   5   4    9.80    4.70
  -6   6   4   -5.20    4.50
  -6   6   4    1.40    4.00
  -5   6   4   18.00    5.20
  -5   6   4    8.60    4.20
  -4   6   4    2.70    2.30
   3  -6  -4   62.29    9.00
  -3   6   4   47.70    7.30
  -3   6   4   41.50    4.00
  -3   6   4   42.40    3.80
   2  -6  -4   59.29    7.20
  -2   6   4   61.59    8.10
  -2   6   4   56.39    4.30
  -2   6   4   60.79    4.00
   1  -6  -4   15.00    3.90
  -1   6   4   15.90    2.30
  -1   6   4   16.00    2.20
  -1   6   4   14.40    4.10
   0  -6  -4  210.18    9.00
   0   6   4  210.08    7.20
   0   6   4  203.38   14.40
   0   6   4  206.28    8.10
   0   6   4  218.88    9.70
   1   6   4  900.51   22.00
   1   6   4  883.41   22.80
   1   6   4  923.71   26.70
   2   6   4    1.80    4.50
   2   6   4    0.30    1.10
   2   6   4    0.80    1.00
  -3  -6  -4  732.83   22.50
   3   6   4  780.42   24.30
   3   6   4  756.52   18.90
   3   6   4  760.62   21.10
   3   6   4  780.72   20.10
  -4  -6  -4  401.36   14.90
   4   6   4  385.26   13.40
   4   6   4  389.06   10.50
   4   6   4  388.56   16.80
  -5  -6  -4    6.50    2.60
   5   6   4    4.00    1.00
   5   6   4    6.20    2.30
   5   6   4    7.40    5.70
  -6  -6  -4   95.89    7.90
   6   6   4   90.29    6.80
  -7  -6  -4   40.90    6.60
   7   6   4   51.19    5.60
  -8  -6  -4    6.30    6.10
   8   6   4   20.20    4.90
   9   6   4   43.70    7.30
  -5   7   4   14.50    4.00
  -5   7   4    7.80    4.60
  -4   7   4    4.00    3.30
  -4   7   4    7.50    3.90
  -3   7   4   25.10    2.70
  -3   7   4   36.90    5.30
   2  -7  -4   45.40    7.20
  -2   7   4   47.50    5.30
  -2   7   4   48.30    3.90
  -2   7   4   59.59    7.70
   1  -7  -4  365.86   14.60
  -1   7   4  374.46   13.20
  -1   7   4  367.66   11.80
  -1   7   4  388.86   14.60
   0  -7  -4   64.99    7.70
   0   7   4   62.59    4.30
   0   7   4   70.49   10.50
   0   7   4   57.09    3.80
   0   7   4   65.39    7.20
   1   7   4   88.39   12.10
   1   7   4   90.89    4.70
   2   7   4  203.78   14.30
   2   7   4  188.38    7.50
   3   7   4   43.70    7.70
   3   7   4   57.79    3.60
   3   7   4   41.50    3.80
   3   7   4   48.30    4.30
  -4  -7  -4   -1.00    2.50
   4   7   4   -0.40    1.20
   4   7   4    9.40    7.00
   4   7   4    2.60    1.90
   4   7   4   -0.10    1.80
  -5  -7  -4   50.89    6.20
   5   7   4   45.00    9.40
   5   7   4   40.30    4.70
   5   7   4   48.60    2.90
  -6  -7  -4   -2.50    3.60
   6   7   4    1.30    2.60
   7   7   4  314.77   13.10
  -8  -7  -4  180.28   16.10
   8   7   4  181.68   11.90
  -9  -7  -4  -11.50    6.70
   9   7   4   12.70    5.30
  -4   8   4    4.50    3.90
  -4   8   4   -1.70    3.90
  -3   8   4   25.80    4.60
  -3   8   4   15.20    3.80
  -2   8   4   12.30    3.80
  -2   8   4    9.70    3.10
  -2   8   4   14.00    7.80
   1  -8  -4   39.00    7.70
  -1   8   4   45.00    6.90
  -1   8   4   31.40    3.70
   0  -8  -4   -1.60    5.60
   0   8   4    3.80    4.50
   0   8   4   -1.80    1.70
   0   8   4    7.80    2.20
   1   8   4  311.87   12.40
   1   8   4  293.27   10.40
   2   8   4  647.94   18.50
   2   8   4  664.73   29.00
   3   8   4  337.37   23.60
   3   8   4  353.26   12.20
   3   8   4  337.87   12.00
  -4  -8  -4   20.80    3.50
   4   8   4   18.60    3.10
   4   8   4   24.80    3.10
   4   8   4   21.10    2.80
  -5  -8  -4   -4.90    3.90
   5   8   4   -1.30    2.50
   5   8   4    3.60    1.50
   5   8   4    3.50    2.40
  -6  -8  -4   -0.40    6.80
   6   8   4    2.10    5.90
   6   8   4    1.80    2.80
   6   8   4    0.50    1.40
  -7  -8  -4    0.10    6.50
   7   8   4   -2.40    3.10
  -8  -8  -4  159.48   13.90
   8   8   4  152.48   10.80
  -3   9   4  182.38   10.40
  -3   9   4  168.08   10.70
  -2   9   4   79.49    7.40
  -2   9   4   68.89    8.30
  -1   9   4  103.49    7.00
  -1   9   4   90.59   13.50
  -1   9   4   81.09    8.00
   0   9   4  797.42   24.40
   0   9   4  798.92   22.10
   0   9   4  825.82   24.10
   1   9   4  124.79    9.90
   1   9   4  135.39    7.20
   2   9   4    5.90    2.50
   2   9   4    7.10    4.60
   2   9   4    6.90    2.10
   3   9   4  251.07    9.80
   3   9   4  259.17   10.80
   4   9   4  145.19    6.70
   4   9   4  129.89    6.80
   4   9   4  126.69    6.90
  -5  -9  -4    4.30    6.00
   5   9   4   -0.20    3.00
   5   9   4    2.80    2.00
   5   9   4    0.00    2.60
  -6  -9  -4   22.70    7.10
   6   9   4    5.20    3.70
   6   9   4    9.70    3.10
  -7  -9  -4   68.89    8.50
   7   9   4   81.49    9.80
   7   9   4   72.59    6.90
  -1  10   4  140.39    9.30
  -1  10   4  140.29    9.40
   0  10   4   74.49    8.20
   0  10   4   75.29    7.50
   1  10   4   22.90    4.60
   1  10   4   22.70    4.20
   2  10   4   77.19    6.10
   3  10   4  613.74   16.90
   3  10   4  550.44   23.80
   4  10   4   49.80    5.10
   4  10   4   33.30    4.70
   4  10   4   50.49    7.00
   5  10   4   13.20    5.50
   5  10   4   12.30    3.20
   5  10   4   13.30    3.10
  -6 -10  -4   22.40    6.60
   6  10   4   25.10    3.40
   6  10   4   20.30    2.90
   6  10   4   23.00    5.50
   2  11   4   -2.50    3.60
   2  11   4    5.10    4.30
   3  11   4   -6.10    3.80
   3  11   4    5.00    3.70
   4  11   4  169.88   11.00
   4  11   4  167.48   10.30
   3   9  -5   40.60    5.40
   2   9  -5   17.20    4.50
   1   9  -5   32.10    4.70
  -6  -8   5   30.10    7.60
   5   8  -5   15.10    4.20
  -5  -8   5    6.70    6.40
   4   8  -5    5.20    4.00
  -4  -8   5   -1.40    5.20
   3   8  -5   21.80    5.30
   2   8  -5    2.20    3.50
   1   8  -5    6.00    3.90
   0   8  -5  123.59    8.70
  -1   8  -5    2.50    3.60
  -2   8  -5   11.10    4.70
   7   7  -5    0.00    5.00
  -7  -7   5   -3.50    6.80
   6   7  -5   14.10    5.10
  -6  -7   5   19.40    6.90
   5   7  -5  158.08   10.60
  -5  -7   5  164.58   15.50
   4   7  -5  139.59   10.40
  -4  -7   5  143.39   11.80
   3   7  -5   -4.30    3.20
  -3  -7   5   -6.80    4.30
   2   7  -5   18.10    3.50
   1   7  -5   -3.80    2.70
   0   7  -5   37.20    5.50
  -1   7  -5    7.70    4.50
  -2   7  -5    6.10    3.30
   2  -7   5    9.70    2.50
  -3   7  -5   10.50    3.90
   3  -7   5   14.80    3.30
  -7  -6   5   15.90    6.50
   6   6  -5   22.60    9.00
  -6  -6   5   18.70    7.40
  -6  -6   5   16.70    7.90
   5   6  -5    3.40    4.00
   5   6  -5    5.40    7.80
  -5  -6   5    0.40    7.40
  -5  -6   5    3.90    4.20
   4   6  -5  102.19   14.80
   4   6  -5  119.69    8.50
  -4  -6   5   99.59    9.00
   3   6  -5   60.99   10.60
   3   6  -5   45.60   10.10
   3   6  -5   38.80    5.20
  -3  -6   5   62.09    7.50
   2   6  -5    4.10    2.00
   2   6  -5    5.00    7.90
   2   6  -5   -0.80   13.70
   1   6  -5   61.99    4.90
   1   6  -5   60.09   10.10
   0   6  -5  105.29   15.50
   0   6  -5   71.79    5.60
  -1   6  -5  714.03   21.50
  -1   6  -5  678.33   27.60
   1  -6   5  683.03   17.00
  -2   6  -5    6.90    3.20
   2  -6   5   10.00    2.20
  -3   6  -5   12.30    4.40
  -3   6  -5    3.90    8.50
   3  -6   5   17.20    3.20
  -4   6  -5   65.09    7.20
   4  -6   5   54.79    7.40
  -5   6  -5    7.10    4.60
   5  -6   5   17.00    5.40
  -8  -5   5    8.10    6.70
   7   5  -5    6.50    6.50
  -7  -5   5    8.50    9.10
  -7  -5   5    6.20    5.70
   6   5  -5   46.70    7.90
  -6  -5   5   43.60    7.10
  -6  -5   5   43.80    7.90
   5   5  -5    2.30    5.80
  -5  -5   5    4.20    3.50
   4   5  -5 1555.64   42.40
   4   5  -5 1503.75   40.20
   4   5  -5 1504.75   39.30
  -4  -5   5 1546.75   42.00
  -4  -5   5 1536.65   35.00
   3   5  -5    1.60    2.00
   3   5  -5    0.50    6.00
   3   5  -5    1.00    6.10
  -3  -5   5    3.10    2.80
   2   5  -5   46.50    4.20
   2   5  -5   40.20    7.60
   2   5  -5   55.99    8.90
  -2  -5   5   42.30    5.30
   1   5  -5  133.69    6.90
   1   5  -5  142.39   13.50
   1   5  -5  143.59   12.50
   0   5  -5    0.70    6.20
   0   5  -5    2.10    1.60
   0   5  -5    3.80    7.20
   0  -5   5    6.40    5.60
   0  -5   5    1.80    2.20
  -1   5  -5   41.90    8.20
  -1   5  -5   45.40    4.00
   1  -5   5   43.60    3.20
   1  -5   5   47.50    7.60
  -2   5  -5   96.09    9.70
  -2   5  -5   92.39   13.30
  -2   5  -5   82.79    5.10
   2  -5   5   83.89    4.90
  -3   5  -5    7.00    7.00
  -3   5  -5   10.90    2.80
  -3   5  -5   12.50    9.20
   3  -5   5    9.80    2.30
  -4   5  -5   -7.40    9.60
  -4   5  -5    3.00    3.70
   4  -5   5    1.40    2.80
  -5   5  -5    9.40    3.70
   5  -5   5   11.70    4.70
  -6   5  -5   -1.40    5.10
   6  -5   5   -5.30    5.10
  -8  -4   5   83.69   11.20
   7   4  -5   30.70    6.00
  -7  -4   5   43.00    6.50
  -7  -4   5   37.40   10.20
  -7  -4   5   31.00    8.00
   6   4  -5  143.19   10.10
  -6  -4   5  166.58   13.00
  -6  -4   5  143.69   11.80
  -6  -4   5  128.69    8.50
   5   4  -5   12.60    5.00
  -5  -4   5    8.80    2.90
  -5  -4   5   13.60    3.70
  -5  -4   5   14.40    4.80
   4   4  -5  133.09    9.90
  -4  -4   5  113.59    8.00
  -4  -4   5  120.69    7.30
   3   4  -5  485.65   15.70
   3   4  -5  506.05   18.40
   3   4  -5  482.55   17.60
  -3  -4   5  466.05   17.00
  -3  -4   5  488.85   13.00
   2   4  -5   31.70    3.40
   2   4  -5   39.00    6.20
   2   4  -5   23.00    5.70
  -2  -4   5   37.90    3.00
  -2  -4   5   26.30    4.00
   1   4  -5  139.99    6.80
   1   4  -5  136.39   10.20
   1   4  -5  136.09   11.10
  -1  -4   5  146.19    5.80
  -1  -4   5  136.59    7.10
   0   4  -5   35.90    6.80
   0   4  -5   48.60    3.80
   0   4  -5   41.70    6.30
   0  -4   5   42.00    2.70
  -1   4  -5  333.17   11.50
  -1   4  -5  361.06   15.00
  -1   4  -5  339.57   16.80
   1  -4   5  333.37   10.40
  -2   4  -5  220.78   13.30
  -2   4  -5  215.98    8.60
  -2   4  -5  213.28   15.00
  -2   4  -5  218.88   11.20
   2  -4   5  237.68   15.30
   2  -4   5  218.38    8.40
  -3   4  -5   61.39    8.10
  -3   4  -5   60.59    4.80
  -3   4  -5   50.79    9.30
   3  -4   5   60.19    7.90
   3  -4   5   52.79    4.40
  -4   4  -5  465.35   16.10
  -4   4  -5  466.45   21.90
   4  -4   5  476.95   15.90
  -5   4  -5   21.50    5.30
   5  -4   5   21.90    3.20
  -6   4  -5   13.30    4.30
   6  -4   5   11.60    5.80
  -8  -3   5  283.97   12.30
  -8  -3   5  271.37   15.70
   7   3  -5    1.50    4.50
  -7  -3   5    3.10    3.40
  -7  -3   5   -4.80    5.90
   6   3  -5   65.89    7.50
  -6  -3   5   67.99    9.50
  -6  -3   5   52.29    7.30
  -6  -3   5   67.09    6.00
   5   3  -5  465.85   15.00
  -5  -3   5  435.76   15.60
  -5  -3   5  466.05   16.20
  -5  -3   5  448.16   17.20
   4   3  -5   28.70    4.70
  -4  -3   5   34.90    5.40
  -4  -3   5   29.40    4.60
  -4  -3   5   30.90    4.30
   3   3  -5  335.17   12.90
   3   3  -5  330.57   13.60
  -3  -3   5  316.07   12.60
  -3  -3   5  326.17   12.70
  -3  -3   5  323.77   10.30
   2   3  -5   34.90    5.50
   2   3  -5   33.80    4.80
   2   3  -5   39.50    3.30
  -2  -3   5   39.20    4.20
  -2  -3   5   33.70    3.90
  -2  -3   5   38.20    3.60
   1   3  -5  138.49    8.40
   1   3  -5  135.09    9.20
   1   3  -5  127.89    6.00
  -1  -3   5  135.99    6.60
  -1  -3   5  141.49    5.30
   0   3  -5 1228.38   30.30
   0   3  -5 1212.88   33.40
   0   3  -5 1313.87   31.90
   0  -3   5 1341.67   31.60
   0  -3   5 1256.57   29.60
  -1   3  -5    7.00    3.60
  -1   3  -5    4.20    1.20
  -1   3  -5    7.70    4.80
   1  -3   5    7.90    1.50
   1  -3   5    7.30    3.30
  -2   3  -5    3.40    3.70
  -2   3  -5    2.60    4.50
  -2   3  -5    1.00    1.10
  -2   3  -5    0.00    3.40
   2  -3   5    0.80    1.40
   2  -3   5   -0.60    3.20
  -3   3  -5   61.59    9.10
  -3   3  -5   58.79    4.00
  -3   3  -5   43.60    7.40
   3  -3   5   57.49    7.30
   3  -3   5   52.99    4.40
  -4   3  -5  105.09   13.50
  -4   3  -5   96.99    5.70
  -4   3  -5   85.39   12.70
   4  -3   5  109.69    6.70
   4  -3   5  104.09    9.90
  -5   3  -5   31.80    5.30
  -5   3  -5   23.20   10.10
  -5   3  -5   14.50   10.60
   5  -3   5   28.00    4.80
  -6   3  -5    0.70    4.20
   6  -3   5    2.40    3.70
  -7   3  -5   17.50    4.70
   7  -3   5   20.50    5.70
  -8  -2   5   21.30    5.70
  -8  -2   5   18.30    4.20
   7   2  -5   41.40    5.70
  -7  -2   5   55.99    8.80
  -7  -2   5   37.40    5.50
   6   2  -5   37.50    5.00
  -6  -2   5   28.50    6.90
  -6  -2   5   21.40    3.10
   5   2  -5  505.45   15.00
  -5  -2   5  489.05   16.00
  -5  -2   5  492.65   17.10
  -5  -2   5  482.15   17.50
   4   2  -5  693.33   18.70
  -4  -2   5  654.63   19.70
  -4  -2   5  663.13   18.90
  -4  -2   5  660.63   20.60
   3   2  -5   19.30    3.80
  -3  -2   5   22.00    3.30
  -3  -2   5   16.30    2.60
  -3  -2   5   21.30    3.30
   2   2  -5  387.66   13.20
   2   2  -5  382.76   12.70
  -2  -2   5  367.56   13.20
  -2  -2   5  428.96   13.30
  -2  -2   5  381.56   12.70
   1   2  -5  230.58    8.00
   1   2  -5  239.88    8.90
   1   2  -5  230.18   10.00
  -1  -2   5  233.48    9.70
  -1  -2   5  226.78    8.40
   0   2  -5   33.20    4.80
   0   2  -5   27.20    4.20
   0   2  -5   24.80    2.30
   0  -2   5   23.70    2.50
   0  -2   5   28.30    4.20
   0  -2   5   21.90    3.10
  -1   2  -5 1589.04   36.90
  -1   2  -5 1697.13   37.90
  -1   2  -5 1651.73   40.30
   1  -2   5 1669.33   38.10
   1  -2   5 1618.84   38.30
  -2   2  -5  291.77    9.30
  -2   2  -5  282.37   13.30
  -2   2  -5  301.07   13.10
   2  -2   5  291.07   10.50
   2  -2   5  301.37   10.50
  -3   2  -5  354.06   15.00
  -3   2  -5  355.06   11.20
  -3   2  -5  350.06   14.60
   3  -2   5  342.67   12.50
   3  -2   5  348.67   12.00
  -4   2  -5  164.38   12.30
  -4   2  -5  169.38    7.40
  -4   2  -5  164.68   12.90
   4  -2   5  171.38    9.20
   4  -2   5  161.38    8.30
  -5   2  -5  141.39   16.00
  -5   2  -5  136.59   13.40
  -5   2  -5  122.19    7.20
   5  -2   5  124.49    7.90
   5  -2   5  112.39   10.00
  -6   2  -5   40.60    9.90
  -6   2  -5   29.20    6.30
   6  -2   5   24.10    4.90
  -7   2  -5   13.80    4.40
  -7   2  -5   22.40   11.80
   7  -2   5   22.60    5.70
   8  -2   5  109.09   11.30
  -8  -1   5   87.29    7.30
  -8  -1   5   91.69   10.50
   7   1  -5   65.09    8.60
  -7  -1   5   72.89    9.00
  -7  -1   5   69.29    6.10
   6   1  -5  112.99    7.60
   6   1  -5  106.89   10.40
  -6  -1   5  120.09    6.70
  -6  -1   5  108.39   12.30
  -6  -1   5  102.19    6.80
   5   1  -5  842.12   21.30
  -5  -1   5  781.72   24.30
  -5  -1   5  833.32   24.30
  -5  -1   5  814.02   22.60
   4   1  -5   90.39    5.90
  -4  -1   5   98.19    6.20
  -4  -1   5  106.49    7.30
  -4  -1   5   99.39    5.60
   3   1  -5   43.50    4.40
  -3  -1   5   38.40    3.50
  -3  -1   5   37.70    4.80
  -3  -1   5   42.30    3.60
   2   1  -5    1.40    2.50
  -2  -1   5    1.10    2.00
  -2  -1   5    0.80    1.10
  -2  -1   5   -0.30    1.20
   1   1  -5 6080.89  124.29
   1   1  -5 5940.31  125.99
  -1  -1   5 5950.90  126.89
  -1  -1   5 5875.71  124.59
   0   1  -5 1153.58   26.70
   0   1  -5 1169.28   26.50
   0   1  -5 1218.18   29.20
   0  -1   5 1152.28   29.50
   0  -1   5 1202.08   26.70
  -1   1  -5    1.70    2.30
  -1   1  -5    0.40    0.60
  -1   1  -5    1.20    1.50
   1  -1   5    0.60    1.00
   1  -1   5    1.80    1.60
   1  -1   5    3.00    1.40
  -2   1  -5  467.85   17.20
  -2   1  -5  502.95   15.80
  -2   1  -5  498.05   13.10
   2  -1   5  521.65   13.60
   2  -1   5  496.65   15.30
  -3   1  -5  420.36   14.70
  -3   1  -5  414.56   12.10
  -3   1  -5  440.16   15.90
   3  -1   5  425.46   12.50
   3  -1   5  411.46   14.20
  -4   1  -5  133.19    6.10
  -4   1  -5  124.79   11.10
  -4   1  -5  130.69    9.60
   4  -1   5  137.99    7.50
   4  -1   5  127.89    7.40
  -5   1  -5   40.40    8.60
  -5   1  -5   34.40    6.60
  -5   1  -5   33.20    3.50
   5  -1   5   31.50    4.30
   5  -1   5   38.50    5.50
  -6   1  -5   18.50    7.00
  -6   1  -5   12.50    2.50
   6  -1   5   12.80    3.40
  -7   1  -5   13.00    4.90
  -7   1  -5   20.80    8.90
   7  -1   5   16.00    5.50
  -8   1  -5   10.20    2.90
   8  -1   5    2.50    4.90
  -8   0   5    0.90    5.20
  -8   0   5    3.60    6.00
  -7   0   5   77.09    6.10
   6   0  -5   50.19    6.90
   6   0  -5   41.90    6.80
  -6   0   5   52.19    4.40
   5   0  -5   68.89    5.90
   5   0  -5   74.89    7.30
  -5   0   5   66.99    8.60
  -5   0   5   60.69    4.50
   4   0  -5  354.96   11.70
   4   0  -5  326.17   10.70
  -4   0   5  313.67   10.90
  -4   0   5  327.27   12.80
   3   0  -5   10.40    2.60
  -3   0   5    0.20    2.40
  -3   0   5    1.50    1.10
   2   0  -5 2135.69   50.59
  -2   0   5 2226.98   50.29
  -2   0   5 2356.36   50.39
   1   0  -5   14.60    2.50
  -1   0   5   14.20    2.30
  -1   0   5   13.30    1.50
   0   0  -5  482.75   13.70
   0   0  -5  585.04   15.30
   0   0   5  573.24   13.00
   0   0   5  574.44   15.70
  -1   0  -5   41.30    4.00
  -1   0  -5   43.60    2.10
  -1   0  -5   42.80    1.80
   1   0   5   42.10    3.20
   1   0   5   44.00    2.80
   1   0   5   41.50    3.20
  -2   0  -5 1211.88   26.90
  -2   0  -5 1247.68   29.00
   2   0   5 1219.88   29.60
   2   0   5 1167.68   30.10
   2   0   5 1180.88   30.20
  -3   0  -5   11.80    3.80
  -3   0  -5   12.60    1.70
  -3   0  -5   16.10    3.30
   3   0   5   16.80    2.70
   3   0   5   18.60    2.60
  -4   0  -5  125.29    7.50
  -4   0  -5  130.09   10.50
  -4   0  -5  115.29    5.30
   4   0   5  112.89    6.90
   4   0   5  124.59    6.40
  -5   0  -5    3.30    3.60
  -5   0  -5   -1.30    1.50
  -5   0  -5    6.00    5.90
   5   0   5   -0.10    3.10
   5   0   5    2.00    2.00
  -6   0  -5   10.10    2.30
   6   0   5   15.40    3.50
   6   0   5   16.50    5.20
  -7   0  -5  216.38   12.90
   7   0   5  218.78   12.40
  -8   0  -5   86.19    4.60
   8   0   5   90.19    9.70
  -8   1   5   11.80    3.70
  -7   1   5   48.00    5.20
   6  -1  -5    5.30    6.10
  -6   1   5   13.00    2.60
   5  -1  -5   75.99    7.50
   5  -1  -5   82.49    6.80
  -5   1   5   87.59    9.40
  -5   1   5   84.69    5.10
   4  -1  -5   76.99    5.90
   4  -1  -5   66.29    5.40
  -4   1   5   71.99    4.40
  -4   1   5   73.69    7.70
   3  -1  -5   13.20    2.60
   3  -1  -5   15.10    2.80
  -3   1   5   13.20    3.40
  -3   1   5   14.20    2.10
   2  -1  -5  786.12   22.20
   2  -1  -5  874.81   20.10
  -2   1   5  882.91   21.60
  -2   1   5  889.91   23.10
   1  -1  -5 2645.44   54.69
  -1   1   5 2406.76   55.09
   0   1   5  612.54   16.00
  -1  -1  -5  962.70   21.10
  -1  -1  -5 1069.19   24.90
   1   1   5  989.10   21.30
   1   1   5  950.50   23.80
  -2  -1  -5  476.75   12.40
  -2  -1  -5  438.66   10.90
   2   1   5  460.35   10.90
   2   1   5  416.06   13.90
   2   1   5  457.85   12.80
  -3  -1  -5 1004.00   23.00
  -3  -1  -5  941.41   22.40
  -3  -1  -5  949.80   26.30
   3   1   5  951.00   23.70
   3   1   5  954.50   26.30
   3   1   5  999.20   22.30
  -4  -1  -5  434.06   16.80
  -4  -1  -5  413.76   12.00
  -4  -1  -5  420.76   12.00
   4   1   5  445.56   12.30
   4   1   5  403.26   14.90
  -5  -1  -5   11.50    5.50
  -5  -1  -5   15.60    3.00
   5   1   5   15.80    2.90
   5   1   5   13.70    3.50
  -6  -1  -5   21.40    3.70
   6   1   5   17.00    3.20
   6   1   5   22.70    4.90
  -7  -1  -5   69.69    6.10
   7   1   5   77.89    8.20
  -8  -1  -5    4.00    4.70
   8   1   5    9.10    4.70
  -9  -1  -5   21.20    6.90
   9   1   5   12.30    5.40
  -8   2   5   21.40    9.10
  -7   2   5   -3.40    2.80
  -6   2   5  102.89    6.10
   5  -2  -5   84.49    7.90
  -5   2   5   86.79    5.20
   4  -2  -5   82.69    6.10
  -4   2   5   77.59    8.30
  -4   2   5   69.49    4.50
   3  -2  -5  825.22   20.80
  -3   2   5  783.22   20.70
   2  -2  -5 1543.35   35.10
   2  -2  -5 1464.95   34.60
  -2   2   5 1644.24   37.40
  -2   2   5 1514.95   35.40
   1  -2  -5  120.09    3.80
   1  -2  -5  112.79    5.10
  -1   2   5  107.79    4.80
   0  -2  -5  734.93   17.70
   0   2   5  722.73   18.00
  -1  -2  -5   19.20    2.80
   1   2   5   13.40    2.00
   1   2   5   15.20    1.60
  -2  -2  -5 2065.79   44.90
  -2  -2  -5 2124.99   44.70
   2   2   5 2094.59   43.80
   2   2   5 2127.39   45.80
   2   2   5 2120.69   44.40
   2   2   5 2055.29   48.50
  -3  -2  -5   73.89    3.40
  -3  -2  -5   66.19    3.40
   3   2   5   63.39    4.70
   3   2   5   71.69    3.60
   3   2   5   71.09    3.50
  -4  -2  -5  113.49    4.20
  -4  -2  -5  108.29    5.20
  -4  -2  -5  118.09    9.20
   4   2   5  110.99    6.70
   4   2   5  113.29    5.60
  -5  -2  -5  547.15   12.70
  -5  -2  -5  536.15   16.20
  -5  -2  -5  567.34   21.00
   5   2   5  559.54   15.70
   5   2   5  524.35   18.40
  -6  -2  -5  302.37   27.20
  -6  -2  -5  294.97   11.60
   6   2   5  320.27   12.30
   6   2   5  308.27   13.60
  -7  -2  -5   16.10    2.90
   7   2   5   17.70    5.20
  -8  -2  -5   30.10    5.40
   8   2   5   38.30    7.40
  -9  -2  -5    3.40    6.70
   9   2   5   11.90    4.40
  -6   3   5  110.79    6.30
   5  -3  -5   95.79    8.90
  -5   3   5   96.69    5.70
   4  -3  -5  470.65   14.40
  -4   3   5  484.15   17.80
  -4   3   5  451.65   14.20
   3  -3  -5 1155.28   26.80
  -3   3   5 1129.99   30.00
  -3   3   5 1120.39   27.80
   2  -3  -5 3719.33   77.49
  -2   3   5 3578.44   77.79
  -2   3   5 3531.75   79.19
  -2   3   5 3942.81   81.59
   1  -3  -5 1695.43   35.60
  -1   3   5 1683.43   35.80
  -1   3   5 1627.34   37.70
   0  -3  -5 1157.58   24.20
   0  -3  -5 1135.49   26.30
   0   3   5 1139.99   26.50
   0   3   5 1112.19   24.00
  -1  -3  -5    1.00    1.20
   1   3   5    2.10    0.70
   1   3   5    2.10    1.70
  -2  -3  -5  597.04   14.50
  -2  -3  -5  599.34   15.20
   2   3   5  598.44   14.70
   2   3   5  597.34   15.40
   2   3   5  596.14   17.50
  -3  -3  -5 1024.50   22.80
  -3  -3  -5 1061.39   25.20
   3   3   5 1058.39   24.70
   3   3   5 1010.50   27.50
   3   3   5 1015.40   23.50
   3   3   5 1028.20   23.40
  -4  -3  -5  143.79    6.50
  -4  -3  -5  139.49    9.60
  -4  -3  -5  152.28    4.50
   4   3   5  155.48    5.70
   4   3   5  150.08    7.90
   4   3   5  157.88    6.40
  -5  -3  -5  563.54   17.30
  -5  -3  -5  598.04   21.40
   5   3   5  592.04   16.40
   5   3   5  567.64   19.40
  -6  -3  -5   19.70    7.20
  -6  -3  -5   14.70    3.00
   6   3   5   19.40    4.50
   6   3   5   11.90    2.40
  -7  -3  -5  232.98   10.90
   7   3   5  227.98   12.00
   7   3   5  224.98   12.50
  -8  -3  -5   -3.50    3.90
   8   3   5   -4.80    4.40
  -9  -3  -5   16.10    6.90
   9   3   5   10.10    4.90
  -7   4   5   56.89    7.30
   5  -4  -5   50.39    7.00
  -5   4   5   48.20    4.50
   4  -4  -5  731.63   20.10
  -4   4   5  698.13   19.60
  -4   4   5  649.34   29.20
  -4   4   5  747.33   20.20
   3  -4  -5   77.89    5.80
  -3   4   5   75.09    4.30
  -3   4   5   68.69    4.60
   2  -4  -5  283.07    9.10
  -2   4   5  278.17   14.90
  -2   4   5  277.77    8.60
  -2   4   5  281.07    9.60
  -1   4   5  184.58    5.80
  -1   4   5  182.78    7.00
   0  -4  -5  386.86    9.90
   0   4   5  365.06   10.90
   0   4   5  376.16    9.30
   1   4   5  398.76    9.40
   1   4   5  372.56   12.30
   1   4   5  382.26   10.80
   2   4   5  128.59    4.80
   2   4   5  132.39    4.70
   2   4   5  129.49    7.00
  -3  -4  -5    5.20    1.50
   3   4   5    4.20    0.90
   3   4   5    1.90    1.40
   3   4   5    2.50    2.70
  -4  -4  -5    7.30    1.90
   4   4   5    1.40    1.70
  -5  -4  -5  183.28    8.80
  -5  -4  -5  204.68   12.70
   5   4   5  185.88    9.50
   5   4   5  197.48    8.50
  -6  -4  -5 4651.13  103.49
  -6  -4  -5 4723.33  106.09
   6   4   5 4582.44  104.79
   6   4   5 4648.44  100.09
  -7  -4  -5    0.00    3.10
   7   4   5   -2.40    5.10
   7   4   5   -2.50    2.90
  -8  -4  -5   40.90    6.30
  -9  -4  -5   32.70    9.20
   9   4   5   42.90    6.10
  -6   5   5    0.30    4.20
  -5   5   5   -0.70    3.00
  -5   5   5    8.70    4.20
   4  -5  -5  213.48   11.40
  -4   5   5  206.98    8.30
  -4   5   5  190.58    8.40
   3  -5  -5    0.60    3.30
  -3   5   5   -1.60    1.60
  -3   5   5    3.10    1.60
  -3   5   5   -0.80    4.50
   2  -5  -5  190.98    8.20
  -2   5   5  187.48   10.70
  -2   5   5  182.58    6.80
  -2   5   5  184.98    7.70
   1  -5  -5   11.30    2.80
  -1   5   5   10.10    1.60
  -1   5   5   11.10    1.80
  -1   5   5    9.40    3.90
   0  -5  -5  417.26   11.80
   0   5   5  416.66   10.90
   0   5   5  435.66   12.70
   1   5   5 1473.25   32.70
   1   5   5 1512.15   36.90
   1   5   5 1496.25   34.40
   2   5   5 1288.97   32.40
   2   5   5 1219.38   28.90
   2   5   5 1274.27   28.50
  -3  -5  -5  302.67   11.30
   3   5   5  311.87   12.60
   3   5   5  306.27   11.60
   3   5   5  302.27    8.70
  -4  -5  -5  619.34   18.90
   4   5   5  615.74   19.20
   4   5   5  595.94   14.60
   4   5   5  609.64   19.30
  -5  -5  -5 1296.67   35.00
   5   5   5 1366.76   34.70
   5   5   5 1314.57   35.40
  -6  -5  -5   32.30    7.50
  -6  -5  -5   29.30    4.60
   6   5   5   25.90    5.10
   6   5   5   22.90    3.80
  -7  -5  -5   -0.90    3.40
   7   5   5   -0.60    2.90
   7   5   5    0.90    5.10
  -8  -5  -5   16.20    5.40
   8   5   5   13.30    4.90
  -9  -5  -5   84.19   13.20
   9   5   5   78.89   10.40
  -6   6   5   32.90    5.00
  -5   6   5   47.90    6.50
  -5   6   5   53.39    7.50
  -4   6   5  141.89    7.00
  -4   6   5  144.29    8.30
   3  -6  -5   70.39    8.70
  -3   6   5   65.89    4.60
  -3   6   5   58.29    5.20
  -3   6   5   51.29    7.80
   2  -6  -5  156.98    8.90
  -2   6   5  158.98    6.70
  -2   6   5  153.88    7.50
  -2   6   5  182.18   11.50
   1  -6  -5   22.70    4.00
  -1   6   5   23.20    2.40
  -1   6   5   17.20    4.90
  -1   6   5   21.30    2.80
   0  -6  -5   22.70    3.70
   0   6   5   17.30    5.40
   0   6   5   13.90    2.20
   0   6   5   13.90    1.90
   1   6   5    3.00    1.00
   1   6   5    3.60    1.30
   1   6   5    2.60    4.70
   2   6   5   87.79    4.30
   2   6   5   93.59    4.50
   2   6   5  102.19    9.90
  -3  -6  -5   35.40    4.30
   3   6   5   43.10    3.10
   3   6   5   36.40    2.70
   3   6   5   49.70    6.90
   3   6   5   42.20    4.10
  -4  -6  -5   41.60    4.90
   4   6   5   44.60    2.70
   4   6   5   37.00    4.60
   4   6   5   40.20    6.70
  -5  -6  -5  123.79    8.30
   5   6   5  136.29    4.60
   5   6   5  143.79   12.10
   5   6   5  143.79    8.30
  -6  -6  -5  223.88   11.20
   6   6   5  204.38   10.40
  -7  -6  -5  658.43   22.40
   7   6   5  668.03   22.10
  -8  -6  -5  118.49   11.80
   8   6   5  123.99   10.10
  -9  -6  -5   14.40    6.80
   9   6   5   31.00    5.90
  -5   7   5    8.50    4.60
  -5   7   5   21.80    4.40
  -4   7   5   26.30    4.40
  -4   7   5   24.90    4.90
  -3   7   5  183.18   10.30
  -3   7   5  184.08    8.20
   2  -7  -5   34.80    6.80
  -2   7   5   37.70    5.20
  -2   7   5   45.90    7.50
  -2   7   5   36.10    3.70
   1  -7  -5    9.10    4.70
  -1   7   5    3.70    1.50
  -1   7   5    4.60    2.00
  -1   7   5   10.20    5.10
   0  -7  -5  325.07   12.50
   0   7   5  320.67   11.40
   0   7   5  318.07   17.80
   0   7   5  335.67   13.90
   0   7   5  320.97   10.10
   1   7   5  493.45   20.40
   1   7   5  493.65   14.90
   1   7   5  494.75   13.70
   2   7   5  956.10   23.90
   2   7   5  927.51   23.10
   2   7   5  913.11   29.20
   3   7   5    8.50    1.90
   3   7   5    5.20    6.00
   3   7   5    8.90    1.70
   3   7   5   14.20    2.60
  -4  -7  -5   -3.60    2.50
   4   7   5   -3.20    2.30
   4   7   5   -3.50    6.20
   4   7   5   -0.60    1.20
   4   7   5    2.40    1.80
  -5  -7  -5    0.10    3.20
   5   7   5    8.30    7.40
   5   7   5   11.80    2.70
   5   7   5    6.80    1.40
  -6  -7  -5   -2.50    3.60
   6   7   5   -2.00    2.70
   6   7   5    4.50    3.50
  -7  -7  -5   21.00    5.70
   7   7   5   29.30    4.40
  -8  -7  -5   14.90    7.50
   8   7   5    5.90    4.80
  -9  -7  -5   -0.40    7.40
   9   7   5   -1.80    5.00
  -4   8   5   -1.70    4.10
  -4   8   5    7.30    4.20
  -3   8   5   23.50    4.70
  -3   8   5   18.80    4.70
  -2   8   5   17.10    2.50
  -2   8   5   15.60    4.20
   1  -8  -5   24.00    6.90
  -1   8   5   13.70    2.10
  -1   8   5   21.20    6.70
  -1   8   5   11.50    3.10
   0   8   5   10.80    2.10
   0   8   5   12.10    5.60
   1   8   5    1.80    1.90
   1   8   5    5.70    4.80
   1   8   5    0.90    1.50
   2   8   5   76.89    4.70
   2   8   5   70.39   11.00
   2   8   5   76.59    5.00
   3   8   5  295.57   11.70
   3   8   5  295.07   10.60
   3   8   5  303.67   10.40
   3   8   5  287.67   19.70
   4   8   5  214.88   10.10
   4   8   5  220.78    8.00
   4   8   5  223.78    9.10
  -5  -8  -5  205.88   11.70
   5   8   5  225.28    9.60
   5   8   5  216.58    7.40
   5   8   5  227.38   10.30
  -6  -8  -5   13.00    5.40
   6   8   5   11.60    3.20
   6   8   5   10.70    1.60
  -7  -8  -5  257.77   17.70
   7   8   5  268.47   13.00
  -8  -8  -5   49.20    9.20
   8   8   5   47.80   10.60
  -3   9   5    2.80    4.10
  -2   9   5   28.90    4.70
  -2   9   5   30.70    4.60
  -1   9   5   62.89    6.00
  -1   9   5   94.09    7.80
  -1   9   5   82.29   10.40
   0   9   5    8.80    6.50
   0   9   5   19.00    3.40
   0   9   5   18.90    4.90
   1   9   5  315.67   17.50
   1   9   5  338.97   15.30
   1   9   5  351.86   11.60
   2   9   5  548.95   16.30
   2   9   5  558.74   18.90
   2   9   5  547.85   17.00
   3   9   5    5.80    4.80
   3   9   5    5.60    2.20
   4   9   5   -3.60    2.40
   4   9   5    2.00    2.00
   4   9   5    1.20    2.90
   5   9   5   25.20    3.20
   5   9   5   36.20    3.80
   5   9   5   25.70    4.20
  -6  -9  -5   59.79    9.60
   6   9   5   52.09    3.90
   6   9   5   70.29    7.50
   6   9   5   73.69    6.60
  -7  -9  -5   11.70    6.40
   7   9   5    7.40    4.20
   7   9   5    8.10    4.90
  -1  10   5   91.89    8.90
  -1  10   5  106.89    8.90
   0  10   5   31.50    4.40
   0  10   5   29.50    4.40
   1  10   5   -0.30    3.00
   1  10   5   -1.00    3.40
   2  10   5   13.50    3.10
   2  10   5   21.60    5.30
   2  10   5   26.70    3.90
   3  10   5   14.00    3.50
   3  10   5   19.50    6.80
   4  10   5   59.49    6.40
   4  10   5   62.69    7.00
   4  10   5   51.79    5.60
   5  10   5    7.00    3.70
   5  10   5   18.60    3.70
   5  10   5    6.90    2.50
   6  10   5    5.80    5.30
   6  10   5    3.50    2.40
   6  10   5   -1.70    3.80
   2  11   5    4.10    4.20
   2  11   5    2.00    4.70
   3  11   5   36.20    5.20
   3  11   5   62.49    8.50
   4  11   5    3.00    4.30
   4  11   5    1.90    4.60
   5   8  -6    5.20    5.00
  -5  -8   6   22.40    7.10
   4   8  -6   24.90    5.00
  -4  -8   6    6.30    5.80
   3   8  -6   67.89    8.10
   2   8  -6  124.19    9.50
   1   8  -6   15.20    4.00
   0   8  -6    5.70    3.90
  -1   8  -6   88.19    8.40
   6   7  -6    5.90    5.00
  -6  -7   6   -3.30    6.10
   5   7  -6    6.20    4.00
  -5  -7   6    2.90    5.70
   4   7  -6   79.79    8.50
  -4  -7   6  112.29   13.00
   3   7  -6    5.50    4.30
  -3  -7   6    6.10    4.70
   2   7  -6   14.20    4.50
   1   7  -6   92.99    9.00
   0   7  -6   97.79    8.80
  -1   7  -6    9.20    3.50
  -2   7  -6  101.49    8.20
   2  -7   6   98.59    5.80
  -3   7  -6   -9.70    4.00
   3  -7   6    0.40    3.50
  -7  -6   6    4.60    6.50
   6   6  -6  128.39   10.20
  -6  -6   6  120.99   12.90
   5   6  -6   11.60    5.30
  -5  -6   6   11.80    5.90
   4   6  -6   25.20    4.40
  -4  -6   6   19.50    6.40
   3   6  -6    4.80    3.10
  -3  -6   6   -2.50    3.30
   2   6  -6    6.60    8.80
   2   6  -6   -0.20    3.40
   1   6  -6   19.10    9.80
   1   6  -6   17.20    4.30
   0   6  -6  147.69   18.20
   0   6  -6  143.69    8.50
  -1   6  -6  243.78   21.40
  -1   6  -6  262.97   11.50
   1  -6   6  256.67    8.10
  -2   6  -6   -0.30    3.40
   2  -6   6   -2.00    2.20
  -3   6  -6   18.70    3.90
   3  -6   6   34.60    5.00
  -4   6  -6   21.10    4.30
   4  -6   6   24.40    4.60
  -7  -5   6   29.40    7.10
   6   5  -6   -8.80    7.60
  -6  -5   6   12.30    7.30
  -6  -5   6    1.80    7.10
   5   5  -6   76.29    9.90
  -5  -5   6   76.79   10.30
  -5  -5   6   84.99    9.50
   4   5  -6  253.07   12.00
   4   5  -6  266.17   16.30
   4   5  -6  282.47   18.10
  -4  -5   6  278.67   14.00
  -4  -5   6  301.57   14.20
   3   5  -6   86.99   13.40
   3   5  -6   88.89    6.60
   3   5  -6   90.49   12.90
  -3  -5   6   83.19    7.20
   2   5  -6  224.98   10.00
   2   5  -6  245.18   15.60
   2   5  -6  248.48   16.80
  -2  -5   6  234.38   11.00
   1   5  -6   20.90    3.00
   1   5  -6   33.10    7.50
   1   5  -6   25.60    8.60
   0   5  -6  627.24   23.20
   0   5  -6  614.94   18.60
   0  -5   6  614.34   15.20
  -1   5  -6  307.57   11.20
  -1   5  -6  291.47   17.40
   1  -5   6  307.67    9.60
  -2   5  -6   76.29    6.10
   2  -5   6   83.79    5.10
  -3   5  -6  104.89   13.10
  -3   5  -6  122.99   14.90
  -3   5  -6  132.39    8.00
   3  -5   6  121.99    6.80
  -4   5  -6   31.20   11.90
  -4   5  -6   25.30    4.80
   4  -5   6   31.90    3.70
  -5   5  -6   13.20    4.10
  -8  -4   6   16.00    7.20
   7   4  -6   10.20    6.70
  -7  -4   6   19.80    4.50
  -7  -4   6    7.30    6.50
   6   4  -6  173.38   12.10
  -6  -4   6  167.28   18.00
  -6  -4   6  154.98    9.70
  -6  -4   6  167.18   14.10
   5   4  -6   26.40    6.30
  -5  -4   6   27.20    5.90
  -5  -4   6   25.10    4.20
  -5  -4   6   25.20    4.30
   4   4  -6  635.74   21.20
  -4  -4   6  624.74   21.30
  -4  -4   6  622.64   19.80
  -4  -4   6  611.84   21.20
   3   4  -6  448.76   17.80
   3   4  -6  425.16   14.60
   3   4  -6  424.76   17.40
  -3  -4   6  419.26   13.40
  -3  -4   6  432.76   16.20
   2   4  -6  643.24   19.10
   2   4  -6  671.83   21.60
   2   4  -6  635.34   22.30
  -2  -4   6  626.74   20.00
  -2  -4   6  653.43   16.10
   1   4  -6   87.79   10.90
   1   4  -6   63.49    4.80
   1   4  -6   75.79    9.30
  -1  -4   6   72.59    5.40
  -1  -4   6   69.39    3.90
   0   4  -6  151.98   12.80
   0   4  -6  154.98    7.20
   0   4  -6  166.98   11.60
   0  -4   6  150.18    6.10
  -1   4  -6  153.78    7.00
  -1   4  -6  146.69   11.60
  -1   4  -6  164.38   14.10
   1  -4   6  149.88   10.30
   1  -4   6  138.29    6.30
  -2   4  -6   11.00    8.20
  -2   4  -6   11.00    2.20
  -2   4  -6   19.70    6.60
   2  -4   6   15.10    5.90
   2  -4   6   12.90    2.30
  -3   4  -6   11.10    1.90
  -3   4  -6   11.60    8.60
  -3   4  -6   16.60    6.70
   3  -4   6   12.10    2.70
  -4   4  -6    5.30    8.70
   4  -4   6   12.20    2.90
  -5   4  -6   20.30    4.80
   5  -4   6   24.90    5.20
  -6   4  -6   -3.40    4.00
   6  -4   6    3.80    5.40
  -8  -3   6   45.50    5.50
  -8  -3   6   41.30    7.00
   7   3  -6    5.30    5.50
  -7  -3   6    4.10    6.40
  -7  -3   6    6.40    3.80
   6   3  -6   10.80    5.10
  -6  -3   6   11.60    3.30
  -6  -3   6   11.50    5.40
  -6  -3   6   14.00    7.00
   5   3  -6  135.29    9.50
  -5  -3   6  143.29    8.90
  -5  -3   6  144.39   10.40
  -5  -3   6  126.49    8.20
   4   3  -6   -0.70    4.20
  -4  -3   6   -0.20    3.20
  -4  -3   6    0.50    2.60
  -4  -3   6    0.50    2.40
   3   3  -6   17.70    4.80
  -3  -3   6   33.30    4.50
  -3  -3   6   19.50    3.40
  -3  -3   6   28.20    4.10
   2   3  -6   52.39    7.60
   2   3  -6   40.10    3.60
   2   3  -6   41.60    5.40
  -2  -3   6   48.60    4.70
  -2  -3   6   39.10    4.20
  -2  -3   6   44.50    4.60
   1   3  -6  141.59   10.30
   1   3  -6  151.78   10.30
   1   3  -6  149.79    6.70
  -1  -3   6  149.99    7.10
  -1  -3   6  151.38    6.20
   0   3  -6   30.80    2.90
   0   3  -6   26.40    4.70
   0   3  -6   22.70    5.80
   0  -3   6   39.60    3.10
  -1   3  -6    1.60    4.00
  -1   3  -6    4.90    1.40
  -1   3  -6    1.30    4.80
   1  -3   6    8.70    3.80
   1  -3   6    5.80    1.70
  -2   3  -6  187.48   10.60
  -2   3  -6  195.98    7.70
  -2   3  -6  198.18   13.70
   2  -3   6  182.38   10.30
   2  -3   6  198.38    8.30
  -3   3  -6   17.30    6.10
  -3   3  -6   13.70    2.40
  -3   3  -6   15.40    7.30
   3  -3   6   17.90    3.00
   3  -3   6   25.10    5.70
  -4   3  -6  485.05   22.70
  -4   3  -6  474.05   15.40
  -4   3  -6  474.35   21.70
   4  -3   6  495.05   16.60
  -5   3  -6   26.70   13.20
   5  -3   6   33.50    4.20
  -6   3  -6   15.50    4.40
   6  -3   6    6.50    4.90
  -7   3  -6    9.50    4.80
   7  -3   6    7.10    4.70
  -8  -2   6    7.70    4.60
  -8  -2   6    8.90    5.40
   7   2  -6    6.20    5.50
  -7  -2   6   -1.20    5.20
  -7  -2   6    6.20    3.60
   6   2  -6   12.20    4.50
  -6  -2   6   -0.90    3.90
  -6  -2   6   17.60    7.00
  -6  -2   6    9.60    3.20
   5   2  -6  119.89    8.30
  -5  -2   6  142.19    8.30
  -5  -2   6  119.19    7.60
  -5  -2   6  123.59    9.80
   4   2  -6   26.40    4.40
  -4  -2   6   24.20    3.60
  -4  -2   6   35.90    5.10
  -4  -2   6   32.80    4.50
   3   2  -6   12.30    3.90
  -3  -2   6    4.80    2.20
  -3  -2   6   11.60    2.20
  -3  -2   6   12.00    3.10
   2   2  -6  181.28    7.40
   2   2  -6  199.38    9.90
  -2  -2   6  193.28    9.10
  -2  -2   6  187.48    8.20
   1   2  -6  260.27    9.60
   1   2  -6  257.27    8.80
  -1  -2   6  253.17    9.10
  -1  -2   6  248.48   10.80
   0   2  -6   75.29    4.10
   0   2  -6   77.09    7.30
   0   2  -6   78.49    6.60
   0  -2   6   77.29    5.80
   0  -2   6   74.89    4.40
  -1   2  -6  284.77   12.80
  -1   2  -6  287.17   10.40
  -1   2  -6  268.37    8.80
   1  -2   6  262.17    9.90
   1  -2   6  270.37   10.10
  -2   2  -6  899.01   26.40
  -2   2  -6  924.21   23.50
  -2   2  -6  887.81   22.40
   2  -2   6  882.91   24.50
   2  -2   6  927.11   23.70
  -3   2  -6   85.69   10.20
  -3   2  -6   76.09    9.50
  -3   2  -6   73.99    4.40
   3  -2   6   76.99    7.00
   3  -2   6   63.89    5.30
  -4   2  -6  106.69   12.90
  -4   2  -6  104.59   12.40
  -4   2  -6  123.49    6.20
   4  -2   6  133.59    9.30
   4  -2   6  124.19    7.50
  -5   2  -6  237.28   16.50
  -5   2  -6  207.48   18.10
  -5   2  -6  194.98    8.50
   5  -2   6  211.38   11.10
  -6   2  -6   -4.80    2.90
  -6   2  -6    4.90    9.90
  -7   2  -6   63.89    8.10
   7  -2   6   56.89    8.90
  -8  -1   6    4.40    5.10
  -8  -1   6   11.50    5.40
   7   1  -6   37.20    6.70
  -7  -1   6   48.80    5.80
  -7  -1   6   42.60    7.60
   6   1  -6    4.60    4.20
  -6  -1   6    8.10    3.40
  -6  -1   6    0.00    2.40
   5   1  -6  690.83   19.30
  -5  -1   6  669.53   21.60
  -5  -1   6  665.43   20.50
  -5  -1   6  696.23   21.70
   4   1  -6   51.29    5.60
  -4  -1   6   53.79    4.80
  -4  -1   6   56.79    7.00
  -4  -1   6   49.30    4.60
   3   1  -6  375.76   12.60
  -3  -1   6  371.96   12.70
  -3  -1   6  383.46   13.00
  -3  -1   6  362.56   13.10
   2   1  -6   25.40    4.00
  -2  -1   6   20.50    2.80
  -2  -1   6   22.90    3.10
   1   1  -6 1457.55   33.80
   1   1  -6 1568.74   36.20
  -1  -1   6 1493.95   34.40
  -1  -1   6 1456.75   37.00
   0   1  -6   18.20    2.30
   0   1  -6   16.90    1.90
   0   1  -6   18.30    3.70
   0  -1   6   12.50    2.30
  -1   1  -6  288.97    8.60
  -1   1  -6  292.77    8.50
   1  -1   6  290.67   11.20
   1  -1   6  286.27    9.40
   1  -1   6  268.27   10.20
  -2   1  -6    6.20    1.20
  -2   1  -6    5.90    2.10
  -2   1  -6    8.30    3.80
   2  -1   6    3.20    2.80
   2  -1   6    8.50    2.10
  -3   1  -6  136.19    9.90
  -3   1  -6  143.19    5.90
  -3   1  -6  144.89    9.60
   3  -1   6  139.09    7.60
   3  -1   6  143.19    7.10
  -4   1  -6  222.38   14.30
  -4   1  -6  212.38    8.30
  -4   1  -6  215.98   12.00
   4  -1   6  206.08    9.90
   4  -1   6  221.48    9.70
  -5   1  -6    9.30    7.40
  -5   1  -6   12.50    2.10
  -5   1  -6   13.90    6.10
   5  -1   6    9.40    2.70
   5  -1   6   14.50    4.60
  -6   1  -6    2.10    7.20
   6  -1   6    3.80    3.80
  -7   1  -6   29.70    9.90
  -7   1  -6   23.60    4.70
   7  -1   6   33.90    7.40
   8  -1   6   17.60    4.70
  -8   0   6   18.20    6.10
  -8   0   6    8.50    4.20
  -7   0   6   10.20    5.60
  -7   0   6   16.10    3.40
   6   0  -6  675.93   20.00
  -6   0   6  688.93   20.50
   5   0  -6   25.60    5.10
   5   0  -6   16.60    4.20
  -5   0   6   11.80    4.80
  -5   0   6   17.80    2.90
   4   0  -6  204.68    8.80
  -4   0   6  199.58    8.60
  -4   0   6  219.08   10.90
   3   0  -6  220.98    8.80
  -3   0   6  210.98    8.70
  -3   0   6  213.18   10.00
   2   0  -6  495.15   14.50
  -2   0   6  509.95   15.40
  -2   0   6  499.95   14.20
   1   0  -6   16.30    2.90
  -1   0   6   16.80    2.60
  -1   0   6   14.60    1.90
   0   0  -6  115.89    4.10
   0   0  -6  112.79    7.40
   0   0   6  121.19    4.50
   0   0   6  120.19    6.10
  -1   0  -6  520.85   17.10
  -1   0  -6  547.95   13.00
   1   0   6  535.35   16.20
   1   0   6  558.54   13.60
   1   0   6  540.15   16.20
  -2   0  -6  503.35   12.50
  -2   0  -6  489.35   15.10
   2   0   6  512.45   12.90
   2   0   6  484.35   15.70
   2   0   6  469.15   15.10
  -3   0  -6   28.30    5.00
  -3   0  -6   22.10    5.40
   3   0   6   31.80    3.70
  -4   0  -6  319.87   10.30
  -4   0  -6  338.07   18.70
  -4   0  -6  291.57   13.40
   4   0   6  323.57   13.10
   4   0   6  321.77   10.80
  -5   0  -6    2.30    1.70
  -5   0  -6    0.80    4.10
   5   0   6    2.80    3.60
   5   0   6    2.30    2.30
  -6   0  -6   11.60    2.40
  -6   0  -6   15.80    5.80
   6   0   6    5.40    5.20
   6   0   6    7.50    3.10
  -7   0  -6   39.80    7.30
   7   0   6   28.60    6.70
   8   0   6   43.50    6.50
  -8   1   6   -0.20    4.80
  -7   1   6   20.40    3.50
  -6   1   6   -2.30    2.30
   5  -1  -6  610.34   18.70
   5  -1  -6  623.94   18.30
  -5   1   6  620.14   18.30
  -5   1   6  589.24   21.20
   4  -1  -6  553.34   15.80
   4  -1  -6  528.55   15.70
  -4   1   6  523.65   16.00
  -4   1   6  516.25   18.10
   3  -1  -6   44.30    4.60
  -3   1   6   47.20    3.70
  -3   1   6   55.19    6.90
   2  -1  -6  284.47    9.70
  -2   1   6  285.97    9.90
   1  -1  -6    0.70    1.60
  -1   1   6   -0.10    0.90
   0  -1  -6 2001.60   42.40
   0  -1  -6 2022.30   45.30
   0   1   6 2067.29   46.20
  -1  -1  -6 2548.34   54.69
  -1  -1  -6 2467.95   51.89
   1   1   6 2487.45   52.19
   1   1   6 2503.35   55.79
  -2  -1  -6  160.28    4.90
  -2  -1  -6  174.08    7.20
   2   1   6  153.48    7.60
   2   1   6  162.98    5.20
   2   1   6  166.68    7.00
  -3  -1  -6  136.09    5.10
  -3  -1  -6  145.09    5.50
  -3  -1  -6  147.19    6.80
   3   1   6  150.48    5.50
   3   1   6  140.79    7.60
   3   1   6  144.39    6.50
  -4  -1  -6    3.70    2.50
  -4  -1  -6    6.90    4.50
  -4  -1  -6    2.40    1.30
   4   1   6    1.10    2.20
   4   1   6    6.30    2.30
  -5  -1  -6  323.07   10.90
  -5  -1  -6  311.57   17.40
   5   1   6  306.37   13.20
   5   1   6  308.67   11.20
  -6  -1  -6  132.09    7.70
   6   1   6  133.69    9.40
   6   1   6  115.79    8.10
  -7  -1  -6   -0.30    2.80
  -7  -1  -6    7.30    3.90
   7   1   6   -1.70    3.50
  -8  -1  -6   24.40    4.90
   8   1   6   14.90    5.20
  -9  -1  -6    7.40    6.40
   9   1   6   11.90    6.20
  -7   2   6    7.90    4.40
  -6   2   6    8.20    3.10
   5  -2  -6  866.51   23.70
  -5   2   6  844.32   23.40
   4  -2  -6  115.19    7.20
   4  -2  -6  115.49    7.60
  -4   2   6  115.79   10.00
  -4   2   6  111.09    6.00
   3  -2  -6  267.17   10.10
   3  -2  -6  248.98   10.00
  -3   2   6  293.67   12.80
  -3   2   6  267.87    9.70
   2  -2  -6   70.09    5.10
   2  -2  -6   67.79    6.10
  -2   2   6   63.49    4.10
  -2   2   6   71.59    7.00
   1  -2  -6  525.25   12.10
   1  -2  -6  510.95   14.30
  -1   2   6  531.45   14.80
   0   2   6  243.98    8.30
  -1  -2  -6 1054.39   24.50
   1   2   6 1020.00   25.10
   1   2   6 1052.39   22.70
  -2  -2  -6   32.80    3.20
   2   2   6   28.10    1.80
   2   2   6   27.70    3.00
   2   2   6   26.20    2.50
  -3  -2  -6  164.88    6.90
  -3  -2  -6  137.09    6.60
   3   2   6  157.18    5.30
   3   2   6  155.28    6.20
   3   2   6  150.48    7.80
  -4  -2  -6   12.20    4.80
  -4  -2  -6    5.90    2.00
  -4  -2  -6    6.30    1.40
   4   2   6    5.60    2.00
   4   2   6    6.30    2.30
   4   2   6    7.50    1.70
  -5  -2  -6  272.87   15.40
  -5  -2  -6  260.17    9.50
  -5  -2  -6  255.77    7.90
   5   2   6  246.88   11.80
   5   2   6  264.57    9.90
  -6  -2  -6  100.29    4.40
  -6  -2  -6   93.59    6.10
   6   2   6   94.99    8.00
   6   2   6  108.09    8.20
  -7  -2  -6  115.19    7.60
   7   2   6  127.09   14.50
  -8  -2  -6   16.90    3.90
   8   2   6   27.10    6.40
  -9  -2  -6   -4.70    6.20
   9   2   6    4.60    5.30
  -7   3   6    4.80    4.90
  -6   3   6    0.80    3.00
   5  -3  -6   47.40    6.50
  -5   3   6   39.10    4.80
   4  -3  -6 1524.55   35.60
  -4   3   6 1489.85   36.70
   3  -3  -6   48.20    4.70
  -3   3   6   46.30    3.60
  -3   3   6   39.70    6.40
   2  -3  -6  275.37   10.30
   2  -3  -6  289.57    8.40
  -2   3   6  298.87   12.60
  -2   3   6  285.37    9.80
   1  -3  -6    3.10    1.10
   1  -3  -6    2.10    2.00
  -1   3   6    2.80    1.00
   0  -3  -6    7.70    2.20
   0   3   6   14.20    1.80
  -1  -3  -6  460.25   12.40
   1   3   6  451.35   12.30
   1   3   6  451.85   12.60
  -2  -3  -6 1640.14   36.10
   2   3   6 1662.53   36.30
   2   3   6 1603.34   36.80
   2   3   6 1655.03   34.30
  -3  -3  -6    9.40    1.70
   3   3   6   11.60    1.80
   3   3   6   10.70    1.60
   3   3   6    9.20    2.10
  -4  -3  -6   41.10    2.80
  -4  -3  -6   40.60    3.50
   4   3   6   42.30    4.00
   4   3   6   40.90    4.60
   4   3   6   43.20    3.00
  -5  -3  -6  212.38    5.90
  -5  -3  -6  200.98   13.50
  -5  -3  -6  208.28    8.70
   5   3   6  229.68   10.90
   5   3   6  214.78    8.80
  -6  -3  -6  265.27   11.00
  -6  -3  -6  285.37   18.60
   6   3   6  275.47   11.50
   6   3   6  282.07   13.00
  -7  -3  -6    6.50    3.20
   7   3   6    6.80    3.80
   7   3   6   16.20    5.70
  -8  -3  -6   12.50    3.70
   8   3   6   21.10    6.40
  -9  -3  -6    8.20    7.40
   9   3   6    1.70    4.70
  -7   4   6  100.29    9.20
  -6   4   6   30.50    5.10
  -5   4   6   38.00    4.60
   4  -4  -6  151.28    8.80
  -4   4   6  149.19    7.60
   3  -4  -6  289.17   10.10
  -3   4   6  285.97   13.90
  -3   4   6  285.57   10.30
   2  -4  -6    9.80    2.40
  -2   4   6    8.00    1.70
  -2   4   6    7.90    4.50
  -2   4   6    9.50    1.50
   1  -4  -6  328.57    8.90
  -1   4   6  312.07    8.60
  -1   4   6  320.77   10.50
   0  -4  -6 1106.69   24.80
   0  -4  -6 1189.58   27.50
   0   4   6 1143.89   24.60
   0   4   6 1120.29   27.30
  -1  -4  -6  217.98    7.90
   1   4   6  227.68    5.50
   1   4   6  215.88    7.50
   1   4   6  228.38    8.90
  -2  -4  -6  176.98    6.60
   2   4   6  171.28    6.20
   2   4   6  181.48    5.40
   2   4   6  174.48    7.90
  -3  -4  -6    2.20    1.30
  -3  -4  -6    1.20    1.60
   3   4   6    0.50    1.50
   3   4   6    1.10    2.30
   3   4   6    1.10    0.90
  -4  -4  -6   85.09    5.30
   4   4   6   86.69    5.00
   4   4   6   83.59    3.90
   4   4   6   84.39    6.40
  -5  -4  -6  548.35   17.20
   5   4   6  549.95   19.20
   5   4   6  552.34   15.70
  -6  -4  -6   14.20    8.00
  -6  -4  -6   14.70    2.90
   6   4   6    6.20    2.70
   6   4   6   12.90    4.20
  -7  -4  -6    6.80    3.20
   7   4   6   -1.90    5.10
   7   4   6    4.30    3.90
  -8  -4  -6    8.50    4.50
   8   4   6   12.80    5.20
  -9  -4  -6    7.10    7.10
   9   4   6    2.20    4.70
  -6   5   6    9.70    4.30
  -5   5   6   94.49    8.10
  -4   5   6   12.00    3.20
  -4   5   6    3.80    2.40
   3  -5  -6  175.58    9.10
  -3   5   6  183.18    7.30
  -3   5   6  168.98   12.80
  -3   5   6  179.88    8.50
   2  -5  -6   30.20    4.00
  -2   5   6   39.60    2.80
  -2   5   6   39.90    6.60
  -2   5   6   30.20    3.30
   1  -5  -6   20.00    3.00
  -1   5   6   18.70    2.60
  -1   5   6   21.10    2.00
  -1   5   6   18.90    4.90
   0  -5  -6  133.39    5.50
   0   5   6  138.69    6.10
   0   5   6  131.59    4.40
   1   5   6  114.99    5.30
   1   5   6  124.09    4.00
   1   5   6  126.29    8.20
   2   5   6   20.90    2.20
   2   5   6   20.10    1.80
  -3  -5  -6  263.67    9.90
   3   5   6  262.27   11.40
   3   5   6  254.87   10.90
   3   5   6  260.67    8.00
  -4  -5  -6  121.69    6.80
   4   5   6  137.39    7.90
   4   5   6  131.79    4.90
   4   5   6  133.39    8.90
  -5  -5  -6  508.65   17.10
   5   5   6  535.95   15.50
   5   5   6  522.25   18.60
  -6  -5  -6   33.00    4.80
   6   5   6   28.90    5.10
   6   5   6   36.10    5.20
  -7  -5  -6   79.39    7.80
   7   5   6   68.79    8.20
   7   5   6   81.29   10.10
  -8  -5  -6   67.29   10.60
   8   5   6   79.69   11.70
  -9  -5  -6   23.90    8.80
   9   5   6   11.60    5.40
  -5   6   6   -6.00    3.40
  -4   6   6   21.90    3.30
  -4   6   6   12.40    4.40
   3  -6  -6  121.19    9.70
  -3   6   6  138.59    6.60
  -3   6   6  133.19    8.00
   2  -6  -6   22.40    4.50
  -2   6   6   24.20    2.90
  -2   6   6   22.30    6.50
  -2   6   6   25.70    3.60
   1  -6  -6   25.00    4.20
  -1   6   6   19.80    3.00
  -1   6   6   27.90    2.50
  -1   6   6   34.70    6.50
   0  -6  -6    7.40    2.70
   0   6   6   13.30    1.70
   0   6   6    7.90    1.70
   0   6   6    3.10    5.00
   1   6   6 1913.11   46.80
   1   6   6 1849.02   41.10
   1   6   6 1932.91   43.60
   2   6   6  131.79    5.70
   2   6   6  133.29    5.00
   2   6   6  128.99   10.40
   3   6   6  602.04   15.50
   3   6   6  573.04   15.40
   3   6   6  604.54   20.10
   3   6   6  576.04   18.70
  -4  -6  -6   97.09    6.50
   4   6   6   89.89    4.10
   4   6   6   94.79    9.90
   4   6   6   97.99    6.80
  -5  -6  -6  418.56   15.70
   5   6   6  422.66   11.10
   5   6   6  437.16   17.50
   5   6   6  424.16   16.20
  -6  -6  -6  379.06   15.10
   6   6   6  376.76   15.60
  -7  -6  -6    9.60    4.20
   7   6   6    6.60    3.80
   7   6   6    9.20    6.00
   8   6   6    0.10    6.10
  -9  -6  -6  -12.80    7.10
   9   6   6    7.00    5.00
  -5   7   6   81.29    8.90
  -5   7   6   63.49    8.90
  -4   7   6    5.20    4.60
  -4   7   6   -2.70    3.40
   3  -7  -6   24.90    7.30
  -3   7   6   19.10    4.50
  -3   7   6   31.40    4.50
   2  -7  -6    1.20    5.20
  -2   7   6    4.70    1.90
  -2   7   6    4.20    3.10
  -2   7   6  -12.60    6.10
   1  -7  -6  241.38   16.10
  -1   7   6  254.67    9.70
  -1   7   6  244.18    8.50
  -1   7   6  267.77   14.40
   0  -7  -6  412.36   13.90
   0   7   6  390.66   11.50
   0   7   6  426.16   16.60
   0   7   6  395.96   13.30
   0   7   6  416.36   19.60
   1   7   6    1.50    1.40
   1   7   6    3.60    1.20
   1   7   6    4.70    5.90
   2   7   6   18.90    2.30
   2   7   6   16.30    2.30
   2   7   6   12.70    6.60
   3   7   6  139.49    5.90
   3   7   6  135.29    7.90
   3   7   6  137.19    5.90
   3   7   6  113.79   12.10
  -4  -7  -6   37.80    5.30
   4   7   6   43.30    8.10
   4   7   6   36.20    5.00
   4   7   6   36.10    3.00
   4   7   6   38.10    3.70
  -5  -7  -6   70.79    6.50
   5   7   6   67.79    9.00
   5   7   6   68.49    3.50
   5   7   6   57.69    6.00
  -6  -7  -6    4.90    4.40
   6   7   6    6.90    3.20
   6   7   6    6.00    8.10
  -7  -7  -6  118.99   11.50
   7   7   6  104.59    8.90
  -8  -7  -6   13.00    8.30
   8   7   6   14.20    7.10
  -4   8   6    1.90    4.90
  -4   8   6    7.30    4.00
  -3   8   6   20.10    4.10
  -3   8   6   31.10    4.50
   2  -8  -6   -2.90    7.60
  -2   8   6    5.10    3.00
  -2   8   6    6.00    3.60
   1  -8  -6    1.30    5.90
  -1   8   6    4.60    1.90
  -1   8   6    8.50    2.60
  -1   8   6    9.80    7.00
   0  -8  -6   29.50    6.20
   0   8   6   27.40    3.20
   0   8   6   33.30    4.90
   0   8   6   25.10    7.00
   1   8   6   35.40    3.10
   1   8   6   35.10    4.10
   2   8   6   27.20    3.00
   2   8   6   22.90    3.40
   2   8   6   27.30    9.60
   3   8   6  171.68    7.10
   3   8   6  164.38    8.90
   3   8   6  169.08    7.30
   3   8   6  168.08   17.00
   4   8   6   12.00    2.30
   4   8   6    6.30    8.80
   4   8   6    9.70    3.10
   4   8   6   12.30    2.00
  -5  -8  -6   30.80    4.30
   5   8   6   42.70    4.20
   5   8   6   39.90    3.20
   5   8   6   35.90    4.90
  -6  -8  -6    8.00    5.70
   6   8   6    2.70    3.50
   6   8   6    7.90    1.60
  -7  -8  -6   79.59   10.50
   7   8   6   54.49    8.10
  -8  -8  -6   64.09    8.70
   8   8   6   88.99   12.50
  -2   9   6    1.80    3.50
  -1   9   6   89.49    7.60
  -1   9   6   83.49    5.20
   0   9   6   83.29    5.20
   0   9   6   92.09   13.60
   0   9   6   93.19    8.30
   1   9   6   13.50    7.20
   2   9   6   -1.40    2.40
   2   9   6    1.90    1.90
   3   9   6   13.60    2.40
   3   9   6   12.20    3.30
   3   9   6   20.00    3.50
   4   9   6   -1.70    3.30
   4   9   6    0.20    2.00
   4   9   6    5.30    2.40
   5   9   6    9.20    2.00
   5   9   6    4.00    3.40
   5   9   6   -1.50    2.80
  -6  -9  -6   43.60    8.50
   6   9   6   34.80    3.40
   6   9   6   26.90    4.60
  -7  -9  -6   31.60    6.80
   7   9   6   28.80    6.20
  -1  10   6  130.29    9.60
  -1  10   6  133.69    9.50
   0  10   6   75.69    6.30
   0  10   6   74.69    7.50
   1  10   6   13.40    2.90
   1  10   6   17.90    4.20
   2  10   6    9.20    2.40
   2  10   6   20.30    5.00
   2  10   6   10.80    3.90
   3  10   6    7.10    2.40
   3  10   6   12.70    4.00
   4  10   6  122.09    7.40
   4  10   6  122.99    7.40
   4  10   6  144.89    8.80
   5  10   6    1.20    2.40
   5  10   6   -5.40    3.90
   5  10   6   -5.00    3.80
   6  10   6    5.70    4.30
   6  10   6    7.20    5.00
   6  10   6    9.40    2.60
   2  11   6    2.70    4.20
   2  11   6    5.70    4.70
   2  11   6    9.20    4.00
   3  11   6   13.10    4.70
   3  11   6    9.00    4.20
   3  11   6    7.30    4.10
   4  11   6   18.00    5.70
   4  11   6   31.50    5.30
   4  11   6   23.00    4.70
   3   8  -7   17.40    4.90
   2   8  -7    8.40    4.50
   1   8  -7   13.50    4.60
   5   7  -7   30.00    4.80
  -5  -7   7   34.10    7.10
   4   7  -7   19.50    4.50
  -4  -7   7   26.10    7.80
   3   7  -7    3.30    3.90
   2   7  -7   62.79    7.50
   1   7  -7   87.69    7.80
   0   7  -7  173.58   10.50
  -1   7  -7   -1.40    3.90
  -2   7  -7   11.00    4.90
   6   6  -7    3.10    4.80
  -6  -6   7   16.30    6.50
   5   6  -7   92.29    8.80
  -5  -6   7   72.09   10.50
   4   6  -7   99.09    9.80
   3   6  -7  171.18   10.70
  -3  -6   7  150.68   11.00
   2   6  -7    3.10    2.80
   1   6  -7   20.00    4.40
   1   6  -7   14.00   10.40
   0   6  -7    8.10   10.90
  -1   6  -7   11.30    4.20
   1  -6   7   11.00    2.10
  -2   6  -7  121.29    8.90
   2  -6   7  133.59    6.40
  -3   6  -7   14.50    3.80
   3  -6   7   14.60    3.40
  -4   6  -7   -6.20    4.30
   4  -6   7   -6.40    4.10
  -7  -5   7   -7.40    6.40
  -6  -5   7   47.00    8.50
   5   5  -7   19.90    5.50
  -5  -5   7   32.50    6.70
   4   5  -7    1.10    3.10
  -4  -5   7    2.60    4.10
  -4  -5   7    3.90    3.60
   3   5  -7  100.09    7.20
   3   5  -7  131.49   15.30
  -3  -5   7  127.29    5.60
  -3  -5   7  123.29    8.50
  -3  -5   7  141.49    6.50
   2   5  -7  195.68    9.00
   2   5  -7  211.58   15.90
  -2  -5   7  189.38   10.10
   1   5  -7  301.27   17.00
   1   5  -7  284.97   11.10
  -1  -5   7  264.97    9.40
   0   5  -7  238.18    9.60
   0  -5   7  246.18    8.00
  -1   5  -7   80.89   11.10
   1  -5   7   58.89    4.40
  -2   5  -7    5.00    9.40
   2  -5   7    3.30    2.30
  -3   5  -7   13.00   11.50
  -3   5  -7   21.60    4.50
   3  -5   7   17.20    3.20
  -4   5  -7   15.90    4.20
   4  -5   7   16.10    4.20
  -5   5  -7   78.89    8.60
   5  -5   7   73.79   10.00
  -7  -4   7    4.00    6.10
  -7  -4   7    2.40    7.30
  -6  -4   7   11.10    7.90
  -6  -4   7    9.50    4.20
  -6  -4   7   11.30    6.80
   5   4  -7  489.85   20.10
  -5  -4   7  513.85   20.20
  -5  -4   7  503.75   18.20
  -5  -4   7  520.15   20.20
   4   4  -7  101.39    6.70
   4   4  -7  118.89   12.70
  -4  -4   7  120.99    8.60
  -4  -4   7  119.69    8.50
  -4  -4   7  120.39    8.50
   3   4  -7  177.78   13.20
   3   4  -7  159.88   13.30
   3   4  -7  184.78    8.70
  -3  -4   7  180.48    8.40
  -3  -4   7  173.98    9.40
   2   4  -7  459.65   18.00
   2   4  -7  465.25   20.10
   2   4  -7  462.35   15.30
  -2  -4   7  456.25   16.20
  -2  -4   7  487.75   13.90
   1   4  -7    6.60    5.30
   1   4  -7    2.70    6.70
   1   4  -7    1.80    1.70
  -1  -4   7    1.10    1.70
   0   4  -7    1.60    5.40
   0   4  -7    2.20    1.60
   0  -4   7    4.60    1.80
  -1   4  -7    1.80    6.20
  -1   4  -7   -0.70    1.60
   1  -4   7   -0.50    1.90
   1  -4   7    1.10    5.40
  -2   4  -7    5.30    2.50
  -2   4  -7   19.70    7.00
   2  -4   7   16.70    7.60
   2  -4   7    6.90    2.40
  -3   4  -7  194.38   15.60
  -3   4  -7  181.98    8.90
   3  -4   7  200.58    9.30
  -4   4  -7   36.60   10.70
  -4   4  -7   47.30   11.10
  -4   4  -7   48.10    6.50
   4  -4   7   43.00    5.80
  -5   4  -7   55.69    7.30
   5  -4   7   65.09    9.30
  -6   4  -7    3.20    4.70
   6  -4   7   -3.00    4.80
  -8  -3   7   15.60    7.50
  -7  -3   7    5.20    6.30
  -7  -3   7    7.40    4.50
   6   3  -7  232.18   13.60
  -6  -3   7  234.58   12.10
  -6  -3   7  229.98   16.60
   5   3  -7  745.43   23.10
  -5  -3   7  764.62   24.40
  -5  -3   7  746.93   25.40
  -5  -3   7  767.12   23.50
   4   3  -7   28.00    6.20
  -4  -3   7   18.20    3.40
  -4  -3   7   27.80    4.30
  -4  -3   7   32.50    7.50
   3   3  -7   47.00    4.40
   3   3  -7   42.00    6.70
  -3  -3   7   50.69    5.10
  -3  -3   7   55.99    5.60
  -3  -3   7   52.49    6.20
   2   3  -7    4.80    5.30
   2   3  -7    2.20    4.00
   2   3  -7    1.80    1.50
  -2  -3   7    2.10    3.00
  -2  -3   7    3.60    2.30
  -2  -3   7    3.30    2.00
   1   3  -7  335.97   13.10
   1   3  -7  326.77   11.30
   1   3  -7  332.07   15.20
  -1  -3   7  324.67   10.90
  -1  -3   7  313.47   11.50
   0   3  -7  415.36   17.80
   0   3  -7  435.16   13.30
   0  -3   7  439.76   13.60
  -1   3  -7  478.95   14.50
  -1   3  -7  512.15   20.40
   1  -3   7  507.15   15.40
   1  -3   7  475.15   16.40
  -2   3  -7   35.10    3.40
  -2   3  -7   38.80    6.10
  -2   3  -7   39.50    8.50
   2  -3   7   44.10    6.40
   2  -3   7   40.30    4.30
  -3   3  -7  297.17   15.90
  -3   3  -7  273.77   18.10
  -3   3  -7  283.97   10.40
   3  -3   7  266.67   11.40
   3  -3   7  275.67   14.10
  -4   3  -7  434.26   21.60
  -4   3  -7  453.45   14.70
   4  -3   7  451.05   16.20
  -5   3  -7    5.50    3.10
   5  -3   7    8.20    3.80
  -6   3  -7   -0.90    3.70
   6  -3   7    0.40    5.00
  -8  -2   7   11.70    6.00
  -8  -2   7   -6.10    5.70
  -7  -2   7   -0.90    4.30
  -7  -2   7    9.50    5.50
   6   2  -7  285.67   13.50
  -6  -2   7  290.17   15.00
  -6  -2   7  258.77   12.20
   5   2  -7   76.69    8.60
  -5  -2   7   72.69    6.60
  -5  -2   7   68.69    6.20
  -5  -2   7   74.49    9.60
   4   2  -7   21.30    4.90
  -4  -2   7   20.80    3.50
  -4  -2   7   19.80    3.60
  -4  -2   7   19.00    4.80
   3   2  -7   62.49    7.80
  -3  -2   7   56.39    5.10
  -3  -2   7   53.49    6.70
  -3  -2   7   60.19    5.50
   2   2  -7   18.50    2.50
   2   2  -7   13.60    4.50
  -2  -2   7   19.20    3.10
  -2  -2   7   21.70    3.50
   1   2  -7   86.09    4.60
   1   2  -7   96.09    6.70
  -1  -2   7   87.19    6.40
  -1  -2   7   82.59    4.90
   0   2  -7  367.16   12.10
   0   2  -7  342.57   10.60
   0   2  -7  352.36   14.50
   0  -2   7  339.87   11.70
   0  -2   7  327.47   13.80
  -1   2  -7  172.28    6.70
  -1   2  -7  182.08   11.40
   1  -2   7  181.38    8.60
   1  -2   7  173.28    7.90
  -2   2  -7  508.35   19.00
  -2   2  -7  506.25   15.40
  -2   2  -7  486.65   14.10
   2  -2   7  488.45   15.70
   2  -2   7  504.45   16.40
  -3   2  -7  851.61   22.50
  -3   2  -7  901.51   27.70
   3  -2   7  878.81   24.10
   3  -2   7  855.31   25.30
  -4   2  -7  101.09   13.20
  -4   2  -7   88.19    5.40
  -4   2  -7  108.39   13.40
   4  -2   7   85.39    9.60
   4  -2   7   94.29    6.70
  -5   2  -7   -2.40    8.70
  -5   2  -7   -3.70    2.50
   5  -2   7   -0.70    2.80
  -6   2  -7    4.30   11.40
  -6   2  -7    2.00    4.40
   6  -2   7   -6.80    4.10
  -7   2  -7    3.50    4.10
   7  -2   7    2.50    4.70
  -8  -1   7   12.40    6.50
  -8  -1   7   24.70    6.20
  -7  -1   7    6.70    5.40
  -7  -1   7   11.60    4.10
   6   1  -7   43.20    6.40
  -6  -1   7   38.90    5.30
  -6  -1   7   37.00    6.90
   5   1  -7   65.69    7.70
  -5  -1   7   55.29    5.90
  -5  -1   7   61.29    7.90
  -5  -1   7   57.49    5.40
   4   1  -7    5.40    3.50
  -4  -1   7    7.00    2.30
  -4  -1   7    5.90    4.30
  -4  -1   7    1.60    2.20
   3   1  -7   52.39    6.40
  -3  -1   7   51.19    4.40
  -3  -1   7   52.49    7.00
  -3  -1   7   48.50    4.80
   2   1  -7  544.55   16.90
  -2  -1   7  525.35   15.70
  -2  -1   7  529.45   17.50
   1   1  -7  134.19    8.30
   1   1  -7  135.39    5.50
  -1  -1   7  130.59    5.70
  -1  -1   7  135.89    7.50
   0   1  -7  612.34   15.50
   0   1  -7  624.84   15.10
   0  -1   7  617.84   15.40
   0  -1   7  571.34   18.90
  -1   1  -7  195.48    6.60
  -1   1  -7  190.78   10.10
  -1   1  -7  192.18    6.50
   1  -1   7  174.88    8.20
   1  -1   7  188.28    9.20
   1  -1   7  195.48    7.80
  -2   1  -7  142.79    9.50
  -2   1  -7  155.38    6.50
  -2   1  -7  150.98    5.70
   2  -1   7  146.39    7.70
   2  -1   7  150.68    7.40
  -3   1  -7  612.94   20.00
  -3   1  -7  596.94   16.30
   3  -1   7  607.04   17.20
   3  -1   7  601.24   19.60
  -4   1  -7   58.29    8.80
  -4   1  -7   56.69    7.40
  -4   1  -7   62.89    4.30
   4  -1   7   55.49    7.00
   4  -1   7   59.99    5.60
  -5   1  -7    3.10   10.30
  -5   1  -7    9.50   10.70
  -5   1  -7    7.20    2.10
   5  -1   7    2.00    5.10
   5  -1   7    3.70    3.70
  -6   1  -7   66.29   10.10
  -6   1  -7   59.79    6.70
  -7   1  -7   36.30    6.20
   7  -1   7   16.30    5.10
   8  -1   7   32.00    6.40
  -8   0   7   -4.40    6.10
  -7   0   7    9.00    5.00
  -7   0   7   -8.20    3.60
   6   0  -7  104.89   10.30
  -6   0   7   97.39    6.70
  -6   0   7   92.29    8.90
   5   0  -7   39.80    5.70
   5   0  -7   41.30    6.10
  -5   0   7   42.10    5.00
  -5   0   7   31.70    4.50
  -5   0   7   31.40    6.70
   4   0  -7   11.10    3.60
  -4   0   7   15.80    5.10
  -4   0   7    6.80    2.00
  -4   0   7   13.00    2.80
   3   0  -7   27.70    4.20
  -3   0   7   29.80    3.60
  -3   0   7   25.90    3.20
  -3   0   7   27.30    5.00
   2   0  -7   71.09    5.80
  -2   0   7   68.99    4.90
  -2   0   7   68.59    4.20
   1   0  -7  244.28    9.90
   1   0  -7  251.77    7.60
  -1   0   7  231.58    9.70
  -1   0   7  249.97    8.00
   0   0  -7   35.60    5.40
   0   0  -7   33.80    2.20
   0   0   7   36.70    3.00
   0   0   7   36.80    3.60
  -1   0  -7  122.29    4.30
  -1   0  -7  137.49    7.70
   1   0   7  120.79    6.70
   1   0   7  133.99    5.70
   1   0   7  118.39    6.50
  -2   0  -7 1006.90   20.80
  -2   0  -7  960.10   25.20
  -2   0  -7  933.11   22.10
   2   0   7  935.41   26.50
   2   0   7  957.00   22.80
   2   0   7  936.81   26.00
  -3   0  -7   14.00    4.10
  -3   0  -7   13.00    1.90
   3   0   7    9.60    2.10
   3   0   7   13.40    2.80
  -4   0  -7   -0.30    1.30
  -4   0  -7    1.30    5.70
  -4   0  -7    0.10    3.90
   4   0   7    2.20    2.20
   4   0   7    0.30    3.00
  -5   0  -7    3.20    7.60
  -5   0  -7    4.60    4.90
   5   0   7    6.80    4.20
   5   0   7    4.60    2.50
  -6   0  -7    3.60    2.60
  -6   0  -7    5.90    5.90
   6   0   7    8.10    4.30
  -7   0  -7   11.60    7.10
   7   0   7    9.60    5.80
   8   0   7    0.80    4.80
  -7   1   7  103.49    9.20
  -6   1   7   54.99    5.70
   5  -1  -7   17.00    5.10
   5  -1  -7   21.60    5.10
  -5   1   7   14.30    2.50
   4  -1  -7  257.17   10.60
   4  -1  -7  261.67   10.30
  -4   1   7  228.28    9.90
  -4   1   7  249.78   13.20
   3  -1  -7  118.59    6.30
   3  -1  -7  119.09    7.10
  -3   1   7  132.99    9.80
  -3   1   7  110.39    6.20
   2  -1  -7    7.60    2.70
  -2   1   7    6.50    1.50
   1  -1  -7  536.55   15.30
  -1   1   7  511.45   15.80
   0  -1  -7  286.17   10.10
   0  -1  -7  288.37    7.40
   0   1   7  282.17    7.60
   0   1   7  284.77   10.40
  -1  -1  -7   16.30    1.90
  -1  -1  -7   14.60    2.80
   1   1   7   10.10    1.80
  -2  -1  -7 1131.29   25.40
  -2  -1  -7 1196.08   28.30
   2   1   7 1157.48   29.30
   2   1   7 1145.69   25.70
   2   1   7 1123.39   30.70
  -3  -1  -7   51.29    3.00
  -3  -1  -7   57.69    3.30
   3   1   7   54.59    4.20
   3   1   7   57.39    4.90
   3   1   7   53.69    4.20
  -4  -1  -7   59.59    3.40
  -4  -1  -7   54.29    3.40
   4   1   7   61.89    5.00
   4   1   7   63.29    5.70
  -5  -1  -7  149.29    6.60
  -5  -1  -7  145.89    6.70
  -5  -1  -7  148.39   14.30
   5   1   7  155.58    8.30
   5   1   7  165.58    9.60
  -6  -1  -7   80.89   10.00
  -6  -1  -7   79.49    5.40
   6   1   7   68.19    7.20
   6   1   7   78.79    8.70
  -7  -1  -7   -3.50    4.40
  -7  -1  -7    3.70    2.80
   7   1   7   -0.50    5.30
  -8  -1  -7   16.20    4.40
   8   1   7   20.30    4.60
  -7   2   7   15.00    4.70
  -6   2   7    8.00    3.50
   5  -2  -7    5.00    4.90
   5  -2  -7   11.50    5.00
  -5   2   7   13.90    3.00
   4  -2  -7  104.39    7.20
   4  -2  -7  102.49    8.20
  -4   2   7   92.09    5.90
  -4   2   7  100.39   11.10
   3  -2  -7  333.67   10.50
   3  -2  -7  331.97   12.60
  -3   2   7  332.17   11.90
  -3   2   7  347.97   15.00
   2  -2  -7  372.56   12.10
  -2   2   7  362.76   12.20
   1  -2  -7  297.17    7.50
   1  -2  -7  296.77   10.30
  -1   2   7  284.47   10.20
   0  -2  -7 1293.87   30.50
  -1  -2  -7  703.33   18.00
   1   2   7  681.73   14.90
   1   2   7  670.33   18.60
  -2  -2  -7  288.87   10.70
   2   2   7  287.67   11.50
   2   2   7  302.87    7.40
   2   2   7  294.17   10.20
  -3  -2  -7   77.39    4.90
  -3  -2  -7   80.79    4.10
   3   2   7   76.09    5.90
   3   2   7   76.89    3.80
   3   2   7   63.39    4.30
  -4  -2  -7  101.89    5.70
  -4  -2  -7   94.69    4.50
   4   2   7  100.89    6.10
   4   2   7  104.79    5.50
   4   2   7   94.49    6.80
  -5  -2  -7  216.28   15.10
  -5  -2  -7  216.38    8.20
  -5  -2  -7  214.78    7.90
   5   2   7  215.38    9.00
   5   2   7  211.28   10.80
  -6  -2  -7    2.20    4.20
  -6  -2  -7   -0.30    2.20
   6   2   7    4.20    4.30
   6   2   7    3.50    2.70
  -7  -2  -7   67.79    6.20
   7   2   7   65.69    8.60
  -8  -2  -7   -0.20    3.90
   8   2   7    0.90    5.10
  -9  -2  -7   21.90    8.30
   9   2   7   17.20    6.50
  -7   3   7   13.40    5.50
  -6   3   7    2.70    3.90
   5  -3  -7   12.40    6.30
  -5   3   7    4.50    2.40
   4  -3  -7  149.39    8.30
  -4   3   7  150.38    7.60
   3  -3  -7 2075.19   58.69
   3  -3  -7 2220.18   49.20
  -3   3   7 2405.76   54.99
  -3   3   7 2273.37   52.19
   2  -3  -7  259.87    7.90
   2  -3  -7  262.17   10.30
  -2   3   7  265.37   12.90
  -2   3   7  246.38    9.50
   1  -3  -7  118.69    3.90
  -1   3   7  115.79    5.70
   0  -3  -7  654.13   17.20
   0   3   7  626.74   17.50
  -1  -3  -7  557.64   15.00
   1   3   7  547.95   15.40
   1   3   7  555.84   14.10
  -2  -3  -7   37.10    4.80
   2   3   7   34.40    2.80
   2   3   7   34.70    3.10
  -3  -3  -7   13.00    2.30
  -3  -3  -7   15.20    2.00
   3   3   7   14.20    2.20
   3   3   7    8.20    2.30
   3   3   7   16.80    2.30
  -4  -3  -7  119.49    5.40
  -4  -3  -7  122.09    5.20
   4   3   7  109.79    7.60
   4   3   7  122.39    5.60
   4   3   7  127.69    5.60
  -5  -3  -7  330.47   11.40
  -5  -3  -7  348.47    9.40
   5   3   7  337.27   14.40
   5   3   7  359.36   11.40
  -6  -3  -7  214.68    9.40
   6   3   7  199.58   10.50
   6   3   7  217.78   10.30
  -7  -3  -7   55.79    6.10
   7   3   7   44.00    6.70
   7   3   7   69.09   10.30
  -8  -3  -7   17.80    4.60
   8   3   7   -0.70    4.50
  -9  -3  -7    6.30    7.10
   9   3   7   12.00    5.70
  -6   4   7   35.70    6.30
   5  -4  -7   54.49    7.70
  -4   4   7   30.60    3.90
   3  -4  -7  440.96   13.20
  -3   4   7  426.36   14.30
  -3   4   7  452.55   19.50
   2  -4  -7  107.19    5.30
  -2   4   7  116.69   10.80
  -2   4   7  101.19    5.70
   1  -4  -7  118.29    7.10
   1  -4  -7  121.59    4.60
  -1   4   7  126.69    6.00
   0  -4  -7   -0.40    2.10
   0   4   7    2.40    1.20
  -1  -4  -7  460.85   13.20
   1   4   7  452.35   13.60
   1   4   7  436.26   13.10
  -2  -4  -7  128.19    5.90
   2   4   7  132.49    6.70
   2   4   7  126.09    5.50
  -3  -4  -7  162.68    6.50
  -3  -4  -7  162.08    6.30
   3   4   7  157.58    8.60
   3   4   7  158.58    6.30
   3   4   7  169.08    8.50
   3   4   7  166.48    5.40
  -4  -4  -7  190.38    6.50
  -4  -4  -7  184.58    7.60
   4   4   7  190.18    6.90
   4   4   7  176.48    9.80
   4   4   7  203.28    7.20
  -5  -4  -7  234.48    9.50
   5   4   7  222.38   11.40
   5   4   7  239.28    9.10
   5   4   7  230.58    7.70
  -6  -4  -7   -1.30    2.60
   6   4   7   -0.40    3.10
   6   4   7    3.60    3.90
  -7  -4  -7  183.78   10.10
   7   4   7  180.68   12.00
  -8  -4  -7   75.19    7.90
   8   4   7   76.59   10.60
  -9  -4  -7  242.28   17.70
   9   4   7  240.68   14.80
  -6   5   7   16.30    4.30
  -5   5   7   15.50    4.40
   4  -5  -7   44.90    6.50
  -4   5   7   53.39    7.80
   3  -5  -7   42.30    5.60
  -3   5   7   39.10    3.90
   2  -5  -7  221.88    8.60
  -2   5   7  208.78    7.40
  -2   5   7  227.08    9.20
  -2   5   7  240.28   14.40
   1  -5  -7    6.70    2.30
  -1   5   7    7.60    1.70
  -1   5   7    5.60    1.20
   0  -5  -7   24.40    3.00
   0   5   7   28.00    1.70
   0   5   7   25.70    2.80
   1   5   7   56.19    3.80
   1   5   7   56.69    2.60
   1   5   7   59.79    6.80
   2   5   7  173.08    5.30
   2   5   7  179.38    9.40
   2   5   7  167.18    6.60
   3   5   7   27.20    4.20
   3   5   7   24.80    2.50
   3   5   7   24.10    5.00
  -4  -5  -7    1.80    1.90
   4   5   7    1.80    1.20
   4   5   7    1.40    3.50
   4   5   7    2.10    2.20
   4   5   7    1.80    2.10
  -5  -5  -7  470.35   15.60
   5   5   7  462.65   12.50
   5   5   7  470.75   14.00
   5   5   7  451.15   17.40
   6   5   7   17.00    3.50
   6   5   7   12.50    4.40
  -7  -5  -7    3.30    3.60
   7   5   7    3.00    5.60
   7   5   7    3.90    6.70
  -8  -5  -7  201.38   12.40
   8   5   7  215.88   14.70
  -9  -5  -7    5.50    7.90
   9   5   7    9.90    5.30
  -5   6   7  131.29    9.30
   4  -6  -7   36.70    7.70
  -4   6   7   37.10    5.80
   3  -6  -7   57.29    6.60
  -3   6   7   65.39    4.70
   2  -6  -7   39.40    5.10
  -2   6   7   46.40    8.90
  -2   6   7   40.00    4.30
  -2   6   7   38.10    3.40
  -1   6   7   66.89    8.60
  -1   6   7   44.30    4.20
  -1   6   7   58.69    3.30
   0  -6  -7  522.85   14.10
   0   6   7  504.85   12.90
   0   6   7  524.95   15.70
   1   6   7   67.29    2.90
   1   6   7   58.19    4.20
   1   6   7   71.69    9.20
   2   6   7    4.10    4.90
   2   6   7    7.00    1.20
   2   6   7    6.70    1.60
   3   6   7   10.70    2.50
   3   6   7   10.60    5.00
   3   6   7    9.80    1.50
   3   6   7   13.10    1.60
  -4  -6  -7   33.90    4.50
   4   6   7   27.40    2.60
   4   6   7   31.00    6.00
   4   6   7   26.10    4.10
  -5  -6  -7  463.75   16.20
   5   6   7  470.05   18.10
   5   6   7  462.75   17.80
   5   6   7  468.95   12.50
  -6  -6  -7   64.09    6.80
   6   6   7   70.99    8.10
   6   6   7   75.49    7.50
  -7  -6  -7   50.99    7.80
   7   6   7   49.50    7.60
   7   6   7   38.10    7.20
  -8  -6  -7   50.69    7.50
   8   6   7   63.89    9.30
  -9  -6  -7    3.00    7.80
   9   6   7   -6.00    5.30
  -4   7   7  155.78    9.30
  -4   7   7  131.79    9.30
   3  -7  -7    0.00    6.40
  -3   7   7    3.40    3.80
  -3   7   7    5.90    2.60
   2  -7  -7  126.99   10.40
  -2   7   7  117.69    5.90
  -2   7   7  130.29    7.90
   1  -7  -7    5.70    4.30
  -1   7   7   15.40    7.30
  -1   7   7    6.10    2.30
  -1   7   7   10.30    1.90
   0  -7  -7   29.70    4.60
   0   7   7   33.80    4.10
   0   7   7   26.80    2.50
   0   7   7   36.00    8.60
   1   7   7    0.00    6.00
   1   7   7    8.10    1.30
   1   7   7   10.60    2.00
   2   7   7   37.00    3.50
   2   7   7   47.20    8.20
   2   7   7   45.00    2.80
   3   7   7  168.78   13.30
   3   7   7  175.58    7.00
   3   7   7  159.48    8.90
   3   7   7  175.08    6.50
   4   7   7  222.48   10.90
   4   7   7  215.18    7.70
   4   7   7  228.38   14.80
   4   7   7  216.58    8.00
  -5  -7  -7   73.29    6.90
   5   7   7   78.59    6.80
   5   7   7   74.39    3.90
   5   7   7   60.49    9.00
  -6  -7  -7   24.50    4.20
   6   7   7   23.70    4.50
   6   7   7   20.10    2.80
   6   7   7   23.00    8.80
  -7  -7  -7   17.70    6.20
   7   7   7   33.90    7.90
  -8  -7  -7   32.90    8.20
   8   7   7   32.30    7.40
  -3   8   7   -0.30    3.40
  -3   8   7    0.50    3.60
   2  -8  -7   -0.50    7.00
  -2   8   7   -6.00    2.40
  -2   8   7   -6.90    3.10
   1  -8  -7   -2.10    5.50
  -1   8   7   -1.20    3.40
  -1   8   7    0.20    1.90
   0   8   7    8.30    2.00
   0   8   7   14.00    3.20
   0   8   7   13.60    7.60
   1   8   7  276.87   22.40
   1   8   7  260.97    8.60
   1   8   7  275.17   10.30
   2   8   7   36.00    3.00
   2   8   7   40.60   10.10
   2   8   7   38.00    3.80
   3   8   7   51.19    4.00
   3   8   7   51.99    3.60
   3   8   7   49.70   10.20
   3   8   7   36.40    5.80
   4   8   7   31.80    3.50
   4   8   7   49.90    6.20
   4   8   7   35.90    9.70
   4   8   7   37.70    3.80
   5   8   7  245.78    9.70
   5   8   7  244.68   12.20
   5   8   7  240.78    9.90
  -6  -8  -7   20.20    5.40
   6   8   7   20.90    3.90
   6   8   7   23.40    2.40
  -7  -8  -7    0.30    5.30
  -8  -8  -7   43.70    8.90
   8   8   7   26.90    7.20
  -2   9   7    7.00    3.70
  -2   9   7   10.30    4.10
   1  -9  -7   68.49   10.30
  -1   9   7   93.79    7.90
  -1   9   7   76.19    6.00
   0   9   7   12.40    4.40
   0   9   7    8.20    2.20
   1   9   7    3.50    2.80
   1   9   7   -1.70    1.80
   1   9   7    2.90    7.90
   2   9   7   33.50    4.60
   2   9   7   33.80    3.50
   3   9   7    2.80    3.30
   3   9   7   11.40    2.40
   3   9   7    4.90    2.10
   4   9   7   85.29    7.60
   4   9   7   68.59    5.10
   4   9   7   68.89    4.80
   5   9   7  323.37   13.80
   5   9   7  288.97   11.10
   5   9   7  287.47    9.90
  -6  -9  -7   12.90    7.30
   6   9   7    5.80    4.10
   6   9   7   10.30    3.10
   6   9   7   13.50    2.20
  -7  -9  -7    9.90    7.40
   7   9   7   12.30    5.10
  -1  10   7  126.29    9.80
  -1  10   7  143.39    9.70
   0  10   7   -6.20    2.90
   0  10   7    2.00    3.50
   1  10   7   -0.50    3.20
   1  10   7    0.10    2.80
   2  10   7    4.20    3.60
   2  10   7   11.60    2.40
   3  10   7   12.50    3.80
   3  10   7   15.10    4.20
   3  10   7   14.70    2.80
   4  10   7   -3.10    3.00
   4  10   7   -4.50    4.30
   4  10   7    0.00    2.70
   5  10   7    4.50    4.30
   5  10   7    4.60    2.60
   5  10   7   -2.60    3.40
   6  10   7  204.28   11.80
   6  10   7  241.88    8.70
   3  11   7   23.00    4.80
   3  11   7   27.80    5.30
   3  11   7   22.50    4.90
   4   7  -8   11.90    4.90
  -4  -7   8    0.20    6.10
   3   7  -8    8.20    4.10
   2   7  -8   19.30    4.60
   1   7  -8   73.49    7.90
   0   7  -8   20.50    4.30
  -1   7  -8    3.20    4.00
   5   6  -8    4.80    4.50
  -5  -6   8   11.50    6.30
   4   6  -8   -6.30    4.00
  -4  -6   8    0.60    6.30
   3   6  -8    1.70    4.60
  -3  -6   8   -2.60    4.70
   2   6  -8   55.39    8.20
   1   6  -8   -2.50    3.70
   0   6  -8  143.29   10.10
  -1   6  -8   -1.00    3.40
   1  -6   8    0.00    2.30
  -2   6  -8   20.40    3.90
   2  -6   8    9.40    2.90
  -3   6  -8    6.40    4.20
   3  -6   8   -0.30    3.60
   6   5  -8   37.70    5.50
  -6  -5   8   26.10    7.20
   5   5  -8    9.30    4.60
  -5  -5   8    7.20    6.60
   4   5  -8    1.20    3.50
  -4  -5   8   -6.20    4.50
  -4  -5   8   -0.50    4.80
   3   5  -8   16.10    4.20
   3   5  -8   22.40    9.50
  -3  -5   8   15.70    4.60
  -3  -5   8   19.30    2.60
  -3  -5   8   15.00    4.30
   2   5  -8   73.39   10.60
   2   5  -8   70.39    7.20
  -2  -5   8   79.19    4.80
  -2  -5   8   77.19    5.90
  -2  -5   8   90.69    7.00
   1   5  -8    4.20    2.80
   1   5  -8   25.00    8.70
  -1  -5   8    8.90    2.20
   0   5  -8    5.00    3.30
   0   5  -8    5.60    8.20
   0  -5   8    2.40    2.10
  -1   5  -8   59.79   11.30
   1  -5   8   49.50    4.70
  -2   5  -8    8.30   10.80
  -2   5  -8    3.00    3.80
   2  -5   8    7.70    2.90
  -3   5  -8    2.80    3.40
  -3   5  -8    7.30   12.30
   3  -5   8    3.30    3.20
  -4   5  -8   86.09    7.80
   4  -5   8   68.49    8.20
  -7  -4   8   13.20    7.30
  -7  -4   8   15.00    7.10
  -6  -4   8   18.00    8.00
  -5  -4   8   13.80    6.50
  -5  -4   8   24.10    5.70
  -5  -4   8   15.70    6.70
   4   4  -8   20.30    3.80
  -4  -4   8   24.30    5.40
  -4  -4   8   35.80    6.10
  -4  -4   8   14.50    5.10
   3   4  -8    6.60    2.40
  -3  -4   8    2.50    3.00
  -3  -4   8    5.70    4.30
   2   4  -8    0.30    9.00
  -2  -4   8    1.10    3.50
  -2  -4   8    0.60    2.60
  -2  -4   8   -0.50    2.20
   1   4  -8  271.37   10.60
  -1  -4   8  284.17   10.00
   0   4  -8  348.77   16.10
   0   4  -8  330.57   11.80
   0  -4   8  328.87   11.40
  -1   4  -8   15.10    6.90
  -1   4  -8    4.30    2.40
   1  -4   8   -1.40    6.60
   1  -4   8    0.00    2.30
  -2   4  -8   -1.60    7.50
  -2   4  -8    3.50    2.10
   2  -4   8   10.50    2.70
  -3   4  -8    8.60    8.90
   3  -4   8    3.20    2.90
  -4   4  -8    4.20    4.00
  -4   4  -8  -12.30    9.60
   4  -4   8   -1.10    3.50
  -5   4  -8   51.09    7.40
   5  -4   8   56.99    7.20
  -7  -3   8   15.50    6.20
  -6  -3   8   -3.10    5.50
  -6  -3   8   -6.80    4.50
  -5  -3   8   44.30    7.50
  -5  -3   8   28.40    4.30
   4   3  -8  223.98   21.20
  -4  -3   8  172.18   10.00
  -4  -3   8  181.28   11.20
  -4  -3   8  171.38   11.40
   3   3  -8   80.49    5.50
   3   3  -8   82.79   11.40
  -3  -3   8   73.59    6.60
  -3  -3   8   95.99    7.70
  -3  -3   8   90.69    8.30
   2   3  -8   15.80    7.50
   2   3  -8   12.40    2.50
  -2  -3   8   19.00    3.30
  -2  -3   8   12.40    3.20
   1   3  -8  107.09   12.10
   1   3  -8  113.69    6.00
   1   3  -8  119.99    9.40
  -1  -3   8  109.89    8.20
  -1  -3   8  105.29    6.10
  -1  -3   8  111.49    6.10
   0   3  -8  351.76   11.90
   0   3  -8  388.46   14.60
   0  -3   8  365.06   12.60
  -1   3  -8  116.69    5.90
  -1   3  -8  134.49   14.20
   1  -3   8  123.59   10.10
   1  -3   8  117.79    6.80
  -2   3  -8   -3.00    5.30
  -2   3  -8    2.00    1.70
  -2   3  -8   13.00    9.00
   2  -3   8   -1.10    2.30
   2  -3   8    6.70    5.50
  -3   3  -8   84.99   11.40
  -3   3  -8   67.09    5.50
   3  -3   8   86.49    6.20
   3  -3   8   82.29   12.10
  -4   3  -8    9.80    3.20
  -4   3  -8    1.90    7.80
   4  -3   8    9.80    3.70
  -5   3  -8   56.69    8.00
   5  -3   8   68.69   11.90
  -6   3  -8   10.50    4.30
   6  -3   8   10.20    5.20
  -7  -2   8    6.00    5.90
  -7  -2   8   10.80    5.40
  -6  -2   8    1.80    4.00
  -6  -2   8   -7.30    4.50
   5   2  -8   38.30    7.50
  -5  -2   8   45.20    7.70
  -5  -2   8   64.89    7.60
  -5  -2   8   55.79    7.40
   4   2  -8   25.10    6.10
  -4  -2   8   18.50    3.40
  -4  -2   8   19.70    3.50
  -4  -2   8   14.30    5.10
   3   2  -8    9.50    5.10
  -3  -2   8    6.30    4.30
  -3  -2   8    1.20    2.60
  -3  -2   8    6.10    2.50
   2   2  -8   25.00    3.10
   2   2  -8   31.30    6.30
  -2  -2   8   26.20    3.80
  -2  -2   8   17.60    3.30
   1   2  -8    5.40    4.70
   1   2  -8    4.60    1.50
  -1  -2   8    6.90    1.80
  -1  -2   8    5.50    2.90
   0   2  -8   19.00    2.40
   0   2  -8   18.10    3.50
   0   2  -8   15.20    5.70
   0  -2   8   19.80    2.80
   0  -2   8   12.20    2.60
  -1   2  -8  466.65   18.20
  -1   2  -8  463.75   13.30
   1  -2   8  424.76   15.10
   1  -2   8  468.95   15.40
  -2   2  -8  210.58   10.10
  -2   2  -8  219.18    8.00
  -2   2  -8  215.18   13.90
   2  -2   8  214.08   10.00
   2  -2   8  217.48   10.70
  -3   2  -8   94.39   13.00
  -3   2  -8   90.49    8.80
  -3   2  -8   93.59    5.20
   3  -2   8   86.49    7.00
   3  -2   8   86.19    9.20
  -4   2  -8  141.19    7.30
  -4   2  -8  154.78   15.80
   4  -2   8  167.18    9.10
   4  -2   8  139.09   11.70
  -5   2  -8   24.70   12.20
  -5   2  -8   25.10    4.10
   5  -2   8   18.80    4.90
  -6   2  -8   65.39    8.70
   6  -2   8   85.39   11.00
  -7   2  -8   57.09    8.10
   7  -2   8   62.69    9.70
  -7  -1   8    9.00    5.00
  -7  -1   8   -0.60    4.90
  -6  -1   8   44.40    6.30
   5   1  -8    6.40    5.20
  -5  -1   8    5.70    3.50
  -5  -1   8   11.90    6.30
  -5  -1   8    6.90    3.00
   4   1  -8    9.70    4.70
  -4  -1   8   12.40    2.80
  -4  -1   8    4.90    2.50
  -4  -1   8   11.20    5.30
   3   1  -8  107.09    8.70
  -3  -1   8  110.09    9.30
  -3  -1   8   95.69    6.70
  -3  -1   8   99.79    6.50
   2   1  -8  519.45   15.00
   2   1  -8  527.55   17.60
  -2  -1   8  539.05   16.10
  -2  -1   8  552.64   18.60
   1   1  -8   65.19    8.00
   1   1  -8   59.69    3.50
  -1  -1   8   60.19    5.60
  -1  -1   8   57.39    4.00
   0   1  -8  251.17    8.10
   0   1  -8  261.77   12.20
   0  -1   8  252.57   11.40
  -1   1  -8  279.17    8.10
  -1   1  -8  275.97    8.60
  -1   1  -8  275.77   12.90
   1  -1   8  281.27   11.40
   1  -1   8  281.97   10.40
   1  -1   8  274.47   12.20
  -2   1  -8   57.79    3.40
  -2   1  -8   44.40    6.40
  -2   1  -8   54.89    4.60
   2  -1   8   52.89    5.10
   2  -1   8   54.49    6.00
  -3   1  -8   17.90    2.60
  -3   1  -8   13.30    5.50
  -3   1  -8   22.30    3.70
   3  -1   8   19.50    3.70
   3  -1   8   20.40    4.40
  -4   1  -8   90.19   11.40
  -4   1  -8   95.59    5.30
   4  -1   8   99.69    7.20
   4  -1   8   93.49    8.50
  -5   1  -8    9.10    2.60
  -5   1  -8   16.10    8.00
   5  -1   8    8.30    6.00
   5  -1   8    1.80    3.10
  -6   1  -8   11.00    9.30
  -6   1  -8    3.50    5.70
   6  -1   8   -3.70    4.60
  -7   1  -8   -0.90    4.30
   7  -1   8    5.60    5.10
  -7   0   8   10.60    5.20
  -7   0   8    2.40    8.00
  -6   0   8    8.00    3.80
  -6   0   8   11.40    7.40
   5   0  -8   -0.10    5.20
   5   0  -8    5.80    4.70
  -5   0   8   -0.30    2.80
  -5   0   8   -1.70    2.80
   4   0  -8    9.70    4.40
  -4   0   8   11.40    5.20
  -4   0   8   13.40    2.60
  -4   0   8   14.20    2.70
   3   0  -8  144.79    8.60
  -3   0   8  141.39   10.60
  -3   0   8  143.49    8.00
  -3   0   8  137.59    7.10
  -2   0   8  149.69    8.00
  -2   0   8  158.48    6.90
   1   0  -8    3.70    1.10
   1   0  -8    1.50    3.10
  -1   0   8    5.50    1.50
  -1   0   8    3.40    1.70
   0   0  -8  233.18    7.10
   0   0  -8  255.67   10.90
   0   0   8  239.08    7.10
   0   0   8  237.58   10.50
  -1   0  -8 1146.59   29.40
  -1   0  -8 1095.79   25.40
   1   0   8 1092.89   30.10
   1   0   8 1177.28   26.60
   1   0   8 1139.19   30.70
  -2   0  -8  222.38    7.10
  -2   0  -8  229.98   11.00
   2   0   8  229.88    8.40
   2   0   8  235.78   10.40
   2   0   8  215.58   10.30
  -3   0  -8    5.20    4.10
  -3   0  -8    4.20    1.20
  -3   0  -8    3.70    2.00
   3   0   8    7.60    2.50
   3   0   8    4.00    2.90
  -4   0  -8   22.00    2.90
  -4   0  -8   27.40    5.80
   4   0   8   28.10    4.50
   4   0   8   25.20    4.00
  -5   0  -8   93.09    5.50
  -5   0  -8  105.39   10.60
   5   0   8   92.19    8.80
   5   0   8   79.69    7.20
  -6   0  -8   67.39    8.70
  -6   0  -8   60.69    5.10
   6   0   8   50.29    7.60
   7   0   8   -0.50    5.10
  -8   0  -8   -3.10    5.70
   8   0   8   -1.50    5.60
  -7   1   8    9.60    5.30
  -6   1   8   -2.70    3.80
  -5   1   8  353.96   13.90
   4  -1  -8   98.89    8.20
   4  -1  -8   94.69    7.60
  -4   1   8   83.09    6.10
  -4   1   8  102.39   11.30
   3  -1  -8  566.64   15.60
   3  -1  -8  546.25   17.10
  -3   1   8  493.55   17.20
  -3   1   8  595.04   20.30
   2  -1  -8  611.14   18.10
  -2   1   8  624.74   19.10
   1  -1  -8  161.98    8.10
   1  -1  -8  148.19    5.10
  -1   1   8  150.18    5.80
  -1   1   8  148.59    7.50
   0  -1  -8  117.29    7.10
   0   1   8  114.49    4.50
   0   1   8  113.59    6.50
  -1  -1  -8  454.65   12.10
  -1  -1  -8  467.05   14.70
   1   1   8  484.05   15.60
  -2  -1  -8   24.40    1.90
  -2  -1  -8   20.90    3.90
   2   1   8   24.80    3.20
   2   1   8   15.20    2.80
   2   1   8   23.40    3.40
  -3  -1  -8   73.29    6.60
  -3  -1  -8   59.79    3.20
   3   1   8   61.89    5.60
   3   1   8   66.39    4.90
   3   1   8   58.09    4.40
  -4  -1  -8  139.69    8.60
  -4  -1  -8  129.79    5.60
  -4  -1  -8  123.69    4.80
   4   1   8  130.49    8.50
   4   1   8  137.99    7.10
  -5  -1  -8  136.19    6.10
  -5  -1  -8  147.89    6.60
  -5  -1  -8  154.98   13.60
   5   1   8  143.59    8.40
   5   1   8  154.98   10.30
  -6  -1  -8    2.60    4.80
  -6  -1  -8    0.30    2.20
   6   1   8    7.50    3.60
   6   1   8    1.00    4.90
  -7  -1  -8   15.90    3.50
  -7  -1  -8   20.80    5.70
   7   1   8   11.60    5.70
  -8  -1  -8   12.70    4.20
   8   1   8    8.30    4.80
  -7   2   8   46.10    7.90
  -6   2   8   32.80    7.90
   5  -2  -8   46.70    6.90
  -5   2   8   28.80    3.80
   4  -2  -8   55.19    7.90
   4  -2  -8   61.19    6.80
  -4   2   8   55.99    5.00
   3  -2  -8   23.60    3.60
   3  -2  -8   25.70    5.60
  -3   2   8   26.90    6.70
  -3   2   8   20.40    2.80
   2  -2  -8  332.27    9.40
   2  -2  -8  307.87   11.60
  -2   2   8  301.77   11.60
   1  -2  -8    7.00    3.00
   1  -2  -8    5.90    1.40
  -1   2   8    2.50    1.30
   0  -2  -8  160.98    7.70
   0   2   8  155.68    7.40
  -1  -2  -8   78.59    5.70
   1   2   8   73.59    4.80
  -2  -2  -8  849.02   21.80
   2   2   8  847.52   18.80
   2   2   8  854.81   25.00
   2   2   8  834.92   23.00
  -3  -2  -8    5.00    2.70
   3   2   8    1.20    2.00
   3   2   8    5.80    1.90
   3   2   8    5.00    1.80
  -4  -2  -8  166.78    7.80
  -4  -2  -8  158.78    6.00
   4   2   8  165.38    7.70
   4   2   8  163.48    9.50
  -5  -2  -8  308.07   10.00
   5   2   8  289.37   14.10
   5   2   8  304.57   10.80
  -6  -2  -8   38.20    4.40
  -6  -2  -8   42.10    4.50
   6   2   8   31.30    6.30
   6   2   8   42.90    6.00
  -7  -2  -8  120.99    7.60
  -7  -2  -8  124.79    7.00
   7   2   8  112.49   11.80
  -8  -2  -8   -1.90    4.50
   8   2   8    3.30    4.90
  -7   3   8   -0.40    5.50
  -6   3   8    6.70    5.20
   5  -3  -8  174.98   11.40
  -5   3   8  171.08    9.90
   4  -3  -8   17.50    4.30
  -4   3   8   12.40    2.50
   3  -3  -8 1147.89   33.30
   3  -3  -8 1240.38   28.40
  -3   3   8 1240.68   31.80
   2  -3  -8   10.00    2.20
   2  -3  -8    4.40    3.10
  -2   3   8    8.00    1.80
   1  -3  -8  654.03   18.50
   1  -3  -8  661.03   14.70
  -1   3   8  662.63   19.10
   0  -3  -8  214.78    8.70
   0   3   8  204.68    8.40
  -1  -3  -8   41.10    4.80
   1   3   8   40.70    3.60
   1   3   8   39.90    3.30
  -2  -3  -8  920.21   22.80
   2   3   8  921.81   24.00
   2   3   8  922.31   20.30
  -3  -3  -8   44.50    4.50
   3   3   8   38.90    3.50
   3   3   8   41.40    4.90
   3   3   8   44.10    2.80
  -4  -3  -8  235.08    8.40
  -4  -3  -8  234.68    7.80
   4   3   8  244.48   11.70
   4   3   8  241.08    7.90
   4   3   8  226.98    8.90
  -5  -3  -8   18.50    3.70
  -5  -3  -8   17.30    2.50
   5   3   8   14.70    3.50
   5   3   8   10.50    3.00
  -6  -3  -8  239.78    8.40
  -6  -3  -8  234.48    9.70
   6   3   8  226.18   13.70
   6   3   8  242.78   10.80
  -7  -3  -8   17.00    3.50
   7   3   8   16.20    6.70
   7   3   8   20.20    6.50
  -8  -3  -8   67.79    8.90
   8   3   8  101.89   10.60
  -6   4   8  110.59    9.20
   5  -4  -8   47.80    7.50
  -5   4   8   47.30    6.40
   4  -4  -8  381.56   13.60
  -4   4   8  399.56   15.10
   3  -4  -8   94.49    6.50
  -3   4   8  103.29    6.50
   2  -4  -8    1.80    2.10
   2  -4  -8    1.30    3.50
  -2   4   8    5.20    6.10
  -2   4   8    2.10    1.60
   1  -4  -8  547.55   16.70
   1  -4  -8  542.85   12.80
  -1   4   8  535.95   16.50
   0  -4  -8  374.36   12.50
   0   4   8  375.16   12.40
  -1  -4  -8    2.90    2.60
   1   4   8    4.20    1.50
  -2  -4  -8   80.39    5.40
   2   4   8   76.59    5.30
   2   4   8   69.39    4.30
  -3  -4  -8    0.00    2.10
   3   4   8    1.30    1.90
   3   4   8    1.30    1.20
   3   4   8   -0.30    2.10
   3   4   8   -0.50    1.30
  -4  -4  -8  215.68    7.80
  -4  -4  -8  207.78    7.90
   4   4   8  225.48   11.10
   4   4   8  217.68    7.20
   4   4   8  211.88    8.10
  -5  -4  -8  102.29    5.10
  -5  -4  -8   94.19    5.80
   5   4   8   97.79    7.40
   5   4   8   92.19    5.20
   5   4   8  105.19    6.50
  -6  -4  -8   15.80    3.10
   6   4   8   14.60    4.60
  -7  -4  -8    1.40    3.50
   7   4   8    1.10    5.30
   7   4   8    0.90    6.00
  -8  -4  -8   17.20    5.70
   8   4   8   24.50    6.60
  -6   5   8   52.19    5.90
  -5   5   8  266.77   13.00
   4  -5  -8  726.93   21.30
  -4   5   8  727.83   22.90
   3  -5  -8   78.89    7.20
  -3   5   8   76.19    6.70
   2  -5  -8   27.20    5.90
  -2   5   8   33.90    4.10
  -2   5   8   40.20    8.60
   1  -5  -8    9.40    2.40
  -1   5   8   10.10    1.90
   0   5   8  456.95   14.40
  -1  -5  -8  341.27   12.00
   1   5   8  343.37   11.50
  -2  -5  -8   62.49    5.60
   2   5   8   61.29    6.70
   2   5   8   62.39    4.10
  -3  -5  -8  290.47    9.90
   3   5   8  280.27   11.20
   3   5   8  292.77    7.60
   3   5   8  279.97    9.60
   3   5   8  261.97   12.20
  -4  -5  -8   30.80    3.80
   4   5   8   32.70    5.00
   4   5   8   30.70    3.00
   4   5   8   38.00    4.00
  -5  -5  -8  329.97   12.10
   5   5   8  353.96   11.40
   5   5   8  317.47   14.70
   5   5   8  321.47   10.30
  -6  -5  -8  231.38   10.60
   6   5   8  179.38   12.20
   6   5   8  248.28   10.90
  -7  -5  -8   15.60    3.90
   7   5   8    4.40    4.80
   7   5   8    5.70    6.30
  -8  -5  -8   55.49    5.90
  -5   6   8   47.40    7.10
   4  -6  -8   -4.50    6.60
  -4   6   8    1.00    3.70
   3  -6  -8   50.89    6.50
  -3   6   8   70.39    7.20
   2  -6  -8   43.90    6.50
  -2   6   8   42.60    3.50
  -2   6   8   36.50    5.10
   1  -6  -8   96.59    6.30
  -1   6   8   89.29    5.60
  -1   6   8   91.19    4.20
  -1   6   8   90.89   13.20
   0   6   8  220.08   13.00
   0   6   8  203.88    8.70
   0   6   8  202.28    6.10
   1   6   8    4.70    5.00
   1   6   8    1.20    1.40
   2   6   8   61.99    8.80
   2   6   8   65.29    4.30
   3   6   8   15.00    5.30
   3   6   8   12.70    2.70
   3   6   8   15.30    2.40
   3   6   8   19.00    2.00
   4   6   8 2613.64   55.39
   4   6   8 2525.75   62.79
   4   6   8 2654.03   59.49
   4   6   8 2455.45   56.39
  -5  -6  -8   71.29    6.00
   5   6   8   73.49    4.20
   5   6   8   62.99    9.70
   5   6   8   66.19    6.40
   5   6   8   61.79    7.70
  -6  -6  -8   16.20    3.60
   6   6   8   22.00    3.10
   6   6   8   21.60    5.20
   6   6   8   15.80    4.60
  -7  -6  -8    1.40    4.10
   7   6   8   -0.90    5.90
   7   6   8    1.10    4.70
  -8  -6  -8    8.40    6.30
   8   6   8   10.30    5.10
  -4   7   8   15.20    4.00
   3  -7  -8    2.50    6.50
  -3   7   8   -2.00    3.20
   2  -7  -8   68.99    9.30
  -2   7   8   69.79    4.60
  -2   7   8   74.69    8.00
   1  -7  -8    0.80    4.10
  -1   7   8    2.60    1.60
  -1   7   8    2.70    2.80
   0   7   8  496.35   13.10
   0   7   8  513.35   16.00
   0   7   8  528.35   21.90
   1   7   8   22.10    2.90
   1   7   8   19.40    2.10
   1   7   8   28.60    7.40
   2   7   8   37.80    7.90
   2   7   8   24.00    2.10
   2   7   8   26.00    3.00
   3   7   8  249.38   14.80
   3   7   8  246.88   11.50
   3   7   8  242.58    7.50
   3   7   8  247.08    9.10
   4   7   8  324.87   16.50
   4   7   8  331.67   10.70
   4   7   8  349.47   14.60
   4   7   8  322.57   10.00
  -5  -7  -8   48.70    5.80
   5   7   8   29.00    7.80
   5   7   8   34.60    3.20
   5   7   8   32.10    5.50
  -6  -7  -8   10.50    3.70
   6   7   8    8.70    5.20
   6   7   8   15.00    2.10
   6   7   8   12.70    4.70
  -7  -7  -8   20.70    4.40
   7   7   8   33.40    7.60
   7   7   8   13.60    6.00
  -8  -7  -8  -12.80    5.80
   8   7   8   13.40    5.60
  -3   8   8   18.30    4.00
   2  -8  -8   16.40    7.40
  -2   8   8   11.70    2.80
  -2   8   8   18.30    4.00
   1  -8  -8   -2.50    5.50
  -1   8   8    8.00    2.10
  -1   8   8    3.10    3.70
   0   8   8   11.80    2.10
   0   8   8    8.00    3.20
   1   8   8    9.30    9.50
   1   8   8    5.80    1.50
   2   8   8    1.00    2.50
   2   8   8    4.70    1.40
   2   8   8    1.00    9.10
   3   8   8  241.48    9.30
   3   8   8  264.17   12.00
   3   8   8  229.58    7.70
   3   8   8  230.38   17.70
   4   8   8  141.89    9.10
   4   8   8  125.79    6.10
   4   8   8  143.39   16.60
   4   8   8  133.19    6.30
   5   8   8  306.97   10.10
   5   8   8  325.17   14.00
   5   8   8  325.97   20.50
   5   8   8  306.17   10.60
  -6  -8  -8    0.40    4.40
   6   8   8    6.20    2.00
   6   8   8   10.20    5.30
   7   8   8    5.50    7.00
  -8  -8  -8   64.29   10.20
   8   8   8   76.29   11.30
  -2   9   8   13.60    3.60
  -2   9   8   10.10    4.30
  -1   9   8   93.39    5.90
  -1   9   8  102.49    8.10
   0   9   8   11.20    3.80
   0   9   8   17.10    2.60
   1   9   8   31.80    5.20
   1   9   8   17.40    2.30
   2   9   8    8.20    3.00
   2   9   8    7.80    2.00
   3   9   8   21.50    2.70
   3   9   8   32.60    4.90
   3   9   8   23.40    2.70
   4   9   8   15.30    2.50
   4   9   8   18.30    5.50
   4   9   8   13.00    2.40
   5   9   8    0.50    4.40
   5   9   8   -0.30    2.20
   5   9   8    7.00    2.60
   6   9   8  154.78    6.60
   6   9   8  147.19    8.20
   6   9   8  168.38   12.70
  -7  -9  -8   17.10    7.60
   7   9   8   26.30    5.30
   7   9   8   19.80    7.00
   0  10   8   95.99    6.50
   0  10   8  101.79    7.70
   1  10   8   73.69    4.70
   1  10   8   66.09    7.20
   2  10   8   28.50    3.00
   2  10   8   32.60    5.50
   3  10   8  181.68   11.00
   3  10   8  221.38   10.70
   3  10   8  215.18    8.00
   4  10   8   -2.30    2.50
   4  10   8    0.70    3.60
   4  10   8    3.90    4.90
   5  10   8   85.09    7.00
   5  10   8   83.89    6.20
   5  10   8   56.99    7.80
   6  10   8   75.39    5.40
   6  10   8   61.49    7.90
   4   6  -9  269.67   13.20
  -4  -6   9  268.17   18.40
   3   6  -9   -2.80    4.10
  -3  -6   9    9.70    5.40
   2   6  -9   -2.90    3.90
   1   6  -9    1.40    3.60
   0   6  -9   18.40    4.20
  -1   6  -9    4.90    3.60
   1  -6   9    2.30    2.80
  -2   6  -9   -7.80    3.70
   2  -6   9   -4.80    3.50
   5   5  -9   93.89    9.60
  -5  -5   9  106.79   14.50
   4   5  -9   63.09    9.20
  -4  -5   9   57.79   10.10
   3   5  -9   -2.80    3.80
  -3  -5   9    4.10    2.80
  -3  -5   9    3.50    4.50
  -3  -5   9   -1.00    3.80
   2   5  -9   51.89    6.20
   2   5  -9   39.80   10.40
  -2  -5   9   34.10    4.80
  -2  -5   9   52.89    7.20
   1   5  -9   35.50    9.90
   1   5  -9   20.80    4.80
  -1  -5   9   30.50    4.60
   0   5  -9  179.88    9.30
   0   5  -9  182.48   17.80
   0  -5   9  172.48    7.60
  -1   5  -9    6.30    9.90
  -1   5  -9    4.50    4.10
   1  -5   9    5.00    2.90
  -2   5  -9   73.69    7.80
   2  -5   9   76.19    6.60
  -3   5  -9   32.50    4.70
   3  -5   9   29.50    4.90
  -6  -4   9    8.20    8.50
  -6  -4   9  -10.50    6.30
   5   4  -9  257.27   14.10
  -5  -4   9  261.97   16.20
  -5  -4   9  290.57   18.40
  -4  -4   9   33.30    4.90
  -4  -4   9   48.20    7.10
  -4  -4   9   42.90    7.00
   3   4  -9   89.69    7.30
  -3  -4   9  128.49    9.90
  -3  -4   9  121.29    8.60
   2   4  -9   11.40    7.20
  -2  -4   9   15.30    5.20
  -2  -4   9    4.80    2.90
  -2  -4   9   14.10    3.00
   1   4  -9  160.88   13.50
   1   4  -9  170.98    7.90
  -1  -4   9  163.48    7.70
   0   4  -9   17.60    7.00
   0   4  -9    5.20    2.20
   0  -4   9   11.50    2.70
  -1   4  -9  158.68   14.10
  -1   4  -9  163.88    7.70
   1  -4   9  173.08    8.50
  -2   4  -9   32.40    9.10
  -2   4  -9   26.30    4.00
   2  -4   9   38.00    4.80
  -3   4  -9   55.49    7.00
  -3   4  -9   71.99   11.50
   3  -4   9   53.19    6.60
  -4   4  -9   46.00    6.70
   4  -4   9   36.70    6.30
  -5   4  -9  100.59    8.60
  -6  -3   9  134.19   13.70
  -6  -3   9  149.49   15.50
  -5  -3   9  139.29   13.90
  -5  -3   9  152.78   12.90
   4   3  -9    0.70    2.60
  -4  -3   9    8.10    6.00
  -4  -3   9    4.10    5.00
  -4  -3   9   -0.60    3.50
   3   3  -9    7.80    2.20
  -3  -3   9    7.40    5.10
  -3  -3   9    7.10    3.20
   2   3  -9   30.70    3.70
  -2  -3   9   19.90    3.30
  -2  -3   9   17.70    4.70
   1   3  -9   58.79    8.60
   1   3  -9   47.50    4.30
  -1  -3   9   52.29    6.10
  -1  -3   9   59.09    5.20
   0   3  -9  713.33   20.00
   0   3  -9  733.83   21.60
   0  -3   9  751.62   21.60
  -1   3  -9  288.47   10.40
  -1   3  -9  284.67   15.10
   1  -3   9  313.77   15.00
   1  -3   9  302.57   12.00
  -2   3  -9    0.00    1.90
  -2   3  -9    0.70    5.60
   2  -3   9    0.80    2.70
   2  -3   9   -1.00    6.10
  -3   3  -9    5.10    6.70
  -3   3  -9    6.10    2.20
   3  -3   9    6.50    3.00
  -4   3  -9    9.00    8.70
  -4   3  -9   -3.30    2.80
   4  -3   9   -4.10    3.50
  -5   3  -9   10.90    4.60
   5  -3   9   11.90    5.80
  -7  -2   9   32.10    6.60
  -7  -2   9   29.50    7.80
  -6  -2   9  153.28   11.70
  -6  -2   9  167.08   14.90
  -5  -2   9  176.48   12.50
  -5  -2   9  176.08   10.50
  -5  -2   9  179.28   15.40
  -4  -2   9   14.60    3.70
  -4  -2   9    2.80    5.90
  -4  -2   9   16.80    3.80
   3   2  -9   34.10    4.20
  -3  -2   9   37.00    6.80
  -3  -2   9   45.30    5.50
  -3  -2   9   45.00    5.20
   2   2  -9    6.80    6.40
   2   2  -9    5.60    1.70
  -2  -2   9    4.80    3.00
  -2  -2   9    4.70    2.20
   1   2  -9   14.40    2.00
  -1  -2   9   19.00    2.70
  -1  -2   9   17.70    3.40
   0   2  -9  276.07   13.80
   0   2  -9  266.67    9.10
   0  -2   9  256.97   10.80
   0  -2   9  240.98   12.50
  -1   2  -9   37.80    3.40
  -1   2  -9   34.90    6.90
  -1   2  -9   22.10    6.80
   1  -2   9   47.00    6.30
   1  -2   9   49.80    4.90
  -2   2  -9   98.39    5.10
  -2   2  -9  104.49   10.10
  -2   2  -9   86.99   10.70
   2  -2   9   94.79    6.90
   2  -2   9   88.39    8.90
  -3   2  -9  445.36   14.00
  -3   2  -9  471.65   16.10
   3  -2   9  462.25   17.10
   3  -2   9  465.05   17.50
  -4   2  -9    0.30    5.90
  -4   2  -9   -1.30    2.20
   4  -2   9    1.70    3.30
  -5   2  -9   21.10    5.00
   5  -2   9   22.20    6.10
  -6   2  -9  140.39    9.60
   6  -2   9  136.09   11.80
  -7  -1   9   86.99   12.50
  -7  -1   9   86.69   10.70
  -6  -1   9  137.49   11.90
  -6  -1   9   89.59   11.60
  -5  -1   9   -1.30    3.30
  -4  -1   9   10.10    2.80
  -4  -1   9    8.80    3.30
  -4  -1   9   22.50    6.60
   3   1  -9    7.20    5.10
  -3  -1   9    0.30    2.60
  -3  -1   9    1.50    5.20
  -3  -1   9   -2.10    2.30
   2   1  -9  107.39    9.90
   2   1  -9  107.09    5.40
  -2  -1   9  104.99    7.70
  -2  -1   9  108.69    6.20
   1   1  -9  247.68    8.40
   1   1  -9  248.08   12.80
  -1  -1   9  243.88   11.60
  -1  -1   9  228.78    8.50
   0   1  -9    0.10    1.20
   0   1  -9    5.80    5.00
   0  -1   9   -3.20    2.50
  -1   1  -9  176.88   11.80
  -1   1  -9  167.98    6.30
   1  -1   9  173.88    9.00
   1  -1   9  173.08    9.70
  -2   1  -9 1159.58   28.10
  -2   1  -9 1206.28   33.30
  -2   1  -9 1181.58   26.60
   2  -1   9 1209.88   29.80
   2  -1   9 1190.68   33.10
  -3   1  -9  562.54   16.10
  -3   1  -9  583.04   21.50
  -3   1  -9  588.64   15.90
   3  -1   9  584.54   20.30
   3  -1   9  595.94   18.30
  -4   1  -9   11.90    7.60
  -4   1  -9    5.20    1.90
  -4   1  -9    3.90    4.40
   4  -1   9    6.50    5.60
   4  -1   9    7.10    4.00
  -5   1  -9   -0.20    2.40
  -5   1  -9    3.30    8.80
   5  -1   9    0.10    4.00
  -6   1  -9    9.00    3.40
  -6   1  -9    8.70   11.20
   6  -1   9   -1.90    5.80
  -7   1  -9    3.20    4.90
   7  -1   9   -7.60    5.10
  -7   0   9   67.59   10.40
  -7   0   9   61.29    9.60
  -6   0   9   -4.20    4.10
  -6   0   9   -0.90    5.00
   5   0  -9   74.29   10.60
  -5   0   9   63.89    6.10
  -5   0   9   50.49    7.20
  -4   0   9    5.50    3.20
  -4   0   9   14.10    2.80
  -4   0   9   10.00    6.40
   3   0  -9   69.19    8.20
  -3   0   9   77.79   11.20
  -3   0   9   69.29    5.40
  -3   0   9   64.39    6.00
   2   0  -9   12.60    2.10
   2   0  -9    8.10    3.90
  -2   0   9   15.00    2.60
  -2   0   9    9.60    3.00
   1   0  -9  136.09    5.40
   1   0  -9  145.19    9.30
  -1   0   9  145.49    6.00
  -1   0   9  150.68    8.30
   0   0  -9  243.48   11.60
   0   0  -9  232.08    7.30
   0   0   9  239.88    7.10
   0   0   9  250.77   11.30
  -1   0  -9 1002.40   23.40
  -1   0  -9 1044.60   28.20
   1   0   9 1011.60   28.70
   1   0   9 1020.40   29.20
  -2   0  -9 1477.75   36.90
  -2   0  -9 1414.46   32.30
   2   0   9 1402.76   38.20
   2   0   9 1446.56   38.30
  -3   0  -9   42.00    3.10
  -3   0  -9   35.80    6.20
   3   0   9   41.60    5.00
   3   0   9   44.50    5.30
  -4   0  -9  214.88    8.30
  -4   0  -9  236.98   13.00
   4   0   9  205.28   10.20
   4   0   9  221.88   11.70
  -5   0  -9  159.58   12.90
  -5   0  -9  160.98    7.30
   5   0   9  159.08   11.30
   5   0   9  146.39   10.60
  -6   0  -9   14.10    3.90
  -6   0  -9   33.20    8.40
   6   0   9   21.10    6.70
  -7   0  -9   16.80    3.70
   7   0   9    9.50    5.20
  -7   1   9   24.70    6.10
  -7   1   9   21.20    6.50
  -6   1   9   29.80    7.40
  -6   1   9   37.60    6.30
   5  -1  -9    1.60    5.40
  -5   1   9    4.80    3.80
   4  -1  -9   46.60    5.70
  -4   1   9   33.00    4.80
   3  -1  -9  193.88   10.80
   3  -1  -9  218.78    9.00
  -3   1   9  209.68    9.20
  -3   1   9  227.88   14.70
  -3   1   9  204.38   10.00
   2  -1  -9  194.58   10.20
  -2   1   9  187.58    7.70
  -2   1   9  183.08    9.20
   1  -1  -9  399.26   14.00
   1  -1  -9  371.36   10.20
  -1   1   9  405.96   11.30
  -1   1   9  370.66   14.10
   0  -1  -9   30.40    1.80
   0  -1  -9   30.70    4.90
   0   1   9   33.10    2.90
  -1  -1  -9    8.50    1.10
  -1  -1  -9    8.70    3.90
   1   1   9    7.10    2.20
  -2  -1  -9    3.40    3.60
  -2  -1  -9    0.80    0.90
   2   1   9   -0.20    2.00
   2   1   9   -0.90    2.00
  -3  -1  -9  165.08    9.60
  -3  -1  -9  146.09    5.60
   3   1   9  155.38    9.00
   3   1   9  150.28    7.00
   3   1   9  173.08    8.70
  -4  -1  -9    9.80    1.70
  -4  -1  -9    9.00    4.50
   4   1   9   10.20    2.90
   4   1   9   10.40    3.50
  -5  -1  -9    2.80    1.80
  -5  -1  -9    5.90    1.80
  -5  -1  -9    4.80    4.90
   5   1   9   -1.40    3.70
   5   1   9    2.60    4.30
  -6  -1  -9   18.70    2.80
  -6  -1  -9   19.10    6.10
   6   1   9   14.90    6.50
   6   1   9   12.10    5.40
  -7  -1  -9    3.40    3.30
   7   1   9   -0.80    5.10
  -8  -1  -9   14.40    5.60
   8   1   9   -1.50    5.90
  -6   2   9   14.00    4.70
   5  -2  -9   72.99   10.50
   4  -2  -9   27.40    5.00
  -4   2   9   17.60    3.00
   3  -2  -9  106.39   10.50
  -3   2   9  130.59   13.50
  -3   2   9  113.09    7.10
   2  -2  -9  781.92   18.50
   2  -2  -9  765.22   22.00
  -2   2   9  765.92   22.80
   1  -2  -9  255.27   10.80
   1  -2  -9  262.97    7.00
  -1   2   9  250.07   10.60
   0  -2  -9  197.98    9.30
   0   2   9  196.38    9.00
  -1  -2  -9   29.50    4.30
   1   2   9   31.40    3.70
  -2  -2  -9  153.98    8.20
   2   2   9  153.68    8.60
   2   2   9  137.79    7.50
   2   2   9  160.18    5.10
  -3  -2  -9  574.14   16.70
   3   2   9  550.64   17.70
   3   2   9  549.95   19.70
  -4  -2  -9  122.69    6.10
  -4  -2  -9  115.89    7.60
   4   2   9  104.49    7.40
   4   2   9  109.89    8.10
   4   2   9  106.99    6.70
  -5  -2  -9   33.70    3.50
  -5  -2  -9   31.40    4.80
   5   2   9   42.60    5.70
   5   2   9   34.70    4.70
  -6  -2  -9   10.00    4.40
  -6  -2  -9    5.80    2.50
   6   2   9    9.80    4.90
   6   2   9   10.10    4.20
  -7  -2  -9   54.49    6.10
   7   2   9   44.90    7.20
  -8  -2  -9    9.90    4.40
   8   2   9   24.80    6.40
  -6   3   9   31.10    6.10
   5  -3  -9   10.90    6.20
  -5   3   9    9.60    4.50
   4  -3  -9   11.20    4.50
  -4   3   9   11.90    4.00
   3  -3  -9  184.58    7.90
  -3   3   9  186.28    8.60
  -2   3   9 1081.39   29.20
   1  -3  -9  408.36   14.00
  -1   3   9  401.06   14.00
   0  -3  -9  126.39    7.60
   0   3   9  123.39    6.70
  -1  -3  -9   56.69    5.80
   1   3   9   62.49    4.70
   1   3   9   67.29    3.90
  -2  -3  -9  425.76   13.40
   2   3   9  409.76   13.90
  -3  -3  -9  205.38    8.70
   3   3   9  195.08    8.70
   3   3   9  201.08    5.90
   3   3   9  202.18   10.60
  -4  -3  -9  456.75   12.00
  -4  -3  -9  435.36   13.40
   4   3   9  455.45   12.10
   4   3   9  438.36   14.50
   4   3   9  430.86   17.60
  -5  -3  -9    0.10    2.00
  -5  -3  -9   -0.50    3.00
   5   3   9    4.20    3.20
   5   3   9    0.90    2.40
   5   3   9   -2.20    2.70
  -6  -3  -9    7.90    3.20
  -6  -3  -9   13.10    2.80
   6   3   9    6.80    4.50
   6   3   9    5.50    5.30
  -7  -3  -9   -1.30    3.40
  -7  -3  -9    0.80    2.90
   7   3   9   -0.70    4.90
   7   3   9    2.80    7.30
   8   3   9   23.10    6.40
  -6   4   9   16.80    5.20
   5  -4  -9   59.59    8.30
  -5   4   9   64.49    8.80
   4  -4  -9    3.20    4.50
  -4   4   9   -4.50    3.00
   3  -4  -9    3.40    3.40
  -3   4   9   -5.10    2.30
   2  -4  -9  158.28    6.10
  -2   4   9  150.78    8.40
   1  -4  -9 2045.70   47.20
  -1   4   9 1955.80   47.80
   0  -4  -9    8.40    3.30
   0   4   9   12.10    2.60
  -1  -4  -9  326.47   11.70
   1   4   9  321.37   10.70
   1   4   9  313.77   11.40
  -2  -4  -9    4.70    2.90
   2   4   9    0.90    1.50
   2   4   9    1.40    2.20
  -3  -4  -9   76.89    5.70
   3   4   9   80.39    5.10
   3   4   9   77.59    6.30
  -4  -4  -9  321.87   10.60
   4   4   9  332.07   14.60
   4   4   9  315.97   11.30
  -5  -4  -9   35.00    4.00
   5   4   9   30.10    3.60
   5   4   9   30.50    4.20
   5   4   9   39.10    5.20
  -6  -4  -9   20.20    3.30
  -6  -4  -9   22.60    3.30
   6   4   9   27.20    5.10
  -7  -4  -9   33.00    4.40
   7   4   9   39.00    7.20
   7   4   9   31.60    7.50
  -8  -4  -9   42.90    5.60
   8   4   9   28.30    6.50
  -5   5   9   55.79    6.50
   4  -5  -9   12.40    5.60
  -4   5   9   10.30    4.90
   3  -5  -9  112.99    8.00
  -3   5   9  111.59    8.20
   2  -5  -9  172.98    7.20
  -2   5   9  154.78    8.60
   1  -5  -9  306.47    8.60
  -1   5   9  313.27   12.20
   0  -5  -9   49.90    7.20
   0   5   9   55.39    4.30
  -1  -5  -9    5.10    3.50
   1   5   9    5.90    1.80
   1   5   9    6.10    4.40
  -2  -5  -9  722.43   19.90
   2   5   9  715.23   20.20
   2   5   9  738.13   20.30
  -3  -5  -9  156.18    7.90
   3   5   9  147.79    8.30
   3   5   9  153.68    7.10
   3   5   9  156.88    9.10
  -4  -5  -9  217.18    9.80
   4   5   9  218.28    6.90
   4   5   9  214.58   11.50
   4   5   9  194.68    8.20
  -5  -5  -9  108.99    6.10
   5   5   9  110.19    7.90
   5   5   9  105.09    5.70
   5   5   9  106.19    6.70
  -6  -5  -9    4.60    2.90
   6   5   9    8.20    2.40
   6   5   9   13.30    4.80
  -7  -5  -9   61.69    7.60
   7   5   9   70.39   10.30
   7   5   9   67.09   10.30
  -8  -5  -9  104.09   10.80
   8   5   9   90.29   11.10
  -5   6   9   27.50    5.50
  -4   6   9   12.50    4.30
   3  -6  -9   89.19    9.40
  -3   6   9  104.59    9.20
   2  -6  -9  216.08    9.50
  -2   6   9  222.58   11.00
   1  -6  -9  102.49    5.80
  -1   6   9   74.79    6.00
   0   6   9  404.06   14.30
   0   6   9  424.06   17.40
   1   6   9   82.39    9.70
   1   6   9   93.99    5.60
   2   6   9   72.19    4.90
   2   6   9   79.19    9.30
   3   6   9   56.19    6.80
   3   6   9   67.99    6.30
   3   6   9   55.29    4.20
   4   6   9   46.60    6.40
   4   6   9   45.50    2.90
   4   6   9   57.09    7.00
   4   6   9   43.80    3.90
  -5  -6  -9    0.60    2.80
   5   6   9    2.10    3.60
   5   6   9    6.40    3.70
   5   6   9    4.50    2.00
  -6  -6  -9    4.90    3.40
   6   6   9   10.10    4.90
   6   6   9    7.70    7.40
   6   6   9   10.20    2.50
  -7  -6  -9    8.80    4.00
   7   6   9    6.30    6.70
   7   6   9    3.60    6.30
  -8  -6  -9   78.39   10.10
  -4   7   9   13.70    4.50
  -3   7   9   42.80    5.70
   2  -7  -9   32.20    6.00
  -2   7   9   33.70    5.80
  -1   7   9   69.79    3.90
  -1   7   9   62.49    6.40
   0   7   9   35.20    8.80
   0   7   9   30.70    4.70
   0   7   9   29.90    2.50
   1   7   9    0.80    1.00
   1   7   9    5.40    2.20
   1   7   9   -4.10    6.30
   2   7   9    0.30    6.60
   2   7   9   -0.30    1.80
   3   7   9  297.17    7.90
   3   7   9  291.27   10.70
   3   7   9  300.67   15.80
   3   7   9  302.67   14.20
   4   7   9   59.19    6.80
   4   7   9   48.70    8.00
   4   7   9   68.29    4.70
   4   7   9   68.39    3.50
   5   7   9   54.99    6.90
   5   7   9   60.09    4.80
   5   7   9   54.59    4.00
   5   7   9   58.49    7.10
   5   7   9   67.99    9.00
  -6  -7  -9   13.00    4.00
   6   7   9   12.60    5.40
   6   7   9   18.20    2.60
   6   7   9   10.60    5.20
  -7  -7  -9   -9.80    5.00
   7   7   9   -4.50    5.60
   8   7   9    1.60    5.70
  -3   8   9   12.40    4.30
  -2   8   9    2.50    2.70
  -2   8   9   14.30    3.50
   1  -8  -9  459.85   16.30
  -1   8   9  463.75   13.30
  -1   8   9  493.15   17.60
   0   8   9    2.50    3.60
   0   8   9    3.90    1.70
   1   8   9   26.50   10.70
   1   8   9   30.40    4.50
   1   8   9   29.00    2.60
   2   8   9   59.19    3.00
   2   8   9   43.70   10.80
   2   8   9   53.39    4.30
   3   8   9   11.70    3.30
   3   8   9   11.70    1.60
   3   8   9   13.50    2.30
   3   8   9    9.50    8.40
   4   8   9   60.09    4.60
   4   8   9   60.19    3.70
   4   8   9   61.69   10.60
   5   8   9   16.10    2.50
   5   8   9   14.50    5.10
   5   8   9   11.90    2.40
   5   8   9   15.00    9.50
   6   8   9    3.00    2.50
   6   8   9    8.20    2.70
   6   8   9    1.60    5.40
  -7  -8  -9    4.30    5.70
   7   8   9   -6.40    5.90
  -2   9   9  168.08   11.30
  -1   9   9    4.80    2.70
  -1   9   9    3.90    3.70
   0   9   9    1.80    2.30
   0   9   9    0.30    3.30
   1   9   9   41.90    3.50
   1   9   9   45.60    6.30
   2   9   9    6.00    1.80
   2   9   9    8.50    3.20
   3   9   9   -4.30    2.50
   3   9   9    1.90    1.70
   3   9   9    5.30    4.40
   4   9   9    9.40    3.10
   4   9   9   17.30    5.60
   4   9   9    4.90    2.00
   5   9   9   14.30    2.70
   5   9   9    9.80    2.70
   6   9   9    3.70    3.00
   6   9   9   -3.10    7.30
   6   9   9    2.00    2.70
   0  10   9   29.90    4.90
   0  10   9   37.30    5.10
   1  10   9   -3.30    2.40
   1  10   9    0.70    3.70
   2  10   9   -4.70    3.80
   2  10   9   -2.20    2.30
   3  10   9    2.90    6.30
   3  10   9   17.80    2.40
   3  10   9   14.90    4.90
   4  10   9   20.00   11.20
   5  10   9   22.00    3.20
   5  10   9   22.60    3.30
   5  10   9   35.70    7.10
   3   6 -10    2.30    4.20
   2   6 -10   -2.70    4.40
   1   6 -10   -0.50    4.00
   0   6 -10  109.69    9.00
   4   5 -10   24.20    5.20
  -4  -5  10   33.40    6.60
   3   5 -10    1.90    4.30
  -3  -5  10    0.60    3.50
  -3  -5  10   -3.80    4.70
   2   5 -10   -5.50   11.50
   2   5 -10    2.70    4.00
  -2  -5  10    0.20    3.30
   1   5 -10   -5.40   10.30
   1   5 -10    3.60    4.20
  -1  -5  10   -2.50    3.10
   0   5 -10   24.40    4.80
   0  -5  10   15.00    3.40
  -1   5 -10    1.90    3.80
   1  -5  10    2.80    3.50
  -2   5 -10    6.40    4.00
   2  -5  10   -4.60    3.90
   5   4 -10   12.60    4.80
  -5  -4  10   22.60    6.90
  -5  -4  10   27.00    9.30
   4   4 -10   31.30    6.00
  -4  -4  10   34.90    6.30
  -4  -4  10   48.00    8.80
  -3  -4  10    5.10    3.70
  -3  -4  10    4.50    6.10
   2   4 -10  126.19    8.30
  -2  -4  10  125.69   12.20
  -2  -4  10  116.09    8.00
  -2  -4  10  122.39    7.50
   1   4 -10   23.30    3.60
   1   4 -10   29.20    8.00
  -1  -4  10   24.40    3.70
   0   4 -10   33.70    8.10
   0   4 -10   38.50    4.60
   0  -4  10   31.70    4.00
  -1   4 -10    1.20    7.60
  -1   4 -10    3.50    2.90
   1  -4  10    4.70    3.40
  -2   4 -10   14.20    3.50
   2  -4  10   15.30    3.60
  -3   4 -10   31.80    5.30
   3  -4  10   28.10    5.00
  -4   4 -10    3.30    3.80
   4  -4  10    2.00    5.30
  -6  -3  10  -11.90    6.60
  -6  -3  10    2.10    6.80
   5   3 -10    4.80    4.80
  -5  -3  10    0.40    7.30
   4   3 -10   14.50    4.60
  -4  -3  10   23.20    7.90
  -4  -3  10   14.90    7.50
  -4  -3  10   21.00    5.40
   3   3 -10   17.00    3.20
  -3  -3  10   22.10    7.10
  -3  -3  10   21.30    3.70
  -3  -3  10   25.80    6.10
   2   3 -10   -0.80    2.20
  -2  -3  10    1.00    2.60
  -2  -3  10    8.50    5.80
   1   3 -10    6.70    2.20
  -1  -3  10    3.70    2.80
   0   3 -10   10.80    2.20
   0   3 -10    9.40    5.00
   0  -3  10   10.70    2.90
  -1   3 -10   67.99    4.50
   1  -3  10   75.89    6.60
  -2   3 -10   46.80    7.80
  -2   3 -10   34.90    3.90
   2  -3  10   56.19    6.30
  -3   3 -10   -0.70    2.70
  -3   3 -10    3.90    7.20
   3  -3  10   -3.10    4.20
  -4   3 -10   38.70    6.10
   4  -3  10   40.50    6.60
  -5   3 -10   16.30    4.80
   5  -3  10   12.30    6.90
  -6  -2  10  108.79   13.00
  -6  -2  10  111.59   14.80
  -5  -2  10   20.30    6.60
  -5  -2  10   17.10    7.50
   4   2 -10   65.39    6.10
  -4  -2  10   53.89    7.40
  -4  -2  10   63.59    8.70
  -4  -2  10   69.29    9.80
   3   2 -10   14.30    2.40
  -3  -2  10    7.00    4.10
  -3  -2  10    6.40    3.00
  -3  -2  10   -3.80    6.30
   2   2 -10   -1.40    1.80
  -2  -2  10    0.40    4.00
  -2  -2  10    1.30    2.40
   1   2 -10    7.50    2.00
  -1  -2  10   13.00    2.30
  -1  -2  10    3.90    4.40
   0   2 -10    0.90    1.60
   0  -2  10   -0.90    2.50
   0  -2  10   -1.00    3.40
  -1   2 -10    2.60    3.10
  -1   2 -10    3.00    1.70
   1  -2  10    0.60    2.70
  -2   2 -10   67.59    4.40
  -2   2 -10   68.69    6.90
   2  -2  10   69.59    8.20
   2  -2  10   75.89    6.40
  -3   2 -10   49.40    4.30
  -3   2 -10   56.99    8.60
   3  -2  10   52.89    6.80
   3  -2  10   48.90    8.20
   4  -2  10    2.20    4.40
  -5   2 -10    1.70    4.30
   5  -2  10    3.40    6.30
   6  -2  10    8.10    5.60
  -6  -1  10   -4.80    6.10
  -6  -1  10   -7.00    6.20
  -5  -1  10   24.60    5.70
  -4  -1  10    9.50    4.30
  -4  -1  10   -1.90    3.20
   3   1 -10   75.69    5.10
  -3  -1  10   95.69   13.20
  -3  -1  10   74.09    6.30
  -3  -1  10   60.49    7.60
   2   1 -10    0.40    1.60
  -2  -1  10   -1.90    2.90
  -2  -1  10    4.10    2.20
   1   1 -10   13.60    2.10
  -1  -1  10   13.40    2.40
  -1  -1  10   17.60    3.40
   0   1 -10   36.10    2.90
   0  -1  10   26.00    4.70
  -1   1 -10   27.80    7.50
  -1   1 -10   39.80    3.10
   1  -1  10   45.00    5.60
   1  -1  10   40.20    6.00
  -2   1 -10 1353.06   38.30
  -2   1 -10 1378.06   32.70
   2  -1  10 1430.16   34.70
   2  -1  10 1440.26   38.50
  -3   1 -10    5.40    1.90
  -3   1 -10    4.90    7.90
   3  -1  10    4.20    5.30
  -4   1 -10    1.70    4.30
  -4   1 -10    2.20    2.10
   4  -1  10    7.30    6.20
   4  -1  10   -4.00    4.00
  -5   1 -10   -5.40    3.00
   5  -1  10   -3.70    4.50
  -6   1 -10   34.70    6.10
   6  -1  10   36.90    6.20
  -6   0  10    1.70    6.30
  -6   0  10   -2.10    6.00
   5   0 -10    5.10    7.20
  -5   0  10    9.10    4.50
  -5   0  10   10.80    4.50
  -4   0  10   56.19    7.80
  -4   0  10   49.30    6.10
  -3   0  10  142.19    7.90
  -3   0  10  144.99    8.70
  -3   0  10  146.99   15.10
   2   0 -10  300.27    9.90
  -2   0  10  337.97   14.70
  -2   0  10  322.27   11.30
   1   0 -10    0.10    1.30
  -1   0  10    0.40    1.50
  -1   0  10   -3.00    2.50
   0   0 -10  521.05   13.50
   0   0 -10  535.55   18.70
   0   0  10  533.25   19.30
  -1   0 -10   21.40    2.20
  -1   0 -10   29.30    6.30
   1   0  10   21.70    3.70
   1   0  10   35.50    4.70
  -2   0 -10  145.39   11.70
  -2   0 -10  150.58    5.70
   2   0  10  144.99    8.90
   2   0  10  150.28    9.20
   2   0  10  159.58    8.20
  -3   0 -10  151.08   12.20
  -3   0 -10  127.59    5.70
   3   0  10  135.09    8.50
   3   0  10  136.19    9.00
  -4   0 -10   -0.30    6.20
  -4   0 -10   -2.60    1.80
   4   0  10    2.80    4.70
   4   0  10    1.20    3.30
  -5   0 -10   11.60    7.90
   5   0  10    0.30    4.30
   5   0  10   15.30    6.50
  -6   0 -10   33.40    5.00
  -6   0 -10   23.40    4.70
  -6   0 -10   20.10    9.40
   6   0  10   35.10    6.40
  -7   0 -10   35.80    4.60
   7   0  10   42.90    6.40
  -6   1  10   14.20    7.10
  -6   1  10   10.20    5.50
   5  -1 -10   -0.20    6.50
  -5   1  10   11.30    4.60
  -5   1  10   10.90    5.30
   4  -1 -10   20.60    5.50
  -4   1  10   20.70    4.90
  -4   1  10   20.50    3.30
   3  -1 -10   95.69    7.00
  -3   1  10   78.39    6.30
  -3   1  10   80.89    5.90
   2  -1 -10  268.87    8.50
   2  -1 -10  237.28   12.60
  -2   1  10  286.67   13.00
  -2   1  10  279.37   10.00
   1  -1 -10   -0.40    1.00
  -1   1  10    0.20    1.40
  -1   1  10   -1.20    2.20
   0  -1 -10    9.00    4.40
   0  -1 -10   12.50    1.50
   0   1  10   11.20    2.90
  -1  -1 -10  444.06   10.80
  -1  -1 -10  459.15   16.10
   1   1  10  420.06   16.20
  -2  -1 -10   59.39    8.00
  -2  -1 -10   57.49    2.90
   2   1  10   57.79    4.90
   2   1  10   54.49    5.90
   2   1  10   62.39    5.70
  -3  -1 -10  433.56   15.90
  -3  -1 -10  415.26   11.50
   3   1  10  397.56   16.60
   3   1  10  425.56   16.00
  -4  -1 -10   18.20    2.40
  -4  -1 -10   13.70    5.50
   4   1  10   13.20    3.20
   4   1  10   12.20    4.10
  -5  -1 -10    4.20    5.70
  -5  -1 -10    5.60    2.10
   5   1  10   -2.20    4.50
   5   1  10    5.60    7.30
  -6  -1 -10   29.10    3.20
  -6  -1 -10   24.50    7.40
   6   1  10   18.30    7.20
   6   1  10   27.60    8.90
  -7  -1 -10   -1.70    3.50
   7   1  10    2.50    5.40
  -6   2  10   15.70    4.90
   5  -2 -10   17.80    6.90
  -5   2  10    4.70    4.80
   4  -2 -10   19.10    5.10
   3  -2 -10  518.65   14.60
  -3   2  10  457.95   17.30
   2  -2 -10   39.60    4.20
  -2   2  10   35.50    5.30
   1  -2 -10    0.40    2.30
  -1   2  10   -1.70    2.00
   0  -2 -10   82.49    7.70
   0   2  10   82.89    4.20
   0   2  10   77.69    5.90
  -1  -2 -10  536.05   17.20
   1   2  10  535.25   18.10
  -2  -2 -10  368.56   13.50
   2   2  10  353.96   14.70
   2   2  10  362.06   13.90
  -3  -2 -10   24.80    4.60
   3   2  10   34.40    5.10
   3   2  10   28.60    4.00
  -4  -2 -10   61.19    7.70
   4   2  10   42.70    5.90
   4   2  10   65.99    5.60
   4   2  10   64.79    5.90
  -5  -2 -10    2.00    3.60
  -5  -2 -10    3.90    4.50
   5   2  10    4.10    3.90
   5   2  10    8.10    4.50
  -6  -2 -10   10.90    2.60
  -6  -2 -10   10.10    5.20
   6   2  10    7.30    5.10
   6   2  10    8.70    6.00
  -7  -2 -10   76.19    6.90
   7   2  10   89.59   10.60
  -6   3  10   66.39    9.50
   5  -3 -10    1.40    6.40
  -5   3  10    9.40    4.50
   4  -3 -10    4.10    4.60
  -4   3  10   12.30    4.30
   3  -3 -10   23.60    3.90
  -3   3  10   25.90    5.30
   2  -3 -10   67.49    5.60
  -2   3  10   60.89    5.20
  -1   3  10   21.50    3.60
   0  -3 -10  313.87   12.70
   0   3  10  328.77   12.70
  -1  -3 -10  631.54   18.80
   1   3  10  644.54   19.90
  -2  -3 -10  168.38    8.90
   2   3  10  162.98    8.40
  -3  -3 -10  437.06   14.40
   3   3  10  437.76   17.40
   3   3  10  427.96   10.60
   3   3  10  426.46   15.00
  -4  -3 -10  175.38    9.00
   4   3  10  147.29    9.40
   4   3  10  163.18    8.30
   4   3  10  171.18    6.60
  -5  -3 -10  392.76   13.30
   5   3  10  399.96   12.70
   5   3  10  401.46   18.30
   5   3  10  396.96   14.30
  -6  -3 -10    7.90    4.30
  -6  -3 -10   16.60    2.90
   6   3  10   16.40    5.10
   6   3  10   18.10    6.90
  -7  -3 -10    1.00    3.70
   7   3  10    8.30    5.60
  -8  -3 -10   42.40    5.60
   8   3  10   39.10    7.80
  -5   4  10   45.70    6.50
   4  -4 -10   58.29    8.40
  -4   4  10   51.39    7.20
   3  -4 -10  251.97    9.80
  -3   4  10  272.97   14.50
   2  -4 -10  172.08    7.40
  -2   4  10  173.98    9.40
  -1   4  10  127.39    7.80
   0  -4 -10    1.50    3.60
   0   4  10   -1.60    1.90
  -1  -4 -10    0.20    3.40
   1   4  10    0.30    2.60
   1   4  10    5.30    1.90
  -2  -4 -10  178.78    9.00
   2   4  10  179.78    8.50
   2   4  10  185.48    6.20
  -3  -4 -10   -1.50    3.10
   3   4  10   -2.50    1.90
   3   4  10   -0.70    2.50
   4   4  10  329.87    9.10
   4   4  10  334.37   14.60
   4   4  10  327.67   12.20
  -5  -4 -10   13.50    3.80
  -5  -4 -10   10.70    2.20
   5   4  10    8.50    2.70
   5   4  10    8.40    3.40
   5   4  10   10.10    4.00
  -6  -4 -10    5.20    2.80
  -6  -4 -10    6.20    3.70
   6   4  10    7.10    4.70
   6   4  10    9.40    6.10
  -7  -4 -10    6.30    3.90
   7   4  10    6.30    5.30
   7   4  10    7.20    6.20
  -8  -4 -10   70.79    8.80
   8   4  10  108.69   12.10
  -5   5  10  152.58   10.40
  -4   5  10  156.78   10.70
   3  -5 -10   73.19    7.60
  -3   5  10   74.89    8.40
   2  -5 -10   44.40    4.80
  -1   5  10    4.10    2.50
   0  -5 -10    3.90    4.70
   0   5  10    1.70    2.30
  -1  -5 -10   50.29    6.10
   1   5  10   50.69    4.30
   1   5  10   44.50    5.60
  -2  -5 -10   68.29    7.10
   2   5  10   69.89    6.70
   2   5  10   68.29    5.00
  -3  -5 -10  213.58    9.70
   3   5  10  198.98    8.90
   3   5  10  208.88   11.80
  -4  -5 -10  363.76   12.30
   4   5  10  364.86    9.00
   4   5  10  333.07   15.10
   4   5  10  350.16   12.40
  -5  -5 -10   10.30    3.90
   5   5  10   11.20    3.10
   5   5  10    7.90    4.60
   5   5  10   14.40    2.70
  -6  -5 -10  101.79    6.80
   6   5  10  118.29    8.50
   6   5  10  115.69    6.60
   6   5  10  105.59   12.90
  -7  -5 -10    2.00    4.00
   7   5  10    3.70    7.90
   7   5  10    8.90    5.30
  -8  -5 -10   16.20    5.30
   8   5  10   12.30    6.30
  -4   6  10   57.69    6.30
  -3   6  10    3.80    3.60
   2  -6 -10   -0.60    3.80
  -2   6  10   -2.30    3.80
   0   6  10   81.19   11.30
   0   6  10   70.49    6.00
   1   6  10   53.39    5.30
   1   6  10   51.79    7.30
   2   6  10   15.60    5.30
   2   6  10    6.50    2.10
   3   6  10   60.99    6.40
   3   6  10   76.89    5.10
   3   6  10   87.89    8.90
   4   6  10   64.69    8.30
   4   6  10   99.49    9.10
   4   6  10   86.49    5.50
   5   6  10    3.20    3.40
   5   6  10    7.40    3.30
  -6  -6 -10    4.10    3.30
   6   6  10   -2.70    5.60
   6   6  10   -3.30    2.70
   6   6  10    3.10    4.70
  -7  -6 -10   52.59    7.60
   7   6  10   45.20    7.20
  -8  -6 -10   -1.30    5.70
   8   6  10   12.90    6.60
  -3   7  10    1.10    4.00
  -2   7  10    5.90    3.70
  -1   7  10   -0.40    3.50
   0   7  10   60.49   10.30
   0   7  10   61.09    9.50
   1   7  10   47.70    5.30
   1   7  10   62.89    9.50
   2   7  10  101.19   12.60
   2   7  10   88.49    6.50
   3   7  10  527.95   19.90
   3   7  10  530.65   16.30
   3   7  10  479.75   19.70
   4   7  10  142.79   11.60
   4   7  10  131.19    6.70
   4   7  10  124.29    4.40
   4   7  10  131.89   12.50
   5   7  10  140.89   11.60
   5   7  10  144.49   13.10
   5   7  10  139.19    5.70
   5   7  10  143.69    7.00
   5   7  10  146.29    8.20
   6   7  10   20.00    6.70
   6   7  10   25.70    3.30
  -7  -7 -10   50.09    5.70
   7   7  10   48.80    8.10
  -2   8  10   65.89    7.10
  -1   8  10   16.20    4.20
   0   8  10   27.50    5.60
   0   8  10   27.60    3.00
   1   8  10  119.69   14.20
   1   8  10  150.28    8.70
   2   8  10  351.16   13.70
   2   8  10  318.07   20.80
   3   8  10   67.79    9.30
   3   8  10   47.20   10.40
   3   8  10   49.20    4.90
   4   8  10  101.69    4.20
   4   8  10  131.99   16.30
   4   8  10  112.49    6.60
   4   8  10  100.89    6.30
   5   8  10    6.10    6.00
   5   8  10   11.00    2.60
   5   8  10   10.00    2.20
   5   8  10   15.20    9.20
   6   8  10   18.30    3.00
   6   8  10   18.60    3.20
   6   8  10   21.70    6.80
  -7  -8 -10   -6.10    5.80
   7   8  10    1.80    6.00
  -1   9  10   35.40    3.50
  -1   9  10   28.80    5.00
   0   9  10   14.10    3.60
   0   9  10   17.80    2.60
   1   9  10    3.50    1.90
   1   9  10    8.60    3.80
   2   9  10   17.80    1.90
   2   9  10   14.20    4.80
   3   9  10    7.10    1.70
   3   9  10    6.90    4.70
   4   9  10   -0.40    5.40
   4   9  10    2.60    2.70
   4   9  10    7.60    1.90
   5   9  10    3.30    2.40
   5   9  10   10.30    3.10
   5   9  10   11.80    7.10
   6   9  10    2.40    6.20
   6   9  10    2.40    3.10
   6   9  10    3.50    3.10
   1  10  10   29.40    4.40
   2  10  10    0.50    4.10
   2  10  10   10.60    2.90
   3  10  10   15.60    2.60
   3  10  10   12.10    4.70
   3  10  10   10.70    7.90
   4  10  10   29.40    3.20
   4  10  10   45.50    8.00
   4  10  10   26.10    4.50
   3   5 -11    6.40    4.30
  -3  -5  11    2.50    6.10
   2   5 -11   13.80    3.90
  -2  -5  11   16.20    5.00
   1   5 -11   -0.80    3.90
  -1  -5  11   -4.60    3.90
   0   5 -11    4.40    3.70
   0  -5  11    5.00    3.90
  -1   5 -11   10.20    3.90
   1  -5  11    5.80    4.30
   4   4 -11   10.90    5.10
  -4  -4  11   20.30    7.50
   3   4 -11    4.10    5.00
  -3  -4  11    0.30    4.50
   2   4 -11   73.49    6.90
  -2  -4  11   62.59    7.30
   1   4 -11   -1.80    4.10
  -1  -4  11    7.60    3.80
   0   4 -11    5.20    3.30
   0  -4  11    2.50    3.80
  -1   4 -11   -0.30    3.40
   1  -4  11   -0.40    4.00
  -2   4 -11   16.30    4.80
   2  -4  11    7.40    4.00
  -3   4 -11   33.30    5.30
   3  -4  11   51.99    7.80
   5   3 -11    0.40    4.90
  -5  -3  11    9.70    7.40
  -5  -3  11   -2.20    6.20
   4   3 -11   42.90    5.30
  -4  -3  11   27.20    5.00
  -4  -3  11   48.90    7.50
   3   3 -11  335.77   13.50
  -3  -3  11  353.36   18.60
  -3  -3  11  348.97   19.40
  -3  -3  11  345.07   14.20
   2   3 -11   -0.80    2.40
  -2  -3  11   11.20    7.00
  -2  -3  11    4.00    3.10
   1   3 -11    7.00    3.00
  -1  -3  11    9.10    3.80
   0   3 -11   46.50    4.70
   0  -3  11   50.09    6.40
  -1   3 -11   -1.00    2.20
  -1   3 -11   -4.50    5.20
   1  -3  11    1.10    3.50
  -2   3 -11   69.09    6.30
   2  -3  11   61.79    7.70
  -3   3 -11    2.30    3.00
   3  -3  11   -0.20    4.70
  -4   3 -11   14.50    4.60
   4  -3  11    8.70    6.80
   5   2 -11   86.59    8.20
  -5  -2  11   90.39   11.60
  -5  -2  11   51.39   13.90
   4   2 -11   41.20    6.00
  -4  -2  11   57.39    8.50
  -4  -2  11   60.79    9.50
   3   2 -11   -0.90    2.40
  -3  -2  11   -3.20    7.80
  -3  -2  11    5.50    6.10
  -3  -2  11    1.10    3.40
   2   2 -11   64.29    4.80
  -2  -2  11   65.99    5.90
  -2  -2  11   54.39    8.30
   1   2 -11   12.70    2.30
  -1  -2  11   17.00    5.10
   0   2 -11  108.89    5.50
   0  -2  11  112.09    8.00
   0  -2  11  113.39   11.00
  -1   2 -11   -3.30    1.70
   1  -2  11   -3.80    3.10
  -2   2 -11   -0.10    2.00
  -2   2 -11   -3.90    2.90
   2  -2  11    3.60    3.40
   2  -2  11    8.00    7.10
  -3   2 -11   16.30    4.20
  -3   2 -11    9.00    2.40
   3  -2  11    6.60    4.70
  -4   2 -11   27.70    5.70
   4  -2  11   35.60    6.40
  -5   2 -11   -3.10    4.90
   5  -2  11   -5.80    5.70
  -6  -1  11   60.59    9.40
  -6  -1  11   56.39    7.50
  -5  -1  11   23.40    6.40
  -5  -1  11   34.90    6.60
   4   1 -11  165.68    8.00
  -4  -1  11  160.08   10.30
  -4  -1  11  158.98   13.60
   3   1 -11   38.70    4.30
  -3  -1  11   50.59    7.20
  -3  -1  11   57.39    6.30
   2   1 -11   16.50    2.40
  -2  -1  11   17.30    3.00
   1   1 -11   61.69    4.00
  -1  -1  11   63.29    4.40
  -1  -1  11   72.99    9.10
   0   1 -11    1.50    1.50
   0  -1  11    9.40    4.90
   0  -1  11   -6.10    2.70
  -1   1 -11    2.30    1.60
   1  -1  11    2.50    3.90
   1  -1  11    3.20    3.00
  -2   1 -11   74.09    4.40
   2  -1  11   73.59    9.20
   2  -1  11   80.19    7.10
  -3   1 -11   -0.40    1.90
   3  -1  11   -5.80    3.50
   3  -1  11    3.70    5.90
  -4   1 -11   81.59    6.10
   4  -1  11   61.39   10.80
   4  -1  11   59.99    9.40
  -5   1 -11   70.79    7.10
   5  -1  11   81.69   12.30
  -6   1 -11  135.59   10.30
   6  -1  11  118.49   12.50
  -6   0  11    6.80    5.80
  -6   0  11   -0.70    6.40
  -5   0  11    4.20    5.40
  -5   0  11    7.90    5.20
  -4   0  11   45.90    6.90
  -4   0  11   48.00    7.80
   3   0 -11  116.59    6.10
  -3   0  11   96.29   10.80
  -3   0  11  120.49    7.60
   2   0 -11   40.30    3.30
  -2   0  11   35.00    4.60
  -2   0  11   36.20    6.80
   1   0 -11   43.20    3.20
  -1   0  11   51.79    3.80
  -1   0  11   26.70    5.70
   0   0 -11   43.80    2.90
   0   0  11   45.50    5.60
  -1   0 -11    1.50    1.30
   1   0  11    0.00    3.00
   1   0  11    2.10    2.90
  -2   0 -11  451.05   12.50
   2   0  11  465.25   18.40
   2   0  11  457.85   18.00
  -3   0 -11   59.19    4.10
   3   0  11   46.50    6.60
   3   0  11   73.39    8.20
  -4   0 -11  192.58    7.90
   4   0  11  198.58   14.20
   4   0  11  203.28   12.10
  -5   0 -11   62.49    5.70
   5   0  11   61.99    9.10
   5   0  11   49.60    8.80
  -6   0 -11    8.00    4.50
   6   0  11   15.10    5.40
  -6   1  11   39.10    6.90
  -6   1  11   36.60    6.70
   5  -1 -11    0.80    8.20
  -5   1  11    7.10    5.20
  -5   1  11    5.70    5.10
   4  -1 -11   13.80    5.70
  -4   1  11    6.30    3.40
  -4   1  11    8.40    5.70
   3  -1 -11  269.97   11.20
  -3   1  11  271.47   11.20
   2  -1 -11   35.40    3.10
  -2   1  11   34.80    4.30
  -2   1  11   39.20    6.20
   1  -1 -11   -0.10    1.10
  -1   1  11   -0.50    1.60
  -1   1  11    0.10    2.50
   0  -1 -11    3.80    1.00
   0   1  11    4.90    2.90
  -1  -1 -11  137.89    4.50
  -1  -1 -11  109.69   10.60
   1   1  11  151.38    9.00
  -2  -1 -11    7.30    1.40
  -2  -1 -11    4.40    5.20
   2   1  11    9.60    3.10
   2   1  11   12.50    3.30
  -3  -1 -11   53.29    3.40
  -3  -1 -11   60.39    8.00
   3   1  11   60.69    6.40
   3   1  11   53.69    6.20
   3   1  11   54.59    6.40
  -4  -1 -11   68.99    8.50
  -4  -1 -11   65.69    4.30
   4   1  11   61.99    9.20
   4   1  11   58.79    8.00
  -5  -1 -11   18.20    2.80
  -5  -1 -11   12.70    7.20
   5   1  11   15.30    7.20
   5   1  11   16.00    6.20
  -6  -1 -11   -1.10    2.60
   6   1  11    7.10    5.30
   7   1  11   21.30    6.70
  -5   2  11  125.49   10.70
  -5   2  11  150.08   11.10
   4  -2 -11   67.99    9.20
  -4   2  11   68.19    9.50
   3  -2 -11  111.79    7.60
  -3   2  11  120.19    7.40
  -3   2  11  110.29    9.30
   2  -2 -11  240.98    8.30
   2  -2 -11  232.38    7.40
  -2   2  11  241.78    9.40
  -2   2  11  244.58   12.70
  -1   2  11  119.49    7.20
  -1   2  11  118.59    5.40
   0  -2 -11   68.99    8.90
   0   2  11   73.49    6.80
  -1  -2 -11  317.77   13.80
   1   2  11  317.07   13.40
  -2  -2 -11    0.30    4.60
   2   2  11    3.30    2.50
   2   2  11    3.70    3.50
  -3  -2 -11   43.00    6.30
   3   2  11   46.60    5.40
   3   2  11   50.29    6.20
   3   2  11   37.60    5.80
  -4  -2 -11   35.70    6.50
   4   2  11   28.90    5.60
   4   2  11   35.20    4.70
   4   2  11   39.60    5.70
  -5  -2 -11  127.59   10.80
   5   2  11  122.99    9.10
   5   2  11  129.49   13.10
  -6  -2 -11    6.80    6.10
   6   2  11   -1.00    5.00
   6   2  11   17.30    6.50
  -7  -2 -11   69.49    9.20
   7   2  11   49.90    7.00
  -5   3  11   28.10    5.20
   4  -3 -11   24.90    5.60
  -4   3  11   16.60    5.40
   3  -3 -11    5.80    3.60
  -3   3  11   17.10    5.00
   2  -3 -11   32.40    3.70
  -2   3  11   28.80    4.80
  -1   3  11    1.70    2.40
   0  -3 -11   35.30    6.80
   0   3  11   23.50    4.40
  -1  -3 -11  372.86   14.30
   1   3  11  360.16   14.30
  -2  -3 -11   11.30    4.80
   2   3  11   13.20    3.40
  -3  -3 -11  218.98   10.80
   3   3  11  203.98   10.00
   3   3  11  201.58   11.10
  -4  -3 -11   -0.10    4.40
   4   3  11    1.20    4.30
   4   3  11    1.90    2.80
   4   3  11    5.90    3.00
  -5  -3 -11  142.59   10.00
   5   3  11  155.68    8.90
   5   3  11  137.29   12.70
   5   3  11  147.29    8.20
  -6  -3 -11   -0.20    5.00
  -6  -3 -11    4.40    2.30
   6   3  11    7.60    6.00
   6   3  11   -0.40    5.30
  -7  -3 -11   10.50    3.80
   7   3  11   14.60    5.90
  -5   4  11    2.90    4.60
  -4   4  11   -9.20    4.00
   3  -4 -11    3.60    3.70
  -3   4  11    4.10    4.00
  -2   4  11  129.99   10.00
  -1   4  11   27.70    4.60
   0   4  11  843.52   24.90
  -1  -4 -11    7.80    4.50
   1   4  11    7.80    2.80
   1   4  11    3.60    2.00
  -2  -4 -11  214.38   10.70
   2   4  11  212.68    9.90
  -3  -4 -11   37.30    5.50
   3   4  11   30.50    6.20
   3   4  11   32.20    4.60
  -4  -4 -11   53.79    7.70
   4   4  11   60.19    8.30
   4   4  11   52.79    5.60
  -5  -4 -11   14.70    4.60
   5   4  11   18.10    3.40
   5   4  11   23.60    6.50
   5   4  11   15.90    4.70
  -6  -4 -11   42.30    4.60
  -6  -4 -11   39.70    5.30
   6   4  11   40.50    5.90
   6   4  11   24.80    6.50
  -7  -4 -11   29.00    4.10
   7   4  11   18.10    6.50
  -4   5  11   89.09    9.30
  -3   5  11   33.50    5.60
  -2   5  11    5.60    4.70
   0   5  11   10.20    3.40
   0   5  11   24.10    5.80
   1   5  11  317.77   12.70
   1   5  11  295.97   12.40
  -2  -5 -11  391.86   14.80
   2   5  11  403.06   12.40
   2   5  11  397.26   14.40
  -3  -5 -11    9.90    4.50
   3   5  11   10.50    4.30
   3   5  11   11.10    2.60
  -4  -5 -11  139.19    9.00
   4   5  11  119.79    7.10
  -5  -5 -11   19.80    4.80
   5   5  11   13.40    5.90
   5   5  11   17.40    3.20
   5   5  11   13.00    3.20
  -6  -5 -11   27.00    5.70
   6   5  11   10.80    6.90
   6   5  11   31.00    3.90
   6   5  11   28.60    5.70
  -7  -5 -11   -4.40    4.00
   7   5  11   -7.60    5.30
  -4   6  11   35.50    5.90
  -3   6  11    3.10    4.10
   2  -6 -11    0.10    5.40
  -2   6  11   -4.40    3.70
  -1   6  11   18.00    5.30
   0   6  11    1.00    6.20
   0   6  11   -0.70    4.20
   1   6  11  396.16   16.50
   1   6  11  383.36   14.30
  -2  -6 -11    8.00    5.80
   2   6  11    6.20    2.90
   2   6  11    6.90    5.10
  -3  -6 -11   79.29    9.40
   3   6  11   87.99    6.10
   3   6  11   86.39    8.70
   3   6  11   96.69    9.20
   4   6  11    2.80    4.00
   4   6  11    1.80    2.50
   5   6  11    2.50    2.70
   5   6  11    0.40    6.10
   6   6  11   58.39    5.80
  -7  -6 -11    1.70    4.30
   7   6  11    3.60    5.80
  -3   7  11   28.90    5.70
  -2   7  11   13.00    4.80
  -1   7  11   20.90    4.90
   0   7  11    1.10    4.10
   0   7  11    6.80    8.60
   1   7  11   83.69   10.60
   2   7  11  716.13   24.30
   2   7  11  731.13   22.00
   3   7  11   28.00    7.30
   3   7  11   37.00    5.20
   3   7  11   25.40    5.70
   4   7  11  112.29    6.70
   4   7  11  102.69   11.60
   4   7  11  111.29   11.90
   5   7  11   -1.30    2.80
   5   7  11   -1.50    1.70
   5   7  11    1.80    6.50
   6   7  11   -3.40    3.30
   6   7  11   -6.80    5.20
   7   7  11   -6.20    5.80
  -2   8  11    5.60    4.60
  -1   8  11   65.39    7.80
   0   8  11    8.50    3.50
   1   8  11   54.79   12.70
   1   8  11   66.99    8.10
   2   8  11   -4.00    9.20
   2   8  11    0.00    3.10
   3   8  11   82.69   11.40
   3   8  11   86.89    7.30
   3   8  11   85.59   12.60
   4   8  11    5.40    3.10
   4   8  11  -11.70    5.50
   4   8  11    5.50    9.00
   5   8  11    1.40    2.90
   5   8  11   -0.50    1.80
   5   8  11   -0.40    6.00
   6   8  11    9.60    3.60
   6   8  11   14.40    2.70
   6   8  11   13.70    6.80
   0   9  11   10.30    3.80
   1   9  11   58.89    7.70
   2   9  11   27.30    5.30
   3   9  11  107.59   13.20
   3   9  11   77.09    8.70
   4   9  11   24.60    4.60
   4   9  11   24.80    6.90
   5   9  11   -0.10    3.50
   5   9  11    8.40    6.20
   3   4 -12   -4.60    4.40
  -3  -4  12   -2.80    5.00
  -3  -4  12   -7.90    4.70
   2   4 -12   53.69    7.10
  -2  -4  12   59.09    8.30
   1   4 -12   -3.40    4.40
  -1  -4  12    8.80    4.60
   0   4 -12   15.90    4.50
   0  -4  12   28.70    5.10
  -1   4 -12   64.69    8.00
   1  -4  12   68.39    6.70
   4   3 -12  115.79   10.60
  -4  -3  12  149.69   13.90
  -4  -3  12  128.49   12.90
   3   3 -12    4.80    3.80
  -3  -3  12    4.20    6.50
  -3  -3  12    1.60    4.00
   2   3 -12   48.80    6.30
  -2  -3  12   32.00    4.10
  -2  -3  12   39.40    6.70
  -2  -3  12   33.30    5.70
   1   3 -12   13.20    3.20
  -1  -3  12   19.20    4.40
   0   3 -12   -4.20    2.90
   0  -3  12   -4.30    4.20
  -1   3 -12   64.89    6.50
   1  -3  12   77.09    9.50
  -2   3 -12   29.00    3.90
   2  -3  12   23.00    5.80
  -3   3 -12   11.50    5.20
   3  -3  12    9.70    5.50
   4   2 -12   11.60    3.80
  -4  -2  12   -3.90    4.70
  -4  -2  12    6.60    6.20
   3   2 -12   29.20    3.30
  -3  -2  12   36.40    7.60
  -3  -2  12   30.60    4.50
   2   2 -12   -0.80    2.40
  -2  -2  12   -3.20    5.70
  -2  -2  12    1.60    2.90
   1   2 -12    0.40    2.20
  -1  -2  12    8.60    5.80
  -1  -2  12   -6.10    3.70
   0   2 -12    0.90    2.20
   0  -2  12    0.70    6.40
   0  -2  12   -6.20    3.60
  -1   2 -12  156.68    7.00
   1  -2  12  194.58   11.50
  -2   2 -12   78.29    5.60
   2  -2  12   61.19    8.80
  -3   2 -12  215.98    9.80
   3  -2  12  182.38   16.40
  -4   2 -12    0.30    4.20
   4  -2  12    7.30    7.10
  -5  -1  12   19.10    6.10
  -5  -1  12    5.60    6.50
   4   1 -12   33.10    3.80
  -4  -1  12   46.10    8.20
  -4  -1  12   48.30    6.90
   3   1 -12  206.18    8.50
  -3  -1  12  202.78   10.10
  -3  -1  12  206.18   14.90
   2   1 -12   28.10    3.80
  -2  -1  12   24.90    7.70
  -2  -1  12   22.70    3.40
   1   1 -12    5.30    1.90
  -1  -1  12   -5.70    5.90
   0   1 -12   35.90    3.50
   0  -1  12   39.80    6.10
   0  -1  12   43.60    7.80
  -1   1 -12    7.20    1.90
   1  -1  12   12.90    4.00
   1  -1  12    4.90    5.30
  -2   1 -12    6.60    2.00
   2  -1  12   -3.30    4.20
  -3   1 -12   45.30    4.40
   3  -1  12   34.80    8.40
  -4   1 -12   -1.30    2.90
   4  -1  12    5.00    6.10
  -5   1 -12   92.89    8.00
   5  -1  12   93.49   12.00
  -5   0  12    3.10    5.70
  -5   0  12   10.80    6.70
   4   0 -12   18.90    3.10
  -4   0  12   21.60    5.20
  -4   0  12   24.80    4.40
   3   0 -12   36.70    4.20
  -3   0  12   47.90    6.20
  -3   0  12   37.00    8.30
   2   0 -12   -1.00    1.90
  -2   0  12    5.00    6.50
  -2   0  12    2.50    2.60
   1   0 -12   20.30    2.80
  -1   0  12   26.00    3.20
  -1   0  12   22.40    5.00
   0   0 -12   25.30    2.60
  -1   0 -12  681.63   17.10
   1   0  12  706.73   26.50
   1   0  12  687.43   23.20
  -2   0 -12   -3.70    1.70
   2   0  12    6.80    4.70
   2   0  12    1.70    4.10
  -3   0 -12   74.89    4.70
   3   0  12   72.69   11.40
   3   0  12   83.19   10.00
  -4   0 -12  173.78    7.30
   4   0  12  164.98   15.30
   4   0  12  163.78   12.90
  -5   0 -12   -2.70    3.00
   5   0  12   -6.00    5.30
  -5   1  12    3.80    5.20
  -5   1  12   13.80    5.20
  -4   1  12   58.09    8.50
  -4   1  12   49.70    7.70
   3  -1 -12  211.98   10.80
   3  -1 -12  200.18    7.90
  -3   1  12  196.08   14.30
  -3   1  12  202.88   10.00
   2  -1 -12   19.90    2.90
  -2   1  12   21.50    5.80
  -2   1  12   30.60    4.50
   1  -1 -12    9.60    1.50
  -1   1  12    9.40    1.90
   0  -1 -12  333.47    8.70
   0   1  12  328.17   16.10
  -1  -1 -12  761.62   17.70
   1   1  12  768.02   25.00
   1   1  12  760.72   26.00
  -2  -1 -12   17.40    2.40
   2   1  12    6.40    4.20
   2   1  12   17.60    4.50
  -3  -1 -12   15.40    2.00
   3   1  12    9.20    3.70
   3   1  12    8.90    4.50
   3   1  12   11.70    4.70
  -4  -1 -12   24.00    2.80
   4   1  12   14.10    6.00
   4   1  12   21.40    6.20
  -5  -1 -12   38.10    4.60
   5   1  12   30.30    7.10
   5   1  12   41.80   12.50
   6   1  12   50.89    6.90
  -5   2  12   -7.50    5.30
  -5   2  12    0.30    7.00
  -4   2  12   48.50    7.20
  -4   2  12   43.10    6.90
   3  -2 -12   17.50    4.70
  -3   2  12   20.10    3.30
  -3   2  12   17.80    6.10
   2  -2 -12    3.00    1.50
   2  -2 -12    1.00    2.90
  -2   2  12   -0.20    4.00
  -2   2  12    1.10    2.30
  -1   2  12  143.59    6.00
   0   2  12  557.64   21.00
   1   2  12   80.29    6.70
   2   2  12  187.68   12.30
   2   2  12  177.48   10.00
  -3  -2 -12  120.69   15.50
   3   2  12   98.19    8.40
   3   2  12   99.89   10.40
  -4  -2 -12    8.30    6.40
   4   2  12    6.20    4.30
   4   2  12   10.60    4.60
   4   2  12    6.80    5.20
  -5  -2 -12    2.80    6.60
   5   2  12    2.20    5.30
   5   2  12   -7.20    5.20
   6   2  12    7.20    6.40
  -5   3  12    8.20    5.40
  -4   3  12   28.80    5.50
  -3   3  12   18.30    5.30
  -2   3  12   47.90    7.60
  -1   3  12   -2.80    1.80
   0   3  12    1.60    2.30
   0   3  12    1.50    2.20
   0   3  12   -4.80    3.00
   1   3  12   41.30    5.00
   2   3  12   13.70    3.30
   2   3  12   16.40    5.40
  -3  -3 -12    5.60    5.70
   3   3  12    3.10    3.10
  -4  -3 -12    0.50    5.70
   4   3  12   -8.00    3.30
   4   3  12    3.30    5.20
  -5  -3 -12   20.60    6.60
   5   3  12   18.30    6.40
   5   3  12   31.80    4.60
   5   3  12   18.20    4.80
   6   3  12   53.99    7.60
   7   3  12  100.39   13.00
  -4   4  12   10.50    4.60
  -3   4  12    6.90    4.00
  -2   4  12   13.40    5.20
  -1   4  12    3.80    3.00
   0   4  12   64.39    6.90
   0   4  12   77.39    7.50
   1   4  12  108.29    8.00
   2   4  12   40.40    5.50
  -3  -4 -12   17.70    7.90
   3   4  12    9.60    4.70
   3   4  12   20.10    3.30
  -4  -4 -12    2.10    5.30
   4   4  12   -0.90    3.00
   4   4  12   -6.80    4.90
  -5  -4 -12    6.20    5.70
   5   4  12   -2.20    3.60
   5   4  12   -0.50    5.60
   5   4  12   -1.30    3.40
   6   4  12    3.10    5.30
   7   4  12   74.69    9.60
  -4   5  12   63.89    9.60
  -3   5  12   16.20    4.50
  -2   5  12   71.69    8.60
  -1   5  12   37.70    6.10
   0   5  12  107.29   10.30
   0   5  12   97.09    8.50
   1   5  12   10.40    3.80
   1   5  12    1.80    4.20
   2   5  12  113.79    7.10
   2   5  12  126.79    5.70
  -3  -5 -12    8.00    5.50
   3   5  12   17.30    5.10
   3   5  12    5.20    2.90
  -4  -5 -12   28.30    6.00
   4   5  12   13.50    6.50
   4   5  12   14.60    3.20
  -5  -5 -12    2.80    5.30
   5   5  12    5.40    3.60
   5   5  12    2.40    5.10
   6   5  12   12.50    5.30
   6   5  12    7.60    4.10
   7   5  12   29.20    6.80
  -3   6  12  176.98   12.30
  -2   6  12   14.40    4.10
  -1   6  12   90.69    9.20
   0   6  12    5.30    4.40
   0   6  12    6.50    7.20
   1   6  12    1.70    6.30
   2   6  12  109.79    9.50
   2   6  12  100.89    8.00
   3   6  12   84.29    7.60
   3   6  12  106.09   11.80
   3   6  12   86.89    6.30
  -4  -6 -12   16.30    6.20
   4   6  12   15.50    6.60
   4   6  12   25.80    3.90
   5   6  12    7.20    3.30
   5   6  12  -10.30    5.20
   6   6  12   35.10    4.70
   6   6  12   16.30    5.90
   7   6  12   14.30    6.50
  -2   7  12   41.30    6.40
  -1   7  12   51.79    7.50
   0   7  12  131.39   17.20
   0   7  12  134.09    9.90
   1   7  12   -5.30    8.40
   1   7  12    4.00    4.60
   2   7  12    2.70    5.40
   2   7  12    4.90    7.00
   3   7  12  247.18   16.50
   3   7  12  214.38   11.00
   3   7  12  238.48   14.10
   4   7  12   27.20    7.10
   4   7  12   46.80    6.00
   5   7  12    7.90    5.90
   5   7  12    5.80    3.30
   6   7  12   74.19    7.20
   6   7  12   68.79    8.70
  -1   8  12   -8.20    4.60
   0   8  12   54.19    7.60
   1   8  12   -1.20    3.90
   2   8  12    3.60    4.30
   3   8  12  118.59   11.90
   3   8  12  110.59    8.40
   4   8  12   83.19   11.30
   4   8  12   77.89    7.90
   5   8  12   31.10    5.10
   5   8  12   28.00    6.90
   1   9  12   27.50    4.90
   2   9  12    8.60    4.80
   3   9  12   11.70    5.80
   3   9  12   -2.50    4.70
   4   9  12    8.00    6.30
   4   9  12   20.80    4.60
   2   3 -13  166.28    9.20
  -2  -3  13  132.49   10.70
   1   3 -13   25.00    6.60
  -1  -3  13   20.60    4.90
   0   3 -13   56.79    8.80
   0  -3  13   74.89    9.50
  -1   3 -13   44.10    6.40
   1  -3  13   31.80    7.60
   3   2 -13    4.90    4.40
  -3  -2  13    1.20    4.30
  -3  -2  13    7.50    7.30
   2   2 -13   -3.20    2.80
  -2  -2  13   -2.90    6.20
  -2  -2  13    2.60    3.40
   1   2 -13   54.59    5.70
  -1  -2  13   49.70    8.30
  -1  -2  13   55.99    6.90
   0   2 -13  109.59    6.40
   0  -2  13   84.99   12.30
   0  -2  13   94.39    9.70
  -1   2 -13    4.80    2.80
   1  -2  13   -0.30    5.50
  -2   2 -13    6.50    3.40
   2  -2  13   12.50    5.40
  -3   2 -13    6.70    4.60
   3  -2  13    4.20    7.70
   4   1 -13    5.70    3.80
  -4  -1  13    6.70    6.30
  -4  -1  13   -0.50    5.10
   3   1 -13   75.29    5.90
  -3  -1  13  100.19    8.40
  -3  -1  13   79.69   11.60
   2   1 -13    3.80    2.60
  -2  -1  13    5.30    5.70
  -2  -1  13   12.30    3.00
   1   1 -13    4.80    2.30
  -1  -1  13   10.80    5.30
   0   1 -13   58.69    4.30
   0  -1  13   39.70    7.30
   0  -1  13   67.19    9.70
  -1   1 -13   80.19    4.80
   1  -1  13   87.59   10.10
   1  -1  13   82.59   11.70
  -2   1 -13    1.70    2.30
   2  -1  13    8.40    5.50
  -3   1 -13   -1.80    2.80
   3  -1  13   -9.70    6.30
  -4   1 -13   28.10    4.80
   4  -1  13   24.60    6.70
   4   0 -13   10.90    3.30
  -4   0  13   16.30    5.40
  -4   0  13   -4.00    5.60
   3   0 -13   84.49    5.70
  -3   0  13   97.19    8.10
  -3   0  13   80.99   10.50
   2   0 -13   28.50    3.70
  -2   0  13   27.00    6.30
  -2   0  13   33.60    3.90
   1   0 -13   24.80    3.30
  -1   0  13   29.50    7.10
   0   0 -13   67.99    3.90
   0   0  13   93.29   12.60
  -1   0 -13    4.70    1.70
   1   0  13    5.80    5.60
   1   0  13    4.50    4.60
  -2   0 -13   -1.50    2.00
   2   0  13    5.60    4.60
   2   0  13    2.20    6.70
   3   0  13    8.30    6.10
  -4   0 -13    0.90    2.80
   4   0  13   -2.60    5.90
  -5   0 -13  127.49    8.50
   4  -1 -13    3.40    3.10
  -4   1  13    5.10    5.10
  -4   1  13   17.60    4.80
   3  -1 -13    9.20    2.60
  -3   1  13   17.90    4.00
  -3   1  13   14.00    4.80
   2  -1 -13   -2.50    1.90
  -2   1  13   -0.70    2.90
  -2   1  13   -5.50    4.30
  -1   1  13    0.50    5.40
   0  -1 -13  108.79    4.10
   0   1  13  110.29   12.60
  -1  -1 -13   74.79    3.50
   1   1  13   85.79   10.10
  -2  -1 -13   12.70    1.80
   2   1  13   11.50    4.90
   2   1  13   19.60    4.90
  -3  -1 -13   59.69    4.00
   3   1  13   75.99   10.00
   3   1  13   78.79   12.30
  -4  -1 -13   -2.40    2.40
   4   1  13   -9.40    5.70
   5   1  13   79.29   11.80
  -4   2  13  272.87   12.70
  -4   2  13  283.57   15.50
   3  -2 -13   15.10    2.40
  -3   2  13   11.10    5.00
  -3   2  13    9.80    3.50
   2  -2 -13   10.50    1.80
  -2   2  13    8.40    5.40
  -2   2  13    8.90    2.90
  -1   2  13    3.50    5.00
  -1   2  13    4.70    2.00
   0   2  13   -1.10    4.50
   1   2  13    2.00    4.00
   2   2  13   -0.30    5.00
   2   2  13   -3.20    3.90
   3   2  13   -2.10    4.30
   3   2  13   -2.70    5.70
   4   2  13    5.20    5.50
   4   2  13    3.00    6.10
   5   2  13   15.90    5.60
   6   2  13    0.90    6.50
  -4   3  13   76.19   10.40
  -4   3  13   47.10    7.50
   3  -3 -13   38.80    3.90
  -3   3  13   45.70    7.10
  -3   3  13   38.10    4.60
  -2   3  13    2.30    2.90
  -2   3  13   -4.10    4.30
  -1   3  13    9.10    2.30
  -1   3  13   19.20    6.50
   0   3  13    5.10    4.20
   1   3  13    1.70    6.30
   2   3  13    4.80    3.60
   2   3  13    2.00    4.40
   3   3  13   15.20    4.70
   3   3  13   18.00    5.80
   4   3  13  176.18   10.90
   4   3  13  168.08   13.90
   5   3  13    0.30    5.10
   5   3  13   13.10    4.70
   6   3  13   23.40    6.50
  -3   4  13   18.70    4.70
  -2   4  13    7.90    5.00
  -1   4  13   64.49    9.10
   0   4  13   79.59    6.80
   0   4  13   88.59    4.30
   0   4  13   96.19   10.40
   1   4  13    0.40    3.40
   2   4  13    4.20    5.30
   2   4  13    1.80    3.40
   3   4  13    0.90    5.30
   3   4  13   -8.40    3.70
   4   4  13   32.00    7.30
   4   4  13   16.90    3.70
  -5  -4 -13   19.00    9.80
   5   4  13   16.20    5.70
   5   4  13   11.50    6.00
   6   4  13   84.09   12.40
  -3   5  13   92.49    9.80
  -2   5  13   26.70    5.40
  -1   5  13   49.40    7.50
   0   5  13    0.30    4.50
   1   5  13   77.99    8.50
   1   5  13   78.79    6.60
   2   5  13   16.30    5.20
   3   5  13  324.27   18.00
   3   5  13  289.57   14.00
   4   5  13   25.90    3.80
   4   5  13   22.50    5.60
   5   5  13   21.00    4.40
   5   5  13   26.50    5.90
   6   5  13   12.50    6.30
   6   5  13    6.50    4.90
  -2   6  13    5.30    5.00
  -1   6  13    9.10    4.40
   0   6  13   56.89    7.80
   1   6  13   23.50    5.00
   2   6  13   77.09    7.90
   3   6  13    3.20    5.10
   3   6  13   -1.00    3.40
   4   6  13    9.00    6.20
   4   6  13   12.40    3.90
   5   6  13    7.30    5.70
   5   6  13    8.20    4.40
   6   6  13  -10.70    6.20
   6   6  13    0.70    4.70
  -1   7  13    8.60    4.80
   0   7  13   27.80    4.50
   1   7  13   35.10    5.90
   2   7  13    9.70    4.40
   3   7  13  231.88   12.30
   3   7  13  262.47   15.80
   4   7  13   29.40    6.10
   4   7  13   23.10    6.20
   5   7  13   52.09    5.00
   5   7  13   76.09   10.80
   0   8  13   36.30    6.00
   1   8  13   18.60    5.50
   2   8  13  147.19   10.20
   3   8  13   -0.90    5.60
   3   8  13    0.50    5.30
   4   8  13   -3.30    4.10
   4   8  13   -2.80    5.70
   1   2 -14   25.10    3.60
  -1  -2  14   26.00    9.30
  -1  -2  14   31.40    6.90
   0   2 -14  110.79    6.50
   0  -2  14  128.89   13.10
   2   1 -14    3.70    2.80
  -2  -1  14    6.30    6.80
   1   1 -14   19.80    2.90
  -1  -1  14   17.90    7.40
  -1  -1  14   12.60    7.50
   0   1 -14  153.08    6.80
   0  -1  14  188.08   15.80
   0  -1  14  187.68   13.70
  -1   1 -14   46.90    4.40
   1  -1  14   54.39    9.50
   1  -1  14   48.50    7.60
  -2   1 -14    6.30    2.80
   2  -1  14    1.90    7.20
   3   0 -14    5.00    3.10
  -3   0  14    6.80    6.50
  -3   0  14    3.60    4.50
   2   0 -14   75.79    4.70
  -2   0  14   82.29   11.20
  -2   0  14   69.99    6.70
   1   0 -14    6.40    2.20
  -1   0  14    7.60    5.80
   0   0 -14    8.10    2.00
   0   0  14   14.20    6.20
   0   0  14    9.30    7.10
  -1   0 -14  113.19    5.10
   1   0  14  112.79   12.40
   1   0  14  112.59   13.00
  -2   0 -14    3.90    2.40
   2   0  14   10.40    6.40
   2   0  14    7.80    7.40
  -3   0 -14   98.09    5.70
   3   0  14  101.79   12.50
   3  -1 -14   23.00    3.00
  -3   1  14   23.10    4.50
  -3   1  14   29.10    6.70
   2  -1 -14    1.60    2.10
  -2   1  14    4.60    5.20
  -2   1  14   -2.90    3.10
   1  -1 -14   38.00    3.10
  -1   1  14   49.20    7.10
   0   1  14  173.78   13.20
  -1  -1 -14   12.00    1.80
   1   1  14    6.40    6.40
   1   1  14    7.20    5.90
  -2  -1 -14   -3.90    1.90
   2   1  14   -0.80    5.70
   2   1  14   -5.10    5.50
   3   1  14    4.90    6.50
  -4  -1 -14   89.59    5.40
   4   1  14   59.69    9.20
  -3   2  14  148.09    9.40
  -3   2  14  139.89   12.70
  -2   2  14   14.30    3.40
  -2   2  14   11.80    4.90
  -1   2  14   -5.10    4.90
   0   2  14  228.48   14.10
   1   2  14   59.79    9.40
   1   2  14   75.09   10.90
   2   2  14    3.10    5.90
   2   2  14    0.90    5.20
   3   2  14    4.50    5.30
   3   2  14    5.30    6.80
   4   2  14   12.40    8.70
   4   2  14    8.60    5.90
   5   2  14   -9.60    6.40
  -3   3  14   -2.60    5.60
  -3   3  14   -6.20    4.20
  -2   3  14  116.09    7.40
  -2   3  14  104.89   10.50
  -1   3  14  102.99    5.30
  -1   3  14   91.69   10.80
   0   3  14   98.59   10.60
   1   3  14   20.20    6.40
   2   3  14   15.40    6.50
   2   3  14   10.10    5.50
   3   3  14    2.10    5.20
   3   3  14    5.40    5.50
   4   3  14    0.20    5.40
   4   3  14  -10.00    5.50
   5   3  14    1.20    6.70
   5   3  14  -13.90    6.30
  -2   4  14   20.60    5.10
  -2   4  14   18.30    3.70
  -1   4  14   15.20    4.70
  -1   4  14    2.70    2.70
   0   4  14   -6.00    4.00
   1   4  14    6.80    5.40
   2   4  14   -1.00    4.50
   2   4  14    1.30    5.70
   3   4  14   -7.00    5.00
   3   4  14   -3.70    4.40
   4   4  14    9.60    5.80
   5   4  14   10.40    6.60
   5   4  14   13.20    6.10
  -2   5  14    9.30    5.00
  -1   5  14   14.60    4.50
   0   5  14   14.90    5.40
   1   5  14   -3.10    4.60
   2   5  14   -1.60    4.60
   2   5  14    1.60    4.90
   3   5  14   55.19    7.80
   3   5  14   66.89    9.90
   4   5  14    8.50    5.60
   5   5  14   17.10    6.90
   5   5  14   16.60    6.30
  -1   6  14   21.80    6.10
   0   6  14    1.50    4.00
   1   6  14    5.80    4.40
   2   6  14   22.50    6.00
   3   6  14   11.20    6.30
   3   6  14    4.80    5.10
   4   6  14   44.70    7.20
   4   6  14   52.59    7.30
   5   6  14   50.99    8.60
   5   6  14   54.69    8.40
   0   7  14   63.29    9.30
   1   7  14    7.60    4.50
   2   7  14    6.30    4.70
   3   7  14   20.70    6.00
   3   7  14   -2.10    5.00
   4   7  14  137.89   13.70
   4   7  14  125.09   12.40
   0   0  15   22.70    6.70
   0   0  15   35.30    7.40
   1   0  15    4.20    6.90
   1   0  15   10.70    6.70
  -1   1  15   32.40    7.00
   0   1  15   11.10    6.70
   1   1  15    3.70    5.80
   1   1  15    1.80    5.80
   2   1  15    1.40    6.10
   2   1  15    2.50    6.00
  -1   2  15  169.08   13.70
   0   2  15   63.69    8.00
   1   2  15   16.60    5.70
   1   2  15   12.20    6.10
   2   2  15   15.40    6.20
   2   2  15   -2.00    5.60
   3   2  15  -10.30    6.60
   3   2  15    0.90    5.80
  -1   3  15   28.90    6.50
   0   3  15    9.00    4.90
   1   3  15   11.70    5.40
   2   3  15   -1.30    5.90
   3   3  15   18.60    5.50
   3   3  15   21.60    6.70
   4   3  15   12.30    6.50
   4   3  15    7.30    6.60
  -1   4  15  -12.20    5.40
   0   4  15   -1.60    4.70
   1   4  15    4.40    4.90
   2   4  15    2.20    5.00
   2   4  15    3.00    5.00
   3   4  15   17.30    7.20
   3   4  15    7.30    6.50
   4   4  15   23.10    7.60
   4   4  15   20.50    6.70
   0   5  15   -0.80    5.20
   1   5  15   11.70    5.20
   2   5  15    0.90    5.60
   2   5  15    7.00    5.90
   3   5  15    9.60    5.80
   3   5  15    3.50    6.30
   4   5  15   31.10    7.90
   4   5  15   29.80    8.50
   1   6  15   -3.90    4.70
   2   6  15   10.90    6.00
   2   6  15   20.80    5.30
   3   6  15   75.69    9.90
   0   0   0    0.00    0.00

_computing_structure_solution     'SHELXT 2014/5 (Sheldrick, 2014)'
;
_shelx_hkl_checksum              3390
_olex2_submission_special_instructions 'No special instructions were received'
loop_
_space_group_symop_operation_xyz
'x, y, z'
'-x, -y, -z'
loop_
_atom_site_label
_atom_site_type_symbol
_atom_site_fract_x
_atom_site_fract_y
_atom_site_fract_z
_atom_site_U_iso_or_equiv
_atom_site_adp_type
_atom_site_occupancy
_atom_site_site_symmetry_order
_atom_site_calc_flag
_atom_site_refinement_flags_posn
_atom_site_refinement_flags_adp
_atom_site_refinement_flags_occupancy
_atom_site_disorder_assembly
_atom_site_disorder_group
F001 F 1.14702(14) 0.69938(13) 0.26689(10) 0.0494(3) Uani 1 1 d . . . . .
O002 O 0.56782(16) 0.29443(14) 0.48161(9) 0.0365(3) Uani 1 1 d . . . . .
O003 O 0.35989(16) 0.23237(14) 0.01890(9) 0.0370(3) Uani 1 1 d . . . . .
O004 O 0.72331(18) 0.02362(15) 0.50564(10) 0.0480(3) Uani 1 1 d . . . . .
C005 C 0.84708(18) 0.35557(17) 0.30748(12) 0.0236(3) Uani 1 1 d . . . . .
C006 C 0.57051(19) 0.28925(17) 0.25164(12) 0.0254(3) Uani 1 1 d . . . . .
H006 H 0.474436 0.373300 0.276762 0.030 Uiso 1 1 calc R . . . .
C007 C 0.8172(2) 0.49892(18) 0.21610(12) 0.0269(3) Uani 1 1 d . . . . .
H007 H 0.727404 0.516902 0.161965 0.032 Uiso 1 1 calc R . . . .
C008 C 0.6812(2) 0.16504(19) 0.44597(13) 0.0286(3) Uani 1 1 d . . . . .
C009 C 0.8842(2) 0.06490(18) 0.28857(14) 0.0305(3) Uani 1 1 d . . . . .
H00A H 0.989157 0.020611 0.340941 0.037 Uiso 1 1 calc R . . . .
H00B H 0.820267 -0.024170 0.300311 0.037 Uiso 1 1 calc R . . . .
C00A C 0.9802(2) 0.33129(19) 0.38556(13) 0.0300(3) Uani 1 1 d . . . . .
H00C H 1.002099 0.233956 0.448763 0.036 Uiso 1 1 calc R . . . .
C00B C 0.74609(19) 0.22066(17) 0.31985(12) 0.0247(3) Uani 1 1 d . . . . .
C00C C 0.5331(2) 0.24787(18) 0.16189(12) 0.0266(3) Uani 1 1 d . . . . .
C00D C 0.9598(2) 0.10392(19) 0.16672(15) 0.0344(4) Uani 1 1 d . . . . .
H00D H 1.085723 0.107357 0.152470 0.041 Uiso 1 1 calc R . . . .
C00E C 0.6567(2) 0.13018(19) 0.09401(13) 0.0301(3) Uani 1 1 d . . . . .
H00E H 0.652044 0.012533 0.133790 0.036 Uiso 1 1 calc R . . . .
C00F C 0.8560(2) 0.13362(19) 0.07870(14) 0.0348(4) Uani 1 1 d . . . . .
H00F H 0.909936 0.157976 0.003172 0.042 Uiso 1 1 calc R . . . .
C00G C 1.0812(2) 0.4468(2) 0.37251(14) 0.0328(3) Uani 1 1 d . . . . .
H00G H 1.172587 0.429444 0.425504 0.039 Uiso 1 1 calc R . . . .
C00H C 1.0456(2) 0.5869(2) 0.28103(14) 0.0327(3) Uani 1 1 d . . . . .
C00I C 0.9162(2) 0.61689(19) 0.20213(14) 0.0323(3) Uani 1 1 d . . . . .
H00I H 0.894602 0.715262 0.139704 0.039 Uiso 1 1 calc R . . . .
C00J C 0.3490(2) 0.3231(2) 0.10241(14) 0.0341(4) Uani 1 1 d . . . . .
H00H H 0.243879 0.309657 0.158308 0.041 Uiso 1 1 calc R . . . .
H00J H 0.331111 0.444542 0.064879 0.041 Uiso 1 1 calc R . . . .
C00K C 0.5511(2) 0.1891(2) -0.01651(14) 0.0367(4) Uani 1 1 d . . . . .
H00K H 0.584820 0.287988 -0.069455 0.044 Uiso 1 1 calc R . . . .
H00L H 0.579281 0.097976 -0.055744 0.044 Uiso 1 1 calc R . . . .
C00L C 0.4940(3) 0.2550(3) 0.59850(14) 0.0449(4) Uani 1 1 d . . . . .
H00M H 0.423979 0.172142 0.608132 0.067 Uiso 1 1 calc GR . . . .
H00N H 0.411134 0.357724 0.615402 0.067 Uiso 1 1 calc GR . . . .
H00O H 0.596827 0.208264 0.651204 0.067 Uiso 1 1 calc GR . . . .
loop_
_atom_site_aniso_label
_atom_site_aniso_U_11
_atom_site_aniso_U_22
_atom_site_aniso_U_33
_atom_site_aniso_U_23
_atom_site_aniso_U_13
_atom_site_aniso_U_12
F001 0.0421(6) 0.0434(6) 0.0721(8) -0.0181(5) -0.0001(5) -0.0238(5)
O002 0.0445(7) 0.0350(6) 0.0279(6) -0.0106(5) 0.0093(5) -0.0099(5)
O003 0.0469(7) 0.0371(6) 0.0342(6) -0.0121(5) -0.0073(5) -0.0175(5)
O004 0.0495(7) 0.0359(7) 0.0406(7) 0.0059(5) 0.0026(6) -0.0021(5)
C005 0.0217(7) 0.0236(7) 0.0240(7) -0.0091(6) 0.0023(5) -0.0025(5)
C006 0.0230(7) 0.0237(7) 0.0287(7) -0.0090(6) 0.0027(5) -0.0048(5)
C007 0.0244(7) 0.0279(7) 0.0264(7) -0.0066(6) -0.0012(6) -0.0045(6)
C008 0.0244(7) 0.0297(8) 0.0305(8) -0.0057(6) -0.0019(6) -0.0076(6)
C009 0.0258(7) 0.0234(7) 0.0403(9) -0.0100(6) -0.0004(6) -0.0023(6)
C00A 0.0285(8) 0.0294(8) 0.0292(8) -0.0065(6) -0.0027(6) -0.0044(6)
C00B 0.0229(7) 0.0229(7) 0.0267(7) -0.0077(6) 0.0006(5) -0.0034(5)
C00C 0.0290(7) 0.0236(7) 0.0286(7) -0.0071(6) 0.0020(6) -0.0104(6)
C00D 0.0278(8) 0.0275(8) 0.0501(10) -0.0187(7) 0.0122(7) -0.0083(6)
C00E 0.0386(8) 0.0250(7) 0.0296(8) -0.0108(6) 0.0038(6) -0.0118(6)
C00F 0.0405(9) 0.0278(8) 0.0373(9) -0.0152(7) 0.0139(7) -0.0111(7)
C00G 0.0253(7) 0.0402(9) 0.0359(8) -0.0157(7) -0.0034(6) -0.0070(6)
C00H 0.0269(8) 0.0312(8) 0.0453(9) -0.0175(7) 0.0066(7) -0.0118(6)
C00I 0.0310(8) 0.0258(7) 0.0365(8) -0.0045(6) 0.0021(6) -0.0072(6)
C00J 0.0360(8) 0.0345(8) 0.0373(9) -0.0139(7) -0.0065(7) -0.0116(7)
C00K 0.0533(10) 0.0330(8) 0.0295(8) -0.0111(7) 0.0018(7) -0.0190(7)
C00L 0.0508(11) 0.0597(12) 0.0287(8) -0.0158(8) 0.0129(7) -0.0235(9)
loop_
_atom_type_symbol
_atom_type_description
_atom_type_scat_dispersion_real
_atom_type_scat_dispersion_imag
_atom_type_scat_source
C C 0.0033 0.0016 'International Tables Vol C Tables 4.2.6.8 and 6.1.1.4'
H H 0.0000 0.0000 'International Tables Vol C Tables 4.2.6.8 and 6.1.1.4'
F F 0.0171 0.0103 'International Tables Vol C Tables 4.2.6.8 and 6.1.1.4'
O O 0.0106 0.0060 'International Tables Vol C Tables 4.2.6.8 and 6.1.1.4'
loop_
_geom_angle_atom_site_label_1
_geom_angle_atom_site_label_2
_geom_angle_atom_site_label_3
_geom_angle
_geom_angle_site_symmetry_1
_geom_angle_site_symmetry_3
_geom_angle_publ_flag
C008 O002 C00L 116.05(13) . . ?
C00K O003 C00J 105.01(11) . . ?
C007 C005 C00A 118.37(13) . . ?
C007 C005 C00B 121.57(12) . . ?
C00A C005 C00B 119.96(12) . . ?
C00B C006 H006 115.6 . . ?
C00C C006 H006 115.6 . . ?
C00C C006 C00B 128.84(13) . . ?
C005 C007 H007 119.3 . . ?
C005 C007 C00I 121.34(14) . . ?
C00I C007 H007 119.3 . . ?
O002 C008 C00B 111.50(12) . . ?
O004 C008 O002 123.40(14) . . ?
O004 C008 C00B 125.09(14) . . ?
H00A C009 H00B 107.8 . . ?
C00B C009 H00A 109.0 . . ?
C00B C009 H00B 109.0 . . ?
C00D C009 H00A 109.0 . . ?
C00D C009 H00B 109.0 . . ?
C00D C009 C00B 112.74(12) . . ?
C005 C00A H00C 119.5 . . ?
C00G C00A C005 121.09(14) . . ?
C00G C00A H00C 119.5 . . ?
C005 C00B C008 108.70(11) . . ?
C005 C00B C009 109.22(11) . . ?
C006 C00B C005 111.87(11) . . ?
C006 C00B C008 105.79(11) . . ?
C006 C00B C009 113.38(12) . . ?
C008 C00B C009 107.65(12) . . ?
C006 C00C C00E 129.94(14) . . ?
C006 C00C C00J 123.90(13) . . ?
C00J C00C C00E 106.09(12) . . ?
C009 C00D H00D 119.0 . . ?
C00F C00D C009 121.92(14) . . ?
C00F C00D H00D 119.0 . . ?
C00C C00E H00E 108.6 . . ?
C00C C00E C00K 100.74(12) . . ?
C00F C00E C00C 114.74(12) . . ?
C00F C00E H00E 108.6 . . ?
C00F C00E C00K 115.23(13) . . ?
C00K C00E H00E 108.6 . . ?
C00D C00F C00E 122.27(14) . . ?
C00D C00F H00F 118.9 . . ?
C00E C00F H00F 118.9 . . ?
C00A C00G H00G 120.9 . . ?
C00H C00G C00A 118.21(14) . . ?
C00H C00G H00G 120.9 . . ?
F001 C00H C00G 118.33(14) . . ?
F001 C00H C00I 118.66(15) . . ?
C00I C00H C00G 123.00(14) . . ?
C007 C00I H00I 121.0 . . ?
C00H C00I C007 117.98(14) . . ?
C00H C00I H00I 121.0 . . ?
O003 C00J C00C 105.75(12) . . ?
O003 C00J H00H 110.6 . . ?
O003 C00J H00J 110.6 . . ?
C00C C00J H00H 110.6 . . ?
C00C C00J H00J 110.6 . . ?
H00H C00J H00J 108.7 . . ?
O003 C00K C00E 105.03(12) . . ?
O003 C00K H00K 110.7 . . ?
O003 C00K H00L 110.7 . . ?
C00E C00K H00K 110.7 . . ?
C00E C00K H00L 110.7 . . ?
H00K C00K H00L 108.8 . . ?
O002 C00L H00M 109.5 . . ?
O002 C00L H00N 109.5 . . ?
O002 C00L H00O 109.5 . . ?
H00M C00L H00N 109.5 . . ?
H00M C00L H00O 109.5 . . ?
H00N C00L H00O 109.5 . . ?
loop_
_geom_bond_atom_site_label_1
_geom_bond_atom_site_label_2
_geom_bond_distance
_geom_bond_site_symmetry_2
_geom_bond_publ_flag
F001 C00H 1.3645(17) . ?
O002 C008 1.3344(18) . ?
O002 C00L 1.4457(19) . ?
O003 C00J 1.4302(18) . ?
O003 C00K 1.420(2) . ?
O004 C008 1.1976(18) . ?
C005 C007 1.387(2) . ?
C005 C00A 1.394(2) . ?
C005 C00B 1.5320(19) . ?
C006 H006 0.9500 . ?
C006 C00B 1.5187(19) . ?
C006 C00C 1.325(2) . ?
C007 H007 0.9500 . ?
C007 C00I 1.391(2) . ?
C008 C00B 1.536(2) . ?
C009 H00A 0.9900 . ?
C009 H00B 0.9900 . ?
C009 C00B 1.5473(19) . ?
C009 C00D 1.502(2) . ?
C00A H00C 0.9500 . ?
C00A C00G 1.386(2) . ?
C00C C00E 1.519(2) . ?
C00C C00J 1.518(2) . ?
C00D H00D 0.9500 . ?
C00D C00F 1.323(2) . ?
C00E H00E 1.0000 . ?
C00E C00F 1.496(2) . ?
C00E C00K 1.526(2) . ?
C00F H00F 0.9500 . ?
C00G H00G 0.9500 . ?
C00G C00H 1.372(2) . ?
C00H C00I 1.369(2) . ?
C00I H00I 0.9500 . ?
C00J H00H 0.9900 . ?
C00J H00J 0.9900 . ?
C00K H00K 0.9900 . ?
C00K H00L 0.9900 . ?
C00L H00M 0.9800 . ?
C00L H00N 0.9800 . ?
C00L H00O 0.9800 . ?
