#------------------------------------------------------------------------------
#$Date: 2020-10-04 06:36:47 +0300 (Sun, 04 Oct 2020) $
#$Revision: 257137 $
#$URL: file:///home/coder/svn-repositories/cod/cif/4/03/87/4038796.cif $
#------------------------------------------------------------------------------
#
# This file is available in the Crystallography Open Database (COD),
# http://www.crystallography.net/
#
# All data on this site have been placed in the public domain by the
# contributors.
#
data_4038796
loop_
_publ_author_name
'Wang, Panpan'
'Jiang, Qian'
'Zhao, Ruibo'
'Xie, Xingang'
'Tang, Shouchu'
'Wang, Xiaolei'
_publ_section_title
;
 Enantioselective \a-Functionalization of 1,3-Dithianes by
 Iridium-Catalyzed Allylic Substitution.
;
_journal_issue                   19
_journal_name_full               'The Journal of organic chemistry'
_journal_page_first              12456
_journal_page_last               12467
_journal_paper_doi               10.1021/acs.joc.0c01683
_journal_volume                  85
_journal_year                    2020
_chemical_absolute_configuration ad
_chemical_formula_moiety         'C15 H18 O S2'
_chemical_formula_sum            'C15 H18 O S2'
_chemical_formula_weight         278.41
_space_group_crystal_system      monoclinic
_space_group_IT_number           4
_space_group_name_Hall           'P 2yb'
_space_group_name_H-M_alt        'P 1 21 1'
_atom_sites_solution_hydrogens   mixed
_atom_sites_solution_primary     direct
_audit_creation_date             2019-11-20
_audit_creation_method
;
Olex2 1.2
(compiled 2018.05.29 svn.r3508 for OlexSys, GUI svn.r5506)
;
_audit_update_record
;
2019-11-20 deposited with the CCDC.	2020-07-09 downloaded from the CCDC.
;
_cell_angle_alpha                90
_cell_angle_beta                 118.324(2)
_cell_angle_gamma                90
_cell_formula_units_Z            2
_cell_length_a                   8.4921(11)
_cell_length_b                   11.0952(14)
_cell_length_c                   8.7511(11)
_cell_measurement_reflns_used    3139
_cell_measurement_temperature    296(2)
_cell_measurement_theta_max      29.735
_cell_measurement_theta_min      2.725
_cell_volume                     725.83(16)
_computing_cell_refinement       'SAINT v7.68A (Bruker, 2009)'
_computing_data_reduction        'SAINT v7.68A (Bruker, 2009)'
_computing_molecular_graphics    'Olex2 (Dolomanov et al., 2009)'
_computing_publication_material  'Olex2 (Dolomanov et al., 2009)'
_computing_structure_refinement  'ShelXL (Sheldrick, 2015)'
_computing_structure_solution    'ShelXS (Sheldrick, 2008)'
_diffrn_ambient_temperature      296.15
_diffrn_measured_fraction_theta_full 0.998
_diffrn_measured_fraction_theta_max 0.998
_diffrn_measurement_device_type  'Bruker APEX-II CCD'
_diffrn_measurement_method       '\f and \w scans'
_diffrn_radiation_monochromator  graphite
_diffrn_radiation_type           MoK\a
_diffrn_radiation_wavelength     0.71073
_diffrn_reflns_av_R_equivalents  0.0184
_diffrn_reflns_av_unetI/netI     0.0283
_diffrn_reflns_Laue_measured_fraction_full 0.998
_diffrn_reflns_Laue_measured_fraction_max 0.998
_diffrn_reflns_limit_h_max       10
_diffrn_reflns_limit_h_min       -10
_diffrn_reflns_limit_k_max       13
_diffrn_reflns_limit_k_min       -13
_diffrn_reflns_limit_l_max       10
_diffrn_reflns_limit_l_min       -8
_diffrn_reflns_number            4022
_diffrn_reflns_point_group_measured_fraction_full 0.900
_diffrn_reflns_point_group_measured_fraction_max 0.893
_diffrn_reflns_theta_full        25.242
_diffrn_reflns_theta_max         26.020
_diffrn_reflns_theta_min         2.644
_diffrn_standards_number         0
_exptl_absorpt_coefficient_mu    0.353
_exptl_absorpt_correction_T_max  0.7462
_exptl_absorpt_correction_T_min  0.6582
_exptl_absorpt_correction_type   multi-scan
_exptl_absorpt_process_details
'SADABS-2008/1 (Bruker,2008) was used for absorption correction. wR2(int) was 0.1205 before and 0.0333 after correction. The Ratio of minimum to maximum transmission is 0.8821. The \l/2 correction factor is 0.0015.'
_exptl_crystal_colour            'clear light colourless'
_exptl_crystal_colour_lustre     clear
_exptl_crystal_colour_modifier   light
_exptl_crystal_colour_primary    colourless
_exptl_crystal_density_diffrn    1.274
_exptl_crystal_density_method    'not measured'
_exptl_crystal_description       block
_exptl_crystal_F_000             296
_exptl_crystal_size_max          0.17
_exptl_crystal_size_mid          0.14
_exptl_crystal_size_min          0.12
_refine_diff_density_max         0.134
_refine_diff_density_min         -0.219
_refine_diff_density_rms         0.051
_refine_ls_abs_structure_details
;
 Flack x determined using 1006 quotients [(I+)-(I-)]/[(I+)+(I-)]
 (Parsons, Flack and Wagner, Acta Cryst. B69 (2013) 249-259).
;
_refine_ls_abs_structure_Flack   0.06(3)
_refine_ls_extinction_method     none
_refine_ls_goodness_of_fit_ref   1.067
_refine_ls_hydrogen_treatment    mixed
_refine_ls_matrix_type           full
_refine_ls_number_parameters     172
_refine_ls_number_reflns         2549
_refine_ls_number_restraints     1
_refine_ls_restrained_S_all      1.067
_refine_ls_R_factor_all          0.0284
_refine_ls_R_factor_gt           0.0277
_refine_ls_shift/su_max          0.000
_refine_ls_shift/su_mean         0.000
_refine_ls_structure_factor_coef Fsqd
_refine_ls_weighting_details
'w=1/[\s^2^(Fo^2^)+(0.0400P)^2^+0.0738P] where P=(Fo^2^+2Fc^2^)/3'
_refine_ls_weighting_scheme      calc
_refine_ls_wR_factor_gt          0.0714
_refine_ls_wR_factor_ref         0.0721
_reflns_Friedel_coverage         0.697
_reflns_Friedel_fraction_full    0.790
_reflns_Friedel_fraction_max     0.775
_reflns_number_gt                2493
_reflns_number_total             2549
_reflns_threshold_expression     'I > 2\s(I)'
_cod_data_source_file            jo0c01683_si_001.cif
_cod_data_source_block           1
_cod_depositor_comments
'Adding full bibliography for 4038796--4038797.cif.'
_cod_database_code               4038796
_shelx_shelxl_version_number     2018/3
_shelx_space_group_comment
;
The symmetry employed for this shelxl refinement is uniquely defined
by the following loop, which should always be used as a source of
symmetry information in preference to the above space-group names.
They are only intended as comments.
;
_olex2_refinement_description
;
1. Fixed Uiso
 At 1.2 times of:
  All C(H) groups, All C(H,H) groups
 At 1.5 times of:
  All C(H,H,H) groups
2.a Ternary CH refined with riding coordinates:
 C3(H3)
2.b Secondary CH2 refined with riding coordinates:
 C6(H6A,H6B), C9(H9A,H9B), C16(H16A,H16B)
2.c Aromatic/amide H refined with riding coordinates:
 C7(H7), C8(H8), C10(H10), C12(H12), C13(H13), C14(H14)
2.d Idealised Me refined as rotating group:
 C15(H15A,H15B,H15C)
;
_shelx_res_file
;
TITL 1 in P21 #4
    1.res
    created by SHELXL-2018/3 at 15:25:22 on 20-Nov-2019
REM reset to P21 #4
CELL 0.71073 8.4921 11.0952 8.7511 90 118.324 90
ZERR 2 0.0011 0.0014 0.0011 0 0.002 0
LATT -1
SYMM -X,0.5+Y,-Z
SFAC C H O S
UNIT 30 36 2 4

L.S. 20
PLAN  20
TEMP 23
BOND $H
HTAB
CONF
fmap 2
acta
SHEL 999 0.81
REM <olex2.extras>
REM <HklSrc "%.\\1.hkl">
REM </olex2.extras>

WGHT    0.040000    0.073800
FVAR       0.49947
S1    4    0.457294    0.178018    0.764594    11.00000    0.04792    0.04508 =
         0.06389   -0.01509    0.03462   -0.00136
S2    4    0.626739   -0.068718    0.848040    11.00000    0.05529    0.05768 =
         0.05045    0.02113    0.03000    0.01343
C1    1    0.553177    0.055660    0.695472    11.00000    0.03661    0.03334 =
         0.03204   -0.00051    0.01777    0.00227
O2    3    0.364731   -0.086788    0.480999    11.00000    0.07374    0.05257 =
         0.06225   -0.01992    0.02646   -0.01991
C3    1    0.717192    0.115794    0.687909    11.00000    0.03343    0.03464 =
         0.03450   -0.00253    0.01583   -0.00022
AFIX  13
H3    2    0.676114    0.195096    0.634350    11.00000   -1.20000
AFIX   0
C4    1    0.778540    0.048667    0.573449    11.00000    0.03045    0.04279 =
         0.03698   -0.00799    0.01666   -0.00658
C5    1    0.412952    0.016131    0.512353    11.00000    0.03700    0.04700 =
         0.03778   -0.00539    0.01917   -0.00387
C6    1    0.352422    0.000399    0.922125    11.00000    0.05935    0.10281 =
         0.05804   -0.00481    0.04112   -0.01273
AFIX  23
H6A   2    0.446371    0.030876    1.031354    11.00000   -1.20000
H6B   2    0.256038   -0.028501    0.942284    11.00000   -1.20000
AFIX   0
C7    1    0.873504    0.138804    0.865076    11.00000    0.03772    0.06264 =
         0.04052   -0.01125    0.01606   -0.00671
AFIX  43
H7    2    0.934104    0.072815    0.933155    11.00000   -1.20000
AFIX   0
C8    1    0.849802   -0.066048    0.609216    11.00000    0.05012    0.04563 =
         0.06203   -0.00205    0.03422    0.00037
AFIX  43
H8    2    0.858417   -0.107289    0.705407    11.00000   -1.20000
AFIX   0
C9    1    0.283291    0.102493    0.790832    11.00000    0.04627    0.07338 =
         0.06617   -0.01214    0.03563   -0.00467
AFIX  23
H9A   2    0.222958    0.160931    0.827401    11.00000   -1.20000
H9B   2    0.195919    0.070476    0.679415    11.00000   -1.20000
AFIX   0
C10   1    0.908764   -0.120327    0.502435    11.00000    0.05473    0.05658 =
         0.09923   -0.02722    0.04455   -0.00578
AFIX  43
H10   2    0.956341   -0.197735    0.527505    11.00000   -1.20000
AFIX   0
C11   1    0.928071    0.246824    0.927733    11.00000    0.06341    0.08304 =
         0.06397   -0.02935    0.02685   -0.02902
C12   1    0.767964    0.107613    0.428954    11.00000    0.05122    0.06423 =
         0.04572    0.00288    0.02658   -0.00105
AFIX  43
H12   2    0.720545    0.185028    0.402727    11.00000   -1.20000
AFIX   0
C13   1    0.826869    0.052885    0.323687    11.00000    0.06530    0.10499 =
         0.04923   -0.01003    0.03749   -0.01394
AFIX  43
H13   2    0.818495    0.093588    0.227205    11.00000   -1.20000
AFIX   0
C14   1    0.897285   -0.060492    0.360177    11.00000    0.05936    0.09997 =
         0.07165   -0.04123    0.04534   -0.02338
AFIX  43
H14   2    0.937231   -0.096997    0.289197    11.00000   -1.20000
AFIX   0
C15   1    0.333108    0.110659    0.372738    11.00000    0.04928    0.08367 =
         0.04097    0.01135    0.00999    0.00190
AFIX 137
H15A  2    0.215345    0.130897    0.353964    11.00000   -1.50000
H15B  2    0.325943    0.079999    0.267040    11.00000   -1.50000
H15C  2    0.407119    0.181361    0.408180    11.00000   -1.50000
AFIX   0
C16   1    0.424934   -0.103710    0.862274    11.00000    0.07474    0.06518 =
         0.07375    0.02195    0.04831   -0.00149
AFIX  23
H16A  2    0.333176   -0.129867    0.749016    11.00000   -1.20000
H16B  2    0.450016   -0.170502    0.942056    11.00000   -1.20000
AFIX   0
H11A  2    1.042462    0.265919    1.039479    11.00000    0.09340
H11B  2    0.865822    0.317095    0.873506    11.00000    0.07753
HKLF 4




REM  1 in P21 #4
REM wR2 = 0.0721, GooF = S = 1.067, Restrained GooF = 1.067 for all data
REM R1 = 0.0277 for 2493 Fo > 4sig(Fo) and 0.0284 for all 2549 data
REM 172 parameters refined using 1 restraints

END

WGHT      0.0400      0.0738

REM Instructions for potential hydrogen bonds
EQIV $1 -x+1, y+1/2, -z+1
HTAB C3 O2_$1
HTAB C16 O2
EQIV $2 -x+1, y-1/2, -z+2
HTAB C16 S1_$2

REM Highest difference peak  0.134,  deepest hole -0.219,  1-sigma level  0.051
Q1    1   1.0140  0.2368  1.0844  11.00000  0.05    0.13
Q2    1   0.0963  0.1160  0.4995  11.00000  0.05    0.13
Q3    1   0.2118  0.0060  0.2343  11.00000  0.05    0.13
Q4    1   1.0241  0.2276  1.1926  11.00000  0.05    0.12
Q5    1   0.9729 -0.1297  0.6001  11.00000  0.05    0.12
Q6    1   1.1281 -0.0536  0.4639  11.00000  0.05    0.12
Q7    1   0.1907  0.0632  0.2772  11.00000  0.05    0.12
Q8    1   0.1608  0.2791  0.9010  11.00000  0.05    0.12
Q9    1   1.0264 -0.2375  0.6598  11.00000  0.05    0.11
Q10   1   0.9772 -0.2853  0.5375  11.00000  0.05    0.11
Q11   1   0.0974 -0.0017  0.2181  11.00000  0.05    0.11
Q12   1   1.0418 -0.0230  1.1022  11.00000  0.05    0.11
Q13   1   0.0029  0.1071  0.1634  11.00000  0.05    0.11
Q14   1   0.9302 -0.2930  0.4271  11.00000  0.05    0.11
Q15   1   0.0246  0.0803  0.2328  11.00000  0.05    0.11
Q16   1   0.1778  0.0814  0.5799  11.00000  0.05    0.11
Q17   1   0.7055  0.0039  0.1070  11.00000  0.05    0.11
Q18   1   1.0935  0.2218  0.9187  11.00000  0.05    0.11
Q19   1   1.0738 -0.1431  0.3939  11.00000  0.05    0.11
Q20   1   0.9655 -0.0980  0.4533  11.00000  0.05    0.11
;
_shelx_res_checksum              74145
_shelx_hkl_file
;
  -1   0   0  517.45   13.79
  -2   0   0    2.95    0.13
   2   0   0    2.88    0.13
   3   0   0    0.02    0.03
   3   0   0    0.28    0.04
  -3   0   0    0.11    0.04
   4   0   0  130.19    3.54
   4   0   0  133.67    3.42
  -4   0   0  128.91    3.55
   5   0   0    0.65    0.11
  -5   0   0    0.51    0.10
  -6   0   0    9.47    0.39
   6   0   0    9.34    0.41
  -7   0   0    0.13    0.09
   7   0   0    0.04    0.09
  -8   0   0    0.24    0.11
   8   0   0    0.07    0.11
  -9   0   0    1.86    0.23
   9   0   0    1.89    0.26
  10   0   0    1.72    0.28
   0   1   0   -1.14    0.02
  -1  -1   0  201.31    5.41
   2  -1   0  701.12   18.43
  -2  -1   0  763.50   19.27
   2   1   0  698.12   18.44
  -3  -1   0   57.27    1.65
   3  -1   0   62.46    1.60
   3   1   0   59.36    1.60
  -3   1   0   60.83    1.66
  -4  -1   0    9.13    0.33
   4  -1   0    8.74    0.33
   4  -1   0    8.41    0.29
  -4   1   0    9.15    0.33
   4   1   0    9.08    0.34
  -5  -1   0    9.78    0.39
   5  -1   0   10.48    0.40
   5   1   0   10.88    0.42
  -5   1   0   10.26    0.39
  -6  -1   0   13.32    0.50
   6  -1   0   12.77    0.50
  -6   1   0   12.74    0.48
   6   1   0   13.38    0.52
   7  -1   0   16.98    0.66
  -7  -1   0   17.65    0.64
   7   1   0   17.90    0.68
  -7   1   0   18.09    0.64
   8  -1   0    3.09    0.30
  -8  -1   0    3.27    0.24
  -8   1   0    3.02    0.24
   8   1   0    3.72    0.30
  -9  -1   0    2.01    0.23
   9  -1   0    1.86    0.26
   9   1   0    1.75    0.26
  10  -1   0    1.18    0.24
   0   2   0 1000.00   26.67
   1  -2   0  145.35    3.67
  -1  -2   0  142.73    3.86
  -2  -2   0  292.41    7.74
   2  -2   0  289.12    7.38
  -3  -2   0  117.62    3.19
   3  -2   0  118.30    3.06
   4  -2   0  363.93    9.69
  -4  -2   0  364.76    9.71
   4  -2   0  364.33    9.27
   4   2   0  361.69    9.29
  -5  -2   0   56.86    1.62
   5  -2   0   55.73    1.57
  -5   2   0   57.35    1.62
   5   2   0   55.96    1.60
  -6  -2   0    0.13    0.10
   6  -2   0    0.29    0.10
  -6   2   0    0.32    0.10
   6   2   0    0.04    0.08
   7  -2   0   16.97    0.64
  -7  -2   0   15.98    0.62
  -7   2   0   16.47    0.61
   8  -2   0   11.10    0.52
  -8  -2   0   10.98    0.49
  -8   2   0   10.99    0.48
  -9  -2   0    5.49    0.34
   9  -2   0    3.80    0.33
  10  -2   0    1.37    0.25
   0   3   0   -0.10    0.03
  -1  -3   0   17.12    0.52
  -2  -3   0   40.96    1.17
   2  -3   0   40.71    1.12
   2  -3   0   41.44    1.14
  -2   3   0   43.17    1.18
   3  -3   0   92.39    2.51
   3  -3   0   94.12    2.44
  -3  -3   0   94.09    2.55
  -3   3   0   92.13    2.55
   4  -3   0  166.05    4.30
   4  -3   0  166.19    4.16
  -4  -3   0  166.39    4.35
  -4   3   0  143.10    4.35
  -5  -3   0   61.75    1.74
   5  -3   0   59.69    1.68
   6  -3   0   14.02    0.53
  -6  -3   0   14.60    0.54
   7  -3   0   20.00    0.73
  -7  -3   0   20.70    0.73
   8  -3   0    7.87    0.43
  -8  -3   0    9.28    0.45
   9  -3   0    2.23    0.28
  -9  -3   0    1.87    0.24
  10  -3   0    1.89    0.28
   0   4   0  612.79   16.43
  -1  -4   0  162.46    4.38
  -2  -4   0  145.81    4.05
   2  -4   0  152.30    4.03
   2  -4   0  148.89    3.86
  -2   4   0  151.78    4.05
  -3  -4   0    6.01    0.24
   3  -4   0    5.61    0.20
   3  -4   0    5.82    0.23
  -3   4   0    5.75    0.25
  -4  -4   0   97.04    2.66
   4  -4   0   95.21    2.54
  -4   4   0   95.48    2.67
   5  -4   0    9.39    0.38
  -5  -4   0    9.22    0.38
  -5   4   0   10.05    0.40
   6  -4   0    2.19    0.20
  -6  -4   0    2.35    0.20
  -6   4   0    2.29    0.21
  -7  -4   0    3.15    0.25
   7  -4   0    3.08    0.24
  -8  -4   0    4.36    0.32
   8  -4   0    4.08    0.30
  -9  -4   0    0.26    0.15
   9  -4   0    0.09    0.13
  10  -4   0    1.04    0.24
   0   5   0    0.00    0.03
  -1  -5   0   68.16    1.90
   2  -5   0    2.48    0.14
  -2  -5   0    2.43    0.15
   2  -5   0    2.31    0.13
  -2   5   0    3.08    0.17
   3  -5   0   51.67    1.42
  -3  -5   0   51.75    1.49
   3  -5   0   52.38    1.44
  -3   5   0   51.19    1.49
   4  -5   0   45.47    1.28
  -4  -5   0   44.87    1.33
  -4   5   0   45.68    1.35
  -5  -5   0   79.59    2.28
   5  -5   0   80.41    2.19
  -5   5   0   80.96    2.30
  -6  -5   0    7.38    0.35
   6  -5   0    6.87    0.34
  -6   5   0    8.41    0.38
   7  -5   0   18.42    0.68
  -7  -5   0   17.87    0.68
   8  -5   0    7.99    0.43
  -8  -5   0    8.61    0.44
   9  -5   0    0.96    0.20
  -9  -5   0    0.60    0.19
   0   6   0  126.18    3.46
  -1  -6   0   31.02    0.89
  -1   6   0   27.02    0.88
  -2  -6   0  125.97    3.40
   2  -6   0  118.87    3.38
   2  -6   0  125.26    3.24
  -2   6   0  125.05    3.40
   3  -6   0   80.00    2.18
  -3  -6   0   81.35    2.29
   3  -6   0   82.64    2.25
  -3   6   0   82.37    2.30
   4  -6   0   41.29    1.21
  -4  -6   0   41.06    1.26
  -4   6   0   44.32    1.29
   5  -6   0   13.12    0.49
  -5  -6   0   12.88    0.50
  -5   6   0   13.20    0.52
   6  -6   0    5.44    0.29
  -6  -6   0    5.34    0.30
   7  -6   0    4.81    0.30
  -7  -6   0    4.50    0.30
   8  -6   0    8.28    0.44
  -8  -6   0    8.96    0.45
   9  -6   0    3.82    0.36
   0  -7   0    0.02    0.06
  -1  -7   0   42.78    1.27
  -1   7   0   42.42    1.27
   2  -7   0   49.24    1.46
   2  -7   0   51.06    1.41
  -2  -7   0   51.28    1.49
  -2   7   0   51.05    1.49
   3  -7   0   49.35    1.39
  -3  -7   0   48.42    1.44
   3  -7   0   48.09    1.37
  -3   7   0   48.53    1.45
  -4  -7   0   20.53    0.69
   4  -7   0   20.49    0.67
  -4   7   0   19.89    0.71
  -5  -7   0    9.77    0.42
   5  -7   0   10.03    0.41
  -6  -7   0   11.65    0.50
   6  -7   0   12.42    0.50
   7  -7   0    0.95    0.17
  -7  -7   0    0.51    0.15
  -8  -7   0    0.41    0.16
   8  -7   0    0.19    0.14
   9  -7   0    0.89    0.19
   0  -8   0  106.48    2.97
  -1  -8   0   80.65    2.27
  -1   8   0   78.97    2.27
   2  -8   0   37.93    1.09
   2  -8   0   38.01    1.13
  -2  -8   0   36.86    1.14
  -2   8   0   35.82    1.15
  -3  -8   0   16.86    0.59
   3  -8   0   16.14    0.56
  -3   8   0   15.24    0.59
  -4  -8   0   11.85    0.47
   4  -8   0   11.65    0.45
   5  -8   0   13.71    0.53
  -5  -8   0   14.20    0.55
   6  -8   0    2.85    0.24
  -6  -8   0    3.08    0.24
  -7  -8   0    0.61    0.16
   7  -8   0    0.68    0.15
   8  -8   0    0.06    0.12
   9  -8   0    0.83    0.21
   0  -9   0   -0.01    0.07
  -1  -9   0   21.66    0.74
  -1   9   0   21.50    0.74
   2  -9   0    6.71    0.31
  -2  -9   0    6.35    0.32
   2  -9   0    6.90    0.31
  -2   9   0    6.26    0.33
   3  -9   0    7.42    0.34
  -3  -9   0    7.53    0.36
  -3   9   0    7.88    0.37
   4  -9   0    2.12    0.20
  -4  -9   0    2.00    0.21
   5  -9   0   15.48    0.58
  -5  -9   0   15.42    0.61
   6  -9   0    8.23    0.41
  -6  -9   0    8.37    0.42
   7  -9   0    1.46    0.21
  -7  -9   0    1.37    0.22
   8  -9   0    0.16    0.13
   0 -10   0    5.82    0.31
   1 -10   0    6.48    0.32
  -1 -10   0    6.21    0.32
   1 -10   0    5.64    0.32
   2 -10   0   17.63    0.61
   2 -10   0   18.18    0.64
  -2 -10   0   16.63    0.64
  -2  10   0   17.09    0.65
  -3 -10   0   22.73    0.80
   3 -10   0   22.39    0.75
   4 -10   0   15.79    0.57
  -4 -10   0   14.44    0.59
   5 -10   0    2.74    0.22
  -5 -10   0    2.30    0.23
   6 -10   0    0.70    0.15
  -6 -10   0    0.46    0.15
   7 -10   0    0.89    0.18
   8 -10   0    2.70    0.30
   0 -11   0   -0.08    0.08
  -1 -11   0   16.62    0.66
   1 -11   0   18.43    0.67
   1 -11   0   18.06    0.68
   2 -11   0    7.18    0.35
   2 -11   0    6.63    0.35
  -2 -11   0    6.73    0.36
  -3 -11   0    7.34    0.39
   3 -11   0    7.63    0.36
   4 -11   0    4.76    0.28
  -4 -11   0    4.81    0.31
  -5 -11   0    3.76    0.28
   5 -11   0    4.28    0.28
   6 -11   0    3.22    0.27
  -6 -11   0    2.87    0.29
   7 -11   0    1.91    0.24
   0 -12   0   17.19    0.67
  -1 -12   0   13.08    0.56
   1 -12   0   13.92    0.59
   2 -12   0    5.00    0.30
  -2 -12   0    5.37    0.33
  -3 -12   0    0.68    0.15
   3 -12   0    0.57    0.13
   4 -12   0    1.37    0.18
  -4 -12   0    1.30    0.19
   5 -12   0    0.93    0.17
  -5 -12   0    1.23    0.20
   6 -12   0    0.25    0.14
   7 -12   0    0.12    0.13
   0 -13   0   -0.12    0.08
  -1 -13   0    0.05    0.11
   1 -13   0    0.10    0.10
  -2 -13   0    1.81    0.23
  -3 -13   0    4.01    0.30
  -4 -13   0    5.98    0.38
   4 -13   0    6.09    0.35
   5 -13   0    5.34    0.35
   6 -13   0    3.06    0.31
   0 -14   0    1.60    0.24
  -1 -14   0    1.22    0.22
  -2 -14   0    0.69    0.17
   0 -15   0   -0.05    0.11
  -1 -15   0    1.94    0.28
  -2 -15   0    0.68    0.19
   0 -16   0    7.04    0.47
 -10   0   1   -0.04    0.11
   9   0  -1    0.79    0.19
  -9   0   1    0.75    0.16
   8   0  -1    8.77    0.46
  -8   0   1    9.33    0.42
  -7   0   1   24.66    0.81
   7   0  -1   23.36    0.83
   6   0  -1   69.23    1.95
  -6   0   1   69.35    1.98
  -5   0   1  126.88    3.48
   5   0  -1  127.00    3.36
  -4   0   1   47.80    1.37
   4   0  -1   49.21    1.34
   3   0  -1   49.73    1.32
  -3   0   1   48.55    1.37
  -2   0   1   80.83    2.16
   2   0  -1   78.94    2.07
  -1   0   1   -0.11    0.02
   0   0   1  251.42    6.74
   1   0   1  100.29    2.57
   1   0   1   99.60    2.71
  -1   0  -1  101.40    2.69
   2   0   1  181.03    4.93
   2   0   1  185.66    4.68
   3   0   1    7.31    0.27
   3   0   1    7.77    0.27
   4   0   1   66.74    1.87
   4   0   1   67.30    1.81
  -4   0  -1   67.03    1.87
   5   0   1   43.10    1.22
  -5   0  -1   41.63    1.23
   5   0   1   41.06    1.22
  -6   0  -1   11.25    0.44
   6   0   1   10.94    0.46
  -7   0  -1    7.59    0.36
   7   0   1    8.27    0.41
   8   0   1    0.08    0.12
   9   0   1    1.66    0.26
  10   0   1    0.13    0.17
  10  -1  -1    2.52    0.32
 -10  -1   1    2.15    0.26
   9  -1  -1    5.78    0.40
  -9  -1   1    6.30    0.35
  -9   1   1    5.25    0.34
   8  -1  -1    4.67    0.32
  -8  -1   1    4.34    0.27
  -8   1   1    4.58    0.29
   8   1  -1    4.04    0.31
  -7  -1   1   15.94    0.58
   7  -1  -1   15.58    0.60
   7   1  -1   15.04    0.61
  -7   1   1   15.52    0.58
  -6  -1   1   23.11    0.76
   6  -1  -1   22.82    0.77
  -6   1   1   24.15    0.77
   6   1  -1   22.77    0.78
  -5  -1   1   97.90    2.65
   5  -1  -1   96.22    2.56
  -5   1   1   92.14    2.64
   5   1  -1   95.21    2.57
   4  -1  -1   31.27    0.89
  -4  -1   1   31.67    0.92
   4   1  -1   30.30    0.91
  -4   1   1   31.16    0.92
  -3  -1   1  351.01    9.35
   3  -1  -1  352.82    8.93
  -3   1   1  350.42    9.36
   2  -1  -1  492.05   13.08
  -2  -1   1  549.48   13.68
  -2   1   1  493.69   13.69
  -1  -1   1  212.84    5.56
  -1   1   1  201.84    5.52
   0   1   1  801.99   21.41
  -1  -1  -1  669.29   17.90
   1  -1   1  689.95   16.98
   1  -1   1  660.18   17.94
   1   1   1  636.90   18.01
  -1   1  -1  682.72   17.77
   2  -1   1  476.93   11.20
  -2  -1  -1  457.33   11.87
   2  -1   1  450.57   11.91
   2   1   1  460.52   11.97
   2   1   1  425.46   11.25
  -2   1  -1  379.27   12.18
   3  -1   1   70.18    1.91
   3  -1   1   70.19    1.84
  -3  -1  -1   66.65    1.91
  -3   1  -1   68.26    1.90
   3   1   1   71.17    1.94
   3   1   1   70.13    1.84
  -4  -1  -1   64.86    1.80
   4  -1   1   66.21    1.74
   4  -1   1   64.64    1.79
   4   1   1   62.13    1.81
   4   1   1   61.79    1.74
  -4   1  -1   65.09    1.79
   5  -1   1   36.71    1.08
  -5  -1  -1   36.48    1.10
   5   1   1   36.37    1.10
   5   1   1   37.12    1.10
   6  -1   1   10.48    0.45
  -6  -1  -1   11.30    0.44
   6   1   1   10.63    0.46
  -7  -1  -1    5.44    0.30
   7  -1   1    5.31    0.33
   7   1   1    5.34    0.33
   8  -1   1    4.43    0.32
  -8  -1  -1    3.98    0.27
   8   1   1    3.91    0.32
   9  -1   1   -0.02    0.13
   9   1   1    0.15    0.14
  10  -1   1    0.52    0.20
  10  -2  -1    4.17    0.40
 -10  -2   1    4.39    0.34
  -9  -2   1    5.24    0.32
   9  -2  -1    3.93    0.32
  -9   2   1    4.89    0.32
   8  -2  -1    1.19    0.19
  -8  -2   1    1.08    0.17
  -8   2   1    1.08    0.17
   7  -2  -1    0.89    0.15
  -7  -2   1    1.28    0.17
  -7   2   1    0.97    0.15
  -6  -2   1    1.92    0.17
   6  -2  -1    1.54    0.17
  -6   2   1    1.40    0.16
   5  -2  -1   51.64    1.44
  -5  -2   1   51.11    1.48
  -5   2   1   50.81    1.49
   4  -2  -1   59.65    1.60
  -4  -2   1   57.55    1.66
  -4   2   1   60.22    1.68
   3  -2  -1  227.76    5.93
  -3  -2   1  233.86    6.22
  -3   2   1  236.54    6.24
   2  -2  -1  416.00   10.63
  -2  -2   1  415.34   11.15
  -2   2   1  419.00   11.08
  -1  -2   1  127.04    3.50
  -1   2   1  134.76    3.53
   0  -2   1  198.82    5.12
   0  -2   1  189.20    5.15
   0   2   1  187.49    5.16
   0   2   1  193.34    5.14
  -1  -2  -1  383.34   10.18
   1  -2   1  394.01   10.29
  -1   2  -1  373.70   10.21
   1   2   1  381.66   10.24
   2  -2   1  118.84    3.26
  -2  -2  -1  119.35    3.27
   2  -2   1  121.32    3.12
   2   2   1  125.94    3.31
  -2   2  -1  126.05    3.25
   2   2   1  114.89    3.11
   3  -2   1    4.59    0.17
  -3  -2  -1    4.75    0.20
   3  -2   1    4.68    0.20
   3   2   1    4.24    0.20
  -3   2  -1    3.97    0.18
   3   2   1    4.23    0.20
   4  -2   1   99.57    2.61
   4  -2   1   98.78    2.69
  -4  -2  -1   94.24    2.71
  -4   2  -1  102.50    2.70
   4   2   1   96.87    2.62
   4   2   1   98.36    2.74
   5  -2   1   18.35    0.62
  -5  -2  -1   18.34    0.62
   5   2   1   17.76    0.63
  -5   2  -1   19.16    0.61
  -6  -2  -1    9.68    0.42
   6  -2   1   10.11    0.43
   6   2   1    9.73    0.45
  -6   2  -1   10.43    0.41
  -7  -2  -1    7.83    0.39
   7  -2   1    7.69    0.40
   7   2   1    8.65    0.44
  -8  -2  -1    5.00    0.32
   8  -2   1    4.81    0.34
   9  -2   1    3.71    0.36
  10  -2   1    1.68    0.28
 -10  -3   1    1.15    0.21
  10  -3  -1    1.48    0.26
  -9  -3   1    3.11    0.27
   9  -3  -1    2.64    0.29
   8  -3  -1    4.51    0.32
  -8  -3   1    4.13    0.30
  -8   3   1    4.24    0.29
   7  -3  -1   10.96    0.47
  -7  -3   1   10.50    0.45
  -7   3   1   10.17    0.45
   6  -3  -1    9.82    0.41
  -6  -3   1   10.19    0.42
  -6   3   1    9.91    0.42
   5  -3  -1   33.61    0.99
  -5  -3   1   33.47    1.02
  -5   3   1   34.14    1.04
   4  -3  -1   79.35    2.12
  -4  -3   1   81.02    2.22
  -4   3   1   79.37    2.24
  -3  -3   1   65.44    1.81
   3  -3  -1   65.70    1.73
  -3   3   1   64.70    1.83
  -2  -3   1  199.77    5.35
   2  -3  -1  199.82    5.09
  -2   3   1  200.85    5.38
   1  -3  -1  290.52    7.40
  -1  -3   1  288.94    7.85
  -1   3   1  298.26    7.82
   0  -3   1  238.59    6.22
   0  -3   1  226.65    6.27
   0   3   1  237.08    6.27
  -1  -3  -1   18.57    0.55
   1  -3   1   17.04    0.52
  -1   3  -1   16.96    0.51
  -2  -3  -1  162.51    4.32
   2  -3   1  160.18    4.12
   2  -3   1  159.52    4.30
  -2   3  -1  157.95    4.29
   3  -3   1   80.27    2.22
   3  -3   1   80.32    2.16
  -3  -3  -1   81.42    2.25
  -3   3  -1   84.24    2.24
   4  -3   1   55.43    1.51
  -4  -3  -1   54.13    1.56
   4  -3   1   53.43    1.52
  -4   3  -1   55.99    1.55
   5  -3   1   53.20    1.52
  -5  -3  -1   53.31    1.56
  -5   3  -1   54.80    1.56
   6  -3   1   32.32    1.02
  -6  -3  -1   33.56    1.05
  -7  -3  -1   19.26    0.70
   7  -3   1   18.88    0.70
  -8  -3  -1    2.27    0.25
   8  -3   1    1.75    0.23
  -9  -3  -1    1.07    0.20
   9  -3   1    1.04    0.21
  10  -4  -1    0.89    0.21
   9  -4  -1   -0.01    0.13
  -9  -4   1    0.04    0.14
   8  -4  -1   15.92    0.65
  -8  -4   1   16.04    0.64
  -8   4   1   16.01    0.64
   7  -4  -1   32.82    1.06
  -7  -4   1   33.29    1.08
  -7   4   1   34.55    1.10
   6  -4  -1   38.92    1.16
  -6  -4   1   38.21    1.19
  -6   4   1   39.12    1.21
  -5  -4   1   53.14    1.53
   5  -4  -1   51.83    1.47
  -5   4   1   53.44    1.56
  -4  -4   1   74.95    2.07
   4  -4  -1   73.77    1.98
  -4   4   1   73.62    2.10
   3  -4  -1   72.10    1.88
   3  -4  -1   68.68    1.92
  -3  -4   1   71.31    1.97
  -3   4   1   72.08    2.00
   2  -4  -1   14.57    0.44
  -2  -4   1   14.73    0.46
  -2   4   1   14.82    0.49
  -1  -4   1    7.10    0.26
  -1   4   1    7.99    0.30
   0  -4   1  114.73    3.08
   0  -4   1  109.29    3.11
   0   4   1  118.48    3.12
  -1  -4  -1  135.43    3.66
   1  -4   1  134.84    3.65
  -1   4  -1  133.98    3.62
   2  -4   1   12.17    0.39
  -2  -4  -1   12.46    0.42
   2  -4   1   11.99    0.40
  -2   4  -1   11.68    0.39
   3  -4   1   35.25    1.02
   3  -4   1   35.71    1.02
  -3  -4  -1   35.64    1.07
  -3   4  -1   37.73    1.05
   4  -4   1   14.11    0.49
  -4  -4  -1   14.61    0.50
  -4   4  -1   14.14    0.49
   5  -4   1  184.42    4.93
  -5  -4  -1  192.34    5.15
  -5   4  -1  189.92    5.13
  -6  -4  -1   47.76    1.43
   6  -4   1   46.37    1.38
  -7  -4  -1   14.33    0.57
   7  -4   1   13.84    0.57
  -8  -4  -1    4.82    0.33
   8  -4   1    4.91    0.34
   9  -4   1   -0.08    0.12
  -9  -4  -1   -0.19    0.14
  10  -5  -1    3.04    0.33
   9  -5  -1   17.23    0.73
  -9  -5   1   17.69    0.73
   8  -5  -1   16.71    0.67
  -8  -5   1   17.51    0.68
   7  -5  -1    1.94    0.21
  -7  -5   1    2.03    0.21
  -7   5   1    2.53    0.25
  -6  -5   1   11.80    0.48
   6  -5  -1   12.19    0.47
  -6   5   1   12.41    0.51
  -5  -5   1   47.79    1.41
   5  -5  -1   47.02    1.35
  -5   5   1   48.66    1.45
   4  -5  -1   39.73    1.13
  -4  -5   1   40.33    1.18
  -4   5   1   40.04    1.22
   3  -5  -1   11.41    0.35
   3  -5  -1   11.18    0.37
  -3  -5   1   10.80    0.39
  -3   5   1   11.04    0.42
   2  -5  -1   28.32    0.78
  -2  -5   1   27.70    0.82
  -2   5   1   27.06    0.86
  -1  -5   1  112.89    3.08
  -1   5   1  114.25    3.13
   0  -5   1   82.19    2.33
   0  -5   1   90.27    2.37
   0   5   1   83.83    2.38
  -1  -5  -1   10.87    0.39
   1  -5   1    9.95    0.36
  -1   5  -1   10.91    0.36
   2  -5   1  142.96    3.93
   2  -5   1  144.65    3.77
  -2  -5  -1  143.40    3.95
  -2   5  -1  147.99    3.92
  -3  -5  -1   23.17    0.75
   3  -5   1   22.49    0.69
   3  -5   1   24.15    0.72
  -3   5  -1   23.37    0.72
  -4  -5  -1    7.90    0.34
   4  -5   1    8.58    0.35
  -4   5  -1    8.81    0.35
   5  -5   1   14.72    0.54
  -5  -5  -1   14.97    0.55
  -6  -5  -1   13.02    0.52
   6  -5   1   12.57    0.51
   7  -5   1    2.13    0.24
  -7  -5  -1    2.03    0.23
  -8  -5  -1    0.06    0.13
   8  -5   1    0.08    0.11
   9  -5   1    0.65    0.19
  10  -6  -1    0.21    0.15
  -9  -6   1    1.72    0.25
   9  -6  -1    1.70    0.25
   8  -6  -1    4.60    0.32
  -8  -6   1    4.16    0.31
   7  -6  -1    4.85    0.30
  -7  -6   1    5.46    0.32
  -6  -6   1   14.04    0.54
   6  -6  -1   14.07    0.53
   5  -6  -1   11.97    0.44
  -5  -6   1   11.95    0.46
  -5   6   1   11.98    0.50
   4  -6  -1   28.17    0.84
  -4  -6   1   28.01    0.88
  -4   6   1   29.31    0.94
  -3  -6   1  101.64    2.79
   3  -6  -1  102.85    2.66
   3  -6  -1  100.63    2.77
  -3   6   1   99.63    2.84
   2  -6  -1   37.35    1.01
  -2  -6   1   35.55    1.06
  -2   6   1   36.00    1.11
  -1  -6   1   35.50    1.04
  -1   6   1   36.10    1.09
   0  -6   1   39.71    1.14
   0  -6   1   39.55    1.17
   0   6   1   39.17    1.18
  -1  -6  -1   68.71    2.01
   1  -6   1   72.97    1.99
  -1   6  -1   70.40    1.97
   2  -6   1  159.92    4.14
   2  -6   1  157.36    4.32
  -2  -6  -1  158.88    4.35
  -2   6  -1  160.03    4.31
   3  -6   1   33.24    0.97
  -3  -6  -1   32.57    1.02
   3  -6   1   31.60    0.96
  -3   6  -1   33.55    0.99
   4  -6   1   12.04    0.46
  -4  -6  -1   12.61    0.48
  -5  -6  -1   10.53    0.44
   5  -6   1   11.22    0.45
  -6  -6  -1    1.22    0.17
   6  -6   1    1.18    0.17
  -7  -6  -1    2.65    0.27
   7  -6   1    2.67    0.26
   8  -6   1    0.91    0.18
  -8  -6  -1    0.80    0.20
   9  -6   1    3.99    0.37
   9  -7  -1    6.49    0.41
   8  -7  -1   11.73    0.52
  -8  -7   1   10.68    0.52
  -7  -7   1    2.63    0.26
   7  -7  -1    2.68    0.25
  -6  -7   1    8.91    0.41
   6  -7  -1    8.95    0.39
   5  -7  -1   25.03    0.79
  -5  -7   1   25.09    0.83
  -4  -7   1   33.32    1.03
   4  -7  -1   33.38    0.98
  -4   7   1   33.56    1.08
   3  -7  -1   16.12    0.52
  -3  -7   1   15.02    0.54
   3  -7  -1   15.90    0.51
  -3   7   1   15.48    0.58
   2  -7  -1  137.32    3.62
  -2  -7   1  143.11    3.82
  -2   7   1  137.68    3.86
  -1  -7   1   85.42    2.30
  -1   7   1   79.39    2.34
   0  -7   1   52.21    1.51
   0  -7   1   54.59    1.55
   0   7   1   51.19    1.55
   1  -7   1   77.20    2.19
  -1  -7  -1   77.63    2.22
  -1   7  -1   78.25    2.17
   2  -7   1   44.54    1.25
  -2  -7  -1   43.96    1.32
   2  -7   1   42.18    1.27
  -2   7  -1   43.88    1.28
   3  -7   1   46.00    1.35
  -3  -7  -1   46.45    1.41
   3  -7   1   48.61    1.36
   4  -7   1    1.03    0.14
  -4  -7  -1    0.91    0.13
   5  -7   1    1.69    0.18
  -5  -7  -1    1.65    0.19
   6  -7   1    4.62    0.29
  -6  -7  -1    4.19    0.28
   7  -7   1    0.46    0.13
  -7  -7  -1    1.02    0.19
   8  -7   1    0.08    0.13
   9  -8  -1    0.09    0.13
  -8  -8   1    1.71    0.23
   8  -8  -1    1.84    0.23
  -7  -8   1    7.44    0.39
   7  -8  -1    6.59    0.36
  -6  -8   1   12.99    0.55
   6  -8  -1   14.48    0.54
   5  -8  -1   14.02    0.52
  -5  -8   1   14.39    0.55
  -4  -8   1    1.58    0.16
   4  -8  -1    1.90    0.16
  -4   8   1    1.94    0.21
   3  -8  -1    9.86    0.37
  -3  -8   1    9.29    0.39
  -3   8   1    9.45    0.43
  -2  -8   1    8.03    0.34
   2  -8  -1    7.60    0.31
  -2   8   1    7.84    0.37
  -1  -8   1    4.86    0.24
  -1   8   1    4.56    0.27
   0  -8   1    1.85    0.16
   0  -8   1    1.71    0.15
   0  -8  -1    1.48    0.17
  -1  -8  -1   15.71    0.59
   1  -8   1   16.03    0.57
  -1   8  -1   16.19    0.55
   2  -8   1   12.63    0.48
   2  -8   1   12.52    0.47
  -2  -8  -1   12.34    0.50
  -2   8  -1   13.68    0.48
  -3  -8  -1    5.65    0.30
   3  -8   1    5.69    0.29
  -4  -8  -1    1.64    0.18
   4  -8   1    1.54    0.17
  -5  -8  -1   12.44    0.52
   5  -8   1   12.56    0.51
  -6  -8  -1   15.61    0.64
   6  -8   1   15.58    0.61
   7  -8   1    5.83    0.35
  -7  -8  -1    5.02    0.35
   8  -8   1    0.04    0.13
   9  -9  -1    2.60    0.30
   8  -9  -1    1.34    0.21
   7  -9  -1    0.78    0.16
  -7  -9   1    0.36    0.14
   6  -9  -1    1.51    0.19
  -6  -9   1    1.28    0.19
  -5  -9   1    8.94    0.41
   5  -9  -1    8.10    0.37
  -4  -9   1   19.70    0.66
   4  -9  -1   18.75    0.62
  -4   9   1   15.74    0.67
  -3  -9   1    5.58    0.29
   3  -9  -1    5.80    0.27
  -3   9   1    5.26    0.32
   2  -9  -1   27.07    0.83
  -2  -9   1   26.66    0.88
  -2   9   1   28.33    0.93
  -1  -9   1   31.62    0.97
  -1   9   1   30.05    1.01
   0  -9  -1   24.89    0.83
   0  -9   1   24.04    0.82
   0  -9   1   24.17    0.79
   1  -9   1   31.77    0.97
  -1  -9  -1   30.53    1.01
   1  -9   1   30.58    0.99
   2  -9   1   20.49    0.71
  -2  -9  -1   22.22    0.77
   2  -9   1   22.15    0.73
  -3  -9  -1   20.45    0.73
   3  -9   1   19.92    0.69
  -4  -9  -1    7.17    0.37
   4  -9   1    7.13    0.36
   5  -9   1    0.46    0.12
  -5  -9  -1    0.17    0.11
   6  -9   1    1.21    0.18
  -6  -9  -1    1.26    0.20
   7  -9   1    3.12    0.30
   8  -9   1    1.19    0.22
   8 -10  -1    0.20    0.13
  -7 -10   1   -0.05    0.12
   7 -10  -1   -0.03    0.10
   6 -10  -1    2.24    0.22
  -6 -10   1    2.02    0.23
   5 -10  -1    0.80    0.14
  -5 -10   1    1.08    0.17
   4 -10  -1   15.12    0.54
  -4 -10   1   14.17    0.57
   3 -10  -1   24.84    0.80
  -3 -10   1   25.37    0.86
  -3  10   1   25.88    0.91
   2 -10  -1    9.18    0.37
  -2 -10   1    8.94    0.40
  -2  10   1    9.76    0.45
  -1 -10   1   24.53    0.82
  -1  10   1   24.34    0.86
   0 -10   1    3.16    0.24
   0 -10   1    3.13    0.21
   0 -10  -1    3.16    0.24
   1 -10   1   14.70    0.58
  -1 -10  -1   15.57    0.61
   2 -10   1   20.47    0.71
  -2 -10  -1   20.64    0.75
   2 -10   1   20.04    0.71
  -3 -10  -1    5.79    0.34
   3 -10   1    6.26    0.34
  -4 -10  -1    1.35    0.19
   4 -10   1    1.30    0.18
   5 -10   1    1.07    0.16
  -5 -10  -1    1.05    0.17
   6 -10   1   -0.03    0.11
  -6 -10  -1    0.17    0.14
   7 -10   1    1.23    0.21
   8 -11  -1    1.54    0.24
   7 -11  -1    1.32    0.21
  -6 -11   1    0.74    0.17
   6 -11  -1    0.89    0.17
   5 -11  -1    0.60    0.14
  -5 -11   1    0.64    0.14
   4 -11  -1    2.45    0.20
  -4 -11   1    2.20    0.22
   3 -11  -1    2.30    0.19
  -3 -11   1    2.40    0.23
  -3  11   1    2.21    0.25
  -2 -11   1    8.21    0.38
   2 -11  -1    7.32    0.38
  -2  11   1    7.53    0.41
   1 -11  -1   13.36    0.57
  -1 -11   1   14.02    0.59
  -1 -11   1   13.57    0.53
   0 -11   1    6.40    0.35
   0 -11  -1    5.84    0.34
   1 -11   1    4.84    0.30
  -1 -11  -1    4.69    0.31
  -2 -11  -1   24.72    0.88
   2 -11   1   23.90    0.83
   3 -11   1   13.61    0.55
  -3 -11  -1   13.15    0.57
  -4 -11  -1    2.49    0.26
   4 -11   1    2.78    0.26
  -5 -11  -1    0.01    0.10
   5 -11   1   -0.04    0.10
   6 -11   1    0.70    0.17
   7 -11   1   -0.07    0.11
   7 -12  -1    6.15    0.38
   6 -12  -1    4.65    0.32
   5 -12  -1    8.15    0.40
  -5 -12   1    8.83    0.45
  -4 -12   1    4.83    0.31
  -3 -12   1    0.29    0.11
  -2 -12   1    0.25    0.11
  -2  12   1    0.13    0.12
  -1 -12   1    0.43    0.12
   1 -12  -1    0.54    0.14
  -1 -12   1    0.32    0.12
   0 -12   1    2.19    0.25
   0 -12  -1    2.40    0.25
   1 -12   1    1.92    0.22
  -1 -12  -1    2.06    0.24
   2 -12   1    0.26    0.12
  -2 -12  -1    0.20    0.12
   3 -12   1    1.75    0.21
  -3 -12  -1    1.68    0.22
   4 -12   1    3.46    0.27
  -4 -12  -1    3.21    0.28
   5 -12   1    8.03    0.42
   6 -12   1    7.08    0.42
  -4 -13   1    2.79    0.27
  -3 -13   1    0.46    0.13
  -2 -13   1    3.72    0.27
  -2 -13   1    3.26    0.33
   1 -13  -1    4.20    0.31
  -1 -13   1    3.43    0.29
   0 -13   1    3.24    0.28
   0 -13  -1    3.03    0.29
   1 -13   1    3.14    0.27
  -1 -13  -1    2.96    0.26
   2 -13   1    0.25    0.12
  -2 -13  -1    0.37    0.14
   3 -13   1    0.28    0.13
  -3 -13  -1    0.41    0.15
   4 -13   1    2.11    0.25
   5 -13   1    1.06    0.19
  -4 -14   1    4.63    0.39
  -3 -14   1    5.98    0.43
  -3 -14   1    6.44    0.38
  -2 -14   1    2.87    0.32
  -1 -14   1    1.95    0.26
   1 -14  -1    2.36    0.28
   0 -14   1    0.72    0.17
   0 -14  -1    0.38    0.15
  -1 -14  -1    1.58    0.24
  -2 -14  -1    1.56    0.23
   2 -14   1    2.29    0.26
   3 -14   1    2.27    0.26
   4 -14   1    1.49    0.22
  -3 -15   1    1.34    0.25
  -2 -15   1    0.53    0.18
  -1 -15   1    0.94    0.20
   0 -15  -1    4.11    0.35
   0 -15   1    4.08    0.34
   0 -16  -1    0.11    0.14
 -10   0   2    0.70    0.18
  -9   0   2    0.25    0.12
  -8   0   2    3.55    0.26
   8   0  -2    3.32    0.28
  -7   0   2  115.33    3.23
   7   0  -2  115.60    3.16
   6   0  -2   10.19    0.44
  -6   0   2   10.72    0.42
   5   0  -2    1.00    0.13
  -5   0   2    1.07    0.08
  -5   0   2    0.92    0.12
   4   0  -2   22.34    0.68
  -4   0   2   22.38    0.68
  -4   0   2   21.85    0.63
  -3   0   2  378.71   10.09
  -2   0   2  126.86    3.44
  -2   0   2  129.43    3.45
  -1   0   2  188.93    4.92
  -1   0   2  178.23    4.90
   0   0   2   31.60    0.89
   0   0   2   31.77    0.88
   1   0   2  207.61    5.52
  -1   0  -2  203.45    5.47
   2   0   2  158.67    4.05
  -2   0  -2  155.52    4.22
   2   0   2  159.52    4.28
   3   0   2    0.57    0.08
   3   0   2    0.72    0.09
  -3   0  -2    0.69    0.08
   4   0   2   29.80    0.90
   4   0   2   29.41    0.93
  -4   0  -2   32.08    0.91
   5   0   2   31.30    0.96
  -5   0  -2   30.94    0.95
   5   0   2   31.12    0.97
   6   0   2   20.61    0.72
  -6   0  -2   20.42    0.70
   7   0   2    0.23    0.12
   8   0   2    0.70    0.18
   9   0   2    0.19    0.16
 -10  -1   2    0.04    0.13
  10  -1  -2    0.00    0.13
 -10   1   2   -0.06    0.12
  -9  -1   2    1.78    0.22
   9  -1  -2    1.94    0.26
  -9   1   2    2.02    0.24
  -8  -1   2   29.67    0.98
   8  -1  -2   28.99    1.01
  -8   1   2   29.82    1.00
  -7  -1   2   31.76    1.02
   7  -1  -2   32.59    1.04
  -7   1   2   32.32    1.04
   6  -1  -2   30.78    0.94
  -6  -1   2   28.64    0.93
  -6   1   2   30.47    0.95
   5  -1  -2  117.37    3.06
  -5  -1   2  115.91    3.17
  -5   1   2  112.71    3.18
   4  -1  -2  229.94    6.01
  -4  -1   2  236.04    6.29
  -4  -1   2  234.26    6.29
  -4   1   2  237.52    6.31
  -3  -1   2  498.83   13.22
  -3  -1   2  500.85   13.18
   3  -1  -2  488.98   12.51
  -3   1   2  479.46   13.20
   2  -1  -2  273.01    6.98
  -2  -1   2  269.16    7.38
  -2  -1   2  282.19    7.38
  -2   1   2  276.41    7.34
  -1  -1   2   25.36    0.71
  -1  -1   2   27.59    0.74
  -1   1   2   24.42    0.72
  -1   1   2   25.61    0.74
   0  -1   2  584.43   15.37
   0  -1   2  580.04   15.61
   0   1   2  592.05   15.54
   0   1   2  557.88   15.56
   1  -1   2  341.32    8.38
   1  -1   2  336.03    8.83
  -1   1  -2  314.13    8.80
   1   1   2  336.40    8.85
   1   1   2  324.04    8.36
   2  -1   2  131.24    3.71
   2  -1   2  136.48    3.53
  -2   1  -2  134.72    3.67
   2   1   2  139.36    3.74
   2   1   2  144.50    3.53
   3  -1   2    2.91    0.15
   3  -1   2    2.45    0.14
  -3   1  -2    2.18    0.13
   3   1   2    2.85    0.15
   3   1   2    3.00    0.17
   4  -1   2   60.93    1.69
   4  -1   2   61.15    1.75
  -4   1  -2   63.85    1.74
   4   1   2   61.92    1.70
   4   1   2   61.92    1.78
   5  -1   2   21.62    0.69
  -5  -1  -2   19.84    0.67
   5   1   2   20.44    0.69
  -5   1  -2   20.44    0.66
   5   1   2   19.75    0.68
  -6  -1  -2    0.42    0.12
   6  -1   2    0.18    0.10
   6   1   2    0.47    0.13
   7  -1   2    3.29    0.26
   7   1   2    4.07    0.30
   8  -1   2    3.28    0.31
   8   1   2    2.52    0.30
   9  -1   2    1.61    0.26
   9   1   2    2.06    0.29
  11  -2  -2    8.11    0.54
 -10  -2   2    9.72    0.49
  10  -2  -2    9.28    0.55
 -10   2   2    9.89    0.51
  -9  -2   2    4.70    0.32
   9  -2  -2    4.88    0.35
  -9   2   2    4.74    0.32
  -8  -2   2   16.15    0.62
   8  -2  -2   16.14    0.65
  -8   2   2   15.58    0.63
   7  -2  -2    9.16    0.41
  -7  -2   2    8.55    0.38
  -7   2   2    8.24    0.39
   6  -2  -2    4.63    0.26
  -6  -2   2    5.48    0.27
  -6   2   2    5.19    0.28
  -5  -2   2   36.98    1.10
   5  -2  -2   38.34    1.08
  -5   2   2   34.99    1.11
  -4  -2   2   90.93    2.44
   4  -2  -2   88.30    2.33
  -4   2   2   85.46    2.46
  -3  -2   2   11.97    0.39
  -3  -2   2   12.56    0.39
   3  -2  -2   11.93    0.37
  -3   2   2   11.69    0.41
  -2  -2   2  124.99    3.37
  -2  -2   2  123.75    3.33
   2  -2  -2  123.94    3.17
  -1  -2   2  214.74    5.82
  -1  -2   2  213.54    5.85
  -1   2   2  223.22    5.85
  -1   2   2  220.43    5.85
   0  -2   2  398.27   10.52
   0   2   2  397.11   10.49
   0   2   2  387.02   10.53
  -1  -2  -2  243.21    6.61
   1  -2   2  250.23    6.62
  -1   2  -2  238.10    6.56
   1   2   2  256.76    6.65
   2  -2   2  266.85    7.21
   2  -2   2  275.24    6.87
  -2  -2  -2  276.15    7.19
   2   2   2  264.68    6.84
  -2   2  -2  266.12    7.15
   2   2   2  264.90    7.25
   3  -2   2   21.56    0.66
  -3  -2  -2   20.95    0.67
   3  -2   2   21.78    0.66
   3   2   2   22.29    0.66
   3   2   2   21.90    0.71
  -3   2  -2   23.33    0.65
   4  -2   2    4.79    0.24
   4  -2   2    4.87    0.22
  -4  -2  -2    5.20    0.24
   4   2   2    5.20    0.26
   4   2   2    4.33    0.23
  -4   2  -2    5.48    0.23
   5  -2   2   19.06    0.66
  -5  -2  -2   20.52    0.67
   5   2   2   20.28    0.68
   5   2   2   19.58    0.69
   6  -2   2    3.47    0.25
  -6  -2  -2    3.56    0.24
   6   2   2    4.05    0.28
   7  -2   2    4.09    0.30
  -7  -2  -2    4.50    0.29
   7   2   2    4.68    0.33
   8  -2   2    0.23    0.13
   8   2   2    0.22    0.15
   9  -2   2    0.14    0.14
  11  -3  -2    3.01    0.37
  10  -3  -2    0.35    0.18
 -10  -3   2    0.87    0.20
 -10   3   2    0.71    0.18
  -9  -3   2    0.24    0.13
   9  -3  -2    0.25    0.15
  -9   3   2    0.61    0.16
   8  -3  -2    5.15    0.33
  -8  -3   2    4.40    0.29
  -8   3   2    4.97    0.31
  -7  -3   2   32.74    1.07
   7  -3  -2   34.02    1.07
  -7   3   2   34.34    1.10
   6  -3  -2    8.85    0.37
  -6  -3   2    8.78    0.37
  -6   3   2    8.77    0.39
  -5  -3   2   39.95    1.22
   5  -3  -2   43.29    1.19
  -5   3   2   41.11    1.25
  -4  -3   2  134.37    3.62
   4  -3  -2  133.66    3.46
  -4   3   2  131.18    3.66
  -3  -3   2  418.96   10.82
   3  -3  -2  392.69   10.30
  -3   3   2  407.72   10.86
  -2  -3   2  110.45    3.01
   2  -3  -2  115.85    2.87
  -2  -3   2  110.51    3.06
  -2   3   2  113.11    3.03
  -2   3   2  109.56    3.07
  -1  -3   2  122.07    3.23
  -1  -3   2  121.79    3.30
  -1   3   2  118.47    3.30
  -1   3   2  122.29    3.29
   0  -3   2  142.66    3.88
   0  -3   2  150.98    3.97
   0   3   2  147.09    3.98
   0   3   2  144.50    3.97
   1  -3   2  194.53    5.30
  -1  -3  -2  196.86    5.30
   1   3   2  197.16    5.34
  -1   3  -2  198.73    5.22
  -2  -3  -2  127.71    3.48
   2  -3   2  126.25    3.32
   2  -3   2  128.31    3.47
  -2   3  -2  129.71    3.42
   2   3   2  126.72    3.52
  -3  -3  -2   68.55    1.91
   3  -3   2   67.63    1.84
   3  -3   2   67.56    1.89
   3   3   2   67.98    1.96
  -3   3  -2   69.59    1.87
   3   3   2   67.60    1.83
  -4  -3  -2   26.06    0.82
   4  -3   2   25.96    0.80
   4  -3   2   26.99    0.80
   4   3   2   25.09    0.80
   4   3   2   26.82    0.87
  -4   3  -2   26.87    0.79
  -5  -3  -2   37.90    1.16
   5  -3   2   37.90    1.13
  -6  -3  -2   42.84    1.29
   6  -3   2   39.55    1.25
   6   3   2   42.34    1.29
  -7  -3  -2    6.18    0.35
   7  -3   2    6.12    0.35
   8  -3   2    2.20    0.26
   9  -3   2    1.83    0.26
  10  -4  -2    0.21    0.15
 -10  -4   2    0.34    0.17
  -9  -4   2    4.90    0.33
   9  -4  -2    5.04    0.35
  -9   4   2    4.28    0.33
  -8  -4   2    2.40    0.25
   8  -4  -2    2.20    0.24
  -8   4   2    2.17    0.25
   7  -4  -2   21.97    0.76
  -7  -4   2   22.79    0.78
  -7   4   2   21.99    0.80
  -6  -4   2   36.02    1.09
   6  -4  -2   35.02    1.06
  -6   4   2   34.41    1.13
  -5  -4   2   10.56    0.40
   5  -4  -2   10.40    0.39
  -5   4   2    9.99    0.43
   4  -4  -2   18.89    0.57
  -4  -4   2   18.56    0.60
  -4   4   2   18.37    0.64
  -3  -4   2   93.36    2.50
   3  -4  -2   84.92    2.37
  -3   4   2   95.48    2.56
  -2  -4   2  288.06    7.56
  -2  -4   2  281.85    7.63
   2  -4  -2  276.94    7.19
  -2   4   2  287.46    7.62
  -1  -4   2  150.44    4.11
  -1  -4   2  155.50    4.18
  -1   4   2  155.72    4.19
   0  -4   2  103.97    2.79
   0  -4   2  101.79    2.72
   0   4   2   99.75    2.81
   0   4   2  101.53    2.81
  -1  -4  -2   42.61    1.22
   1  -4   2   41.89    1.19
  -1   4  -2   40.80    1.13
   1   4   2   40.33    1.22
   2  -4   2    7.19    0.26
   2  -4   2    6.33    0.27
  -2  -4  -2    6.38    0.28
   2   4   2    6.52    0.30
  -2   4  -2    6.49    0.23
   3  -4   2    1.44    0.14
   3  -4   2    1.61    0.11
   3   4   2    1.25    0.15
  -3   4  -2    1.62    0.11
  -4  -4  -2   16.79    0.58
   4  -4   2   16.99    0.57
  -5  -4  -2    1.43    0.17
   5  -4   2    2.08    0.20
  -6  -4  -2    1.49    0.18
   6  -4   2    0.97    0.16
   7  -4   2    3.83    0.27
  -7  -4  -2    3.27    0.26
  -8  -4  -2    0.73    0.20
   8  -4   2    1.18    0.21
   9  -4   2    0.77    0.21
  10  -5  -2    0.14    0.16
   9  -5  -2    4.98    0.35
  -9  -5   2    5.23    0.36
  -9   5   2    5.15    0.37
  -8  -5   2    6.13    0.36
   8  -5  -2    6.26    0.36
  -8   5   2    6.01    0.37
   7  -5  -2   37.81    1.19
  -7  -5   2   39.84    1.23
  -7   5   2   39.12    1.28
  -6  -5   2   23.02    0.77
   6  -5  -2   22.29    0.74
  -6   5   2   23.06    0.82
  -5  -5   2   20.77    0.68
   5  -5  -2   20.57    0.65
  -5   5   2   20.37    0.73
  -4  -5   2   72.31    2.02
   4  -5  -2   74.45    1.93
  -4   5   2   69.26    2.08
   3  -5  -2   53.18    1.43
  -3  -5   2   54.21    1.51
  -3   5   2   53.61    1.58
  -2  -5   2   47.90    1.41
   2  -5  -2   46.28    1.27
  -2  -5   2   50.01    1.35
  -2   5   2   48.80    1.42
   1  -5  -2   27.09    0.74
  -1  -5   2   28.36    0.85
  -1  -5   2   27.57    0.79
  -1   5   2   27.30    0.87
   0  -5   2  194.25    5.12
   0  -5   2  183.06    5.03
   0   5   2  188.23    5.13
  -1  -5  -2   84.41    2.46
   1  -5   2   91.48    2.44
  -1   5  -2   87.85    2.38
  -2  -5  -2   24.66    0.79
   2  -5   2   24.33    0.75
   2  -5   2   24.77    0.76
  -2   5  -2   24.29    0.71
  -3  -5  -2   14.38    0.52
   3  -5   2   14.79    0.51
   3  -5   2   14.42    0.48
  -4  -5  -2   60.92    1.76
   4  -5   2   60.24    1.70
   5  -5   2   15.76    0.57
  -5  -5  -2   15.27    0.57
   6  -5   2    8.94    0.42
  -6  -5  -2    9.37    0.43
   7  -5   2    5.28    0.33
  -7  -5  -2    5.70    0.34
  -8  -5  -2    2.94    0.30
   8  -5   2    3.46    0.29
  10  -6  -2    6.80    0.44
  -9  -6   2    9.81    0.50
   9  -6  -2    9.54    0.50
   8  -6  -2   19.04    0.73
  -8  -6   2   19.60    0.75
  -8   6   2   20.14    0.80
  -7  -6   2    5.38    0.31
   7  -6  -2    5.34    0.30
  -7   6   2    5.59    0.35
   6  -6  -2   30.30    0.94
  -6  -6   2   30.49    0.99
  -6   6   2   31.19    1.05
   5  -6  -2    6.39    0.28
  -5  -6   2    6.16    0.29
  -5   6   2    5.49    0.33
  -4  -6   2   14.72    0.51
   4  -6  -2   14.78    0.48
  -4   6   2   13.67    0.56
   3  -6  -2    0.43    0.07
  -3  -6   2    0.54    0.08
  -3   6   2    1.02    0.14
   2  -6  -2    8.29    0.27
  -2  -6   2    7.90    0.34
  -2  -6   2    8.19    0.30
  -2   6   2    7.88    0.35
  -1  -6   2    1.10    0.12
  -1  -6   2    1.18    0.09
  -1   6   2    1.01    0.13
   0  -6   2   14.38    0.44
   0  -6   2   14.09    0.49
   0   6   2   13.05    0.51
  -1  -6  -2   40.07    1.19
   1  -6   2   35.83    1.14
  -1   6  -2   40.98    1.10
   2  -6   2   53.31    1.52
  -2  -6  -2   54.39    1.60
   2  -6   2   55.35    1.56
  -3  -6  -2   70.80    2.06
   3  -6   2   71.24    1.97
   3  -6   2   72.32    2.01
   4  -6   2    8.11    0.37
  -4  -6  -2    8.38    0.37
  -5  -6  -2    1.41    0.17
   5  -6   2    1.42    0.17
   6  -6   2    4.62    0.29
  -6  -6  -2    3.81    0.27
  -7  -6  -2    2.70    0.27
   7  -6   2    2.67    0.27
   8  -6   2    0.48    0.16
  10  -7  -2    0.41    0.18
   9  -7  -2    6.13    0.39
  -9  -7   2    5.44    0.38
   8  -7  -2    4.55    0.30
  -8  -7   2    4.17    0.31
   7  -7  -2    4.26    0.28
  -7  -7   2    4.07    0.28
  -7   7   2    4.77    0.33
  -6  -7   2   15.57    0.59
   6  -7  -2   15.80    0.57
  -6   7   2   15.87    0.66
  -5  -7   2   12.74    0.48
   5  -7  -2   12.17    0.45
  -5   7   2   12.59    0.54
   4  -7  -2   15.75    0.50
  -4  -7   2   14.42    0.52
  -4   7   2   14.32    0.58
  -3  -7   2   78.94    2.26
   3  -7  -2   83.18    2.14
  -3   7   2   80.60    2.34
  -2  -7   2    8.59    0.37
  -2  -7   2    8.41    0.32
   2  -7  -2    8.49    0.30
  -2   7   2    8.45    0.38
  -1  -7   2    4.50    0.24
  -1  -7   2    4.47    0.20
  -1   7   2    4.82    0.27
   0  -7   2    9.96    0.39
   0  -7   2    9.56    0.34
   0   7   2    9.86    0.42
  -1  -7  -2   16.25    0.61
   1  -7   2   17.10    0.57
   2  -7   2    9.44    0.39
  -2  -7  -2    8.85    0.40
   2  -7   2    9.20    0.36
  -3  -7  -2    6.01    0.33
   3  -7   2    6.63    0.28
   3  -7   2    6.69    0.32
  -4  -7  -2    5.76    0.31
   4  -7   2    5.20    0.29
   5  -7   2   11.94    0.49
  -5  -7  -2   11.59    0.49
  -6  -7  -2    5.84    0.35
   6  -7   2    5.55    0.33
  -7  -7  -2    7.90    0.43
   7  -7   2    8.02    0.42
   8  -7   2    2.38    0.28
   9  -8  -2    2.57    0.29
   8  -8  -2    5.26    0.33
  -8  -8   2    5.40    0.35
  -7  -8   2    2.09    0.23
   7  -8  -2    1.63    0.19
  -7   8   2    2.22    0.27
   6  -8  -2   13.01    0.50
  -6  -8   2   12.68    0.53
  -6   8   2   13.98    0.61
   5  -8  -2   15.55    0.53
  -5  -8   2   14.76    0.56
  -5   8   2   15.02    0.63
  -4  -8   2   14.38    0.52
   4  -8  -2   14.56    0.49
  -4   8   2   13.50    0.58
  -3  -8   2   27.26    0.84
   3  -8  -2   25.86    0.78
  -3   8   2   26.25    0.91
  -2  -8   2  151.35    4.22
  -2  -8   2  153.82    4.13
   2  -8  -2  149.74    3.92
  -2   8   2  151.53    4.22
  -1  -8   2   45.45    1.42
  -1  -8   2   47.94    1.36
  -1   8   2   47.76    1.45
   0  -8   2   46.41    1.34
   0  -8   2   47.19    1.41
   0  -8  -2   45.93    1.42
   0   8   2   46.66    1.43
   1  -8   2    6.00    0.29
  -1  -8  -2    6.39    0.33
   2  -8   2    6.42    0.32
  -2  -8  -2    5.73    0.32
   2  -8   2    6.23    0.29
  -3  -8  -2    4.82    0.29
   3  -8   2    5.26    0.29
   4  -8   2    6.80    0.34
  -4  -8  -2    6.83    0.36
  -5  -8  -2    3.89    0.28
   5  -8   2    3.74    0.26
  -6  -8  -2    0.28    0.13
   6  -8   2    0.40    0.13
   7  -8   2    0.44    0.15
   9  -9  -2    1.81    0.25
   8  -9  -2    1.90    0.24
  -8  -9   2    1.72    0.24
   7  -9  -2    3.57    0.26
  -7  -9   2    3.04    0.27
  -6  -9   2    6.81    0.38
   6  -9  -2    7.31    0.35
  -6   9   2    7.33    0.43
  -5  -9   2    7.58    0.37
   5  -9  -2    8.05    0.35
  -5   9   2    8.07    0.44
  -4  -9   2   23.02    0.77
   4  -9  -2   22.53    0.71
  -4   9   2   22.53    0.84
  -3  -9   2   25.25    0.84
   3  -9  -2   27.30    0.79
  -3   9   2   26.70    0.93
  -2  -9   2   19.85    0.72
  -2  -9   2   19.29    0.64
  -2   9   2   18.39    0.72
  -1  -9   2    8.18    0.34
  -1  -9   2    8.66    0.41
  -1   9   2    8.76    0.42
   0  -9  -2    9.00    0.43
   0  -9   2    9.35    0.41
  -1  -9  -2   16.76    0.66
   1  -9   2   17.79    0.63
  -2  -9  -2   29.06    0.97
   2  -9   2   27.73    0.92
   2  -9   2   28.76    0.92
   3  -9   2    6.01    0.33
  -3  -9  -2    6.60    0.35
   4  -9   2   11.15    0.48
  -4  -9  -2   11.13    0.50
  -5  -9  -2    0.65    0.15
   5  -9   2    0.71    0.15
   6  -9   2    0.28    0.12
  -6  -9  -2    0.17    0.13
   7  -9   2    0.11    0.13
   9 -10  -2    2.75    0.31
   8 -10  -2    3.20    0.31
  -7 -10   2    0.02    0.13
   7 -10  -2   -0.04    0.09
   6 -10  -2    1.78    0.20
  -6 -10   2    1.68    0.21
  -5 -10   2    8.88    0.43
   5 -10  -2   10.19    0.41
  -5  10   2    9.92    0.51
   4 -10  -2   15.35    0.55
  -4 -10   2   16.23    0.60
  -4  10   2   17.03    0.69
  -3 -10   2    1.00    0.17
  -3 -10   2    1.19    0.15
  -3  10   2    1.51    0.21
  -2 -10   2    6.80    0.37
  -2 -10   2    6.22    0.30
  -2  10   2    6.27    0.37
  -1 -10   2   12.01    0.51
  -1 -10   2   11.92    0.46
  -1  10   2   12.09    0.53
   0 -10   2    9.95    0.45
   0 -10  -2    9.84    0.46
   1 -10   2   18.91    0.67
  -1 -10  -2   17.75    0.70
  -2 -10  -2   23.41    0.84
   2 -10   2   22.12    0.78
   2 -10   2   22.75    0.78
  -3 -10  -2   20.54    0.78
   3 -10   2   21.04    0.75
  -4 -10  -2    3.37    0.28
   4 -10   2    3.06    0.24
  -5 -10  -2    0.98    0.18
   5 -10   2    0.97    0.17
   6 -10   2    0.68    0.17
   7 -10   2    0.71    0.18
   8 -11  -2    0.55    0.18
   7 -11  -2    7.29    0.39
  -6 -11   2    5.43    0.35
   6 -11  -2    5.29    0.31
  -5 -11   2    4.61    0.30
  -4 -11   2   10.00    0.51
  -4 -11   2    9.37    0.43
  -4  11   2   10.59    0.52
  -3 -11   2   16.47    0.62
  -3 -11   2   16.17    0.69
  -3  11   2   18.10    0.72
  -2 -11   2    3.95    0.29
  -2 -11   2    4.36    0.25
  -2  11   2    3.72    0.29
   1 -11  -2    1.47    0.20
  -1 -11   2    1.90    0.22
  -1  11   2    2.02    0.24
   0 -11   2    4.18    0.28
   0 -11  -2    4.72    0.32
  -1 -11  -2   11.08    0.51
   1 -11   2   10.83    0.48
   2 -11   2    0.84    0.16
  -2 -11  -2    0.68    0.15
  -3 -11  -2    0.66    0.16
   3 -11   2    0.50    0.14
   4 -11   2    3.36    0.27
  -4 -11  -2    3.11    0.27
   5 -11   2    4.54    0.32
   6 -11   2    7.10    0.42
  -7 -12   2    0.48    0.18
  -6 -12   2    2.85    0.29
  -6 -12   2    2.69    0.31
  -5 -12   2    1.56    0.21
  -5 -12   2    1.46    0.24
  -4 -12   2    2.20    0.27
  -4 -12   2    2.61    0.23
  -4  12   2    2.70    0.30
  -3 -12   2    2.44    0.21
  -3 -12   2    2.11    0.26
  -3  12   2    3.03    0.31
  -2 -12   2   10.71    0.54
  -2  12   2   11.84    0.56
   1 -12  -2    4.63    0.32
  -1 -12   2    4.22    0.31
   0 -12  -2    4.55    0.32
   0 -12   2    5.01    0.33
  -1 -12  -2    0.23    0.13
   1 -12   2    0.27    0.12
   2 -12   2    2.60    0.26
  -2 -12  -2    2.83    0.29
  -3 -12  -2    1.90    0.24
   3 -12   2    2.26    0.24
   4 -12   2    0.02    0.11
   5 -12   2    0.30    0.14
  -6 -13   2    1.53    0.25
  -5 -13   2    2.10    0.28
  -5 -13   2    1.90    0.24
  -4 -13   2    4.47    0.30
  -4 -13   2    3.71    0.33
  -3 -13   2    4.98    0.36
  -3  13   2    4.69    0.35
   2 -13  -2    2.16    0.25
  -2 -13   2    1.50    0.23
  -1 -13   2    4.41    0.32
   1 -13  -2    4.20    0.32
   0 -13   2    3.29    0.28
   0 -13  -2    3.35    0.28
   1 -13   2    4.28    0.31
  -1 -13  -2    4.34    0.33
  -2 -13  -2    0.84    0.19
   2 -13   2    1.15    0.19
   3 -13   2    3.90    0.30
   4 -13   2    0.29    0.15
  -5 -14   2    0.79    0.21
  -4 -14   2    0.97    0.21
  -3 -14   2    0.16    0.13
  -2 -14   2    0.15    0.13
   2 -14  -2    0.27    0.14
  -1 -14   2    0.40    0.15
   1 -14  -2    0.01    0.12
   0 -14  -2    1.69    0.25
   0 -14   2    2.00    0.25
   1 -14   2    4.47    0.32
   2 -14   2    4.89    0.34
   3 -14   2    0.99    0.21
  -3 -15   2    1.28    0.25
  -2 -15   2    1.15    0.23
  -1 -15   2    0.10    0.12
   0 -15   2   -0.14    0.12
   2 -15   2    0.29    0.15
 -10   0   3    2.52    0.28
  -9   0   3    8.35    0.43
  -8   0   3   37.50    1.21
  -7   0   3   60.44    1.79
  -6   0   3    0.34    0.09
  -5   0   3   22.64    0.64
  -5   0   3   21.68    0.71
  -4   0   3   53.80    1.46
  -4   0   3   51.99    1.51
  -3   0   3    0.02    0.04
  -3   0   3    0.05    0.03
  -2   0   3   11.95    0.39
  -2   0   3   12.01    0.38
  -1   0   3  541.30   14.39
  -1   0   3  534.24   14.48
   0   0   3  151.45    4.06
   0   0   3  147.99    4.01
   1   0   3    6.05    0.21
  -1   0  -3    5.80    0.21
  -2   0  -3   13.42    0.41
   2   0   3   12.85    0.45
   3   0   3   75.73    2.00
   3   0   3   77.31    2.13
  -3   0  -3   72.15    2.06
   4   0   3   48.45    1.35
   4   0   3   47.97    1.42
  -4   0  -3   46.76    1.36
   5   0   3   13.88    0.54
   5   0   3   14.67    0.53
   6   0   3    6.80    0.36
   7   0   3    0.04    0.11
   8   0   3    0.42    0.17
 -10  -1   3   13.34    0.61
 -10   1   3   13.86    0.63
  -9  -1   3    2.81    0.24
   9  -1  -3    2.63    0.29
  -9   1   3    2.92    0.25
   8  -1  -3    2.42    0.26
  -8  -1   3    2.66    0.22
  -8   1   3    2.90    0.23
   7  -1  -3   36.09    1.14
  -7  -1   3   35.84    1.12
  -7   1   3   35.63    1.14
   6  -1  -3   91.31    2.43
  -6  -1   3   88.64    2.49
  -6   1   3   85.52    2.50
  -5  -1   3   14.19    0.45
   5  -1  -3   14.26    0.50
  -5  -1   3   13.60    0.49
  -5   1   3   14.41    0.51
  -4  -1   3   68.81    1.87
  -4  -1   3   67.97    1.90
  -4   1   3   67.69    1.92
  -4   1   3   66.86    1.84
  -3  -1   3   16.17    0.53
  -3   1   3   16.85    0.55
  -3   1   3   17.58    0.50
  -2  -1   3   19.73    0.58
  -2  -1   3   19.24    0.57
  -2   1   3   18.34    0.59
  -1  -1   3  153.67    4.36
  -1  -1   3  165.24    4.41
  -1   1   3  163.45    4.41
  -1   1   3  170.88    4.40
   0  -1   3  110.61    3.02
   0  -1   3  117.18    3.08
   0   1   3  111.26    3.09
   0   1   3  112.79    3.06
   1  -1   3  232.01    5.99
  -1  -1  -3  221.15    5.94
   1  -1   3  224.94    5.67
  -1   1  -3  224.07    5.90
   1   1   3  211.82    6.00
   1   1   3  218.74    5.64
  -2  -1  -3   29.87    0.84
   2  -1   3   29.62    0.82
   2  -1   3   29.44    0.87
  -2   1  -3   27.78    0.81
   2   1   3   27.65    0.88
   2   1   3   28.75    0.80
  -3  -1  -3    5.73    0.23
   3  -1   3    5.70    0.25
   3  -1   3    5.74    0.26
   3   1   3    5.40    0.27
   3   1   3    5.17    0.23
  -3   1  -3    5.43    0.22
   4  -1   3   42.84    1.27
  -4  -1  -3   44.33    1.23
   4  -1   3   40.28    1.20
   4   1   3   40.99    1.28
   5  -1   3   32.86    1.01
  -5  -1  -3   33.34    1.02
   5   1   3   32.45    1.06
   5   1   3   33.48    1.02
   6  -1   3    6.90    0.36
   6   1   3    6.76    0.36
   7  -1   3    0.54    0.16
   7   1   3    0.63    0.16
   8  -1   3    4.49    0.34
   9  -1   3    1.13    0.23
 -10  -2   3    0.12    0.14
  10  -2  -3    0.07    0.13
 -10   2   3    0.35    0.16
   9  -2  -3    2.60    0.29
  -9  -2   3    2.57    0.26
  -9   2   3    2.42    0.26
  -8  -2   3    3.30    0.24
   8  -2  -3    3.32    0.27
  -8   2   3    3.70    0.27
  -7  -2   3    0.00    0.07
   7  -2  -3    0.14    0.09
  -7   2   3   -0.14    0.08
  -6  -2   3   70.30    1.99
  -6  -2   3   69.99    2.02
   6  -2  -3   71.55    1.97
  -6   2   3   71.62    2.06
  -5  -2   3  220.45    5.99
   5  -2  -3  226.09    5.74
  -5  -2   3  225.88    6.00
  -5   2   3  216.04    6.03
  -4  -2   3  189.12    5.14
   4  -2  -3  194.10    4.92
  -4   2   3  189.12    5.18
   3  -2  -3  648.47   18.06
  -3  -2   3  730.16   19.17
  -3  -2   3  769.63   19.14
  -3   2   3  713.75   19.15
  -3   2   3  713.20   19.12
  -2  -2   3   27.51    0.82
  -2  -2   3   28.11    0.80
  -2   2   3   28.53    0.85
  -1  -2   3  132.03    3.43
  -1  -2   3  126.00    3.49
  -1   2   3  127.47    3.50
   0  -2   3  192.47    5.16
   0   2   3  193.06    5.15
   0   2   3  187.96    5.17
   1  -2   3  152.54    4.04
  -1  -2  -3  146.28    4.02
   1   2   3  147.75    3.79
   1   2   3  148.33    4.07
   2  -2   3    2.52    0.15
  -2  -2  -3    2.91    0.15
   2  -2   3    2.69    0.15
   2   2   3    2.81    0.18
  -2   2  -3    2.40    0.11
   2   2   3    2.73    0.14
   3  -2   3   13.57    0.45
   3  -2   3   14.05    0.46
  -3  -2  -3   11.21    0.43
   3   2   3   13.21    0.43
   3   2   3   12.94    0.49
   4  -2   3    8.89    0.34
  -4  -2  -3    7.13    0.32
   4  -2   3    7.50    0.33
   4   2   3    8.04    0.37
   4   2   3    8.16    0.34
   5  -2   3    0.37    0.10
  -5  -2  -3    0.19    0.09
   5   2   3    0.35    0.11
   6  -2   3    6.33    0.35
   6   2   3    6.83    0.37
   7  -2   3    8.64    0.44
   8  -2   3    2.12    0.27
   9  -2   3    0.74    0.21
  11  -3  -3    2.99    0.36
 -10  -3   3   17.21    0.73
  10  -3  -3   18.88    0.80
 -10   3   3   18.58    0.78
  -9  -3   3   11.08    0.50
   9  -3  -3   11.02    0.54
  -9   3   3   10.78    0.52
   8  -3  -3    4.58    0.30
  -8  -3   3    4.55    0.29
  -8   3   3    4.74    0.32
   7  -3  -3    0.47    0.12
  -7  -3   3    0.65    0.13
  -7   3   3    0.75    0.15
   6  -3  -3    2.39    0.18
  -6  -3   3    2.45    0.18
  -6  -3   3    2.26    0.16
  -6   3   3    2.53    0.20
  -5  -3   3    5.55    0.26
   5  -3  -3    5.90    0.26
  -5   3   3    4.63    0.27
   4  -3  -3   18.87    0.57
  -4  -3   3   19.05    0.59
  -4  -3   3   17.92    0.59
  -4   3   3   17.94    0.63
   3  -3  -3   48.24    1.29
  -3  -3   3   49.34    1.38
  -3  -3   3   48.68    1.36
  -3   3   3   46.98    1.34
  -3   3   3   48.06    1.42
  -2  -3   3  149.17    4.13
   2  -3  -3  151.80    3.93
  -2  -3   3  156.34    4.20
  -2   3   3  160.57    4.22
  -1  -3   3  144.49    3.86
  -1  -3   3  134.59    3.78
  -1   3   3  145.47    3.86
  -1   3   3  143.58    3.88
   0  -3   3  262.61    7.06
   0   3   3  258.26    7.08
   0   3   3  266.74    7.06
   1  -3   3   73.78    2.01
  -1  -3  -3   71.37    2.01
   1   3   3   70.38    2.04
  -2  -3  -3   30.25    0.91
   2  -3   3   30.15    0.90
   2  -3   3   30.00    0.88
   2   3   3   29.55    0.84
   2   3   3   30.24    0.95
  -3  -3  -3    2.63    0.17
   3  -3   3    2.33    0.17
   3  -3   3    2.66    0.17
   3   3   3    2.78    0.21
   3   3   3    2.91    0.17
  -4  -3  -3    0.60    0.10
   4  -3   3    0.75    0.11
   4  -3   3    0.59    0.11
   4   3   3    0.44    0.11
   4   3   3    0.47    0.10
   5  -3   3    1.15    0.15
  -5  -3  -3    1.00    0.14
   5   3   3    1.04    0.17
   6  -3   3    0.53    0.13
  -6  -3  -3    0.43    0.14
   7  -3   3    1.62    0.22
   8  -3   3    0.90    0.20
  11  -4  -3    2.65    0.34
  10  -4  -3   -0.01    0.14
 -10  -4   3   -0.04    0.12
 -10   4   3   -0.02    0.14
  -9  -4   3    9.75    0.47
   9  -4  -3    9.30    0.49
  -9   4   3    9.73    0.51
  -8  -4   3    8.80    0.42
   8  -4  -3    7.67    0.41
  -8   4   3    8.34    0.44
  -7  -4   3   44.77    1.37
   7  -4  -3   44.34    1.34
  -7  -4   3   45.29    1.35
  -7   4   3   43.98    1.42
  -6  -4   3   42.42    1.25
   6  -4  -3   41.08    1.21
  -6   4   3   40.00    1.30
  -5  -4   3   15.55    0.55
   5  -4  -3   16.60    0.54
  -5  -4   3   16.52    0.57
  -5   4   3   16.14    0.61
  -4  -4   3   20.36    0.66
   4  -4  -3   20.01    0.60
  -4  -4   3   19.53    0.63
  -4   4   3   19.95    0.70
   3  -4  -3   55.32    1.48
  -3  -4   3   57.50    1.61
  -3  -4   3   56.49    1.56
  -3   4   3   55.07    1.64
  -3   4   3   55.10    1.56
  -2  -4   3  173.47    4.68
  -2  -4   3  173.20    4.75
   2  -4  -3  178.24    4.44
  -2   4   3  173.95    4.77
  -1  -4   3  224.48    6.21
  -1  -4   3  226.29    6.11
  -1   4   3  227.94    6.21
  -1   4   3  240.46    6.21
   0  -4   3  205.21    5.49
   0   4   3  201.65    5.50
   0   4   3  201.58    5.51
   1  -4   3   50.87    1.47
  -1  -4  -3   51.33    1.50
   1   4   3   52.37    1.52
   2  -4   3   15.51    0.52
   2  -4   3   15.28    0.51
  -2  -4  -3   15.71    0.54
   2   4   3   15.17    0.57
   3  -4   3   53.36    1.51
  -3  -4  -3   53.40    1.56
   3  -4   3   53.57    1.54
   3   4   3   54.52    1.63
  -4  -4  -3   45.20    1.32
   4  -4   3   44.25    1.28
   4   4   3   42.73    1.39
  -5  -4  -3   11.16    0.46
   5  -4   3   11.18    0.47
   5   4   3   11.73    0.52
   6  -4   3    3.32    0.26
  -6  -4  -3    3.94    0.27
   7  -4   3    0.74    0.17
   8  -4   3    0.66    0.19
  11  -5  -3    0.93    0.23
  10  -5  -3    0.54    0.17
 -10   5   3    0.15    0.16
  -9  -5   3    1.89    0.23
   9  -5  -3    2.02    0.26
  -9   5   3    1.82    0.26
   8  -5  -3   13.99    0.58
  -8  -5   3   14.74    0.60
  -8   5   3   14.19    0.64
   7  -5  -3    1.07    0.16
  -7  -5   3    1.21    0.17
  -7   5   3    1.28    0.20
   6  -5  -3   38.73    1.12
  -6  -5   3   36.58    1.15
  -6  -5   3   37.22    1.17
  -6   5   3   37.93    1.24
  -5  -5   3    6.63    0.29
  -5  -5   3    5.76    0.29
   5  -5  -3    6.49    0.28
  -5   5   3    5.78    0.33
  -4  -5   3   67.09    1.91
   4  -5  -3   70.06    1.81
  -4  -5   3   69.90    1.96
  -4   5   3   64.25    1.99
  -3  -5   3   41.98    1.26
   3  -5  -3   39.62    1.13
  -3  -5   3   43.20    1.20
  -3   5   3   43.85    1.30
  -2  -5   3  114.83    3.19
  -2  -5   3  115.90    3.11
   2  -5  -3  111.26    2.95
  -2   5   3  119.30    3.22
  -1  -5   3   25.27    0.71
  -1  -5   3   24.68    0.78
  -1   5   3   24.94    0.79
  -1   5   3   24.80    0.82
   0  -5   3   26.59    0.75
   0  -5   3   28.99    0.85
   0   5   3   26.50    0.86
   0   5   3   27.05    0.88
  -1  -5  -3   13.70    0.51
   1  -5   3   14.21    0.49
   1   5   3   14.77    0.54
   2  -5   3   50.05    1.41
   2  -5   3   47.58    1.38
  -2  -5  -3   48.10    1.44
   2   5   3   49.36    1.49
   3  -5   3   65.43    1.80
   3  -5   3   62.05    1.76
  -3  -5  -3   62.69    1.83
   3   5   3   61.46    1.89
  -4  -5  -3    3.37    0.22
   4  -5   3    3.28    0.23
  -5  -5  -3    5.99    0.31
   5  -5   3    5.45    0.31
  -6  -5  -3    2.24    0.23
   6  -5   3    1.96    0.23
   7  -5   3    2.72    0.27
  -7  -5  -3    3.12    0.30
   8  -5   3    0.22    0.14
  10  -6  -3    1.28    0.23
  -9  -6   3    0.84    0.19
   9  -6  -3    0.98    0.19
  -9   6   3    0.79    0.20
   8  -6  -3    1.38    0.20
  -8  -6   3    1.10    0.18
  -8   6   3    1.37    0.22
   7  -6  -3    0.47    0.12
  -7  -6   3    0.47    0.13
  -7  -6   3    0.52    0.13
  -7   6   3    0.55    0.16
  -6  -6   3   30.22    1.00
  -6  -6   3   30.14    0.96
   6  -6  -3   30.46    0.93
  -6   6   3   29.32    1.04
   5  -6  -3  132.60    3.49
  -5  -6   3  136.02    3.67
  -5  -6   3  132.65    3.73
  -5   6   3  130.90    3.76
  -4  -6   3  117.80    3.18
  -4  -6   3  112.69    3.25
   4  -6  -3  117.08    3.02
  -4   6   3  114.82    3.28
  -3  -6   3  111.45    2.87
  -3  -6   3  106.54    2.95
   3  -6  -3   97.69    2.71
  -3   6   3  103.53    2.97
  -2  -6   3   13.75    0.51
  -2  -6   3   14.02    0.44
   2  -6  -3   13.62    0.40
  -2   6   3   14.03    0.54
  -1  -6   3   29.88    0.88
  -1  -6   3   32.41    0.97
  -1   6   3   30.98    1.00
   0  -6   3    1.88    0.15
   0   6   3    1.90    0.19
  -1  -6  -3    3.20    0.22
   1  -6   3    3.71    0.20
   2  -6   3    1.79    0.15
  -2  -6  -3    1.95    0.19
   2  -6   3    1.65    0.17
   3  -6   3   11.78    0.47
  -3  -6  -3   12.17    0.49
   3  -6   3   11.32    0.43
  -4  -6  -3    1.19    0.16
   4  -6   3    0.95    0.15
  -5  -6  -3    5.15    0.30
   5  -6   3    5.14    0.31
   6  -6   3    4.99    0.32
  -6  -6  -3    4.73    0.31
  -7  -6  -3    5.38    0.35
   7  -6   3    5.27    0.35
   8  -6   3    2.63    0.29
  10  -7  -3    2.18    0.28
   9  -7  -3    3.04    0.31
  -9  -7   3    3.01    0.31
  -9   7   3    2.80    0.34
  -8  -7   3    7.07    0.39
  -8  -7   3    6.32    0.38
   8  -7  -3    6.22    0.36
  -8   7   3    7.26    0.44
  -7  -7   3    7.57    0.39
   7  -7  -3    8.26    0.39
  -7  -7   3    8.11    0.42
  -7   7   3    8.21    0.47
  -6  -7   3   16.02    0.63
   6  -7  -3   16.12    0.57
  -6  -7   3   15.64    0.59
  -6   7   3   16.25    0.68
  -5  -7   3    3.79    0.23
  -5  -7   3    3.54    0.25
   5  -7  -3    4.15    0.22
  -5   7   3    3.39    0.27
  -4  -7   3   29.75    0.93
   4  -7  -3   30.98    0.87
  -4  -7   3   30.04    1.00
  -4   7   3   30.05    1.03
   3  -7  -3    0.34    0.06
  -3  -7   3    0.28    0.08
  -3  -7   3    0.32    0.09
  -3   7   3    0.71    0.15
  -2  -7   3   82.96    2.38
  -2  -7   3   82.39    2.28
  -2   7   3   83.54    2.41
  -1  -7   3    8.87    0.31
  -1  -7   3    9.20    0.39
  -1   7   3    8.65    0.41
   0  -7   3   10.28    0.42
   0   7   3   11.01    0.46
  -1  -7  -3   20.02    0.72
   1  -7   3   20.17    0.68
   2  -7   3  106.22    2.91
   2  -7   3  106.53    3.00
  -2  -7  -3  110.48    3.06
   3  -7   3   18.86    0.64
  -3  -7  -3   18.68    0.69
   3  -7   3   19.23    0.67
  -4  -7  -3    2.98    0.23
   4  -7   3    2.62    0.21
   5  -7   3    1.48    0.19
  -5  -7  -3    1.27    0.19
  -6  -7  -3    2.00    0.24
   6  -7   3    1.64    0.21
   7  -7   3    0.37    0.15
  10  -8  -3    0.08    0.13
   9  -8  -3    8.91    0.48
   8  -8  -3   11.36    0.52
  -8  -8   3   10.84    0.54
  -8  -8   3   12.18    0.55
  -8   8   3   11.44    0.60
  -7  -8   3   13.93    0.61
  -7  -8   3   13.53    0.57
   7  -8  -3   13.49    0.54
  -7   8   3   14.74    0.67
   6  -8  -3    6.52    0.31
  -6  -8   3    6.27    0.37
  -6  -8   3    6.02    0.33
  -6   8   3    6.92    0.41
  -5  -8   3    0.10    0.09
  -5  -8   3    0.26    0.11
   5  -8  -3    0.19    0.08
  -5   8   3    0.40    0.14
   4  -8  -3   17.03    0.54
  -4  -8   3   17.25    0.59
  -4  -8   3   17.27    0.66
  -4   8   3   16.74    0.68
  -3  -8   3   19.29    0.63
  -3  -8   3   19.84    0.71
  -3   8   3   19.14    0.73
  -2  -8   3    4.72    0.22
  -2  -8   3    3.66    0.26
  -2   8   3    4.27    0.29
  -1  -8   3   77.55    2.24
  -1   8   3   77.13    2.28
   0  -8  -3   37.27    1.20
   0  -8   3   38.27    1.16
   0   8   3   36.40    1.20
  -1  -8  -3    5.20    0.31
   1  -8   3    5.23    0.27
  -2  -8  -3   22.54    0.80
   2  -8   3   21.60    0.74
   2  -8   3   22.80    0.76
   3  -8   3   18.56    0.68
  -3  -8  -3   19.11    0.71
   4  -8   3   19.81    0.72
  -4  -8  -3   20.69    0.76
  -5  -8  -3    2.99    0.26
   5  -8   3    2.87    0.27
  -6  -8  -3    1.10    0.19
   6  -8   3    1.78    0.23
   7  -8   3    0.43    0.16
   9  -9  -3    2.89    0.30
  -8  -9   3   11.48    0.57
  -8  -9   3   11.24    0.55
   8  -9  -3   12.46    0.54
   7  -9  -3    8.34    0.40
  -7  -9   3    8.11    0.45
  -7  -9   3    8.34    0.43
  -7   9   3    8.31    0.50
  -6  -9   3    7.42    0.41
   6  -9  -3    6.98    0.33
  -6  -9   3    6.87    0.36
  -6   9   3    6.27    0.42
  -5  -9   3    1.25    0.17
  -5  -9   3    1.10    0.18
  -5   9   3    1.06    0.19
  -4  -9   3    1.09    0.17
  -4  -9   3    1.01    0.14
  -4   9   3    1.20    0.19
  -3  -9   3    6.12    0.35
  -3  -9   3    6.35    0.29
  -3   9   3    6.56    0.37
  -2  -9   3   98.32    2.62
  -2  -9   3   92.87    2.73
  -2   9   3   91.90    2.75
  -1  -9   3   21.45    0.77
  -1   9   3   22.62    0.82
   0  -9   3   10.41    0.44
   0  -9  -3   10.62    0.48
  -1  -9  -3    5.01    0.32
   1  -9   3    5.11    0.28
  -2  -9  -3    6.51    0.36
   2  -9   3    6.51    0.35
   2  -9   3    6.74    0.33
  -3  -9  -3    8.41    0.43
   3  -9   3    8.06    0.40
   4  -9   3    2.09    0.23
  -4  -9  -3    2.31    0.24
   5  -9   3    1.22    0.19
  -5  -9  -3    1.26    0.19
   6  -9   3    2.08    0.25
   9 -10  -3   -0.15    0.11
   8 -10  -3    0.58    0.17
  -8 -10   3    0.71    0.19
  -7 -10   3    0.07    0.13
  -7 -10   3    0.19    0.13
  -7  10   3    0.03    0.14
  -6 -10   3    5.42    0.36
  -6 -10   3    4.63    0.31
  -6  10   3    5.11    0.38
  -5 -10   3   45.76    1.49
  -5 -10   3   46.74    1.41
  -5  10   3   44.30    1.52
  -4 -10   3   27.34    0.98
  -4 -10   3   27.16    0.89
  -4  10   3   26.57    1.00
  -3 -10   3   12.58    0.56
  -3 -10   3   13.11    0.49
  -3  10   3   13.67    0.60
  -2 -10   3    6.50    0.36
  -2  10   3    6.70    0.39
  -1 -10   3    8.84    0.42
  -1  10   3    8.27    0.44
   0 -10  -3    2.82    0.25
   0 -10   3    2.58    0.24
  -1 -10  -3   11.54    0.52
   1 -10   3   11.02    0.48
   2 -10   3    1.30    0.17
  -2 -10  -3    0.82    0.17
   2 -10   3    0.66    0.15
   3 -10   3    0.53    0.15
  -3 -10  -3    0.88    0.17
   4 -10   3    1.63    0.21
  -4 -10  -3    1.15    0.20
   5 -10   3    1.11    0.19
   6 -10   3    3.91    0.31
  -8 -11   3    1.36    0.23
  -7 -11   3    0.60    0.18
  -7 -11   3    0.75    0.19
  -6 -11   3    3.83    0.29
  -6 -11   3    4.32    0.33
  -6  11   3    4.41    0.37
  -5 -11   3    0.19    0.12
  -5 -11   3    0.33    0.15
  -5  11   3    0.48    0.17
  -4 -11   3    8.52    0.47
  -4 -11   3    8.92    0.41
  -4  11   3    8.68    0.49
  -3 -11   3    2.32    0.26
  -3  11   3    2.55    0.28
  -2 -11   3    2.29    0.24
  -2  11   3    2.08    0.25
   1 -11  -3    1.10    0.19
  -1 -11   3    1.05    0.17
  -1  11   3    1.27    0.20
   0 -11   3   13.43    0.56
   0 -11  -3   13.06    0.59
   1 -11   3    5.63    0.32
  -1 -11  -3    5.00    0.35
   2 -11   3   14.29    0.59
  -2 -11  -3   13.20    0.60
  -3 -11  -3    6.34    0.40
   3 -11   3    6.83    0.38
   4 -11   3    0.16    0.12
  -4 -11  -3    0.33    0.14
   5 -11   3    0.67    0.17
  -8 -12   3    0.37    0.18
  -7 -12   3    3.13    0.35
  -6 -12   3    3.07    0.34
  -6 -12   3    3.30    0.29
  -5 -12   3    1.19    0.22
  -5 -12   3    1.17    0.18
  -5  12   3    1.12    0.22
  -4 -12   3    1.03    0.19
  -4  12   3    1.04    0.22
  -3 -12   3    2.65    0.29
  -3  12   3    2.72    0.30
  -2 -12   3    6.20    0.38
  -2  12   3    6.34    0.41
   1 -12  -3   13.16    0.59
  -1 -12   3   11.99    0.56
   0 -12   3    7.21    0.38
   0 -12  -3    6.01    0.39
  -1 -12  -3    6.96    0.42
   1 -12   3    7.20    0.39
   2 -12   3    0.30    0.13
  -2 -12  -3    0.63    0.17
   3 -12   3    7.40    0.42
   4 -12   3    1.64    0.23
  -6 -13   3    1.25    0.24
  -5 -13   3    0.31    0.15
  -4 -13   3    1.05    0.21
  -4  13   3    1.14    0.23
  -3 -13   3    2.11    0.27
  -3  13   3    2.07    0.29
   2 -13  -3    3.57    0.31
  -2 -13   3    3.33    0.29
  -2  13   3    3.10    0.33
   1 -13  -3    1.84    0.25
  -1 -13   3    1.98    0.25
   0 -13  -3    1.84    0.26
   0 -13   3    2.25    0.25
   1 -13   3    2.04    0.25
  -1 -13  -3    2.17    0.27
   2 -13   3    2.04    0.26
   3 -13   3    0.46    0.17
   4 -13   3    1.57    0.24
  -5 -14   3    1.91    0.29
  -4 -14   3    2.36    0.31
  -3 -14   3    4.17    0.35
  -3  14   3    4.78    0.39
  -2 -14   3    2.81    0.31
   2 -14  -3    2.77    0.31
  -1 -14   3    1.11    0.21
   0 -14   3    1.86    0.25
   1 -14   3    0.65    0.18
   2 -14   3    0.02    0.13
  -3 -15   3   -0.01    0.13
  -2 -15   3    1.90    0.28
  -1 -15   3    1.67    0.26
   0 -15   3    2.79    0.31
   1 -15   3    3.06    0.33
 -10   0   4    0.61    0.18
  -9   0   4    0.13    0.11
  -8   0   4   15.02    0.60
  -7   0   4   30.66    1.00
  -6   0   4  174.26    4.78
  -5   0   4  161.21    4.48
  -5   0   4  166.30    4.42
  -4   0   4  150.75    4.04
  -4   0   4  147.93    4.07
  -3   0   4   44.89    1.31
  -3   0   4   47.97    1.34
  -2   0   4  102.58    2.79
  -2   0   4  101.09    2.79
  -1   0   4   97.56    2.68
  -1   0   4   98.91    2.70
   0   0   4   18.06    0.55
   0   0   4   18.49    0.59
   1   0   4   18.17    0.53
   1   0   4   17.24    0.60
  -1   0  -4   18.47    0.54
  -2   0  -4   36.39    1.02
   2   0   4   35.53    1.00
   2   0   4   36.20    1.10
   4   0   4   21.56    0.68
   4   0   4   20.41    0.73
   5   0   4   27.13    0.96
   5   0   4   30.27    0.92
   6   0   4    3.04    0.28
 -10  -1   4    3.75    0.30
 -10   1   4    3.32    0.29
  -9  -1   4   13.03    0.56
  -9   1   4   12.42    0.57
  -8  -1   4    2.75    0.23
  -8   1   4    2.41    0.24
  -7  -1   4    5.31    0.29
  -7   1   4    6.16    0.33
  -6  -1   4  107.51    2.85
  -6  -1   4  102.22    2.91
  -6   1   4  102.37    2.93
  -5  -1   4  144.50    3.98
  -5  -1   4  144.09    4.02
  -5   1   4  151.99    3.95
  -5   1   4  146.40    4.05
  -4  -1   4   60.94    1.72
  -4  -1   4   63.38    1.75
  -4   1   4   61.09    1.77
  -4   1   4   61.33    1.70
  -3  -1   4  221.35    5.72
  -3  -1   4  222.74    5.70
  -3   1   4  185.14    5.70
  -3   1   4  219.69    5.74
  -2  -1   4   29.61    0.85
  -2  -1   4   29.95    0.87
  -2   1   4   29.00    0.86
  -2   1   4   28.76    0.88
  -1  -1   4   97.75    2.70
  -1  -1   4  100.34    2.75
  -1   1   4  100.63    2.75
  -1   1   4  101.55    2.74
   0  -1   4   24.95    0.72
   0  -1   4   25.52    0.78
   0   1   4   25.47    0.76
   0   1   4   25.92    0.69
   0   1   4   25.20    0.79
  -1  -1  -4   72.03    2.04
   1  -1   4   76.97    2.09
   1   1   4   74.99    2.10
   1   1   4   72.60    1.92
  -1   1  -4   72.81    1.99
   2  -1   4   16.88    0.59
   2  -1   4   17.63    0.55
  -2  -1  -4   18.05    0.55
   2   1   4   17.06    0.61
   2   1   4   17.79    0.53
   3  -1   4    7.25    0.32
   3  -1   4    6.75    0.29
  -3  -1  -4    6.59    0.27
   3   1   4    6.96    0.34
   3   1   4    7.35    0.29
   4  -1   4   17.09    0.63
   4  -1   4   17.70    0.60
   4   1   4   18.12    0.60
   4   1   4   17.90    0.66
   5  -1   4    8.99    0.40
   5   1   4    8.93    0.42
   6  -1   4    2.80    0.26
   7  -1   4    2.80    0.29
 -10  -2   4   16.59    0.69
 -10   2   4   16.66    0.73
  -9  -2   4    6.38    0.37
  -9   2   4    6.97    0.40
   8  -2  -4    2.44    0.25
  -8  -2   4    1.95    0.21
  -8   2   4    1.92    0.22
  -7  -2   4    6.64    0.33
   7  -2  -4    6.38    0.34
  -7   2   4    6.93    0.36
  -6  -2   4   54.95    1.64
   6  -2  -4   56.52    1.61
  -6  -2   4   57.98    1.60
  -6   2   4   55.73    1.69
  -5  -2   4   61.45    1.70
  -5  -2   4   58.74    1.71
  -5   2   4   59.47    1.76
  -4  -2   4   13.28    0.45
  -4  -2   4   13.24    0.45
  -4   2   4   13.33    0.41
  -4   2   4   13.47    0.50
  -3  -2   4    7.15    0.27
  -3  -2   4    6.62    0.27
  -3   2   4    7.20    0.26
  -3   2   4    7.25    0.31
  -2  -2   4   13.18    0.44
  -2  -2   4   12.98    0.41
  -2   2   4   12.80    0.46
  -2   2   4   13.18    0.43
  -1  -2   4   22.27    0.62
  -1  -2   4   22.10    0.68
  -1   2   4   21.03    0.68
  -1   2   4   21.05    0.68
   0  -2   4   70.85    2.07
   0   2   4   75.18    2.10
   0   2   4   76.52    2.08
   1  -2   4  256.21    6.59
   1  -2   4  251.87    6.26
  -1  -2  -4  211.23    6.54
   1   2   4  254.91    6.19
   1   2   4  244.61    6.62
  -2  -2  -4  103.33    2.82
   2  -2   4  101.39    2.70
   2  -2   4  102.98    2.85
   2   2   4  104.58    2.66
   2   2   4   99.03    2.88
  -3  -2  -4   15.50    0.51
   3  -2   4   13.80    0.50
   3  -2   4   15.25    0.53
   3   2   4   15.28    0.49
   3   2   4   13.92    0.56
   4  -2   4    0.82    0.13
  -4  -2  -4    1.07    0.13
   4  -2   4    0.84    0.13
   4   2   4    1.12    0.16
   5  -2   4    1.48    0.18
   5   2   4    1.56    0.20
   6  -2   4    0.64    0.15
   7  -2   4    0.37    0.16
   8  -2   4    0.84    0.19
 -10  -3   4    0.84    0.18
  10  -3  -4    0.89    0.20
 -10   3   4    0.86    0.20
   9  -3  -4    8.27    0.46
  -9  -3   4    8.89    0.44
  -9   3   4    8.29    0.46
  -8  -3   4   12.80    0.54
   8  -3  -4   13.34    0.57
  -8   3   4   13.79    0.59
  -7  -3   4   17.40    0.63
   7  -3  -4   17.37    0.64
  -7   3   4   17.87    0.69
  -6  -3   4   64.35    1.89
  -6  -3   4   65.41    1.87
   6  -3  -4   67.00    1.84
  -6   3   4   66.20    1.96
  -5  -3   4  111.12    3.12
   5  -3  -4  121.04    3.01
  -5  -3   4  108.22    3.12
  -5   3   4  112.26    3.19
   4  -3  -4   25.63    0.74
  -4  -3   4   25.86    0.77
  -4  -3   4   24.49    0.78
  -4   3   4   25.10    0.83
  -4   3   4   23.95    0.73
  -3  -3   4   16.10    0.55
  -3  -3   4   15.49    0.52
  -3   3   4   18.41    0.53
  -3   3   4   17.71    0.60
  -2  -3   4  141.99    3.85
  -2  -3   4  142.60    3.77
  -2   3   4  139.35    3.86
  -2   3   4  138.06    3.83
  -1  -3   4  145.66    3.85
  -1  -3   4  144.70    3.94
  -1   3   4  147.48    3.96
  -1   3   4  139.42    3.95
   0  -3   4    9.06    0.36
   0   3   4    9.51    0.38
   0   3   4    9.97    0.38
  -1  -3  -4   20.92    0.69
   1  -3   4   21.92    0.69
   1   3   4   21.07    0.72
   2  -3   4   28.49    0.87
  -2  -3  -4   27.38    0.86
   2  -3   4   26.74    0.83
   2   3   4   28.24    0.92
   3  -3   4   16.85    0.60
   3  -3   4   18.26    0.59
  -3  -3  -4   17.76    0.59
   3   3   4   16.42    0.64
  -4  -3  -4    4.83    0.25
   4  -3   4    5.70    0.28
   4  -3   4    4.71    0.27
   4   3   4    4.27    0.29
   5  -3   4    4.05    0.26
   5   3   4    3.66    0.28
   6  -3   4    3.92    0.27
   6   3   4    3.53    0.30
   7  -3   4    2.51    0.27
   8  -3   4    0.65    0.18
  11  -4  -4    3.73    0.39
 -10  -4   4    0.71    0.18
  10  -4  -4    0.91    0.20
 -10   4   4    0.68    0.20
  -9  -4   4    4.67    0.31
   9  -4  -4    4.71    0.35
  -9   4   4    4.62    0.36
   8  -4  -4   23.39    0.84
  -8  -4   4   23.34    0.83
  -8   4   4   24.52    0.91
  -7  -4   4   13.05    0.51
   7  -4  -4   12.42    0.51
  -7  -4   4   13.28    0.50
  -7   4   4   13.14    0.57
  -6  -4   4    1.68    0.15
  -6  -4   4    2.34    0.18
   6  -4  -4    2.41    0.18
  -6   4   4    1.79    0.21
  -5  -4   4    1.01    0.13
  -5  -4   4    1.09    0.13
   5  -4  -4    1.24    0.13
  -5   4   4    0.81    0.14
  -4  -4   4   32.90    1.03
   4  -4  -4   34.92    0.96
  -4  -4   4   34.31    1.01
  -4   4   4   34.08    0.97
  -4   4   4   32.74    1.08
   3  -4  -4  113.06    2.84
  -3  -4   4  107.78    2.99
  -3  -4   4  112.26    3.05
  -3   4   4  107.37    3.01
  -3   4   4  108.85    3.08
  -2  -4   4  118.21    3.27
  -2  -4   4  116.10    3.19
  -2   4   4  119.39    3.30
  -2   4   4  120.35    3.26
  -1  -4   4   93.09    2.42
  -1  -4   4   88.00    2.52
  -1   4   4   89.63    2.55
  -1   4   4   89.78    2.53
   0  -4   4    3.52    0.20
   0   4   4    4.40    0.23
   0   4   4    3.30    0.21
   1  -4   4    8.77    0.34
  -1  -4  -4    7.88    0.35
   1   4   4    8.02    0.37
   2  -4   4    4.72    0.25
  -2  -4  -4    4.94    0.26
   2  -4   4    4.85    0.24
   2   4   4    4.37    0.28
  -3  -4  -4   11.70    0.46
   3  -4   4   12.39    0.46
   3  -4   4   12.08    0.46
   3   4   4   12.44    0.52
   4  -4   4   22.29    0.74
  -4  -4  -4   22.78    0.74
   4   4   4   20.91    0.81
   5  -4   4    7.40    0.37
  -5  -4  -4    7.40    0.36
   5   4   4    7.39    0.42
   6  -4   4    1.31    0.19
   7  -4   4    1.20    0.20
   8  -4   4    0.38    0.18
  11  -5  -4    0.87    0.22
 -10  -5   4    0.71    0.17
  10  -5  -4    0.90    0.21
 -10   5   4    0.61    0.20
   9  -5  -4    8.56    0.46
  -9  -5   4    8.18    0.43
  -9   5   4    7.93    0.48
   8  -5  -4    5.65    0.34
  -8  -5   4    5.90    0.33
  -8   5   4    5.57    0.38
  -7  -5   4    6.78    0.34
   7  -5  -4    6.63    0.34
  -7   5   4    6.86    0.40
  -6  -5   4   18.00    0.65
   6  -5  -4   19.21    0.64
  -6  -5   4   19.95    0.68
  -6   5   4   18.40    0.73
   5  -5  -4   64.11    1.72
  -5  -5   4   62.89    1.83
  -5  -5   4   61.63    1.80
  -5   5   4   61.90    1.90
  -4  -5   4   89.57    2.50
   4  -5  -4   89.51    2.38
  -4  -5   4   90.72    2.56
  -4   5   4   91.29    2.61
  -3  -5   4  116.86    3.21
  -3  -5   4  118.08    3.28
   3  -5  -4  114.49    3.04
  -3   5   4  119.93    3.25
  -3   5   4  120.97    3.33
  -2  -5   4   72.85    2.06
  -2  -5   4   75.80    2.15
  -2   5   4   76.82    2.14
  -2   5   4   76.96    2.19
  -1  -5   4   79.69    2.24
  -1   5   4   78.85    2.25
  -1   5   4   79.03    2.28
   0  -5   4    9.66    0.38
   0   5   4   10.21    0.42
   0   5   4   10.02    0.42
  -1  -5  -4    5.23    0.28
   1  -5   4    5.43    0.26
   1   5   4    5.42    0.30
   2  -5   4   10.32    0.43
   2  -5   4   10.07    0.41
  -2  -5  -4   10.93    0.44
   2   5   4   11.30    0.48
   3  -5   4   13.06    0.50
   3  -5   4   13.37    0.49
  -3  -5  -4   13.36    0.51
   3   5   4   13.05    0.57
  -4  -5  -4    4.78    0.27
   4  -5   4    4.86    0.28
   4   5   4    4.70    0.33
  -5  -5  -4    3.86    0.26
   5  -5   4    3.87    0.27
   6  -5   4    4.83    0.32
   7  -5   4    2.81    0.29
  11  -6  -4    1.92    0.30
  10  -6  -4    2.83    0.32
 -10   6   4    2.55    0.33
   9  -6  -4    5.69    0.37
  -9  -6   4    6.43    0.38
  -9   6   4    6.63    0.44
   8  -6  -4    2.28    0.24
  -8  -6   4    2.31    0.25
  -8   6   4    2.35    0.30
   7  -6  -4    0.97    0.15
  -7  -6   4    0.65    0.14
  -7  -6   4    0.80    0.15
  -7   6   4    0.80    0.18
   6  -6  -4    0.78    0.12
  -6  -6   4    0.80    0.14
  -6  -6   4    0.81    0.14
  -6   6   4    0.79    0.16
  -5  -6   4    6.31    0.33
  -5  -6   4    6.68    0.31
   5  -6  -4    6.25    0.28
  -5   6   4    5.89    0.36
   4  -6  -4   61.03    1.63
  -4  -6   4   60.99    1.73
  -4  -6   4   61.20    1.80
  -4   6   4   59.71    1.84
  -3  -6   4   38.04    1.17
  -3  -6   4   37.29    1.09
  -3   6   4   38.14    1.21
  -2  -6   4    1.64    0.12
  -2  -6   4    1.22    0.14
  -2   6   4    1.15    0.16
  -2   6   4    1.52    0.15
  -1  -6   4   44.93    1.39
  -1   6   4   47.87    1.44
  -1   6   4   47.66    1.42
   0  -6   4  116.49    3.33
   0   6   4  123.84    3.38
   0   6   4  119.00    3.37
  -1  -6  -4   27.99    0.91
   1  -6   4   27.73    0.87
   1   6   4   25.55    0.92
   2  -6   4   43.83    1.32
  -2  -6  -4   45.72    1.38
   2  -6   4   45.48    1.34
   2   6   4   44.74    1.44
   3  -6   4   21.56    0.74
  -3  -6  -4   21.55    0.76
   3  -6   4   22.53    0.73
   3   6   4   20.83    0.82
   4  -6   4    6.84    0.35
  -4  -6  -4    6.67    0.35
   5  -6   4    2.97    0.24
  -5  -6  -4    3.23    0.25
  -6  -6  -4    2.53    0.26
   6  -6   4    2.71    0.27
   7  -6   4    0.07    0.13
  10  -7  -4    3.49    0.35
 -10   7   4    3.51    0.39
  -9  -7   4    6.22    0.39
   9  -7  -4    6.01    0.38
  -9   7   4    6.62    0.46
  -8  -7   4   10.09    0.47
   8  -7  -4    9.67    0.46
  -8  -7   4    9.11    0.46
  -8   7   4    8.80    0.52
  -7  -7   4   16.17    0.64
  -7  -7   4   15.46    0.61
   7  -7  -4   15.28    0.58
  -7   7   4   15.21    0.70
  -6  -7   4    2.30    0.20
   6  -7  -4    2.54    0.19
  -6  -7   4    2.60    0.25
  -6   7   4    1.96    0.25
  -5  -7   4   24.86    0.81
  -5  -7   4   25.23    0.87
  -5   7   4   24.26    0.91
  -4  -7   4   54.32    1.64
  -4  -7   4   53.81    1.56
  -4   7   4   53.52    1.68
  -3  -7   4   11.22    0.47
  -3  -7   4   12.03    0.42
  -3   7   4   11.94    0.52
  -2  -7   4    9.94    0.42
  -2   7   4    9.67    0.45
  -1  -7   4   14.29    0.54
  -1   7   4   14.06    0.58
   0  -7   4   21.95    0.74
   0   7   4   21.53    0.78
   1  -7   4    7.98    0.36
  -1  -7  -4    8.94    0.41
   2  -7   4   36.12    1.13
  -2  -7  -4   37.66    1.19
   2  -7   4   36.62    1.14
  -3  -7  -4    5.79    0.32
   3  -7   4    5.66    0.32
   4  -7   4    1.40    0.19
  -4  -7  -4    1.26    0.18
   5  -7   4    2.67    0.26
  -5  -7  -4    2.65    0.26
   6  -7   4    3.20    0.30
  -6  -7  -4    2.72    0.28
   7  -7   4    0.59    0.18
  10  -8  -4    0.70    0.18
   9  -8  -4    6.07    0.38
  -9  -8   4    4.80    0.36
  -9   8   4    6.26    0.45
  -8  -8   4   13.40    0.60
   8  -8  -4   13.19    0.57
  -8  -8   4   13.98    0.61
  -8   8   4   13.89    0.69
   7  -8  -4   13.73    0.54
  -7  -8   4   14.14    0.61
  -7  -8   4   13.72    0.57
  -7   8   4   13.93    0.67
  -6  -8   4    6.82    0.35
  -6  -8   4    7.76    0.40
  -6   8   4    7.62    0.45
  -5  -8   4    2.23    0.19
  -5  -8   4    2.52    0.22
  -5   8   4    2.81    0.29
  -4  -8   4   14.35    0.52
  -4  -8   4   14.36    0.59
  -4   8   4   15.31    0.63
  -3  -8   4   12.57    0.45
  -3  -8   4   12.50    0.52
  -3   8   4   13.02    0.56
  -2  -8   4   14.62    0.57
  -2   8   4   14.34    0.60
  -1  -8   4   75.43    2.18
  -1   8   4   73.85    2.22
   0  -8   4    1.71    0.18
   0  -8  -4    2.98    0.23
  -1  -8  -4    4.27    0.29
   1  -8   4    4.72    0.27
   2  -8   4    2.88    0.21
  -2  -8  -4    2.92    0.24
   2  -8   4    2.66    0.25
   3  -8   4    6.51    0.36
  -3  -8  -4    6.38    0.36
   4  -8   4    8.45    0.42
  -4  -8  -4    8.42    0.43
  -5  -8  -4    2.95    0.28
   5  -8   4    2.78    0.27
   6  -8   4    3.08    0.30
  10  -9  -4    0.09    0.14
  -9   9   4    1.63    0.29
  -8  -9   4    9.08    0.50
  -8  -9   4    9.36    0.49
  -8   9   4    9.18    0.56
  -7  -9   4   11.74    0.55
  -7  -9   4   11.60    0.51
  -7   9   4   10.53    0.59
  -6  -9   4    7.20    0.38
  -6  -9   4    7.81    0.42
  -6   9   4    7.84    0.47
  -5  -9   4   32.07    1.09
  -5  -9   4   30.26    1.00
  -5   9   4   31.11    1.12
  -4  -9   4   10.15    0.49
  -4  -9   4   10.84    0.43
  -4   9   4   10.96    0.53
  -3  -9   4   20.60    0.75
  -3   9   4   19.56    0.78
  -2  -9   4    0.47    0.12
  -2   9   4    1.09    0.19
  -1  -9   4   19.59    0.72
  -1   9   4   19.99    0.77
   0  -9  -4   14.55    0.61
   0  -9   4   14.38    0.57
   1  -9   4    9.44    0.42
  -1  -9  -4    9.85    0.48
   2  -9   4    6.75    0.38
   2  -9   4    7.24    0.35
  -2  -9  -4    7.02    0.39
   3  -9   4    4.66    0.30
  -3  -9  -4    4.08    0.30
   4  -9   4    0.17    0.12
  -4  -9  -4    0.09    0.12
  -5  -9  -4    0.13    0.13
   5  -9   4    0.10    0.12
   6  -9   4    0.57    0.18
  -8 -10   4    2.44    0.29
  -8 -10   4    2.30    0.28
  -8  10   4    2.19    0.32
  -7 -10   4    2.26    0.25
  -7 -10   4    1.69    0.25
  -7  10   4    1.60    0.27
  -6 -10   4    0.34    0.14
  -6 -10   4    0.43    0.14
  -6  10   4    0.25    0.15
  -5 -10   4    2.96    0.24
  -5 -10   4    2.47    0.28
  -5  10   4    2.91    0.32
  -4 -10   4    7.76    0.43
  -4  10   4    8.01    0.46
  -3 -10   4    8.35    0.42
  -3  10   4    7.50    0.45
  -2 -10   4    3.23    0.26
  -2  10   4    3.44    0.28
  -1 -10   4    2.83    0.22
  -1  10   4    1.98    0.24
   0 -10  -4   27.90    0.99
   0 -10   4   27.30    0.95
  -1 -10  -4   10.42    0.50
   1 -10   4   10.16    0.46
  -2 -10  -4   11.39    0.54
   2 -10   4   11.53    0.52
   2 -10   4   11.40    0.49
  -3 -10  -4   11.37    0.54
   3 -10   4   11.42    0.52
  -4 -10  -4    1.52    0.22
   4 -10   4    1.61    0.22
   5 -10   4    0.17    0.14
  -8 -11   4   -0.03    0.13
  -7 -11   4    0.49    0.16
  -7 -11   4    0.44    0.16
  -7  11   4    0.30    0.18
  -6 -11   4    2.09    0.27
  -6 -11   4    1.63    0.22
  -6  11   4    1.88    0.29
  -5 -11   4   10.47    0.53
  -5  11   4   10.81    0.57
  -4 -11   4    8.70    0.47
  -4  11   4    8.23    0.48
  -3 -11   4    3.36    0.27
  -3  11   4    3.39    0.34
  -2 -11   4   12.99    0.57
  -2  11   4   12.49    0.60
  -1 -11   4    9.56    0.47
   1 -11  -4    9.91    0.50
  -1  11   4    9.68    0.51
   0 -11  -4    0.45    0.15
   0 -11   4    0.41    0.13
   1 -11   4    5.33    0.32
  -1 -11  -4    4.90    0.34
  -2 -11  -4   -0.17    0.10
   2 -11   4   -0.08    0.10
   3 -11   4    5.19    0.35
  -3 -11  -4    5.63    0.37
   4 -11   4    3.56    0.30
  -8 -12   4    2.07    0.29
  -7 -12   4    1.34    0.24
  -6 -12   4    1.40    0.23
  -6  12   4    0.88    0.23
  -5 -12   4    1.34    0.21
  -5  12   4    0.88    0.22
  -4 -12   4    4.66    0.34
  -4  12   4    5.09    0.39
  -3 -12   4   14.61    0.66
  -3  12   4   14.71    0.69
  -2 -12   4    9.53    0.50
  -2  12   4    9.87    0.53
  -1 -12   4    4.50    0.32
   1 -12  -4    4.44    0.33
   0 -12  -4    1.22    0.22
   0 -12   4    1.11    0.19
  -1 -12  -4    1.96    0.25
   1 -12   4    1.68    0.22
   2 -12   4    1.31    0.21
   3 -12   4    0.17    0.13
   4 -12   4    1.30    0.21
  -6 -13   4    1.31    0.25
  -5 -13   4    3.45    0.35
  -5  13   4    3.00    0.36
  -4 -13   4    1.73    0.25
  -4  13   4    2.62    0.33
  -3 -13   4    3.60    0.31
  -3  13   4    4.09    0.36
  -2 -13   4    7.62    0.45
   2 -13  -4    7.42    0.46
  -2  13   4    8.46    0.50
  -1 -13   4    7.26    0.43
   1 -13  -4    7.63    0.45
   0 -13   4    2.53    0.28
   0 -13  -4    2.92    0.31
   2 -13   4    0.24    0.14
   3 -13   4    0.67    0.18
  -5 -14   4   -0.03    0.14
  -4 -14   4    0.29    0.15
  -3 -14   4    0.21    0.14
  -2 -14   4    0.11    0.13
  -1 -14   4    0.35    0.15
   0 -14   4    3.52    0.31
   1 -14   4    5.10    0.37
  -2 -15   4    0.38    0.18
  -1 -15   4   -0.05    0.12
 -10   0   5    1.75    0.24
  -9   0   5   16.82    0.69
  -8   0   5    8.74    0.43
  -7   0   5    2.51    0.21
  -6   0   5   16.40    0.61
  -5   0   5    0.11    0.07
  -5   0   5    0.16    0.05
  -4   0   5  107.69    2.99
  -3   0   5   74.72    2.14
  -3   0   5   77.55    2.13
  -2   0   5   84.00    2.34
  -2   0   5   83.90    2.33
  -1   0   5   43.64    1.28
  -1   0   5   43.43    1.25
   0   0  -5   12.42    0.40
   0   0   5   11.73    0.45
   1   0   5   37.76    1.19
   1   0   5   39.89    1.08
   2   0   5   79.51    2.32
   2   0   5   81.82    2.15
   3   0   5    2.97    0.22
   3   0   5    3.18    0.19
   4   0   5    1.30    0.18
   5   0   5    0.40    0.13
 -10  -1   5   12.21    0.58
 -10   1   5   12.91    0.61
  -9  -1   5    6.57    0.38
  -9   1   5    6.39    0.39
  -8  -1   5   15.65    0.62
  -8   1   5   15.65    0.64
  -7  -1   5   20.15    0.73
  -7   1   5   20.96    0.76
  -6  -1   5   52.63    1.60
  -6  -1   5   55.54    1.54
  -6   1   5   53.93    1.63
  -5  -1   5   10.20    0.37
  -5  -1   5   10.84    0.42
  -5   1   5   10.03    0.43
  -5   1   5   10.28    0.35
  -4  -1   5   69.86    1.99
  -4  -1   5   69.47    1.97
  -4   1   5   71.18    1.96
  -4   1   5   69.84    2.01
  -3  -1   5   58.36    1.65
  -3  -1   5   57.73    1.65
  -3   1   5   57.60    1.65
  -3   1   5   58.89    1.68
  -2  -1   5   12.44    0.41
  -2  -1   5   12.26    0.43
  -2   1   5   11.89    0.43
  -2   1   5   12.25    0.44
  -1  -1   5   14.55    0.46
  -1  -1   5   14.40    0.50
  -1   1   5   14.37    0.49
  -1   1   5   14.90    0.51
   0  -1   5   53.21    1.53
   0   1  -5   51.62    1.44
   0   1   5   51.81    1.39
   0   1   5   52.14    1.49
   0   1   5   53.53    1.54
  -1  -1  -5   93.92    2.64
   1  -1   5   95.07    2.70
   1  -1   5   94.77    2.53
   1   1   5   96.98    2.72
   1   1   5   99.60    2.50
   2  -1   5   22.61    0.76
   2   1   5   22.48    0.78
   3  -1   5    6.25    0.29
   3  -1   5    7.31    0.34
   3   1   5    6.49    0.35
   4  -1   5    2.55    0.20
   4  -1   5    2.32    0.20
   4   1   5    2.38    0.24
   5  -1   5    3.01    0.24
   5   1   5    3.06    0.26
 -10  -2   5    4.08    0.31
 -10   2   5    3.94    0.34
  -9  -2   5    4.66    0.31
  -9   2   5    3.96    0.31
  -8  -2   5    3.77    0.26
  -8   2   5    3.77    0.29
  -7  -2   5   34.79    1.12
  -7   2   5   35.77    1.17
  -6  -2   5   97.29    2.70
  -6  -2   5   96.57    2.74
  -6   2   5   98.10    2.80
  -5  -2   5   67.96    1.90
  -5   2   5   64.33    1.83
  -5   2   5   66.08    1.95
  -4  -2   5   34.92    1.01
  -4  -2   5   33.06    1.01
  -4   2   5   33.26    1.06
  -4   2   5   33.51    0.98
  -3  -2   5    5.95    0.26
  -3  -2   5    6.05    0.25
  -3   2   5    5.76    0.25
  -3   2   5    5.85    0.29
  -2  -2   5    2.19    0.15
  -2  -2   5    2.06    0.12
  -2   2   5    1.81    0.15
  -2   2   5    2.11    0.14
  -1  -2   5   68.86    1.88
  -1  -2   5   64.02    1.80
  -1   2   5   66.57    1.88
  -1   2   5   64.30    1.89
   0  -2   5   25.30    0.80
   0   2   5   23.89    0.82
   0   2   5   26.06    0.80
   1  -2   5   30.62    0.91
   1  -2   5   31.12    0.98
  -1  -2  -5   31.15    0.94
   1   2   5   31.79    1.01
   2  -2   5   18.77    0.61
  -2  -2  -5   19.55    0.62
   2  -2   5   18.30    0.66
   2   2   5   19.34    0.70
   3  -2   5    2.07    0.17
   3  -2   5    2.46    0.19
   3   2   5    2.28    0.20
   4  -2   5    7.03    0.33
   4  -2   5    6.76    0.35
   4   2   5    6.37    0.37
   5  -2   5    5.42    0.31
   5   2   5    5.63    0.36
   6  -2   5    7.67    0.41
 -10  -3   5    5.78    0.37
 -10   3   5    5.48    0.40
  -9  -3   5    2.42    0.25
  -9   3   5    2.52    0.29
  -8  -3   5   30.75    1.03
  -8   3   5   31.73    1.11
  -7  -3   5    0.97    0.15
  -7   3   5    0.89    0.17
  -6  -3   5    3.08    0.19
  -6  -3   5    3.10    0.22
  -6   3   5    3.76    0.26
  -5  -3   5   15.52    0.53
  -5  -3   5   15.23    0.53
  -5   3   5   14.33    0.59
  -4  -3   5   58.08    1.71
  -4  -3   5   61.97    1.69
  -4   3   5   58.32    1.77
  -4   3   5   59.42    1.68
  -3  -3   5   73.11    2.00
  -3  -3   5   72.09    1.95
  -3   3   5   63.20    1.96
  -3   3   5   72.07    2.04
  -2  -3   5   63.39    1.75
  -2  -3   5   62.38    1.82
  -2   3   5   64.89    1.85
  -2   3   5   64.46    1.83
  -1  -3   5    4.39    0.23
  -1   3   5    4.20    0.24
  -1   3   5    4.09    0.23
   0  -3   5   27.66    0.87
   0   3   5   28.11    0.90
   0   3   5   27.36    0.88
   1  -3   5  116.65    3.16
   1  -3   5  110.48    3.00
   1   3   5  112.03    3.20
   2  -3   5   18.26    0.64
   2  -3   5   19.06    0.62
   2   3   5   17.63    0.68
   3  -3   5    4.99    0.28
   3  -3   5    5.88    0.29
  -3  -3  -5    5.96    0.28
   3   3   5    5.35    0.32
   4  -3   5    8.61    0.41
   4  -3   5    9.11    0.40
   4   3   5    8.77    0.45
   5  -3   5    9.13    0.42
   5   3   5    8.86    0.47
   6  -3   5    4.93    0.32
   7  -3   5    1.79    0.25
 -10  -4   5    1.21    0.21
 -10   4   5    1.55    0.26
   9  -4  -5    9.81    0.49
  -9  -4   5    9.58    0.47
  -9   4   5    9.29    0.52
  -8  -4   5    0.55    0.14
   8  -4  -5    0.34    0.13
  -8   4   5    0.55    0.17
  -7  -4   5    0.29    0.09
   7  -4  -5    0.51    0.12
  -7  -4   5    0.34    0.11
  -7   4   5    1.08    0.18
  -6  -4   5    2.66    0.19
   6  -4  -5    2.57    0.19
  -6  -4   5    2.52    0.19
  -6   4   5    2.35    0.25
  -5  -4   5    1.41    0.15
  -5  -4   5    1.44    0.15
  -5   4   5    1.63    0.20
  -4  -4   5   24.76    0.77
  -4  -4   5   23.35    0.80
  -4   4   5   26.29    0.76
  -4   4   5   24.84    0.86
  -3  -4   5   99.83    2.85
  -3  -4   5  104.12    2.78
  -3   4   5  100.88    2.89
  -2  -4   5   78.88    2.38
  -2   4   5   87.71    2.39
  -2   4   5   87.32    2.43
  -1  -4   5   90.86    2.51
  -1   4   5   89.17    2.53
  -1   4   5   85.91    2.51
   0  -4   5   19.00    0.65
   0   4   5   19.90    0.67
   0   4   5   18.40    0.67
   1  -4   5    5.00    0.26
  -1  -4  -5    5.80    0.29
   1   4   5    4.94    0.30
   2  -4   5    4.88    0.27
  -2  -4  -5    5.14    0.27
   2  -4   5    4.43    0.26
   2   4   5    5.60    0.32
   3  -4   5    0.24    0.10
   3  -4   5    0.32    0.10
  -3  -4  -5    0.24    0.10
   3   4   5    0.39    0.13
   4  -4   5    5.66    0.31
   4   4   5    6.01    0.37
   5  -4   5    0.72    0.16
   5   4   5    0.53    0.17
   6  -4   5    0.15    0.13
   6   4   5    0.20    0.14
   7  -4   5    0.85    0.19
 -10  -5   5    1.66    0.24
  10  -5  -5    1.19    0.23
 -10   5   5    1.61    0.26
  -9  -5   5   11.20    0.52
   9  -5  -5   11.76    0.55
  -9   5   5   12.18    0.61
  -8  -5   5   14.46    0.58
   8  -5  -5   14.71    0.60
  -8   5   5   14.67    0.68
   7  -5  -5   11.07    0.46
  -7  -5   5   10.88    0.46
  -7  -5   5   11.14    0.46
  -7   5   5   10.41    0.54
  -6  -5   5    1.62    0.17
   6  -5  -5    1.30    0.15
  -6  -5   5    1.46    0.17
  -6   5   5    1.11    0.19
  -5  -5   5    9.35    0.38
  -5  -5   5    9.23    0.40
  -5   5   5    9.86    0.47
  -4  -5   5   57.06    1.60
  -4  -5   5   55.76    1.65
  -4   5   5   54.69    1.71
  -4   5   5   55.70    1.60
  -3  -5   5   29.29    0.97
  -3  -5   5   32.32    0.90
  -3   5   5   30.02    1.01
  -2  -5   5    9.92    0.41
  -2   5   5   10.14    0.45
  -2   5   5   10.48    0.41
  -1  -5   5   51.71    1.53
  -1   5   5   50.90    1.54
  -1   5   5   52.00    1.57
   0  -5   5   97.37    2.69
   0   5   5   95.71    2.71
   0   5   5   92.10    2.72
   1  -5   5   12.75    0.48
  -1  -5  -5   12.59    0.50
   1   5   5   12.12    0.53
  -2  -5  -5   20.45    0.72
   2  -5   5   20.57    0.71
   2  -5   5   21.08    0.71
   2   5   5   19.96    0.77
   3  -5   5    1.96    0.20
  -3  -5  -5    2.13    0.21
   3  -5   5    2.18    0.19
   3   5   5    2.34    0.26
   4  -5   5    4.60    0.29
  -4  -5  -5    4.82    0.29
   4   5   5    4.70    0.34
   5  -5   5    2.76    0.26
   5   5   5    2.26    0.28
   6  -5   5    2.19    0.26
   7  -5   5    0.64    0.19
  11  -6  -5    2.32    0.32
  10  -6  -5    2.69    0.31
 -10   6   5    2.12    0.31
   9  -6  -5    0.83    0.19
  -9  -6   5    0.76    0.17
  -9   6   5    0.87    0.21
  -8  -6   5    3.73    0.27
   8  -6  -5    3.72    0.28
  -8   6   5    3.69    0.33
  -7  -6   5   21.38    0.76
   7  -6  -5   19.58    0.71
  -7  -6   5   20.78    0.74
  -7   6   5   21.05    0.86
  -6  -6   5   34.30    1.10
  -6  -6   5   35.81    1.14
  -6   6   5   35.18    1.22
  -5  -6   5   40.11    1.26
  -5  -6   5   40.98    1.21
  -5   6   5   39.27    1.33
  -4  -6   5   31.42    0.99
  -4  -6   5   32.75    1.05
  -4   6   5   35.33    1.01
  -4   6   5   31.38    1.10
  -3  -6   5   19.19    0.69
  -3   6   5   19.87    0.74
  -2  -6   5    8.54    0.37
  -2   6   5    7.96    0.36
  -2   6   5    7.94    0.40
  -1  -6   5   28.61    0.91
  -1   6   5   26.37    0.94
  -1   6   5   27.90    0.93
   0  -6   5    2.93    0.21
   0  -6  -5    2.94    0.23
   0   6   5    2.95    0.23
   0   6   5    2.88    0.23
   1  -6   5   10.68    0.45
  -1  -6  -5   11.30    0.48
   1   6   5   11.35    0.51
   2  -6   5    9.87    0.43
  -2  -6  -5    9.74    0.44
   2  -6   5    9.03    0.40
   2   6   5    9.60    0.48
   3  -6   5    2.05    0.18
   3  -6   5    1.73    0.20
  -3  -6  -5    1.92    0.21
   3   6   5    1.96    0.25
  -4  -6  -5    0.22    0.12
   4  -6   5    0.12    0.11
   4   6   5    0.16    0.13
   5  -6   5    1.29    0.20
   6  -6   5    2.12    0.25
  11  -7  -5    1.30    0.24
  10  -7  -5    2.24    0.28
  -9  -7   5    7.12    0.42
   9  -7  -5    7.16    0.42
  -9   7   5    7.97    0.52
  -8  -7   5    7.05    0.39
  -8  -7   5    7.44    0.39
  -8   7   5    6.97    0.47
  -7  -7   5   10.07    0.46
  -7  -7   5   10.15    0.48
  -7   7   5   10.69    0.57
  -6  -7   5    2.53    0.25
  -6  -7   5    2.81    0.23
  -6   7   5    3.07    0.31
  -5  -7   5   10.25    0.41
  -5  -7   5    8.97    0.43
  -5   7   5    9.94    0.50
  -4  -7   5   15.22    0.52
  -4  -7   5   14.39    0.57
  -4   7   5   14.77    0.63
  -3  -7   5   31.24    1.01
  -3   7   5   29.75    1.05
  -2  -7   5   13.22    0.52
  -2   7   5   12.67    0.51
  -2   7   5   13.09    0.56
  -1  -7   5   37.83    1.18
  -1   7   5   37.31    1.20
  -1   7   5   36.02    1.21
   0  -7  -5   14.19    0.58
   0  -7   5   14.06    0.54
   0   7   5   14.07    0.59
  -1  -7  -5   24.58    0.86
   1  -7   5   23.36    0.81
   1   7   5   24.19    0.89
   2  -7   5    2.85    0.24
   2  -7   5    2.67    0.21
  -2  -7  -5    2.24    0.23
   2   7   5    2.50    0.28
   3  -7   5    9.26    0.44
  -3  -7  -5    9.27    0.44
   4  -7   5   13.46    0.57
  -4  -7  -5   14.82    0.60
  -5  -7  -5    3.22    0.26
   5  -7   5    3.39    0.29
   6  -7   5    0.30    0.15
  -9  -8   5    3.84    0.31
  -9   8   5    3.62    0.41
  -8  -8   5    2.87    0.29
  -8  -8   5    2.76    0.29
  -8   8   5    2.50    0.33
  -7  -8   5    2.33    0.26
  -7  -8   5    2.40    0.25
  -7   8   5    2.68    0.32
  -6  -8   5    2.63    0.25
  -6  -8   5    2.52    0.26
  -6   8   5    3.15    0.33
  -5  -8   5    7.36    0.39
  -5  -8   5    7.81    0.36
  -5   8   5    7.57    0.44
  -4  -8   5    5.12    0.32
  -4   8   5    5.15    0.34
  -3  -8   5   45.60    1.44
  -3   8   5   46.81    1.50
  -2  -8   5   18.59    0.69
  -2   8   5   18.42    0.74
  -1  -8   5    0.39    0.12
  -1   8   5    0.42    0.13
   0  -8   5    5.23    0.30
   0  -8  -5    5.05    0.32
  -1  -8  -5    1.18    0.18
   1  -8   5    1.27    0.16
   2  -8   5    7.27    0.36
  -2  -8  -5    7.27    0.40
   2  -8   5    7.38    0.39
   3  -8   5    6.61    0.38
  -3  -8  -5    6.92    0.39
   4  -8   5    1.61    0.23
  -4  -8  -5    2.27    0.25
   5  -8   5    0.19    0.13
  -8  -9   5    8.73    0.46
  -8  -9   5    7.78    0.45
  -8   9   5    7.96    0.53
  -7  -9   5    7.42    0.43
  -7  -9   5    7.62    0.41
  -7   9   5    7.48    0.50
  -6  -9   5    3.07    0.24
  -6  -9   5    3.85    0.29
  -6   9   5    3.33    0.35
  -5  -9   5    0.69    0.16
  -5   9   5    0.94    0.19
  -4  -9   5    6.46    0.37
  -4   9   5    6.94    0.42
  -3  -9   5    2.85    0.24
  -3   9   5    3.58    0.30
  -2  -9   5    3.32    0.25
  -2   9   5    3.22    0.27
  -1  -9   5    1.47    0.19
  -1   9   5    1.39    0.20
   0  -9   5   15.61    0.61
   0  -9  -5   15.26    0.64
   1  -9   5   14.14    0.57
  -1  -9  -5   14.87    0.63
   2  -9   5    9.96    0.45
   2  -9   5   10.18    0.48
  -2  -9  -5   10.16    0.49
  -3  -9  -5   19.53    0.77
   3  -9   5   18.55    0.73
   4  -9   5   10.14    0.49
  -4  -9  -5   10.03    0.50
   5  -9   5    0.94    0.19
  -8 -10   5    1.39    0.23
  -8 -10   5    2.09    0.26
  -8  10   5    1.40    0.28
  -7 -10   5    2.69    0.29
  -7 -10   5    2.43    0.26
  -7  10   5    2.86    0.35
  -6 -10   5    5.80    0.38
  -6  10   5    6.31    0.45
  -5 -10   5   13.93    0.63
  -5  10   5   14.55    0.69
  -4 -10   5    9.10    0.47
  -4  10   5    8.72    0.50
  -3 -10   5    1.48    0.20
  -3  10   5    0.83    0.19
  -2 -10   5    0.80    0.15
  -2  10   5    0.72    0.18
  -1 -10   5    0.46    0.13
  -1  10   5    0.80    0.17
   0 -10  -5    0.04    0.11
   0 -10   5    0.04    0.10
  -1 -10  -5    8.61    0.45
   1 -10   5    7.35    0.39
   2 -10   5    1.80    0.24
  -2 -10  -5    1.68    0.24
  -3 -10  -5    0.01    0.12
   3 -10   5    0.23    0.13
   4 -10   5    0.23    0.13
  -8 -11   5    0.73    0.20
  -7 -11   5    2.93    0.32
  -7  11   5    2.38    0.34
  -6 -11   5    0.03    0.12
  -6  11   5    0.03    0.14
  -5 -11   5    2.65    0.29
  -5  11   5    3.01    0.35
  -4 -11   5    9.01    0.49
  -4  11   5    9.58    0.54
  -3 -11   5   22.30    0.84
  -3  11   5   20.71    0.88
  -2 -11   5    9.86    0.49
  -2  11   5    9.84    0.53
   1 -11  -5    8.07    0.46
  -1 -11   5    9.08    0.46
   0 -11   5    4.25    0.30
   0 -11  -5    4.71    0.34
  -1 -11  -5    1.84    0.24
   1 -11   5    1.89    0.22
  -2 -11  -5   -0.02    0.13
   2 -11   5    0.33    0.13
   3 -11   5    0.88    0.19
  -8 -12   5    0.14    0.15
  -7 -12   5    0.41    0.17
  -6 -12   5    0.00    0.13
  -5 -12   5    3.35    0.33
  -5  12   5    3.50    0.38
  -4 -12   5    3.66    0.31
  -4  12   5    3.87    0.40
  -3 -12   5    7.51    0.44
  -3  12   5    7.40    0.48
  -2 -12   5   10.92    0.54
  -2  12   5   10.29    0.57
  -1 -12   5    4.90    0.34
   1 -12  -5    4.97    0.37
   0 -12   5    2.78    0.28
   0 -12  -5    2.41    0.29
   1 -12   5    1.93    0.24
   2 -12   5    1.82    0.25
  -6 -13   5    0.00    0.14
  -5 -13   5    0.02    0.12
  -4 -13   5    0.35    0.16
  -3 -13   5    1.54    0.23
  -2 -13   5    0.61    0.17
  -1 -13   5    0.09    0.12
   0 -13   5    2.80    0.29
   1 -13   5    4.81    0.37
  -4 -14   5    1.10    0.22
  -3 -14   5    0.29    0.16
  -2 -14   5    0.50    0.17
  -1 -14   5    0.60    0.17
   0 -14   5    0.08    0.13
 -10   0   6   27.66    1.03
  -9   0   6   40.67    1.36
  -8   0   6   28.14    0.99
  -7   0   6    1.90    0.21
  -6   0   6    8.38    0.32
  -6   0   6    7.82    0.38
  -5   0   6    2.24    0.15
  -5   0   6    2.24    0.19
  -4   0   6  122.22    3.39
  -4   0   6  123.49    3.41
  -3   0   6    5.69    0.28
  -3   0   6    6.45    0.28
  -2   0   6    9.82    0.38
  -2   0   6   10.08    0.40
  -1   0   6   32.54    1.04
  -1   0   6   33.92    0.99
   0   0   6    5.91    0.30
   0   0   6    5.38    0.23
   1   0   6    3.47    0.23
   2   0   6    6.23    0.34
   3   0   6   16.43    0.65
   4   0   6   14.19    0.61
 -10  -1   6    6.12    0.39
 -10   1   6    6.70    0.43
  -9  -1   6   10.72    0.51
  -9   1   6   10.74    0.53
  -8  -1   6    1.34    0.19
  -8   1   6    1.35    0.20
  -7  -1   6   30.38    1.02
  -7   1   6   30.82    1.04
  -6  -1   6   39.77    1.15
  -6  -1   6   38.70    1.22
  -6   1   6   38.27    1.25
  -5  -1   6   10.54    0.44
  -5   1   6   11.55    0.47
  -5   1   6   11.21    0.40
  -4  -1   6   45.38    1.38
  -4  -1   6   47.47    1.37
  -4   1   6   47.34    1.36
  -4   1   6   46.14    1.41
  -3  -1   6   57.15    1.71
  -3  -1   6   61.90    1.71
  -3   1   6   59.35    1.72
  -3   1   6   59.66    1.74
  -2  -1   6   26.39    0.81
  -2  -1   6   25.92    0.85
  -2   1   6   26.93    0.85
  -2   1   6   27.25    0.85
  -1  -1   6    2.46    0.19
  -1   1   6    2.14    0.17
  -1   1   6    2.52    0.19
   0  -1  -6   13.52    0.47
   0  -1   6   13.64    0.52
   0   1   6   14.12    0.54
   1  -1   6   14.50    0.48
   1  -1   6   13.62    0.54
   1   1   6   14.38    0.56
   2  -1   6    4.74    0.24
   2  -1   6    4.80    0.28
   2   1   6    4.76    0.29
   3  -1   6    1.16    0.17
   3   1   6    1.12    0.18
   4  -1   6    3.38    0.27
   4   1   6    3.50    0.28
   5   1   6    1.94    0.25
 -10  -2   6    1.08    0.20
 -10   2   6    0.83    0.21
  -9  -2   6    6.81    0.39
  -9   2   6    6.23    0.41
  -8  -2   6    9.54    0.46
  -8   2   6   11.36    0.52
  -7  -2   6   11.83    0.50
  -7   2   6   12.01    0.54
  -6  -2   6  118.39    3.33
  -6  -2   6  120.04    3.29
  -6   2   6  118.61    3.39
  -5  -2   6   72.67    2.03
  -5  -2   6   71.00    2.01
  -5   2   6   69.45    1.98
  -5   2   6   68.61    2.08
  -4  -2   6   68.37    2.04
  -4  -2   6   76.00    2.04
  -4   2   6   70.96    2.10
  -3  -2   6    4.09    0.22
  -3  -2   6    4.11    0.21
  -3   2   6    4.37    0.25
  -3   2   6    3.83    0.22
  -2  -2   6   67.64    1.97
  -2   2   6   69.00    1.98
  -2   2   6   69.34    1.98
  -1  -2   6   56.45    1.66
  -1   2   6   56.30    1.67
  -1   2   6   56.26    1.65
   0  -2  -6   67.91    1.95
   0  -2   6   69.20    2.00
   0   2   6   69.09    2.02
   1  -2   6   17.88    0.64
   1   2   6   17.04    0.66
   2  -2   6    1.86    0.19
   2  -2   6    1.75    0.16
   2   2   6    1.73    0.21
   3  -2   6    0.59    0.12
   3  -2   6    0.43    0.12
   3   2   6    0.21    0.12
   4  -2   6    0.78    0.16
   4   2   6    0.59    0.15
   5   2   6   -0.02    0.11
 -10  -3   6    1.77    0.24
 -10   3   6    1.91    0.28
  -9  -3   6    2.25    0.25
  -9   3   6    2.24    0.28
  -8  -3   6    2.91    0.25
  -8   3   6    3.35    0.29
  -7  -3   6   23.76    0.84
  -7  -3   6   25.55    0.80
  -7   3   6   24.37    0.91
  -6  -3   6   15.33    0.58
  -6  -3   6   16.63    0.57
  -6   3   6   15.78    0.65
  -5  -3   6   22.91    0.76
  -5  -3   6   23.79    0.76
  -5   3   6   22.98    0.83
  -5   3   6   22.74    0.72
  -4  -3   6   34.22    1.05
  -4  -3   6   34.20    1.03
  -4   3   6   34.26    1.03
  -4   3   6   33.27    1.11
  -3  -3   6   20.09    0.67
  -3  -3   6   20.47    0.63
  -3   3   6   19.45    0.67
  -3   3   6   19.21    0.71
  -2  -3   6   26.50    0.86
  -2   3   6   27.04    0.88
  -2   3   6   26.24    0.87
  -1  -3   6   24.02    0.81
  -1   3   6   24.71    0.82
  -1   3   6   25.07    0.83
   0  -3   6    6.00    0.31
   0   3   6    6.72    0.34
  -1  -3  -6    7.77    0.34
   1  -3   6    7.28    0.35
   1  -3   6    7.62    0.34
   1   3   6    7.96    0.40
   2  -3   6    5.26    0.29
   2  -3   6    5.08    0.27
   2   3   6    5.47    0.33
   3  -3   6    0.27    0.10
   3  -3   6    0.11    0.11
   3   3   6    0.23    0.13
   4  -3   6    0.65    0.14
   4  -3   6    0.58    0.14
   4   3   6    0.80    0.17
   5   3   6    4.29    0.34
 -10  -4   6   12.27    0.57
 -10   4   6   11.79    0.63
  -9  -4   6    6.62    0.38
  -9   4   6    7.58    0.46
  -8  -4   6   50.62    1.60
  -8   4   6   53.97    1.72
  -7  -4   6   24.39    0.85
  -7   4   6   25.93    0.95
  -6  -4   6   15.71    0.57
  -6  -4   6   15.53    0.57
  -6   4   6   15.31    0.65
  -5  -4   6   31.06    0.95
  -5  -4   6   29.48    0.96
  -5   4   6   29.64    1.04
  -4  -4   6   36.35    1.13
  -4  -4   6   38.49    1.09
  -4   4   6   35.35    1.19
  -4   4   6   35.31    1.10
  -3  -4   6   15.12    0.55
  -3   4   6   15.09    0.54
  -3   4   6   13.91    0.58
  -2  -4   6    3.39    0.22
  -2   4   6    3.54    0.24
  -2   4   6    3.43    0.23
  -1  -4   6    1.38    0.16
  -1   4   6    1.98    0.20
  -1   4   6    1.93    0.20
   0  -4  -6    7.98    0.37
   0  -4   6    8.17    0.37
   0   4   6    7.65    0.39
   1  -4   6    5.99    0.31
  -1  -4  -6    6.13    0.31
   1  -4   6    6.45    0.32
   1   4   6    6.80    0.37
   2  -4   6   18.28    0.63
   2  -4   6   17.19    0.66
   2   4   6   17.95    0.72
   3  -4   6   14.94    0.57
   3  -4   6   15.44    0.59
   3   4   6   14.51    0.65
   4  -4   6    2.17    0.23
   4   4   6    2.36    0.28
   5  -4   6    0.24    0.12
   5   4   6    0.16    0.14
 -10  -5   6    1.93    0.25
 -10   5   6    1.85    0.29
  -9  -5   6    1.02    0.19
  -9   5   6    1.10    0.23
  -8  -5   6    6.43    0.35
  -8   5   6    6.43    0.43
  -7  -5   6   21.45    0.77
  -7  -5   6   22.43    0.78
  -7   5   6   22.68    0.89
  -6  -5   6    8.46    0.39
  -6  -5   6    8.65    0.38
  -6   5   6    8.54    0.46
  -5  -5   6   14.58    0.51
  -5  -5   6   13.14    0.53
  -5   5   6   13.82    0.61
  -4  -5   6   22.52    0.77
  -4   5   6   22.55    0.83
  -4   5   6   22.07    0.73
  -3  -5   6   42.74    1.32
  -3   5   6   44.44    1.31
  -3   5   6   42.32    1.37
  -2  -5   6   32.38    1.05
  -2   5   6   32.77    1.09
  -2   5   6   33.68    1.06
  -1  -5   6   28.91    0.95
  -1   5   6   29.95    0.99
  -1   5   6   29.10    0.99
   0  -5   6    4.71    0.27
   0  -5  -6    4.06    0.27
   0   5   6    3.98    0.28
  -1  -5  -6    2.18    0.19
   1  -5   6    1.85    0.19
   1  -5   6    2.20    0.19
   1   5   6    1.73    0.22
  -2  -5  -6    1.93    0.20
   2  -5   6    1.81    0.20
   2  -5   6    1.96    0.20
   2   5   6    1.82    0.23
   3  -5   6   -0.02    0.09
   3  -5   6    0.02    0.10
   3   5   6    0.22    0.13
   4  -5   6    2.67    0.25
   4   5   6    2.34    0.29
   5  -5   6    0.26    0.15
   5   5   6    0.53    0.18
   6  -5   6    0.16    0.13
  -9  -6   6    2.95    0.29
  -9   6   6    2.35    0.32
  -8  -6   6    1.21    0.18
  -8   6   6    0.82    0.21
  -7  -6   6    2.51    0.22
  -7  -6   6    2.79    0.23
  -7   6   6    2.41    0.30
  -6  -6   6    1.44    0.17
  -6  -6   6    1.34    0.18
  -6   6   6    1.09    0.20
  -5  -6   6    7.43    0.38
  -5  -6   6    7.67    0.34
  -5   6   6    7.97    0.44
  -4  -6   6   22.93    0.80
  -4   6   6   23.04    0.86
  -4   6   6   22.85    0.76
  -3  -6   6    9.53    0.42
  -3   6   6    9.81    0.47
  -3   6   6    9.66    0.41
  -2  -6   6   15.25    0.58
  -2   6   6   14.62    0.62
  -2   6   6   15.80    0.59
  -1  -6   6   49.35    1.51
  -1   6   6   47.77    1.54
  -1   6   6   51.26    1.54
   0  -6  -6   19.75    0.74
   0  -6   6   20.10    0.71
   0   6   6   19.58    0.76
  -1  -6  -6   15.35    0.60
   1  -6   6   15.08    0.58
   1   6   6   14.23    0.63
  -2  -6  -6    0.44    0.14
   2  -6   6    0.71    0.14
   2  -6   6    0.50    0.13
   2   6   6    0.78    0.18
  -3  -6  -6    1.64    0.21
   3  -6   6    1.50    0.19
   3  -6   6    1.58    0.20
   3   6   6    1.73    0.26
   4  -6   6    2.47    0.26
   4   6   6    2.65    0.33
   5  -6   6    1.26    0.21
  -9  -7   6    2.10    0.25
  -9   7   6    1.95    0.32
  -8  -7   6    7.06    0.39
  -8  -7   6    6.90    0.38
  -8   7   6    7.11    0.48
  -7  -7   6   19.08    0.70
  -7  -7   6   17.92    0.71
  -7   7   6   18.23    0.81
  -6  -7   6   20.69    0.72
  -6  -7   6   21.62    0.78
  -6   7   6   18.92    0.83
  -5  -7   6   15.03    0.60
  -5   7   6   14.13    0.65
  -4  -7   6    3.93    0.27
  -4   7   6    4.20    0.31
  -3  -7   6   14.69    0.59
  -3   7   6   14.54    0.63
  -3   7   6   15.52    0.58
  -2  -7   6    3.78    0.26
  -2   7   6    3.85    0.26
  -2   7   6    3.70    0.28
  -1  -7   6    6.43    0.33
  -1   7   6    5.81    0.35
  -1   7   6    5.95    0.36
   0  -7  -6    2.97    0.25
   0  -7   6    2.94    0.22
   0   7   6    3.46    0.28
   1  -7   6    7.29    0.37
  -1  -7  -6    7.45    0.39
   1   7   6    7.22    0.42
  -2  -7  -6    8.60    0.43
   2  -7   6    8.06    0.41
   2  -7   6    8.01    0.40
   2   7   6    8.27    0.48
  -3  -7  -6    6.59    0.38
   3  -7   6    6.80    0.37
   3   7   6    6.61    0.44
   4  -7   6    2.88    0.28
   5  -7   6    0.31    0.14
  -9  -8   6    8.39    0.45
  -9   8   6    7.78    0.55
  -8  -8   6   26.29    0.93
  -8  -8   6   25.92    0.95
  -8   8   6   25.85    1.07
  -7  -8   6   11.97    0.52
  -7  -8   6   11.71    0.54
  -7   8   6   11.85    0.63
  -6  -8   6    0.16    0.11
  -6   8   6   -0.12    0.10
  -5  -8   6    1.55    0.21
  -5   8   6    1.16    0.21
  -4  -8   6    4.41    0.30
  -4   8   6    4.71    0.35
  -3  -8   6    0.66    0.13
  -3   8   6    0.43    0.14
  -2  -8   6    3.77    0.27
  -2   8   6    3.97    0.31
  -2   8   6    4.05    0.27
  -1  -8   6    2.01    0.21
  -1   8   6    2.26    0.25
  -1   8   6    2.39    0.27
   0  -8  -6    2.33    0.25
   0  -8   6    2.83    0.22
   0   8   6    2.52    0.28
   1  -8   6    4.15    0.27
  -1  -8  -6    3.56    0.29
   1   8   6    4.04    0.32
  -2  -8  -6   10.50    0.49
   2  -8   6    9.79    0.45
   2  -8   6    9.17    0.46
   3  -8   6   10.74    0.51
  -3  -8  -6   10.74    0.52
   4  -8   6    4.49    0.32
  -4  -8  -6    5.25    0.35
  -8  -9   6    2.53    0.27
  -8  -9   6    2.42    0.28
  -8   9   6    2.97    0.37
  -7  -9   6    1.83    0.24
  -7   9   6    2.32    0.33
  -6  -9   6    3.12    0.28
  -6   9   6    2.79    0.33
  -5  -9   6   10.76    0.53
  -5   9   6   11.21    0.58
  -4  -9   6   16.73    0.68
  -4   9   6   16.31    0.73
  -3  -9   6   23.44    0.86
  -3   9   6   23.26    0.91
  -2  -9   6    9.74    0.47
  -2   9   6    9.47    0.50
  -1  -9   6    2.14    0.23
  -1   9   6    2.21    0.27
   0  -9   6    0.30    0.12
   0  -9  -6    0.20    0.12
   1  -9   6    0.03    0.10
  -1  -9  -6   -0.01    0.11
   2  -9   6    2.59    0.25
   2  -9   6    2.41    0.26
  -2  -9  -6    2.66    0.29
  -3  -9  -6    1.89    0.25
   3  -9   6    1.30    0.21
   4  -9   6    0.54    0.17
  -8 -10   6    1.90    0.27
  -7 -10   6    2.86    0.30
  -7  10   6    2.56    0.35
  -6 -10   6    2.36    0.27
  -6  10   6    2.03    0.30
  -5 -10   6    7.80    0.44
  -5  10   6    7.12    0.47
  -4 -10   6    9.38    0.49
  -4  10   6    9.88    0.54
  -3 -10   6   11.71    0.55
  -3  10   6   11.59    0.59
  -2 -10   6    7.21    0.41
  -2  10   6    7.76    0.46
   1 -10  -6   14.44    0.66
  -1 -10   6   14.78    0.62
   0 -10   6    7.12    0.39
   0 -10  -6    6.83    0.42
  -1 -10  -6    4.85    0.35
   1 -10   6    5.07    0.32
  -2 -10  -6    0.60    0.17
   2 -10   6    0.61    0.17
   3 -10   6    0.60    0.18
  -9 -11   6    0.02    0.15
  -8 -11   6    1.22    0.23
  -7 -11   6    2.25    0.28
  -6 -11   6    0.68    0.18
  -6  11   6    1.05    0.24
  -5 -11   6    4.80    0.35
  -5  11   6    3.89    0.40
  -4 -11   6    2.54    0.28
  -4  11   6    2.88    0.35
  -3 -11   6    1.26    0.21
  -3  11   6    1.33    0.23
  -2 -11   6    3.21    0.28
  -2  11   6    2.93    0.32
  -1 -11   6    1.70    0.23
   1 -11  -6    1.84    0.25
   0 -11   6    4.46    0.31
   0 -11  -6    4.65    0.35
   1 -11   6    2.20    0.25
   1 -11   6    1.80    0.24
   2 -11   6    1.78    0.25
  -7 -12   6    2.09    0.28
  -6 -12   6    0.37    0.17
  -5 -12   6    1.61    0.25
  -4 -12   6    3.83    0.32
  -3 -12   6    2.68    0.30
  -3  12   6    3.13    0.35
  -2 -12   6    0.31    0.14
  -1 -12   6    0.08    0.12
   0 -12   6    0.48    0.15
   1 -12   6    1.19    0.22
  -5 -13   6    1.50    0.25
  -4 -13   6    2.31    0.29
  -3 -13   6    2.82    0.32
  -2 -13   6    1.78    0.25
  -1 -13   6    0.98    0.20
   0 -13   6    1.02    0.20
 -10   0   7    3.57    0.32
  -9   0   7    1.61    0.24
  -8   0   7    0.10    0.10
  -7   0   7    0.15    0.10
  -6   0   7    9.61    0.38
  -6   0   7    9.10    0.44
  -5   0   7  117.01    3.31
  -5   0   7  117.88    3.26
  -4   0   7    2.42    0.20
  -4   0   7    2.33    0.19
  -3   0   7   13.91    0.53
  -3   0   7   13.93    0.52
  -2   0   7   95.23    2.71
  -1   0   7    0.21    0.10
   0   0   7    0.44    0.12
   1   0   7    1.01    0.17
   2   0   7    1.80    0.23
   3   0   7    2.03    0.24
   4   0   7    0.09    0.12
 -10  -1   7    4.94    0.36
 -10   1   7    4.06    0.34
  -9  -1   7   16.66    0.70
  -9   1   7   16.52    0.72
  -8  -1   7    8.28    0.43
  -8   1   7    8.68    0.46
  -7  -1   7    0.58    0.14
  -7   1   7    0.61    0.14
  -6  -1   7   71.33    2.00
  -6  -1   7   69.27    2.06
  -6   1   7   68.95    2.09
  -5  -1   7   21.81    0.71
  -5  -1   7   21.36    0.74
  -5   1   7   20.32    0.77
  -4  -1   7   10.84    0.44
  -4  -1   7   12.15    0.46
  -4   1   7   10.88    0.47
  -4   1   7   11.46    0.44
  -3  -1   7   12.30    0.49
  -3   1   7   13.67    0.51
  -3   1   7   12.15    0.49
  -2  -1   7   67.45    1.96
  -2   1   7   66.06    1.97
  -2   1   7   67.51    1.94
  -1  -1   7   75.03    2.17
  -1   1   7   73.50    2.17
   0  -1   7    2.07    0.21
   0   1   7    1.52    0.19
   1  -1   7   20.77    0.77
   1   1   7   20.90    0.78
   2  -1   7   15.25    0.64
   2   1   7   16.26    0.66
   3  -1   7    5.94    0.37
   3   1   7    6.78    0.40
   4  -1   7    0.59    0.16
   4   1   7    0.74    0.18
 -10  -2   7    0.98    0.20
 -10   2   7    1.30    0.24
  -9  -2   7    6.76    0.39
  -9   2   7    6.35    0.43
  -8  -2   7    0.09    0.11
  -8   2   7    0.25    0.13
  -7  -2   7   21.75    0.79
  -7   2   7   22.60    0.85
  -6  -2   7   49.73    1.51
  -6  -2   7   50.50    1.48
  -6   2   7   49.01    1.57
  -5  -2   7   10.45    0.42
  -5  -2   7   10.39    0.43
  -5   2   7   10.00    0.47
  -5   2   7   10.15    0.41
  -4  -2   7   18.11    0.64
  -4  -2   7   18.22    0.63
  -4   2   7   18.58    0.69
  -4   2   7   18.21    0.64
  -3  -2   7   12.60    0.49
  -3   2   7   12.00    0.50
  -3   2   7   12.38    0.48
  -2  -2   7    3.66    0.24
  -2   2   7    3.96    0.26
  -2   2   7    3.93    0.25
  -1  -2   7   22.18    0.76
  -1   2   7   20.74    0.77
  -1   2   7   21.95    0.74
   0  -2   7    7.33    0.37
   0   2   7    7.75    0.40
   1  -2   7   15.99    0.61
   1   2   7   14.39    0.62
   2  -2   7    3.56    0.27
   2   2   7    3.29    0.28
   3  -2   7    2.17    0.24
   3   2   7    1.95    0.24
   4  -2   7    1.22    0.20
   4   2   7    1.61    0.24
   5   2   7    3.64    0.37
 -10  -3   7   13.14    0.60
 -10   3   7   12.37    0.65
  -9  -3   7   20.23    0.80
  -9   3   7   21.59    0.88
  -8  -3   7    3.46    0.26
  -8   3   7    2.96    0.32
  -7  -3   7   14.77    0.60
  -7   3   7   15.63    0.67
  -6  -3   7   61.65    1.79
  -6  -3   7   58.81    1.77
  -6   3   7   61.20    1.89
  -5  -3   7   61.12    1.84
  -5  -3   7   65.94    1.84
  -5   3   7   63.27    1.93
  -5   3   7   62.51    1.82
  -4  -3   7    4.67    0.27
  -4   3   7    4.91    0.27
  -4   3   7    4.72    0.30
  -3  -3   7   11.69    0.47
  -3   3   7   11.50    0.48
  -3   3   7   11.92    0.50
  -2  -3   7   52.10    1.56
  -2   3   7   50.57    1.57
  -2   3   7   52.63    1.58
  -1  -3   7   21.69    0.77
  -1   3   7   22.34    0.80
  -1   3   7   22.88    0.78
   0  -3   7    3.80    0.25
   0   3   7    3.69    0.27
   1  -3   7    3.35    0.23
   1  -3   7    3.16    0.24
   1   3   7    3.24    0.27
   2  -3   7    5.31    0.29
   2  -3   7    5.04    0.32
   2   3   7    5.05    0.34
   3  -3   7    1.29    0.19
   3   3   7    1.62    0.23
   4   3   7    0.10    0.13
   5   3   7    0.56    0.19
 -10  -4   7    1.17    0.22
 -10   4   7    0.91    0.22
  -9  -4   7    6.54    0.39
  -9   4   7    6.81    0.46
  -8  -4   7    3.63    0.27
  -8   4   7    3.90    0.33
  -7  -4   7    0.79    0.13
  -7  -4   7    0.81    0.14
  -7   4   7    0.88    0.19
  -6  -4   7    2.94    0.22
  -6  -4   7    3.07    0.22
  -6   4   7    3.18    0.28
  -5  -4   7   16.32    0.59
  -5   4   7   15.02    0.65
  -4  -4   7   51.51    1.58
  -4   4   7   54.29    1.57
  -4   4   7   51.76    1.64
  -3  -4   7   54.59    1.67
  -3   4   7   55.67    1.67
  -3   4   7   57.29    1.72
  -2  -4   7   17.48    0.65
  -2   4   7   18.11    0.68
  -2   4   7   18.51    0.69
  -1  -4   7    6.94    0.34
  -1   4   7    6.21    0.34
  -1   4   7    6.39    0.36
   0  -4   7    1.73    0.19
   0  -4  -7    1.49    0.18
   0   4   7    1.83    0.22
   1  -4   7    4.34    0.29
   1  -4   7    4.48    0.27
   1   4   7    4.21    0.31
   2  -4   7    2.57    0.25
   2  -4   7    1.73    0.20
   2   4   7    1.67    0.23
   3  -4   7    1.13    0.17
   3  -4   7    1.44    0.20
   3   4   7    0.94    0.20
   4   4   7    2.31    0.29
   5   4   7    0.33    0.17
 -10  -5   7   11.83    0.58
  -9  -5   7   14.66    0.63
  -9   5   7   13.99    0.71
  -8  -5   7    4.73    0.31
  -8   5   7    5.20    0.39
  -7  -5   7    4.80    0.30
  -7  -5   7    4.95    0.29
  -7   5   7    5.44    0.39
  -6  -5   7    3.62    0.25
  -6  -5   7    3.58    0.24
  -6   5   7    3.43    0.30
  -5  -5   7    4.65    0.28
  -5   5   7    5.51    0.36
  -4  -5   7    2.87    0.22
  -4   5   7    2.38    0.26
  -4   5   7    1.83    0.19
  -3  -5   7   10.34    0.45
  -3   5   7   11.18    0.46
  -3   5   7   10.01    0.49
  -2  -5   7    2.05    0.21
  -2   5   7    1.75    0.21
  -2   5   7    1.94    0.22
  -1  -5   7   24.69    0.85
  -1   5   7   25.06    0.87
  -1   5   7   23.55    0.87
   0  -5  -7    8.89    0.42
   0  -5   7    8.39    0.41
   0   5   7    9.31    0.46
  -1  -5  -7    5.38    0.31
   1  -5   7    5.79    0.32
   1  -5   7    5.76    0.33
   1   5   7    5.60    0.37
   2  -5   7    4.87    0.31
   2  -5   7    5.79    0.34
   2   5   7    5.33    0.37
   3  -5   7    4.56    0.30
   3  -5   7    4.85    0.32
   3   5   7    4.25    0.35
   4  -5   7    1.96    0.24
   4   5   7    1.91    0.28
   5   5   7    1.05    0.25
  -9  -6   7    5.08    0.35
  -9   6   7    5.23    0.44
  -8  -6   7   16.04    0.66
  -8  -6   7   16.82    0.66
  -8   6   7   16.73    0.79
  -7  -6   7   19.80    0.70
  -7  -6   7   18.21    0.71
  -7   6   7   17.88    0.81
  -6  -6   7   11.33    0.50
  -6   6   7   11.96    0.60
  -5  -6   7    2.81    0.23
  -5   6   7    3.33    0.33
  -4  -6   7    2.15    0.22
  -4   6   7    1.97    0.24
  -3  -6   7    2.40    0.21
  -3   6   7    2.96    0.22
  -3   6   7    2.30    0.25
  -2  -6   7    0.82    0.14
  -2   6   7    1.08    0.18
  -2   6   7    1.06    0.17
  -1  -6   7   12.19    0.51
  -1   6   7   12.02    0.54
  -1   6   7   12.36    0.55
   0  -6  -7   11.40    0.50
   0  -6   7   11.18    0.49
   0   6   7   10.32    0.52
   1  -6   7   15.62    0.62
  -1  -6  -7   16.49    0.65
   1  -6   7   16.40    0.64
   1   6   7   15.59    0.70
   2  -6   7    3.98    0.29
   2  -6   7    3.94    0.29
   2   6   7    4.01    0.34
   3  -6   7    4.34    0.30
   3   6   7    4.42    0.36
   4  -6   7    2.10    0.24
   4   6   7    1.67    0.28
  -9  -7   7    1.29    0.21
  -9   7   7    0.94    0.24
  -8  -7   7    9.74    0.47
  -8  -7   7    9.90    0.49
  -8   7   7    9.83    0.60
  -7  -7   7    6.39    0.38
  -7   7   7    6.31    0.45
  -6  -7   7   12.36    0.55
  -6   7   7   12.39    0.63
  -5  -7   7    2.57    0.26
  -5   7   7    2.56    0.29
  -4  -7   7    0.24    0.11
  -4   7   7    0.23    0.13
  -3  -7   7    2.68    0.23
  -3   7   7    1.93    0.24
  -3   7   7    2.01    0.22
  -2  -7   7    6.95    0.37
  -2   7   7    7.70    0.42
  -2   7   7    7.41    0.40
  -1  -7   7    4.00    0.27
  -1   7   7    4.09    0.30
  -1   7   7    3.62    0.29
   0  -7   7    1.27    0.18
   0  -7  -7    1.12    0.18
   0   7   7    1.52    0.22
   1  -7   7    0.84    0.16
  -1  -7  -7    0.84    0.18
   1  -7   7    0.70    0.15
   1   7   7    0.89    0.20
   2  -7   7    1.19    0.19
   2  -7   7    1.19    0.20
  -2  -7  -7    1.22    0.20
   2   7   7    0.95    0.21
   3  -7   7    1.47    0.21
   3   7   7    1.52    0.27
   4  -7   7    3.15    0.30
  -9  -8   7    0.25    0.14
  -8  -8   7    2.31    0.27
  -8   8   7    2.10    0.32
  -7  -8   7    1.37    0.21
  -7   8   7    1.20    0.25
  -6  -8   7    1.29    0.20
  -6   8   7    0.98    0.23
  -5  -8   7   18.02    0.71
  -5   8   7   17.45    0.78
  -4  -8   7   23.36    0.88
  -4   8   7   25.23    0.96
  -3  -8   7   40.78    1.34
  -3   8   7   42.39    1.35
  -3   8   7   41.14    1.41
  -2  -8   7   18.81    0.72
  -2   8   7   18.45    0.74
  -2   8   7   18.28    0.77
  -1  -8   7    3.72    0.27
   1  -8  -7    3.68    0.29
  -1   8   7    3.44    0.30
  -1   8   7    3.57    0.30
   0  -8   7    5.11    0.32
   0  -8  -7    5.21    0.34
   0   8   7    4.73    0.36
   1  -8   7    2.16    0.25
  -1  -8  -7    2.55    0.27
   1  -8   7    1.99    0.23
   1   8   7    2.32    0.29
  -2  -8  -7    1.98    0.25
   2  -8   7    2.16    0.26
   2  -8   7    2.32    0.25
   2   8   7    2.23    0.30
   3  -8   7    0.44    0.16
  -8  -9   7    5.19    0.38
  -7  -9   7    5.48    0.37
  -7   9   7    6.00    0.46
  -6  -9   7    1.82    0.24
  -6   9   7    1.99    0.29
  -5  -9   7    2.10    0.25
  -5   9   7    2.25    0.30
  -4  -9   7    4.90    0.34
  -4   9   7    5.17    0.38
  -3  -9   7    5.23    0.34
  -3   9   7    5.00    0.37
  -2  -9   7    7.89    0.42
  -2   9   7    8.32    0.48
  -1  -9   7    8.18    0.43
   1  -9  -7    8.21    0.46
   0  -9   7    4.54    0.32
   0  -9  -7    5.60    0.38
  -1  -9  -7    0.61    0.18
   1  -9   7    0.77    0.18
   1  -9   7    0.77    0.16
   2  -9   7    0.04    0.13
   3  -9   7    0.99    0.20
  -8 -10   7    3.08    0.32
  -7 -10   7    6.96    0.43
  -6 -10   7    4.33    0.33
  -6  10   7    4.09    0.43
  -5 -10   7    3.43    0.29
  -5  10   7    2.98    0.35
  -4 -10   7    3.51    0.30
  -4  10   7    3.69    0.38
  -3 -10   7    0.88    0.18
  -3  10   7    0.92    0.22
  -2 -10   7    0.19    0.13
  -2  10   7    0.34    0.16
   1 -10  -7    3.77    0.32
  -1 -10   7    3.36    0.29
   0 -10  -7    3.82    0.32
   0 -10   7    3.72    0.29
   1 -10   7    1.25    0.23
   1 -10   7    1.50    0.21
   2 -10   7    0.77    0.19
  -8 -11   7    1.84    0.28
  -7 -11   7    2.79    0.32
  -6 -11   7    4.18    0.34
  -5 -11   7    0.97    0.19
  -4 -11   7    3.92    0.32
  -4  11   7    4.64    0.39
  -3 -11   7    0.92    0.19
  -3  11   7    0.75    0.20
  -2 -11   7    1.21    0.20
  -2  11   7    0.85    0.21
  -1 -11   7    3.29    0.29
   0 -11   7    0.53    0.15
   1 -11   7    1.43    0.24
   1 -11   7    1.11    0.20
  -6 -12   7    0.44    0.18
  -5 -12   7    1.59    0.25
  -4 -12   7    1.79    0.25
  -3 -12   7    6.13    0.41
  -2 -12   7    2.41    0.28
  -1 -12   7    2.48    0.29
   0 -12   7    1.29    0.22
 -10   0   8    5.22    0.38
  -9   0   8   18.23    0.77
  -8   0   8    0.59    0.16
  -7   0   8    2.89    0.25
  -6   0   8    0.32    0.12
  -5   0   8    5.50    0.33
  -5   0   8    4.99    0.29
  -4   0   8   57.42    1.73
  -4   0   8   58.44    1.74
  -3   0   8   14.47    0.57
  -2   0   8    1.15    0.17
  -1   0   8    3.93    0.28
   0   0   8    1.35    0.20
   1   0   8   16.89    0.70
   2   0   8    9.49    0.49
   3   0   8    1.91    0.26
   4   0   8    0.68    0.19
 -10  -1   8    1.10    0.22
 -10   1   8    1.24    0.23
  -9  -1   8    3.91    0.31
  -9   1   8    3.42    0.35
  -8  -1   8   11.78    0.55
  -8   1   8   11.96    0.58
  -7  -1   8    4.03    0.28
  -7   1   8    3.96    0.30
  -6  -1   8    1.84    0.21
  -6  -1   8    1.72    0.17
  -6   1   8    1.99    0.23
  -5  -1   8   56.91    1.71
  -5  -1   8   57.48    1.73
  -5   1   8   57.78    1.77
  -5   1   8   58.03    1.71
  -4  -1   8   71.74    2.12
  -4   1   8   74.19    2.15
  -4   1   8   72.48    2.12
  -3  -1   8    0.33    0.12
  -3   1   8    0.22    0.11
  -2  -1   8   10.83    0.47
  -2   1   8   10.17    0.47
  -1  -1   8   24.01    0.84
  -1   1   8   22.21    0.84
   0  -1   8   15.31    0.62
   0   1   8   14.05    0.62
   1  -1   8    3.68    0.30
   1   1   8    3.96    0.30
   2  -1   8    1.27    0.21
   2   1   8    0.89    0.19
   3  -1   8    0.73    0.19
   3   1   8    0.35    0.15
   4  -1   8    0.29    0.16
   4   1   8    0.19    0.15
 -10  -2   8    1.72    0.25
 -10   2   8    1.58    0.26
  -9  -2   8    3.31    0.32
  -9   2   8    3.07    0.34
  -8  -2   8    3.86    0.30
  -8   2   8    4.07    0.33
  -7  -2   8   14.95    0.62
  -7   2   8   15.79    0.68
  -6  -2   8    8.88    0.42
  -6  -2   8    9.22    0.39
  -6   2   8    8.49    0.46
  -5  -2   8   15.21    0.57
  -5   2   8   14.86    0.63
  -5   2   8   14.91    0.57
  -4  -2   8   12.54    0.52
  -4   2   8   13.38    0.56
  -4   2   8   13.34    0.53
  -3  -2   8   16.21    0.62
  -3   2   8   16.72    0.63
  -3   2   8   15.81    0.63
  -2  -2   8    9.62    0.44
  -2   2   8    9.81    0.46
  -1  -2   8   11.95    0.53
  -1   2   8   13.03    0.57
   0  -2   8    4.33    0.29
   0   2   8    3.82    0.30
   1  -2   8    0.87    0.18
   1   2   8    1.02    0.19
   2  -2   8    1.05    0.19
   2   2   8    0.89    0.19
   3  -2   8    0.01    0.12
   3   2   8    0.15    0.14
   4   2   8    0.46    0.18
 -10  -3   8   -0.02    0.13
 -10   3   8    0.42    0.20
  -9  -3   8    3.36    0.30
  -9   3   8    4.33    0.36
  -8  -3   8   13.26    0.58
  -8   3   8   12.79    0.64
  -7  -3   8    4.22    0.29
  -7  -3   8    4.22    0.26
  -7   3   8    3.92    0.32
  -6  -3   8    1.86    0.20
  -6   3   8    2.01    0.25
  -5  -3   8    7.21    0.35
  -5   3   8    7.03    0.40
  -4  -3   8   13.05    0.53
  -4   3   8   14.05    0.55
  -4   3   8   12.86    0.57
  -3  -3   8   23.52    0.84
  -3   3   8   25.22    0.86
  -3   3   8   23.79    0.86
  -2  -3   8   10.87    0.48
  -2   3   8   11.27    0.50
  -2   3   8   10.40    0.48
  -1  -3   8   25.30    0.89
  -1   3   8   24.55    0.90
   0  -3   8   11.24    0.51
   0   3   8   10.50    0.53
   1  -3   8    0.55    0.15
   1   3   8    0.64    0.17
   2  -3   8    2.16    0.25
   2   3   8    2.23    0.28
   3  -3   8    0.69    0.18
   3   3   8    0.30    0.16
   4   3   8    2.76    0.34
 -10  -4   8   13.50    0.63
  -9  -4   8   20.77    0.83
  -9   4   8   22.68    0.95
  -8  -4   8    6.47    0.38
  -8   4   8    6.88    0.46
  -7  -4   8    0.36    0.13
  -7  -4   8    0.45    0.12
  -7   4   8    0.38    0.15
  -6  -4   8    0.32    0.10
  -6   4   8    0.33    0.13
  -5  -4   8    0.72    0.13
  -5   4   8    1.07    0.15
  -5   4   8    0.82    0.17
  -4  -4   8    3.49    0.24
  -4   4   8    3.09    0.24
  -4   4   8    3.02    0.27
  -3  -4   8    0.90    0.15
  -3   4   8    1.18    0.18
  -3   4   8    1.02    0.18
  -2  -4   8    2.86    0.23
  -2   4   8    2.94    0.25
  -2   4   8    2.81    0.24
  -1  -4   8    0.68    0.15
  -1   4   8    1.04    0.18
   0  -4   8   18.24    0.66
   0  -4   8   17.67    0.70
   0   4   8   18.00    0.75
   1  -4   8    7.24    0.41
   1   4   8    7.76    0.46
   2  -4   8    0.90    0.19
   2   4   8    0.81    0.19
   3  -4   8    5.04    0.35
   3   4   8    4.99    0.39
   4   4   8    0.76    0.22
 -10  -5   8    0.18    0.14
  -9  -5   8    3.51    0.30
  -9   5   8    3.51    0.40
  -8  -5   8    7.64    0.42
  -8   5   8    9.33    0.55
  -7  -5   8    3.20    0.25
  -7   5   8    3.56    0.36
  -6  -5   8   10.63    0.47
  -6   5   8    9.83    0.53
  -5  -5   8    3.34    0.25
  -5   5   8    3.24    0.29
  -4  -5   8   11.10    0.48
  -4   5   8   10.74    0.53
  -4   5   8   10.79    0.48
  -3  -5   8    2.34    0.21
  -3   5   8    2.17    0.25
  -3   5   8    2.34    0.24
  -2  -5   8    1.26    0.17
  -2   5   8    1.57    0.21
  -2   5   8    1.90    0.23
  -1  -5   8    3.81    0.28
  -1   5   8    4.18    0.30
  -1   5   8    4.23    0.32
   0  -5   8    7.59    0.40
   0   5   8    6.84    0.43
   1  -5   8   12.85    0.53
   1  -5   8   10.74    0.53
   1   5   8   13.13    0.62
   2  -5   8    2.48    0.25
   2  -5   8    2.47    0.27
   2   5   8    2.18    0.29
   3   5   8    5.19    0.42
  -9  -6   8    0.88    0.19
  -9   6   8    0.97    0.24
  -8  -6   8    9.43    0.47
  -8   6   8   10.05    0.60
  -7  -6   8   17.93    0.70
  -7   6   8   17.84    0.81
  -6  -6   8   17.00    0.67
  -6   6   8   16.21    0.75
  -5  -6   8    7.20    0.39
  -5   6   8    7.34    0.45
  -4  -6   8    1.89    0.22
  -4   6   8    2.10    0.22
  -4   6   8    1.47    0.23
  -3  -6   8    2.26    0.23
  -3   6   8    2.07    0.25
  -3   6   8    2.64    0.26
  -2  -6   8    2.18    0.23
  -2   6   8    3.07    0.29
  -2   6   8    2.07    0.25
  -1  -6   8    3.23    0.26
   1  -6  -8    2.99    0.26
  -1   6   8    3.36    0.30
  -1   6   8    3.26    0.27
   0  -6   8    3.60    0.28
   0   6   8    3.18    0.33
   1  -6   8    0.31    0.14
   1  -6   8    0.03    0.11
   1   6   8    0.13    0.14
   2  -6   8   -0.11    0.11
   2  -6   8    0.03    0.10
   2   6   8    0.09    0.15
   3   6   8    0.65    0.21
  -8  -7   8    0.43    0.15
  -8   7   8    0.69    0.21
  -7  -7   8    1.50    0.21
  -7   7   8    1.36    0.26
  -6  -7   8    1.57    0.21
  -6   7   8    1.65    0.27
  -5  -7   8    9.11    0.45
  -5   7   8    7.89    0.49
  -4  -7   8   28.60    1.02
  -4   7   8   29.17    1.09
  -4   7   8   30.23    1.02
  -3  -7   8   18.13    0.71
  -3   7   8   17.90    0.72
  -3   7   8   17.59    0.76
  -2  -7   8   11.94    0.55
  -2   7   8   13.11    0.59
  -2   7   8   12.98    0.60
   1  -7  -8    5.05    0.35
  -1  -7   8    5.70    0.35
  -1   7   8    5.83    0.39
   0  -7  -8   11.14    0.53
   0  -7   8   10.90    0.52
   0   7   8   11.04    0.58
   1  -7   8    3.64    0.29
   1  -7   8    3.37    0.28
   1   7   8    4.16    0.36
   2  -7   8    0.20    0.14
   2  -7   8    0.21    0.13
   2   7   8    0.03    0.14
   3  -7   8    1.25    0.21
  -8  -8   8    2.09    0.26
  -7  -8   8    2.89    0.29
  -7   8   8    2.95    0.37
  -6  -8   8    1.94    0.24
  -6   8   8    2.06    0.29
  -5  -8   8    0.49    0.14
  -5   8   8    0.35    0.17
  -4  -8   8    3.00    0.26
  -4   8   8    3.19    0.34
  -3  -8   8    5.95    0.37
  -3   8   8    6.45    0.42
  -3   8   8    6.73    0.40
  -2  -8   8    0.77    0.16
  -2   8   8    1.02    0.20
  -2   8   8    1.02    0.21
  -1  -8   8    1.95    0.23
   1  -8  -8    1.88    0.24
  -1   8   8    2.09    0.27
   0  -8   8    0.65    0.16
   0  -8  -8    0.64    0.17
   0   8   8    0.66    0.19
   1  -8   8    1.86    0.24
   1  -8   8    1.95    0.25
   1   8   8    1.88    0.29
   2  -8   8    0.53    0.17
   2   8   8    0.57    0.20
  -8  -9   8    3.76    0.32
  -7  -9   8    4.84    0.35
  -6  -9   8    4.72    0.35
  -6   9   8    4.19    0.43
  -5  -9   8    4.84    0.34
  -5   9   8    5.03    0.40
  -4  -9   8   10.23    0.51
  -4   9   8   10.16    0.57
  -3  -9   8    1.92    0.24
  -3   9   8    2.30    0.29
  -2  -9   8    1.25    0.20
  -2   9   8    0.99    0.21
  -2   9   8    1.59    0.25
   1  -9  -8    1.01    0.20
  -1  -9   8    0.46    0.14
  -1   9   8    1.09    0.22
   0  -9  -8    3.40    0.30
   0  -9   8    3.09    0.27
   1  -9   8    1.39    0.22
   1  -9   8    1.60    0.23
  -8 -10   8    2.66    0.31
  -7 -10   8    2.31    0.29
  -6 -10   8    5.29    0.38
  -5 -10   8    0.87    0.18
  -4 -10   8    3.72    0.30
  -3 -10   8    3.68    0.31
  -3  10   8    3.64    0.38
  -2 -10   8    2.25    0.26
  -1 -10   8    3.43    0.29
   0 -10   8    0.41    0.15
   1 -10   8    0.27    0.15
  -7 -11   8    1.13    0.23
  -6 -11   8    0.39    0.17
  -5 -11   8    0.81    0.19
  -4 -11   8    1.52    0.23
  -3 -11   8    6.91    0.43
  -2 -11   8    2.61    0.29
  -1 -11   8    0.84    0.19
   0 -11   8    1.57    0.24
 -10   0   9    2.89    0.34
  -9   0   9   14.59    0.68
  -8   0   9    3.09    0.32
  -7   0   9    0.16    0.12
  -6   0   9   25.38    0.87
  -6   0   9   25.15    0.92
  -5   0   9   70.60    2.09
  -4   0   9   64.14    1.94
  -3   0   9   18.50    0.71
  -2   0   9    2.80    0.28
  -1   0   9    2.64    0.28
   0   0   9    0.04    0.11
   1   0   9   -0.14    0.10
   2   0   9    0.13    0.14
   3   0   9    0.64    0.19
 -10  -1   9    4.67    0.38
 -10   1   9    5.06    0.40
  -9  -1   9    4.54    0.36
  -9   1   9    4.54    0.38
  -8  -1   9    1.02    0.21
  -8   1   9    1.41    0.24
  -7  -1   9    6.73    0.39
  -7   1   9    5.97    0.40
  -6  -1   9    4.65    0.28
  -6   1   9    4.76    0.34
  -6   1   9    4.91    0.29
  -5  -1   9    9.31    0.44
  -5   1   9    9.15    0.43
  -4  -1   9    3.07    0.26
  -4   1   9    2.62    0.26
  -3  -1   9    4.74    0.30
  -3   1   9    4.16    0.31
  -2  -1   9    0.53    0.14
  -2   1   9    0.43    0.14
  -1  -1   9    1.36    0.20
  -1   1   9    1.51    0.22
   0  -1   9    0.17    0.12
   0   1   9   -0.12    0.10
   1  -1   9    0.95    0.19
   1   1   9    0.89    0.21
   2  -1   9    0.96    0.21
   2   1   9    0.84    0.20
   3  -1   9    1.45    0.24
   3   1   9    1.25    0.24
 -10  -2   9    2.36    0.30
  -9  -2   9    6.50    0.42
  -9   2   9    6.65    0.47
  -8  -2   9    5.18    0.36
  -8   2   9    5.43    0.40
  -7   2   9    2.45    0.29
  -6  -2   9    2.80    0.22
  -6   2   9    2.71    0.30
  -5  -2   9    6.78    0.36
  -5   2   9    6.70    0.40
  -5   2   9    6.57    0.35
  -4  -2   9    4.98    0.30
  -4   2   9    4.64    0.32
  -3  -2   9    3.43    0.26
  -3   2   9    3.41    0.27
  -2  -2   9   15.64    0.67
  -2   2   9   17.42    0.70
  -1  -2   9    8.46    0.45
  -1   2   9    9.74    0.50
   0  -2   9    8.82    0.47
   0   2   9    8.84    0.49
   1  -2   9    0.97    0.20
   1   2   9    0.82    0.20
   2  -2   9    2.81    0.31
   2   2   9    2.90    0.33
   3  -2   9    0.05    0.14
   3   2   9    0.04    0.14
 -10  -3   9    6.07    0.42
  -9  -3   9    9.54    0.50
  -9   3   9    9.89    0.58
  -8   3   9    4.03    0.40
  -7  -3   9    1.59    0.19
  -7   3   9    1.78    0.26
  -6  -3   9    5.88    0.33
  -6   3   9    5.68    0.39
  -5  -3   9    1.06    0.17
  -5   3   9    1.06    0.20
  -5   3   9    0.87    0.16
  -4  -3   9    1.09    0.17
  -4   3   9    0.97    0.17
  -4   3   9    1.11    0.19
  -3  -3   9    7.58    0.40
  -3   3   9    8.55    0.44
  -2  -3   9    0.39    0.13
  -2   3   9    0.45    0.15
  -1  -3   9    0.69    0.16
  -1   3   9    0.40    0.16
   0  -3   9    5.13    0.35
   0   3   9    4.06    0.34
   1  -3   9   12.72    0.61
   1   3   9   14.34    0.67
   2  -3   9    0.53    0.17
   2   3   9    0.52    0.18
   3  -3   9    2.21    0.30
  -9   4   9    7.05    0.50
  -8   4   9    3.95    0.40
  -7  -4   9    0.69    0.15
  -7   4   9    0.83    0.20
  -6  -4   9    5.69    0.32
  -6   4   9    5.50    0.38
  -5  -4   9   11.79    0.53
  -5   4   9   12.95    0.60
  -5   4   9   12.34    0.53
  -4  -4   9    8.72    0.43
  -4   4   9    8.41    0.46
  -4   4   9    8.55    0.43
  -3  -4   9    0.14    0.11
  -3   4   9    0.23    0.13
  -3   4   9    0.42    0.14
  -2  -4   9    1.17    0.18
  -2   4   9    1.04    0.20
  -1  -4   9    0.08    0.12
  -1   4   9    0.33    0.15
   0  -4   9    0.99    0.19
   0   4   9    0.94    0.21
   1  -4   9    2.28    0.27
   1   4   9    2.16    0.30
   2  -4   9    3.03    0.32
   2   4   9    2.82    0.34
   3  -4   9    0.86    0.21
  -8   5   9    7.49    0.51
  -7  -5   9   12.19    0.54
  -7   5   9   11.98    0.63
  -6  -5   9    2.45    0.25
  -6   5   9    3.35    0.35
  -5  -5   9    1.67    0.21
  -5   5   9    1.65    0.25
  -4  -5   9    9.07    0.46
  -4   5   9    9.94    0.52
  -4   5   9   10.00    0.48
  -3  -5   9    2.79    0.25
  -3   5   9    2.60    0.29
  -3   5   9    2.66    0.28
  -2  -5   9    2.69    0.27
  -2   5   9    3.43    0.29
  -1  -5   9    2.64    0.27
  -1   5   9    2.58    0.30
   0  -5   9    5.51    0.36
   0   5   9    4.39    0.37
   1  -5   9    2.42    0.28
   1   5   9    1.99    0.30
   2  -5   9    0.64    0.18
   2   5   9    0.96    0.24
  -8  -6   9    3.60    0.29
  -8   6   9    3.30    0.39
  -7  -6   9    2.29    0.25
  -7   6   9    1.99    0.30
  -6  -6   9    1.90    0.23
  -6   6   9    2.14    0.30
  -5  -6   9    0.10    0.11
  -5   6   9    0.13    0.13
  -4  -6   9    5.55    0.34
  -4   6   9    5.58    0.36
  -4   6   9    5.47    0.39
  -3  -6   9    5.26    0.35
  -3   6   9    6.36    0.39
  -3   6   9    6.15    0.39
  -2  -6   9   11.19    0.54
  -2   6   9   13.29    0.59
  -2   6   9   11.28    0.57
  -1  -6   9    5.47    0.36
  -1   6   9    6.15    0.42
   0  -6   9    2.81    0.29
   0  -6   9    2.99    0.29
   0   6   9    2.24    0.30
   1  -6   9    1.36    0.22
   1   6   9    1.26    0.26
   2  -6   9    1.45    0.23
  -8  -7   9   12.74    0.58
  -7  -7   9   12.44    0.57
  -7   7   9   12.12    0.68
  -6  -7   9    7.07    0.41
  -6   7   9    7.84    0.51
  -5  -7   9    1.07    0.19
  -5   7   9    0.51    0.19
  -4  -7   9    0.08    0.12
  -4   7   9    0.06    0.12
  -4   7   9    0.01    0.13
  -3  -7   9    6.98    0.41
  -3   7   9    6.67    0.41
  -3   7   9    7.42    0.45
  -2  -7   9    2.19    0.26
  -2   7   9    2.23    0.27
  -2   7   9    2.68    0.30
  -1  -7   9    0.15    0.12
  -1   7   9    0.21    0.14
   0  -7   9    0.22    0.13
   0  -7   9    0.23    0.14
   0   7   9    0.26    0.15
   1  -7   9    1.67    0.25
   1  -7   9    1.57    0.23
   1   7   9    1.60    0.28
   2  -7   9    0.35    0.16
  -8  -8   9    1.24    0.22
  -7  -8   9    3.07    0.31
  -6  -8   9    3.16    0.28
  -6   8   9    3.47    0.39
  -5  -8   9    7.44    0.42
  -5   8   9    6.49    0.46
  -4  -8   9    9.98    0.50
  -4   8   9    9.44    0.56
  -3  -8   9    3.34    0.29
  -3   8   9    3.09    0.33
  -3   8   9    2.64    0.31
  -2  -8   9    0.81    0.18
  -2   8   9    0.49    0.18
  -2   8   9    0.97    0.22
  -1  -8   9    0.04    0.11
   1  -8  -9    0.01    0.12
  -1   8   9   -0.05    0.12
   0  -8   9    0.37    0.16
   0  -8   9    0.43    0.16
   0   8   9    0.51    0.19
   1  -8   9    0.61    0.17
   1  -8   9    0.78    0.19
  -8  -9   9    0.43    0.18
  -7  -9   9    0.13    0.15
  -6  -9   9    1.40    0.23
  -5  -9   9    0.33    0.15
  -4  -9   9    4.03    0.32
  -3  -9   9    7.42    0.44
  -3   9   9    8.63    0.49
  -2  -9   9    4.25    0.33
  -2   9   9    4.10    0.35
  -1  -9   9    0.50    0.17
  -1   9   9    0.61    0.19
   0  -9   9    0.45    0.17
   0  -9   9    0.25    0.14
  -7 -10   9    0.73    0.21
  -6 -10   9    0.21    0.15
  -5 -10   9    0.50    0.17
  -4 -10   9    0.57    0.17
  -3 -10   9    2.34    0.28
  -2 -10   9    3.19    0.32
  -9   0  10    2.70    0.33
  -8   0  10    3.32    0.35
  -6   0  10    0.24    0.11
  -5   0  10    3.82    0.29
  -4   0  10   10.48    0.51
  -3   0  10    1.65    0.23
  -2   0  10    0.05    0.11
  -1   0  10   -0.05    0.11
   0   0  10    0.23    0.15
   1   0  10    0.17    0.15
  -9  -1  10    4.83    0.39
  -9   1  10    4.10    0.42
  -8   1  10    0.86    0.21
  -6  -1  10    5.04    0.31
  -6   1  10    5.24    0.33
  -5  -1  10   15.99    0.66
  -5   1  10   16.64    0.67
  -4  -1  10    4.55    0.31
  -4   1  10    4.13    0.31
  -3  -1  10    2.95    0.26
  -3   1  10    2.46    0.28
  -2  -1  10    4.73    0.35
  -2   1  10    4.70    0.35
  -1  -1  10    2.24    0.27
  -1   1  10    1.88    0.27
   0  -1  10    1.86    0.27
   0   1  10    1.62    0.25
   1  -1  10    0.64    0.20
   1   1  10    0.27    0.17
  -9   2  10    5.20    0.43
  -8   2  10   21.52    0.92
  -7   2  10    8.86    0.52
  -6  -2  10    0.00    0.09
  -5  -2  10    1.16    0.19
  -5   2  10    1.04    0.19
  -4  -2  10    2.14    0.25
  -4   2  10    1.73    0.23
  -3  -2  10    3.72    0.30
  -3   2  10    4.91    0.34
  -2  -2  10    0.18    0.13
  -2   2  10    0.26    0.16
  -1  -2  10    1.27    0.21
  -1   2  10    1.23    0.22
   0  -2  10    1.39    0.23
   0   2  10    1.28    0.24
   1  -2  10    1.47    0.25
   1   2  10    1.46    0.26
  -8   3  10    0.44    0.19
  -7  -3  10    3.80    0.28
  -7   3  10    3.37    0.36
  -6  -3  10    4.02    0.29
  -6   3  10    3.55    0.36
  -5  -3  10    2.52    0.26
  -5   3  10    2.72    0.28
  -4  -3  10    0.27    0.13
  -4   3  10    0.28    0.15
  -3  -3  10    2.20    0.25
  -3   3  10    2.38    0.28
  -2  -3  10    5.24    0.36
  -2   3  10    6.55    0.41
  -1  -3  10    2.78    0.30
  -1   3  10    2.62    0.31
   0  -3  10    1.95    0.26
   0   3  10    1.54    0.27
   1  -3  10    0.29    0.17
   1   3  10    0.38    0.18
  -8   4  10    1.61    0.29
  -7  -4  10    0.35    0.13
  -7   4  10    0.14    0.16
  -6  -4  10    4.08    0.30
  -6   4  10    4.31    0.36
  -5  -4  10    6.86    0.40
  -5   4  10    7.76    0.41
  -5   4  10    7.34    0.44
  -4  -4  10   10.45    0.51
  -4   4  10   10.14    0.51
  -3  -4  10    1.66    0.23
  -3   4  10    1.70    0.25
  -2  -4  10    2.44    0.28
  -2   4  10    2.56    0.31
  -1  -4  10    2.64    0.30
  -1   4  10    2.77    0.33
   0  -4  10    5.83    0.39
   0   4  10    5.62    0.43
   1  -4  10    3.68    0.36
   1   4  10    3.11    0.36
  -7  -5  10    1.22    0.20
  -7   5  10    1.00    0.24
  -6  -5  10    1.44    0.21
  -6   5  10    1.33    0.25
  -5  -5  10    3.49    0.29
  -5   5  10    4.39    0.35
  -4  -5  10    3.09    0.27
  -4   5  10    3.35    0.33
  -3  -5  10    4.96    0.35
  -3   5  10    4.74    0.35
  -2  -5  10    1.25    0.22
  -2   5  10    1.89    0.28
  -1  -5  10    0.18    0.13
  -1   5  10    0.66    0.19
   0  -5  10    1.18    0.22
   0   5  10    1.17    0.26
  -8  -6  10    6.70    0.40
  -7  -6  10    9.85    0.51
  -7   6  10   11.67    0.64
  -6  -6  10    4.37    0.32
  -6   6  10    3.75    0.40
  -5  -6  10    2.74    0.28
  -5   6  10    2.70    0.33
  -4  -6  10    4.85    0.34
  -4   6  10    4.08    0.33
  -4   6  10    4.70    0.37
  -3  -6  10    3.63    0.31
  -3   6  10    3.72    0.37
  -2  -6  10    0.90    0.19
  -2   6  10    0.91    0.22
  -1  -6  10    0.29    0.14
  -1   6  10    0.16    0.16
   0  -6  10    0.08    0.13
   0   6  10    0.32    0.19
  -8  -7  10    0.51    0.16
  -7  -7  10    6.42    0.41
  -6  -7  10    1.76    0.24
  -5  -7  10    1.66    0.24
  -5   7  10    2.00    0.29
  -4  -7  10    7.31    0.43
  -4   7  10    6.40    0.46
  -3  -7  10    7.12    0.42
  -3   7  10    6.55    0.44
  -2  -7  10    0.95    0.21
  -2   7  10    1.25    0.24
  -1  -7  10   -0.09    0.12
  -1   7  10    0.03    0.14
  -8  -8  10    2.30    0.28
  -7  -8  10    1.26    0.22
  -6  -8  10    1.65    0.24
  -5  -8  10    0.19    0.13
  -4  -8  10    2.20    0.28
  -3  -8  10    5.74    0.38
  -3   8  10    5.10    0.40
  -2  -8  10    3.09    0.32
  -2   8  10    2.72    0.34
  -6  -9  10   -0.01    0.13
  -5  -9  10   -0.15    0.12
  -4  -9  10    1.58    0.25
  -3   9  10    1.60    0.27
  -2   9  10    2.67    0.35
  -6   0  11    2.74    0.28
  -5   0  11   -0.18    0.10
  -4   0  11    0.18    0.14
  -3   0  11    1.00    0.22
  -2   0  11    0.01    0.13
  -1   0  11    1.06    0.23
  -6  -1  11    0.02    0.12
  -6   1  11    0.22    0.13
  -5  -1  11    6.40    0.40
  -5   1  11    5.49    0.37
  -4  -1  11    3.29    0.29
  -4   1  11    3.81    0.33
  -3  -1  11    2.94    0.32
  -3   1  11    2.88    0.33
  -2  -1  11    0.00    0.13
  -2   1  11    0.30    0.17
  -1  -1  11    2.90    0.33
  -1   1  11    2.76    0.33
  -6  -2  11    0.62    0.17
  -5  -2  11    4.77    0.35
  -5   2  11    5.06    0.37
  -4  -2  11    4.15    0.34
  -4   2  11    3.99    0.33
  -3  -2  11    4.42    0.34
  -3   2  11    4.39    0.36
  -2  -2  11    2.91    0.32
  -2   2  11    2.29    0.31
  -1  -2  11    0.48    0.17
  -1   2  11    0.38    0.19
  -8   3  11    6.91    0.49
  -7  -3  11    8.60    0.45
  -6  -3  11    4.23    0.32
  -5  -3  11    1.74    0.25
  -5   3  11    1.49    0.24
  -4  -3  11    3.38    0.33
  -4   3  11    3.61    0.36
  -3  -3  11    0.64    0.17
  -3   3  11    0.35    0.18
  -2  -3  11    0.65    0.19
  -2   3  11    0.54    0.20
  -1  -3  11    0.66    0.19
  -1   3  11    0.78    0.21
  -7  -4  11    2.48    0.28
  -7   4  11    2.55    0.34
  -6  -4  11    2.50    0.28
  -5  -4  11    4.59    0.33
  -5   4  11    4.58    0.36
  -4  -4  11    0.34    0.15
  -4   4  11    0.56    0.19
  -3  -4  11    1.44    0.24
  -3   4  11    1.33    0.24
  -2  -4  11    0.27    0.15
  -2   4  11    0.62    0.20
  -7  -5  11    3.01    0.30
  -6  -5  11    1.64    0.23
  -5  -5  11    4.03    0.33
  -4  -5  11    6.09    0.40
  -4   5  11    6.57    0.44
  -3  -5  11    1.53    0.24
  -3   5  11    1.27    0.24
  -2  -5  11    1.31    0.24
  -2   5  11    1.51    0.26
  -7  -6  11    1.30    0.23
  -6  -6  11    1.12    0.20
  -5  -6  11    0.07    0.14
  -4  -6  11    0.99    0.21
  -4   6  11    1.22    0.23
  -3  -6  11    4.52    0.35
  -3   6  11    4.71    0.40
  -2   6  11    3.76    0.40
  -8  -7  11    0.70    0.19
  -7  -7  11    2.35    0.29
  -6  -7  11    1.59    0.26
  -5  -7  11    0.50    0.17
  -3   7  11    0.50    0.19
  -6   0  12    0.38    0.17
  -5   0  12    4.12    0.34
  -4   0  12    1.47    0.25
  -3   0  12    0.05    0.15
  -6  -1  12   -0.04    0.13
  -5  -1  12    0.87    0.21
  -5   1  12    0.91    0.21
  -4  -1  12    2.46    0.31
  -4   1  12    1.84    0.29
  -3  -1  12    1.23    0.24
  -3   1  12    1.29    0.25
  -6  -2  12    0.83    0.19
  -5  -2  12    0.76    0.19
  -5   2  12    0.47    0.19
  -4  -2  12    0.25    0.17
  -4   2  12    0.53    0.20
  -3   2  12    0.22    0.16
  -7  -3  12    2.35    0.28
  -6  -3  12    0.35    0.16
  -5  -3  12    1.28    0.23
  -5   3  12    0.85    0.21
  -4  -3  12    3.64    0.37
  -4   3  12    3.61    0.38
  -7  -4  12    2.36    0.28
  -6  -4  12    3.77    0.33
  -5  -4  12    3.35    0.34
  -4   4  12    0.14    0.17
   0   0   0    0.00    0.00
;
_shelx_hkl_checksum              34590
_olex2_submission_special_instructions 'No special instructions were received'
loop_
_space_group_symop_operation_xyz
'x, y, z'
'-x, y+1/2, -z'
loop_
_atom_site_label
_atom_site_type_symbol
_atom_site_fract_x
_atom_site_fract_y
_atom_site_fract_z
_atom_site_U_iso_or_equiv
_atom_site_adp_type
_atom_site_occupancy
_atom_site_site_symmetry_order
_atom_site_calc_flag
_atom_site_refinement_flags_posn
_atom_site_refinement_flags_adp
_atom_site_refinement_flags_occupancy
_atom_site_disorder_assembly
_atom_site_disorder_group
S1 S 0.45729(8) 0.17802(6) 0.76459(9) 0.04899(19) Uani 1 1 d . . . . .
S2 S 0.62674(9) -0.06872(6) 0.84804(9) 0.05247(19) Uani 1 1 d . . . . .
C1 C 0.5532(3) 0.0557(2) 0.6955(3) 0.0334(5) Uani 1 1 d . . . . .
O2 O 0.3647(3) -0.0868(2) 0.4810(3) 0.0652(6) Uani 1 1 d . . . . .
C3 C 0.7172(3) 0.1158(2) 0.6879(3) 0.0343(5) Uani 1 1 d . . . . .
H3 H 0.676114 0.195096 0.634350 0.041 Uiso 1 1 calc R . . . .
C4 C 0.7785(3) 0.0487(2) 0.5734(3) 0.0365(5) Uani 1 1 d . . . . .
C5 C 0.4130(3) 0.0161(2) 0.5124(3) 0.0400(5) Uani 1 1 d . . . . .
C6 C 0.3524(5) 0.0004(4) 0.9221(4) 0.0680(9) Uani 1 1 d . . . . .
H6A H 0.446371 0.030876 1.031354 0.082 Uiso 1 1 calc R . . . .
H6B H 0.256038 -0.028501 0.942284 0.082 Uiso 1 1 calc R . . . .
C7 C 0.8735(3) 0.1388(3) 0.8651(3) 0.0480(6) Uani 1 1 d . . . . .
H7 H 0.934104 0.072815 0.933155 0.058 Uiso 1 1 calc R . . . .
C8 C 0.8498(3) -0.0660(3) 0.6092(4) 0.0495(6) Uani 1 1 d . . . . .
H8 H 0.858417 -0.107289 0.705407 0.059 Uiso 1 1 calc R . . . .
C9 C 0.2833(4) 0.1025(3) 0.7908(4) 0.0583(8) Uani 1 1 d . . . . .
H9A H 0.222958 0.160931 0.827401 0.070 Uiso 1 1 calc R . . . .
H9B H 0.195919 0.070476 0.679415 0.070 Uiso 1 1 calc R . . . .
C10 C 0.9088(4) -0.1203(3) 0.5024(5) 0.0669(9) Uani 1 1 d . . . . .
H10 H 0.956341 -0.197735 0.527505 0.080 Uiso 1 1 calc R . . . .
C11 C 0.9281(5) 0.2468(4) 0.9277(5) 0.0715(10) Uani 1 1 d . . . . .
C12 C 0.7680(4) 0.1076(3) 0.4290(3) 0.0523(7) Uani 1 1 d . . . . .
H12 H 0.720545 0.185028 0.402727 0.063 Uiso 1 1 calc R . . . .
C13 C 0.8269(5) 0.0529(4) 0.3237(4) 0.0690(9) Uani 1 1 d . . . . .
H13 H 0.818495 0.093588 0.227205 0.083 Uiso 1 1 calc R . . . .
C14 C 0.8973(4) -0.0605(4) 0.3602(4) 0.0712(10) Uani 1 1 d . . . . .
H14 H 0.937231 -0.096997 0.289197 0.085 Uiso 1 1 calc R . . . .
C15 C 0.3331(4) 0.1107(3) 0.3727(4) 0.0626(8) Uani 1 1 d . . . . .
H15A H 0.215345 0.130897 0.353964 0.094 Uiso 1 1 calc GR . . . .
H15B H 0.325943 0.079999 0.267040 0.094 Uiso 1 1 calc GR . . . .
H15C H 0.407119 0.181361 0.408180 0.094 Uiso 1 1 calc GR . . . .
C16 C 0.4249(5) -0.1037(3) 0.8623(5) 0.0659(9) Uani 1 1 d . . . . .
H16A H 0.333176 -0.129867 0.749016 0.079 Uiso 1 1 calc R . . . .
H16B H 0.450016 -0.170502 0.942056 0.079 Uiso 1 1 calc R . . . .
H11A H 1.042(6) 0.266(4) 1.039(6) 0.093(13) Uiso 1 1 d . . . . .
H11B H 0.866(5) 0.317(4) 0.874(5) 0.078(12) Uiso 1 1 d . . . . .
loop_
_atom_site_aniso_label
_atom_site_aniso_U_11
_atom_site_aniso_U_22
_atom_site_aniso_U_33
_atom_site_aniso_U_23
_atom_site_aniso_U_13
_atom_site_aniso_U_12
S1 0.0479(3) 0.0451(3) 0.0639(4) -0.0151(3) 0.0346(3) -0.0014(3)
S2 0.0553(4) 0.0577(4) 0.0505(3) 0.0211(3) 0.0300(3) 0.0134(3)
C1 0.0366(10) 0.0333(11) 0.0320(10) -0.0005(9) 0.0178(9) 0.0023(9)
O2 0.0737(13) 0.0526(13) 0.0622(12) -0.0199(10) 0.0265(10) -0.0199(11)
C3 0.0334(11) 0.0346(12) 0.0345(10) -0.0025(9) 0.0158(9) -0.0002(9)
C4 0.0304(10) 0.0428(13) 0.0370(11) -0.0080(9) 0.0167(9) -0.0066(9)
C5 0.0370(11) 0.0470(14) 0.0378(11) -0.0054(10) 0.0192(9) -0.0039(10)
C6 0.0594(16) 0.103(3) 0.0580(16) -0.0048(18) 0.0411(14) -0.0127(18)
C7 0.0377(12) 0.0626(17) 0.0405(12) -0.0112(11) 0.0161(11) -0.0067(12)
C8 0.0501(13) 0.0456(14) 0.0620(15) -0.0020(14) 0.0342(12) 0.0004(13)
C9 0.0463(14) 0.073(2) 0.0662(17) -0.0121(15) 0.0356(13) -0.0047(14)
C10 0.0547(16) 0.0566(17) 0.099(3) -0.0272(17) 0.0445(17) -0.0058(14)
C11 0.063(2) 0.083(3) 0.0640(19) -0.029(2) 0.0268(17) -0.029(2)
C12 0.0512(15) 0.0642(18) 0.0457(13) 0.0029(12) 0.0266(12) -0.0011(13)
C13 0.0653(18) 0.105(3) 0.0492(15) -0.0100(17) 0.0375(14) -0.0139(19)
C14 0.0594(17) 0.100(3) 0.0717(19) -0.041(2) 0.0453(15) -0.023(2)
C15 0.0493(15) 0.084(2) 0.0410(14) 0.0114(14) 0.0100(12) 0.0019(15)
C16 0.0747(19) 0.065(2) 0.074(2) 0.0220(16) 0.0483(17) -0.0015(16)
loop_
_atom_type_symbol
_atom_type_description
_atom_type_scat_dispersion_real
_atom_type_scat_dispersion_imag
_atom_type_scat_source
C C 0.0033 0.0016 'International Tables Vol C Tables 4.2.6.8 and 6.1.1.4'
H H 0.0000 0.0000 'International Tables Vol C Tables 4.2.6.8 and 6.1.1.4'
O O 0.0106 0.0060 'International Tables Vol C Tables 4.2.6.8 and 6.1.1.4'
S S 0.1246 0.1234 'International Tables Vol C Tables 4.2.6.8 and 6.1.1.4'
loop_
_geom_angle_atom_site_label_1
_geom_angle_atom_site_label_2
_geom_angle_atom_site_label_3
_geom_angle
_geom_angle_site_symmetry_1
_geom_angle_site_symmetry_3
_geom_angle_publ_flag
C9 S1 C1 102.55(13) . . ?
C1 S2 C16 101.91(13) . . ?
S2 C1 S1 111.95(11) . . ?
C3 C1 S1 103.96(15) . . ?
C3 C1 S2 110.56(15) . . ?
C5 C1 S1 108.08(15) . . ?
C5 C1 S2 112.09(16) . . ?
C5 C1 C3 109.88(17) . . ?
C1 C3 H3 106.2 . . ?
C4 C3 C1 113.93(18) . . ?
C4 C3 H3 106.2 . . ?
C7 C3 C1 113.14(19) . . ?
C7 C3 H3 106.2 . . ?
C7 C3 C4 110.45(19) . . ?
C8 C4 C3 123.5(2) . . ?
C8 C4 C12 118.2(2) . . ?
C12 C4 C3 118.3(2) . . ?
O2 C5 C1 121.4(2) . . ?
O2 C5 C15 120.3(2) . . ?
C15 C5 C1 118.3(2) . . ?
H6A C6 H6B 107.8 . . ?
C9 C6 H6A 109.1 . . ?
C9 C6 H6B 109.1 . . ?
C16 C6 H6A 109.1 . . ?
C16 C6 H6B 109.1 . . ?
C16 C6 C9 112.4(2) . . ?
C3 C7 H7 118.3 . . ?
C11 C7 C3 123.3(3) . . ?
C11 C7 H7 118.3 . . ?
C4 C8 H8 119.8 . . ?
C4 C8 C10 120.4(3) . . ?
C10 C8 H8 119.8 . . ?
S1 C9 H9A 108.9 . . ?
S1 C9 H9B 108.9 . . ?
C6 C9 S1 113.3(2) . . ?
C6 C9 H9A 108.9 . . ?
C6 C9 H9B 108.9 . . ?
H9A C9 H9B 107.7 . . ?
C8 C10 H10 119.8 . . ?
C14 C10 C8 120.5(3) . . ?
C14 C10 H10 119.8 . . ?
C7 C11 H11A 125(3) . . ?
C7 C11 H11B 123(3) . . ?
H11A C11 H11B 111(4) . . ?
C4 C12 H12 119.6 . . ?
C13 C12 C4 120.9(3) . . ?
C13 C12 H12 119.6 . . ?
C12 C13 H13 119.8 . . ?
C14 C13 C12 120.5(3) . . ?
C14 C13 H13 119.8 . . ?
C10 C14 H14 120.2 . . ?
C13 C14 C10 119.5(3) . . ?
C13 C14 H14 120.2 . . ?
C5 C15 H15A 109.5 . . ?
C5 C15 H15B 109.5 . . ?
C5 C15 H15C 109.5 . . ?
H15A C15 H15B 109.5 . . ?
H15A C15 H15C 109.5 . . ?
H15B C15 H15C 109.5 . . ?
S2 C16 H16A 108.7 . . ?
S2 C16 H16B 108.7 . . ?
C6 C16 S2 114.3(2) . . ?
C6 C16 H16A 108.7 . . ?
C6 C16 H16B 108.7 . . ?
H16A C16 H16B 107.6 . . ?
loop_
_geom_bond_atom_site_label_1
_geom_bond_atom_site_label_2
_geom_bond_distance
_geom_bond_site_symmetry_2
_geom_bond_publ_flag
S1 C1 1.827(2) . ?
S1 C9 1.806(3) . ?
S2 C1 1.813(2) . ?
S2 C16 1.818(3) . ?
C1 C3 1.574(3) . ?
C1 C5 1.539(3) . ?
O2 C5 1.200(3) . ?
C3 H3 0.9800 . ?
C3 C4 1.525(3) . ?
C3 C7 1.509(3) . ?
C4 C8 1.380(4) . ?
C4 C12 1.388(4) . ?
C5 C15 1.505(4) . ?
C6 H6A 0.9700 . ?
C6 H6B 0.9700 . ?
C6 C9 1.519(5) . ?
C6 C16 1.515(5) . ?
C7 H7 0.9300 . ?
C7 C11 1.308(5) . ?
C8 H8 0.9300 . ?
C8 C10 1.389(4) . ?
C9 H9A 0.9700 . ?
C9 H9B 0.9700 . ?
C10 H10 0.9300 . ?
C10 C14 1.373(6) . ?
C11 H11A 1.02(4) . ?
C11 H11B 0.94(4) . ?
C12 H12 0.9300 . ?
C12 C13 1.380(4) . ?
C13 H13 0.9300 . ?
C13 C14 1.364(6) . ?
C14 H14 0.9300 . ?
C15 H15A 0.9600 . ?
C15 H15B 0.9600 . ?
C15 H15C 0.9600 . ?
C16 H16A 0.9700 . ?
C16 H16B 0.9700 . ?
loop_
_geom_torsion_atom_site_label_1
_geom_torsion_atom_site_label_2
_geom_torsion_atom_site_label_3
_geom_torsion_atom_site_label_4
_geom_torsion
_geom_torsion_site_symmetry_1
_geom_torsion_site_symmetry_2
_geom_torsion_site_symmetry_3
_geom_torsion_site_symmetry_4
_geom_torsion_publ_flag
S1 C1 C3 C4 -158.86(16) . . . . ?
S1 C1 C3 C7 73.9(2) . . . . ?
S1 C1 C5 O2 -124.8(2) . . . . ?
S1 C1 C5 C15 53.6(3) . . . . ?
S2 C1 C3 C4 80.8(2) . . . . ?
S2 C1 C3 C7 -46.4(2) . . . . ?
S2 C1 C5 O2 -1.0(3) . . . . ?
S2 C1 C5 C15 177.47(19) . . . . ?
C1 S1 C9 C6 58.9(2) . . . . ?
C1 S2 C16 C6 -58.5(3) . . . . ?
C1 C3 C4 C8 -65.0(3) . . . . ?
C1 C3 C4 C12 117.4(2) . . . . ?
C1 C3 C7 C11 -112.9(3) . . . . ?
C3 C1 C5 O2 122.3(3) . . . . ?
C3 C1 C5 C15 -59.2(3) . . . . ?
C3 C4 C8 C10 -177.8(2) . . . . ?
C3 C4 C12 C13 177.9(3) . . . . ?
C4 C3 C7 C11 118.0(3) . . . . ?
C4 C8 C10 C14 0.1(4) . . . . ?
C4 C12 C13 C14 -0.2(5) . . . . ?
C5 C1 C3 C4 -43.4(3) . . . . ?
C5 C1 C3 C7 -170.7(2) . . . . ?
C7 C3 C4 C8 63.7(3) . . . . ?
C7 C3 C4 C12 -114.0(3) . . . . ?
C8 C4 C12 C13 0.1(4) . . . . ?
C8 C10 C14 C13 -0.2(5) . . . . ?
C9 S1 C1 S2 -55.61(16) . . . . ?
C9 S1 C1 C3 -174.96(16) . . . . ?
C9 S1 C1 C5 68.31(19) . . . . ?
C9 C6 C16 S2 67.0(3) . . . . ?
C12 C4 C8 C10 -0.1(4) . . . . ?
C12 C13 C14 C10 0.2(5) . . . . ?
C16 S2 C1 S1 54.76(17) . . . . ?
C16 S2 C1 C3 170.15(17) . . . . ?
C16 S2 C1 C5 -66.9(2) . . . . ?
C16 C6 C9 S1 -66.9(3) . . . . ?
