#------------------------------------------------------------------------------
#$Date: 2020-10-04 06:40:31 +0300 (Sun, 04 Oct 2020) $
#$Revision: 257151 $
#$URL: file:///home/coder/svn-repositories/cod/cif/4/03/88/4038838.cif $
#------------------------------------------------------------------------------
#
# This file is available in the Crystallography Open Database (COD),
# http://www.crystallography.net/
#
# All data on this site have been placed in the public domain by the
# contributors.
#
data_4038838
loop_
_publ_author_name
'Li, Shu-Sen'
'Wang, Jianbo'
_publ_section_title
;
 Cu(I)/Chiral Bisoxazoline-Catalyzed Enantioselective Sommelet-Hauser
 Rearrangement of Sulfonium Ylides.
;
_journal_issue                   19
_journal_name_full               'The Journal of organic chemistry'
_journal_page_first              12343
_journal_page_last               12358
_journal_paper_doi               10.1021/acs.joc.0c01590
_journal_volume                  85
_journal_year                    2020
_chemical_absolute_configuration ad
_chemical_formula_sum            'C16 H18 O2 S'
_chemical_formula_weight         274.36
_space_group_crystal_system      monoclinic
_space_group_IT_number           4
_space_group_name_Hall           'P 2yb'
_space_group_name_H-M_alt        'P 1 21 1'
_atom_sites_solution_hydrogens   geom
_atom_sites_solution_primary     dual
_audit_creation_method           SHELXL-2014/7
_cell_angle_alpha                90
_cell_angle_beta                 116.416(2)
_cell_angle_gamma                90
_cell_formula_units_Z            2
_cell_length_a                   9.6838(2)
_cell_length_b                   8.33690(10)
_cell_length_c                   9.8668(2)
_cell_measurement_reflns_used    12300
_cell_measurement_temperature    179.99(10)
_cell_measurement_theta_max      73.0040
_cell_measurement_theta_min      4.9800
_cell_volume                     713.40(3)
_computing_structure_refinement  'SHELXL-2014/7 (Sheldrick, 2014)'
_diffrn_ambient_environment      N~2~
_diffrn_ambient_temperature      179.99(10)
_diffrn_detector                 'CCD plate'
_diffrn_detector_type            HyPix
_diffrn_measured_fraction_theta_full 0.999
_diffrn_measured_fraction_theta_max 0.958
_diffrn_measurement_device       'four-circle diffractometer'
_diffrn_measurement_device_type  'XtaLAB Synergy R, DW system, HyPix'
_diffrn_radiation_monochromator  mirror
_diffrn_radiation_probe          x-ray
_diffrn_radiation_type           'Cu K\a'
_diffrn_radiation_wavelength     1.54184
_diffrn_reflns_av_R_equivalents  0.0217
_diffrn_reflns_av_unetI/netI     0.0142
_diffrn_reflns_Laue_measured_fraction_full 0.999
_diffrn_reflns_Laue_measured_fraction_max 0.958
_diffrn_reflns_limit_h_max       11
_diffrn_reflns_limit_h_min       -11
_diffrn_reflns_limit_k_max       10
_diffrn_reflns_limit_k_min       -9
_diffrn_reflns_limit_l_max       11
_diffrn_reflns_limit_l_min       -12
_diffrn_reflns_number            13047
_diffrn_reflns_point_group_measured_fraction_full 0.998
_diffrn_reflns_point_group_measured_fraction_max 0.941
_diffrn_reflns_theta_full        67.679
_diffrn_reflns_theta_max         73.138
_diffrn_reflns_theta_min         5.005
_diffrn_source                   'fine-focus sealed X-ray tube'
_diffrn_source_type              'Enhance Ultra (Cu) X-ray Source'
_exptl_absorpt_coefficient_mu    1.970
_exptl_absorpt_correction_T_max  1.00000
_exptl_absorpt_correction_T_min  0.83169
_exptl_absorpt_correction_type   multi-scan
_exptl_absorpt_process_details
;
CrysAlisPro 1.171.39.29a (Rigaku Oxford Diffraction, 2015)
Empirical absorption correction using spherical harmonics,
 implemented in SCALE3 ABSPACK scaling algorithm.
;
_exptl_crystal_colour            colorless
_exptl_crystal_density_diffrn    1.277
_exptl_crystal_description       block
_exptl_crystal_F_000             292
_exptl_crystal_size_max          0.33
_exptl_crystal_size_mid          0.18
_exptl_crystal_size_min          0.15
_refine_diff_density_max         0.226
_refine_diff_density_min         -0.156
_refine_diff_density_rms         0.030
_refine_ls_abs_structure_details
;
 Flack x determined using 1210 quotients [(I+)-(I-)]/[(I+)+(I-)]
 (Parsons, Flack and Wagner, Acta Cryst. B69 (2013) 249-259).
;
_refine_ls_abs_structure_Flack   -0.005(4)
_refine_ls_extinction_coef       0.030(2)
_refine_ls_extinction_expression Fc^*^=kFc[1+0.001xFc^2^\l^3^/sin(2\q)]^-1/4^
_refine_ls_extinction_method     'SHELXL-2014/7 (Sheldrick 2014'
_refine_ls_goodness_of_fit_ref   1.028
_refine_ls_hydrogen_treatment    constr
_refine_ls_matrix_type           full
_refine_ls_number_parameters     175
_refine_ls_number_reflns         2691
_refine_ls_number_restraints     1
_refine_ls_restrained_S_all      1.028
_refine_ls_R_factor_all          0.0216
_refine_ls_R_factor_gt           0.0215
_refine_ls_shift/su_max          0.000
_refine_ls_shift/su_mean         0.000
_refine_ls_structure_factor_coef Fsqd
_refine_ls_weighting_details
'w=1/[\s^2^(Fo^2^)+(0.0431P)^2^+0.0633P] where P=(Fo^2^+2Fc^2^)/3'
_refine_ls_weighting_scheme      calc
_refine_ls_wR_factor_gt          0.0596
_refine_ls_wR_factor_ref         0.0596
_reflns_Friedel_coverage         0.833
_reflns_Friedel_fraction_full    0.997
_reflns_Friedel_fraction_max     0.922
_reflns_number_gt                2683
_reflns_number_total             2691
_reflns_threshold_expression     'I > 2\s(I)'
_cod_data_source_file            jo0c01590_si_002.cif
_cod_data_source_block           3
_cod_depositor_comments          'Adding full bibliography for 4038838.cif.'
_cod_original_cell_volume        713.40(2)
_cod_original_sg_symbol_H-M      'P 21'
_cod_database_code               4038838
_shelx_shelxl_version_number     2014/7
_shelx_space_group_comment
;
The symmetry employed for this shelxl refinement is uniquely defined
by the following loop, which should always be used as a source of
symmetry information in preference to the above space-group names.
They are only intended as comments.
;
_shelx_res_file
;

    3.res created by SHELXL-2014/7


TITL 3_a.res in P2(1)
REM Old TITL 3 in P2(1)
REM SHELXT solution in P2(1)
REM R1 0.085, Rweak 0.042, Alpha 0.003, Orientation as input
REM Flack x = 0.039 ( 0.006 ) from Parsons' quotients
REM Formula found by SHELXT: C16 O2 S
CELL 1.54178 9.6838 8.3369 9.8668 90 116.416 90
ZERR 2 0.0002 0.0001 0.0002 0 0.002 0
LATT -1
SYMM -X,0.5+Y,-Z
SFAC C H O S
UNIT 32 36 4 2

L.S. 10
PLAN  20
BOND $H
LIST 6
CONF
HTAB
fmap 2
acta
REM <olex2.extras>
REM <HklSrc "%.\\3.hkl">
REM </olex2.extras>

EQIV $1 -x, y-1/2, -z
HTAB O1 O2_$1
EQIV $2 x, y+1, z
HTAB O2 O1_$2
WGHT    0.043100    0.063300
EXTI    0.030024
FVAR       0.59898
S1    4    0.395239    0.420305    0.490709    11.00000    0.02657    0.04134 =
         0.02637   -0.00737    0.00998   -0.00648
O1    3    0.159791    0.160688    0.107675    11.00000    0.02618    0.02318 =
         0.03265   -0.00581    0.00462    0.00048
AFIX 147
H1    2    0.086364    0.220988    0.063555    11.00000   -1.50000
AFIX   0
O2    3    0.104188    0.838884    0.045061    11.00000    0.02304    0.02140 =
         0.04532   -0.00469    0.00675    0.00172
AFIX 147
H2    2    0.118089    0.935138    0.063091    11.00000   -1.50000
AFIX   0
C1    1    0.245220    0.416746    0.548065    11.00000    0.02962    0.02556 =
         0.02352   -0.00554    0.00990   -0.00338
C2    1    0.108360    0.501495    0.473257    11.00000    0.03723    0.03555 =
         0.02772    0.00295    0.01251    0.00596
AFIX  43
H2A   2    0.089466    0.558536    0.385727    11.00000   -1.20000
AFIX   0
C3    1   -0.000073    0.500952    0.529244    11.00000    0.03426    0.03928 =
         0.03544   -0.00245    0.01295    0.00816
AFIX  43
H3    2   -0.092829    0.555332    0.477532    11.00000   -1.20000
AFIX   0
C4    1    0.029097    0.419791    0.661844    11.00000    0.03820    0.03643 =
         0.03677   -0.00914    0.02171   -0.00232
AFIX  43
H4    2   -0.043566    0.420255    0.699433    11.00000   -1.20000
AFIX   0
C5    1    0.166800    0.338024    0.738141    11.00000    0.04667    0.03379 =
         0.02912    0.00089    0.01857    0.00093
AFIX  43
H5    2    0.187374    0.284944    0.828029    11.00000   -1.20000
AFIX   0
C6    1    0.274035    0.335072    0.680925    11.00000    0.03261    0.03137 =
         0.02784    0.00099    0.00901    0.00246
AFIX  43
H6    2    0.365556    0.278313    0.731501    11.00000   -1.20000
AFIX   0
C7    1    0.297986    0.372560    0.287947    11.00000    0.02471    0.02253 =
         0.02275   -0.00004    0.00803   -0.00087
AFIX  13
H7    2    0.211925    0.447154    0.237321    11.00000   -1.20000
AFIX   0
C8    1    0.235488    0.201846    0.264903    11.00000    0.02860    0.02140 =
         0.02965    0.00113    0.00960   -0.00186
AFIX  23
H8A   2    0.319759    0.127712    0.317648    11.00000   -1.20000
H8B   2    0.163192    0.191781    0.307863    11.00000   -1.20000
AFIX   0
C9    1    0.416880    0.400663    0.229613    11.00000    0.02277    0.01903 =
         0.02530   -0.00339    0.00837   -0.00213
C10   1    0.555723    0.315970    0.296503    11.00000    0.02939    0.02483 =
         0.02923   -0.00019    0.01066    0.00337
AFIX  43
H10   2    0.571901    0.242977    0.373411    11.00000   -1.20000
AFIX   0
C11   1    0.669744    0.339336    0.249699    11.00000    0.02461    0.03125 =
         0.03613   -0.00613    0.00991    0.00455
AFIX  43
H11   2    0.762046    0.282955    0.295684    11.00000   -1.20000
AFIX   0
C12   1    0.645784    0.446870    0.134280    11.00000    0.02866    0.03288 =
         0.03838   -0.00989    0.01863   -0.00367
AFIX  43
H12   2    0.722134    0.463821    0.103000    11.00000   -1.20000
AFIX   0
C13   1    0.506934    0.529099    0.065707    11.00000    0.03197    0.02519 =
         0.02928   -0.00290    0.01508   -0.00202
AFIX  43
H13   2    0.490527    0.599459   -0.013163    11.00000   -1.20000
AFIX   0
C14   1    0.391201    0.508866    0.112141    11.00000    0.02521    0.01917 =
         0.02371   -0.00440    0.00856   -0.00158
C15   1    0.244729    0.606253    0.036196    11.00000    0.02457    0.02285 =
         0.02380    0.00045    0.00858   -0.00028
AFIX  23
H15A  2    0.157625    0.539725    0.023523    11.00000   -1.20000
H15B  2    0.230796    0.638283   -0.063602    11.00000   -1.20000
AFIX   0
C16   1    0.246775    0.754822    0.125853    11.00000    0.02374    0.02198 =
         0.02811   -0.00029    0.00697    0.00143
AFIX  23
H16A  2    0.258748    0.724489    0.225406    11.00000   -1.20000
H16B  2    0.332634    0.823258    0.138329    11.00000   -1.20000
AFIX   0
HKLF 4

REM  3_a.res in P2(1)
REM R1 =  0.0215 for    2683 Fo > 4sig(Fo)  and  0.0216 for all    2691 data
REM    175 parameters refined using      1 restraints

END

WGHT      0.0356      0.0785

REM Instructions for potential hydrogen bonds
HTAB O1 O2_$1
HTAB O2 O1_$2

REM Highest difference peak  0.226,  deepest hole -0.156,  1-sigma level  0.030
Q1    1   0.3172  0.4252  0.5226  11.00000  0.05    0.23
Q2    1   0.2643  0.2934  0.2795  11.00000  0.05    0.19
Q3    1   0.3623  0.3991  0.2560  11.00000  0.05    0.16
Q4    1   0.3968  0.5439  0.4873  11.00000  0.05    0.15
Q5    1   0.4220  0.4860  0.1996  11.00000  0.05    0.15
Q6    1   0.3830  0.4277  0.1404  11.00000  0.05    0.14
Q7    1   0.1590  0.4216  0.4834  11.00000  0.05    0.14
Q8    1   0.3833  0.3090  0.4983  11.00000  0.05    0.14
Q9    1   0.0162  0.4243  0.5787  11.00000  0.05    0.12
Q10   1   0.3189  0.5479  0.0773  11.00000  0.05    0.11
Q11   1   0.0508  0.4724  0.5004  11.00000  0.05    0.11
Q12   1   0.4443  0.4943  0.0766  11.00000  0.05    0.11
Q13   1   0.2825  0.4146  0.6368  11.00000  0.05    0.11
Q14   1   0.6132  0.3423  0.2742  11.00000  0.05    0.11
Q15   1   0.6732  0.4260  0.2208  11.00000  0.05    0.10
Q16   1   0.5643  0.4391  0.0800  11.00000  0.05    0.10
Q17   1   0.1159  0.4121  0.7214  11.00000  0.05    0.10
Q18   1   0.2405  0.3372  0.5780  11.00000  0.05    0.10
Q19   1   0.2459  0.6681  0.0919  11.00000  0.05    0.09
Q20   1   0.4787  0.3583  0.2595  11.00000  0.05    0.09
;
_shelx_res_checksum              88743
_shelx_hkl_file
;
   0  -9   0   -0.02    0.09
   0  -9  -1   12.36    0.62
   0  -9   1   13.23    0.65
   0  -9   1   12.48    0.60
   0  -9   2   11.55    0.58
   0  -9  -2   12.25    0.61
   0  -9  -2   11.32    0.58
   0  -9   2   12.54    0.63
   0  -9  -3    3.87    0.33
   0  -9   3    3.28    0.31
   0  -9   3    2.84    0.28
   0  -9  -4   15.04    0.63
   0  -9   4   15.67    0.62
   0  -9   4   14.76    0.61
   0  -8   0   14.57    0.77
   0  -8   0   14.84    0.71
   0  -8   0   14.85    0.79
   0  -8   0   12.81    0.63
   0  -8   0   13.64    0.70
   0  -8   0   13.19    0.70
   0  -8  -1   29.61    1.00
   0  -8  -1   29.32    1.12
   0  -8  -1   28.91    1.08
   0  -8   1   28.48    1.06
   0  -8  -1   28.12    1.08
   0  -8  -1   29.64    1.14
   0  -8   1   30.05    1.14
   0  -8   1   30.09    1.14
   0  -8   1   28.38    1.13
   0  -8  -1   28.71    1.03
   0  -8   1   28.70    1.10
   0  -8  -1   28.98    1.05
   0  -8   2   28.73    1.01
   0  -8   2   27.63    1.07
   0  -8   2   30.92    1.16
   0  -8  -2   27.83    1.05
   0  -8  -2   30.09    1.12
   0  -8  -2   28.30    1.09
   0  -8   2   29.12    1.10
   0  -8  -2   28.48    0.98
   0  -8  -2   30.77    1.14
   0  -8   3   57.37    1.66
   0  -8  -3   58.91    1.51
   0  -8  -3   59.28    1.65
   0  -8  -3   61.95    1.73
   0  -8   3   57.48    1.69
   0  -8   3   57.75    1.67
   0  -8  -4    6.55    0.48
   0  -8   4    6.57    0.49
   0  -8  -4    6.86    0.42
   0  -8   4    6.60    0.49
   0  -8   4    6.78    0.48
   0  -8  -4    7.88    0.53
   0  -8  -4    7.22    0.48
   0  -8  -5   16.66    0.74
   0  -8   5   16.09    0.71
   0  -8  -5   16.50    0.62
   0  -8   5   15.79    0.68
   0  -8   6    5.01    0.34
   0  -8  -6    4.79    0.28
   0  -8   6    4.45    0.29
   0  -8  -6    5.24    0.35
   0  -7   0    0.02    0.08
   0  -7   0    0.04    0.08
   0  -7   0    0.09    0.11
   0  -7   0    0.02    0.09
   0  -7   0    0.09    0.11
   0  -7   0   -0.02    0.10
   0  -7   1    2.35    0.30
   0  -7  -1    2.20    0.30
   0  -7   1    2.82    0.34
   0  -7  -1    2.80    0.30
   0  -7   1    2.90    0.34
   0  -7   1    2.83    0.33
   0  -7   1    2.72    0.32
   0  -7  -1    2.36    0.29
   0  -7  -1    3.06    0.34
   0  -7  -1    3.23    0.34
   0  -7  -1    2.86    0.30
   0  -7  -1    2.63    0.32
   0  -7  -1    2.63    0.31
   0  -7  -2    6.88    0.51
   0  -7  -2    7.28    0.52
   0  -7  -2    6.92    0.47
   0  -7  -2    7.25    0.52
   0  -7   2    6.65    0.50
   0  -7   2    7.63    0.54
   0  -7  -2    7.33    0.54
   0  -7  -2    7.81    0.54
   0  -7  -2    7.18    0.48
   0  -7   2    7.55    0.55
   0  -7   2    7.20    0.52
   0  -7  -3    6.13    0.49
   0  -7  -3    6.77    0.51
   0  -7  -3    7.44    0.56
   0  -7   3    7.32    0.55
   0  -7  -3    7.00    0.50
   0  -7   3    6.86    0.49
   0  -7  -3    6.66    0.47
   0  -7   3    7.61    0.51
   0  -7  -4    3.17    0.34
   0  -7  -4    1.91    0.28
   0  -7  -4    2.47    0.29
   0  -7  -4    2.76    0.33
   0  -7   4    2.27    0.31
   0  -7  -4    2.24    0.31
   0  -7  -5    5.24    0.44
   0  -7  -5    5.18    0.42
   0  -7  -5    5.26    0.40
   0  -7  -5    4.59    0.43
   0  -7   5    4.66    0.42
   0  -7  -5    4.91    0.40
   0  -7   6   16.61    0.70
   0  -7  -6   14.98    0.65
   0  -7   6   15.40    0.69
   0  -7  -6   15.46    0.72
   0  -7   6   15.61    0.68
   0  -7  -6   16.14    0.66
   0  -7  -6   14.97    0.68
   0  -7  -7    4.34    0.30
   0  -7   7    4.49    0.34
   0  -7  -7    4.92    0.33
   0  -7  -7    4.72    0.31
   0  -7  -7    4.47    0.30
   0  -6   0   19.84    0.81
   0  -6   0   19.43    0.85
   0  -6   0   18.99    0.76
   0  -6   0   19.51    0.79
   0  -6   0   19.14    0.82
   0  -6  -1   79.52    1.93
   0  -6  -1   80.25    1.84
   0  -6  -1   80.18    1.88
   0  -6   1   81.03    1.91
   0  -6   1   78.35    1.94
   0  -6   1   80.35    1.95
   0  -6   1   78.86    1.91
   0  -6   1   81.95    2.01
   0  -6  -1   82.04    2.01
   0  -6  -1   78.35    1.88
   0  -6  -1   81.80    1.97
   0  -6   1   83.05    1.98
   0  -6   2   44.23    1.37
   0  -6  -2   47.13    1.40
   0  -6  -2   44.84    1.39
   0  -6   2   47.06    1.37
   0  -6   2   46.08    1.37
   0  -6  -2   45.55    1.35
   0  -6   2   44.57    1.35
   0  -6  -2   46.99    1.30
   0  -6   3   54.62    1.59
   0  -6  -3   51.32    1.51
   0  -6   3   52.13    1.46
   0  -6  -3   53.07    1.54
   0  -6   3   55.28    1.60
   0  -6  -3   55.27    1.52
   0  -6  -3   53.86    1.47
   0  -6  -3   52.40    1.47
   0  -6   3   51.40    1.55
   0  -6  -3   53.35    1.54
   0  -6  -3   55.60    1.62
   0  -6  -3   53.71    1.46
   0  -6  -4   25.31    1.03
   0  -6   4   27.91    1.11
   0  -6  -4   27.09    1.03
   0  -6   4   26.85    1.06
   0  -6   4   27.09    1.04
   0  -6  -4   26.95    0.99
   0  -6  -5    7.32    0.55
   0  -6  -5    6.11    0.50
   0  -6  -5    6.79    0.51
   0  -6  -5    7.25    0.49
   0  -6   5    7.71    0.56
   0  -6   5    7.50    0.53
   0  -6   5    7.66    0.58
   0  -6  -5    6.93    0.48
   0  -6  -5    7.04    0.49
   0  -6   5    6.71    0.52
   0  -6  -6   64.29    1.78
   0  -6  -6   66.16    1.74
   0  -6  -6   66.31    1.71
   0  -6  -6   65.44    1.75
   0  -6  -6   62.70    1.77
   0  -6   6   66.45    1.89
   0  -6   6   64.90    1.82
   0  -6   6   64.87    1.73
   0  -6  -7   13.78    0.68
   0  -6  -7   14.89    0.68
   0  -6  -7   14.06    0.65
   0  -6  -7   14.71    0.68
   0  -6   7   14.22    0.71
   0  -6   8    7.86    0.44
   0  -6  -8    7.70    0.41
   0  -6  -8    7.69    0.42
   0  -5   0   -0.02    0.06
   0  -5   0    0.02    0.05
   0  -5  -1   37.03    0.98
   0  -5   1   38.57    1.12
   0  -5  -1   36.35    1.10
   0  -5  -2   12.61    0.59
   0  -5  -2   10.80    0.50
   0  -5   2   11.08    0.55
   0  -5  -2   10.63    0.56
   0  -5  -3   19.91    0.75
   0  -5  -3   21.16    0.84
   0  -5   3   19.20    0.75
   0  -5  -3   18.58    0.78
   0  -5  -4    3.24    0.35
   0  -5   4    3.66    0.35
   0  -5  -4    3.12    0.32
   0  -5   4    3.33    0.34
   0  -5   4    3.77    0.37
   0  -5   5   26.73    1.00
   0  -5  -5   24.98    0.92
   0  -5  -5   24.81    1.03
   0  -5   5   25.85    1.07
   0  -5   5   25.80    1.06
   0  -5   5   28.35    1.06
   0  -5  -5   25.37    1.02
   0  -5  -5   25.79    0.96
   0  -5  -5   24.94    0.97
   0  -5  -5   24.79    0.99
   0  -5   6   13.84    0.79
   0  -5  -6   12.61    0.68
   0  -5   6   12.85    0.71
   0  -5  -6   13.76    0.72
   0  -5  -6   12.56    0.72
   0  -5  -6   12.98    0.71
   0  -5   6   12.96    0.70
   0  -5   6   12.41    0.65
   0  -5  -6   12.29    0.67
   0  -5  -7   21.11    0.91
   0  -5  -7   20.28    0.84
   0  -5   7   21.47    0.91
   0  -5   7   22.81    1.00
   0  -5   7   21.02    0.97
   0  -5  -7   22.02    0.95
   0  -5  -7   20.91    0.88
   0  -5   8    4.15    0.38
   0  -5  -8    4.16    0.36
   0  -5   8    4.41    0.39
   0  -5   8    4.16    0.35
   0  -5  -8    3.67    0.34
   0  -5   9   12.87    0.56
   0  -5  -9   13.46    0.53
   0  -4   0  163.90    2.96
   0  -4  -1  166.63    2.85
   0  -4  -1  166.90    2.98
   0  -4   1  166.07    2.98
   0  -4  -1  159.85    2.96
   0  -4   2   70.41    1.54
   0  -4   2   72.32    1.46
   0  -4  -2   68.98    1.53
   0  -4  -2   73.09    1.49
   0  -4   3  365.96    5.86
   0  -4  -3  369.18    5.85
   0  -4   3  359.45    5.87
   0  -4   4  102.83    2.18
   0  -4  -4  101.21    2.16
   0  -4  -5   28.19    1.02
   0  -4   5   27.94    0.97
   0  -4   5   29.79    1.04
   0  -4   5   30.41    1.08
   0  -4  -5   28.04    1.08
   0  -4   5   31.21    1.13
   0  -4   5   30.88    1.08
   0  -4   5   30.91    1.13
   0  -4   6   24.60    1.05
   0  -4  -6   25.40    0.97
   0  -4  -6   24.52    0.97
   0  -4   6   26.14    1.06
   0  -4  -6   24.91    1.04
   0  -4   6   25.00    1.08
   0  -4   6   24.66    0.96
   0  -4  -6   25.89    0.95
   0  -4  -6   25.27    1.01
   0  -4  -6   25.58    0.97
   0  -4   7   21.38    0.97
   0  -4  -7   20.91    0.91
   0  -4  -7   20.17    0.87
   0  -4   7   20.94    0.97
   0  -4  -7   20.06    0.84
   0  -4   7   23.74    1.06
   0  -4  -7   20.36    0.95
   0  -4  -8   38.83    1.20
   0  -4  -8   40.54    1.21
   0  -4  -8   41.38    1.31
   0  -4   8   39.53    1.33
   0  -4   8   43.31    1.42
   0  -4   8   41.80    1.36
   0  -4  -8   39.52    1.32
   0  -4   9    7.06    0.44
   0  -4  -9    7.00    0.44
   0  -4   9    7.10    0.44
   0  -4   9    7.38    0.48
   0  -4  -9    6.85    0.43
   0  -3   0   -0.02    0.04
   0  -3   0    0.02    0.04
   0  -3  -1  184.43    2.94
   0  -3   1  176.95    2.90
   0  -3   1  177.72    3.01
   0  -3   2  364.63    5.79
   0  -3   2  357.56    5.76
   0  -3   2  365.17    5.64
   0  -3  -2  389.60    5.91
   0  -3  -2  370.57    5.80
   0  -3  -2  350.72    5.81
   0  -3  -2  379.09    5.79
   0  -3  -3  305.34    4.99
   0  -3  -3  301.55    4.83
   0  -3   3  303.65    4.83
   0  -3  -3  297.75    4.91
   0  -3   3  296.57    4.81
   0  -3   3  304.63    4.96
   0  -3  -3  307.58    5.03
   0  -3   4  134.59    2.62
   0  -3  -4  138.35    2.69
   0  -3  -4  139.27    2.60
   0  -3  -4  129.41    2.51
   0  -3   4  131.39    2.46
   0  -3  -5   10.60    0.54
   0  -3  -5   10.16    0.50
   0  -3  -5   11.25    0.61
   0  -3   5   11.32    0.59
   0  -3   5   10.73    0.51
   0  -3   6   33.66    1.16
   0  -3   6   36.09    1.25
   0  -3   6   34.01    1.21
   0  -3  -6   34.84    1.14
   0  -3   6   34.63    1.25
   0  -3   6   35.92    1.23
   0  -3  -6   33.11    1.11
   0  -3  -6   33.07    1.14
   0  -3  -6   33.85    1.22
   0  -3  -7   16.41    0.79
   0  -3  -7   18.15    0.84
   0  -3   7   17.29    0.81
   0  -3   7   16.35    0.85
   0  -3  -7   17.12    0.82
   0  -3  -7   15.90    0.79
   0  -3   7   17.53    0.86
   0  -3   7   15.81    0.76
   0  -3  -7   15.99    0.83
   0  -3   8   12.29    0.71
   0  -3   8   12.57    0.74
   0  -3  -8   13.08    0.73
   0  -3   8   12.70    0.66
   0  -3  -8   11.87    0.66
   0  -3  -8   13.31    0.69
   0  -3  -8   12.63    0.69
   0  -3   9    7.27    0.51
   0  -3   9    6.60    0.45
   0  -3  -9    6.20    0.44
   0  -3  -9    6.70    0.47
   0  -3  -9    6.05    0.43
   0  -3   9    6.90    0.49
   0  -3  -9    6.60    0.42
   0  -3  10    0.45    0.11
   0  -3 -10    0.41    0.10
   0  -3  10    0.55    0.13
   0  -3 -10    0.66    0.12
   0  -2  -1  705.56   10.52
   0  -2   1  697.19   10.45
   0  -2   1  694.33   10.50
   0  -2   1  712.89   10.55
   0  -2  -2  840.25   12.65
   0  -2  -2  858.13   12.65
   0  -2   2  831.15   12.60
   0  -2  -2  872.65   12.61
   0  -2  -2  821.25   12.69
   0  -2  -2  825.05   12.68
   0  -2   2  845.51   12.64
   0  -2  -3  302.75    4.72
   0  -2  -3  304.29    4.90
   0  -2  -3  304.56    4.86
   0  -2   3  300.17    4.86
   0  -2   3  311.61    4.73
   0  -2  -3  303.87    4.95
   0  -2   3  312.34    4.86
   0  -2  -4  346.35    5.65
   0  -2  -4  349.43    5.54
   0  -2  -4  339.91    5.49
   0  -2   4  342.45    5.45
   0  -2   4  335.52    5.54
   0  -2  -5  127.48    2.41
   0  -2  -5  123.77    2.36
   0  -2  -5  126.17    2.57
   0  -2   5  123.54    2.47
   0  -2  -6   90.62    2.15
   0  -2   6   88.43    2.12
   0  -2   6   93.21    2.20
   0  -2   6   94.83    2.23
   0  -2   6   85.06    2.02
   0  -2  -6   89.93    2.06
   0  -2   7   70.09    1.92
   0  -2  -7   65.12    1.80
   0  -2  -7   65.27    1.77
   0  -2  -7   67.88    1.77
   0  -2  -7   67.93    1.88
   0  -2   7   66.07    1.82
   0  -2   7   71.52    1.96
   0  -2   7   64.98    1.72
   0  -2  -8   11.89    0.70
   0  -2  -8   11.39    0.66
   0  -2   8   10.21    0.67
   0  -2  -8    9.50    0.62
   0  -2   8   10.88    0.65
   0  -2  -8   10.78    0.61
   0  -2   8   10.01    0.66
   0  -2  -8   11.25    0.64
   0  -2   9    9.44    0.56
   0  -2   9    9.56    0.61
   0  -2  -9    9.56    0.55
   0  -2   9    9.48    0.54
   0  -2  -9    8.94    0.56
   0  -2   9    9.94    0.61
   0  -2  -9    9.48    0.55
   0  -2   9    9.43    0.55
   0  -2  -9    9.36    0.58
   0  -2 -10    1.35    0.19
   0  -2  10    1.15    0.18
   0  -2  10    1.13    0.16
   0  -2 -10    1.14    0.15
   0  -2  10    1.77    0.22
   0  -1   0    0.01    0.02
   0  -1   0    0.00    0.02
   0  -1  -1  153.11    2.42
   0  -1   1  152.04    2.39
   0  -1  -1  161.71    2.42
   0  -1  -1  162.23    2.44
   0  -1   1  156.64    2.39
   0  -1   1  154.28    2.42
   0  -1   1  157.41    2.41
   0  -1   1  155.82    2.39
   0  -1  -1  154.91    2.43
   0  -1  -1  151.89    2.39
   0  -1  -1  150.39    2.38
   0  -1  -2  235.04    3.68
   0  -1   2  243.10    3.62
   0  -1   2  233.41    3.53
   0  -1   2  234.87    3.64
   0  -1  -2  225.13    3.63
   0  -1  -2  230.87    3.52
   0  -1   2  229.67    3.66
   0  -1  -2  231.35    3.62
   0  -1   3  189.56    3.04
   0  -1  -3  193.69    3.07
   0  -1  -3  187.63    3.14
   0  -1   3  187.67    3.11
   0  -1  -3  182.69    3.05
   0  -1  -4    5.71    0.28
   0  -1   4    6.09    0.28
   0  -1  -4    6.10    0.34
   0  -1   4    5.80    0.32
   0  -1  -4    5.68    0.28
   0  -1   5   30.86    0.94
   0  -1  -5   31.09    0.95
   0  -1  -5   29.95    0.82
   0  -1   6   44.72    1.32
   0  -1  -6   47.31    1.35
   0  -1  -7   41.06    1.30
   0  -1   7   40.80    1.30
   0  -1   7   44.65    1.42
   0  -1  -7   40.55    1.26
   0  -1  -7   39.24    1.31
   0  -1   8    2.06    0.31
   0  -1   8    1.92    0.29
   0  -1   8    1.48    0.25
   0  -1  -8    1.92    0.27
   0  -1  -8    1.77    0.25
   0  -1  -9    7.30    0.48
   0  -1   9    7.87    0.55
   0  -1   9    7.31    0.54
   0  -1   9    7.29    0.48
   0  -1  10   13.53    0.58
   0  -1  10   14.31    0.63
   0  -1 -10   13.91    0.58
   0  -1  10   13.60    0.61
   0  -1  10   13.90    0.64
   0   0  -1    5.08    0.14
   0   0  -1    5.09    0.11
   0   0   1    4.88    0.14
   0   0  -1    4.65    0.12
   0   0   1    5.12    0.14
   0   0  -2   96.88    1.51
   0   0  -2   99.31    1.65
   0   0  -2   95.03    1.57
   0   0  -2   97.63    1.60
   0   0   2  100.89    1.60
   0   0  -3   68.71    1.24
   0   0   3   71.54    1.25
   0   0   3   68.82    1.35
   0   0   3   68.12    1.31
   0   0  -3   64.17    1.20
   0   0  -3   73.71    1.35
   0   0  -4  440.27    7.07
   0   0  -4  457.92    6.85
   0   0  -4  446.47    6.92
   0   0   4  443.77    6.91
   0   0   4  454.88    7.12
   0   0   4  442.98    7.05
   0   0   5  968.97   14.95
   0   0  -5  972.89   14.69
   0   0   5 1000.00   14.98
   0   0  -5  954.42   14.95
   0   0   6    3.07    0.30
   0   0  -6    3.48    0.32
   0   0   6    3.35    0.32
   0   0  -7   12.10    0.63
   0   0  -7   11.81    0.65
   0   0  -7   11.40    0.66
   0   0   7   11.78    0.61
   0   0  -8   62.26    1.79
   0   0   8   62.34    1.81
   0   0  -8   67.74    1.84
   0   0  -8   62.97    1.77
   0   0  -8   63.65    1.75
   0   0  -8   62.02    1.78
   0   0  -9    6.66    0.47
   0   0   9    6.76    0.50
   0   0   9    7.29    0.54
   0   0  -9    8.71    0.56
   0   0  -9    7.56    0.53
   0   0 -10    0.57    0.14
   0   0 -10    0.81    0.16
   0   0 -10    0.59    0.13
   0   0  10    0.59    0.13
   0   0  10    0.50    0.14
   0   0  10    0.84    0.17
   0   1   0    0.03    0.02
   0   1   0    0.02    0.02
   0   1   0    0.01    0.02
   0   1   1  153.23    2.27
   0   1  -1  146.25    2.37
   0   1  -1  151.14    2.34
   0   1   2  226.17    3.60
   0   1  -2  231.61    3.61
   0   1  -2  229.93    3.54
   0   1   3  193.87    3.08
   0   1   3  197.16    3.05
   0   1  -3  185.67    2.91
   0   1   3  192.05    2.81
   0   1  -3  191.30    2.91
   0   1  -4    5.20    0.26
   0   1   4    6.04    0.28
   0   1  -4    5.54    0.20
   0   1   4    5.70    0.34
   0   1   4    5.67    0.30
   0   1   5   29.97    0.91
   0   1  -5   30.20    0.80
   0   1  -5   31.42    0.94
   0   1   6   42.72    1.26
   0   1  -6   42.26    1.27
   0   1  -7   46.16    1.40
   0   1  -7   45.39    1.38
   0   1  -7   45.14    1.41
   0   1  -7   42.92    1.33
   0   1  -7   44.66    1.35
   0   1  -8    1.34    0.24
   0   1  -8    0.97    0.21
   0   1   8    0.91    0.21
   0   1  -8    0.99    0.20
   0   1  -8    1.25    0.25
   0   1   9    8.69    0.58
   0   1  -9    8.11    0.53
   0   1  -9    8.50    0.53
   0   1   9    9.25    0.57
   0   1  -9    9.95    0.60
   0   1  -9    7.78    0.54
   0   1 -10   12.18    0.53
   0   1  10   11.46    0.52
   0   1  10   11.73    0.57
   0   1 -10   13.10    0.59
   0   2  -1  704.74   10.71
   0   2   1  713.45   10.58
   0   2   1  714.89   10.66
   0   2  -1  730.92   10.74
   0   2   2  903.99   13.16
   0   2  -2  869.73   13.16
   0   2   2  878.64   13.00
   0   2  -3  313.81    5.19
   0   2  -3  322.42    5.05
   0   2   3  336.74    5.17
   0   2   3  336.45    5.16
   0   2  -4  349.09    5.32
   0   2   4  337.64    5.49
   0   2   4  343.38    5.69
   0   2  -5  119.72    2.28
   0   2   5  117.27    2.37
   0   2  -6   91.50    2.14
   0   2   6   93.91    2.11
   0   2  -6   92.90    2.12
   0   2  -6   89.15    2.08
   0   2   6   97.51    2.27
   0   2  -6   95.88    2.16
   0   2  -7   73.36    1.91
   0   2  -7   75.28    1.90
   0   2  -7   74.84    1.89
   0   2  -7   73.51    1.87
   0   2  -7   74.69    1.94
   0   2  -8   10.41    0.61
   0   2  -8   10.02    0.62
   0   2  -8   10.63    0.61
   0   2  -8   10.16    0.61
   0   2  -8   11.06    0.66
   0   2  -9    7.60    0.51
   0   2   9    7.46    0.51
   0   2  -9    7.77    0.49
   0   2  -9    7.79    0.51
   0   2  -9    8.26    0.53
   0   2  -9    7.78    0.49
   0   2 -10    1.23    0.17
   0   2  10    1.18    0.17
   0   2 -10    1.27    0.18
   0   3   0   -0.01    0.04
   0   3   0    0.07    0.05
   0   3  -1  172.30    2.91
   0   3  -1  172.18    2.90
   0   3   1  175.53    2.84
   0   3   1  172.24    2.92
   0   3   2  353.29    5.47
   0   3  -2  359.92    5.58
   0   3   2  351.11    5.59
   0   3  -2  352.17    5.63
   0   3   3  304.94    5.01
   0   3   3  319.03    4.95
   0   3  -3  301.13    4.91
   0   3   3  310.70    4.93
   0   3   4  129.92    2.45
   0   3  -4  133.50    2.32
   0   3   4  129.80    2.41
   0   3   5   11.85    0.63
   0   3  -5   11.70    0.52
   0   3  -6   33.99    1.15
   0   3  -6   34.74    1.16
   0   3   6   33.55    1.09
   0   3  -6   34.27    1.07
   0   3   6   37.50    1.28
   0   3  -6   34.93    1.14
   0   3  -7   15.34    0.75
   0   3  -7   15.29    0.75
   0   3  -7   16.93    0.80
   0   3  -7   15.39    0.70
   0   3  -7   16.32    0.78
   0   3  -8   13.78    0.73
   0   3  -8   13.41    0.70
   0   3  -8   13.69    0.71
   0   3  -8   14.98    0.73
   0   3  -9    6.51    0.45
   0   3  -9    6.27    0.42
   0   3   9    6.93    0.44
   0   3  -9    6.87    0.45
   0   3 -10    0.15    0.07
   0   3  10    0.16    0.08
   0   3 -10    0.20    0.09
   0   4   0  154.87    2.72
   0   4   0  144.64    2.62
   0   4  -1  185.44    3.19
   0   4  -1  175.24    3.14
   0   4   1  185.37    3.20
   0   4   1  179.95    3.04
   0   4   2   84.40    1.76
   0   4  -2   88.30    1.77
   0   4  -2   86.55    1.79
   0   4   3  380.46    6.20
   0   4  -3  388.46    6.29
   0   4   3  389.71    6.27
   0   4  -3  376.03    6.16
   0   4  -4   91.32    1.84
   0   4   4   88.58    1.94
   0   4  -5   33.19    1.07
   0   4  -5   33.68    1.07
   0   4  -5   33.41    1.04
   0   4  -5   35.59    1.10
   0   4  -6   28.09    1.02
   0   4  -6   28.30    1.01
   0   4  -6   26.48    0.93
   0   4  -6   26.27    1.01
   0   4  -6   27.29    0.98
   0   4  -7   24.54    0.97
   0   4  -7   22.87    0.88
   0   4  -7   23.63    0.94
   0   4  -8   44.15    1.33
   0   4  -8   45.12    1.32
   0   4  -8   44.11    1.33
   0   4  -9    4.49    0.34
   0   4  -9    4.27    0.33
   0   4  -9    4.55    0.32
   0   5   0   -0.03    0.06
   0   5   0   -0.02    0.06
   0   5  -1   38.69    1.09
   0   5  -1   36.24    1.03
   0   5   1   38.89    1.10
   0   5   2   11.78    0.56
   0   5  -2   12.42    0.57
   0   5  -2   13.14    0.59
   0   5  -3   21.32    0.81
   0   5   3   20.39    0.80
   0   5   3   20.17    0.77
   0   5  -3   21.68    0.77
   0   5  -4    4.61    0.37
   0   5  -4    3.83    0.35
   0   5   4    3.68    0.33
   0   5  -4    3.69    0.35
   0   5  -5   23.99    0.94
   0   5  -5   23.71    0.90
   0   5  -6   12.06    0.61
   0   5  -6   13.35    0.68
   0   5  -7   24.05    0.90
   0   5  -7   23.63    0.95
   0   5  -8    3.71    0.30
   0   5  -8    5.03    0.38
   0   5  -9   12.49    0.51
   0   5  -9   12.82    0.50
   0   6   0   16.98    0.76
   0   6  -1   76.10    1.87
   0   6   1   75.48    1.88
   0   6  -1   75.95    1.80
   0   6  -1   75.82    1.81
   0   6  -2   50.25    1.42
   0   6  -2   49.57    1.40
   0   6   2   49.53    1.43
   0   6  -2   49.72    1.41
   0   6  -2   52.11    1.43
   0   6  -3   53.45    1.48
   0   6   3   56.22    1.53
   0   6  -3   57.51    1.57
   0   6  -3   57.63    1.59
   0   6  -3   54.90    1.49
   0   6  -3   56.47    1.56
   0   6  -4   22.87    0.94
   0   6  -4   20.53    0.87
   0   6  -4   20.65    0.89
   0   6  -5    7.59    0.50
   0   6  -5    8.48    0.55
   0   6  -6   69.84    1.72
   0   6  -6   68.85    1.79
   0   6  -6   72.23    1.86
   0   6  -7   12.88    0.60
   0   6  -7   12.78    0.63
   0   6  -8    8.38    0.44
   0   6  -8    7.15    0.36
   0   7   0   -0.02    0.08
   0   7  -1    3.34    0.33
   0   7  -1    2.97    0.32
   0   7  -2    7.67    0.52
   0   7  -2    6.98    0.49
   0   7  -3    8.32    0.55
   0   7  -3    7.73    0.53
   0   7  -3    7.46    0.54
   0   7  -3    8.09    0.54
   0   7  -4    2.78    0.31
   0   7  -4    2.49    0.31
   0   7  -5    4.84    0.39
   0   7  -5    5.29    0.43
   0   7  -6   17.28    0.74
   0   7  -6   17.15    0.67
   0   7  -6   18.37    0.74
   0   7  -7    4.25    0.31
   0   7  -7    4.59    0.30
   0   7  -7    4.97    0.33
   0   8   0   12.51    0.65
   0   8  -1   26.03    0.97
   0   8  -1   27.85    1.02
   0   8  -2   24.01    0.97
   0   8  -2   23.68    0.96
   0   8  -2   23.78    0.92
   0   8  -2   24.62    0.95
   0   8  -3   53.24    1.53
   0   8  -3   54.44    1.53
   0   8  -3   54.67    1.56
   0   8  -4    9.85    0.57
   0   8  -4    9.46    0.54
   0   8  -5   15.12    0.62
   0   8  -5   15.60    0.65
   0   8  -5   14.53    0.58
   0   8  -5   15.92    0.67
   0   8  -6    5.72    0.34
   0   8  -6    4.74    0.31
   0   9   0    0.07    0.08
   0   9   0   -0.02    0.07
   0   9  -1   11.64    0.56
   0   9  -1   11.53    0.57
   0   9  -1   11.46    0.59
   0   9  -2   12.69    0.61
   0   9  -2   11.94    0.60
   0   9  -2   12.66    0.58
   0   9  -3    3.38    0.30
   0   9  -3    3.61    0.31
   0   9  -4   15.07    0.55
   0   9  -4   15.90    0.57
   0   9  -4   15.06    0.58
   0   9  -4   16.97    0.63
   0  10   0   52.34    1.21
   0  10  -1   18.28    0.61
   0  10   1   17.33    0.58
  -1  -9   5    3.60    0.27
  -1  -9   4    9.38    0.47
   1  -9  -4   10.15    0.50
   1  -9  -3   12.94    0.61
   1  -9  -3   12.84    0.59
  -1  -9   3   11.74    0.55
  -1  -9   3   11.81    0.59
   1  -9  -2    8.73    0.51
  -1  -9   2    6.67    0.40
  -1  -9   2    8.27    0.50
   1  -9  -2    8.10    0.46
  -1  -9   2    8.19    0.45
  -1  -9   2    8.29    0.51
   1  -9  -1    8.88    0.51
  -1  -9   1    7.97    0.45
  -1  -9   1    8.59    0.54
  -1  -9   1    8.64    0.50
  -1  -9   0   44.37    1.20
   1  -9   0   44.78    1.22
   1  -9   1   46.28    1.30
   1  -9   1   41.33    1.15
  -1  -9  -1   43.45    1.16
  -1  -9  -1   44.91    1.32
  -1  -9  -2   10.94    0.55
  -1  -9  -2    9.58    0.47
   1  -9   2    9.65    0.53
   1  -9   2   10.32    0.50
   1  -9   2   10.48    0.56
  -1  -9  -3   24.66    0.75
  -1  -9  -3   26.55    0.88
   1  -9   3   25.72    0.86
   1  -9   3   27.19    0.89
   1  -9   3   23.70    0.79
  -1  -9  -4    1.87    0.21
   1  -9   4    1.63    0.18
  -1  -9  -4    1.62    0.15
   1  -8  -6    5.37    0.33
   1  -8  -6    6.49    0.41
  -1  -8   6    5.66    0.37
  -1  -8   6    5.90    0.39
  -1  -8   6    5.88    0.40
  -1  -8   5   12.79    0.65
   1  -8  -5   13.34    0.65
   1  -8  -5   13.58    0.63
  -1  -8   5   12.38    0.64
   1  -8  -5   14.02    0.69
  -1  -8   5   13.10    0.67
   1  -8  -4   41.57    1.31
  -1  -8   4   40.47    1.32
   1  -8  -4   41.35    1.31
  -1  -8   4   40.23    1.30
  -1  -8   3    5.60    0.47
  -1  -8   3    5.71    0.47
  -1  -8   3    5.96    0.46
   1  -8  -3    5.95    0.48
  -1  -8   3    5.45    0.44
   1  -8  -3    5.81    0.45
   1  -8  -3    6.09    0.47
   1  -8  -3    6.04    0.47
   1  -8  -2   21.87    0.94
  -1  -8   2   21.29    0.93
   1  -8  -2   22.27    0.96
  -1  -8   2   24.04    1.01
   1  -8  -2   22.71    0.96
  -1  -8   2   22.86    0.98
   1  -8  -2   22.14    0.91
  -1  -8   2   22.99    0.92
  -1  -8   1   10.25    0.64
  -1  -8   1   10.46    0.58
   1  -8  -1   10.15    0.61
  -1  -8   1   11.83    0.70
   1  -8  -1   11.13    0.64
  -1  -8   1   10.84    0.63
   1  -8  -1   10.87    0.66
   1  -8   0   24.47    0.98
   1  -8   0   25.94    1.06
   1  -8   0   24.96    0.95
  -1  -8   0   24.36    0.97
   1  -8   0   23.70    1.01
   1  -8   0   25.48    1.02
  -1  -8   0   24.86    0.95
  -1  -8   0   22.49    0.90
   1  -8   0   23.18    0.90
   1  -8   1   82.21    2.08
  -1  -8  -1   81.66    2.05
  -1  -8  -1   76.73    1.87
  -1  -8  -1   78.53    1.94
   1  -8   1   79.29    1.96
  -1  -8  -1   81.87    2.04
  -1  -8  -1   78.28    1.93
  -1  -8  -1   79.74    2.08
   1  -8   1   80.06    2.05
  -1  -8  -2   32.75    1.19
   1  -8   2   32.38    1.17
  -1  -8  -2   32.55    1.14
   1  -8   2   33.07    1.18
  -1  -8  -2   30.89    1.07
  -1  -8  -2   32.43    1.16
   1  -8   2   31.52    1.11
   1  -8   2   32.94    1.14
  -1  -8  -2   32.97    1.14
  -1  -8  -3   33.15    1.18
   1  -8   3   33.89    1.19
  -1  -8  -3   32.54    1.13
  -1  -8  -3   32.15    1.05
   1  -8   3   32.03    1.13
  -1  -8  -3   31.53    1.03
  -1  -8  -4   27.08    1.00
   1  -8   4   25.00    0.96
  -1  -8  -4   26.09    0.88
   1  -8   4   24.39    0.90
   1  -8   5   10.72    0.54
  -1  -8  -5    9.75    0.47
   1  -8   5    9.83    0.47
  -1  -8  -6   32.16    0.80
  -1  -7   8    7.91    0.40
   1  -7  -7    5.85    0.39
   1  -7  -7    5.46    0.39
   1  -7  -7    5.09    0.33
  -1  -7   7    5.08    0.36
   1  -7  -7    5.10    0.32
  -1  -7   6    3.04    0.33
   1  -7  -6    2.99    0.33
   1  -7  -6    3.54    0.36
   1  -7  -6    3.00    0.28
   1  -7  -6    2.77    0.28
   1  -7  -6    3.49    0.34
   1  -7  -5    0.27    0.12
   1  -7  -5    0.19    0.12
   1  -7  -5    0.26    0.11
  -1  -7   5   -0.02    0.11
   1  -7  -5    0.12    0.11
   1  -7  -4    7.11    0.47
   1  -7  -4    6.83    0.54
   1  -7  -4    6.28    0.50
  -1  -7   4    7.88    0.57
   1  -7  -4    5.49    0.47
   1  -7  -4    7.16    0.46
   1  -7  -4    6.49    0.49
  -1  -7   4    6.99    0.54
   1  -7  -4    6.99    0.51
  -1  -7   3   26.95    1.10
   1  -7  -3   27.38    1.04
   1  -7  -3   25.18    1.03
   1  -7  -3   25.25    1.07
  -1  -7   3   25.84    1.02
   1  -7  -3   25.07    0.99
  -1  -7   3   26.77    1.06
   1  -7  -2   11.72    0.67
  -1  -7   2   10.87    0.66
   1  -7  -2   11.96    0.68
   1  -7  -2   12.16    0.69
   1  -7  -2   11.50    0.69
  -1  -7   2   12.90    0.72
  -1  -7   2   10.79    0.66
  -1  -7   2   12.43    0.67
   1  -7  -2   13.66    0.69
   1  -7  -2   12.19    0.67
  -1  -7   2   12.04    0.66
  -1  -7   1   12.94    0.65
  -1  -7   1   12.42    0.68
   1  -7  -1   12.86    0.65
   1  -7  -1   13.70    0.70
   1  -7  -1   13.28    0.72
   1  -7  -1   12.60    0.68
  -1  -7   1   12.35    0.70
   1  -7  -1   12.50    0.71
   1  -7  -1   11.97    0.64
  -1  -7   1   13.01    0.73
   1  -7  -1   13.25    0.69
  -1  -7   1   12.20    0.65
  -1  -7   1   13.32    0.72
   1  -7  -1   11.37    0.68
  -1  -7   0    1.78    0.27
  -1  -7   0    1.38    0.22
   1  -7   0    1.31    0.22
  -1  -7   0    1.42    0.23
   1  -7   0    1.64    0.25
   1  -7   0    1.35    0.25
   1  -7   0    1.74    0.25
   1  -7   0    1.93    0.28
   1  -7   0    1.99    0.28
   1  -7   0    2.05    0.28
  -1  -7  -1   19.10    0.88
  -1  -7  -1   20.88    0.93
  -1  -7  -1   21.28    0.88
   1  -7   1   20.70    0.91
   1  -7   1   20.07    0.90
   1  -7   1   21.24    0.92
  -1  -7  -1   19.62    0.89
   1  -7   1   20.18    0.92
  -1  -7  -1   19.95    0.81
   1  -7   1   21.52    0.92
  -1  -7  -1   20.50    0.85
  -1  -7  -2   97.07    2.42
   1  -7   2   98.26    2.38
   1  -7   2  104.22    2.38
  -1  -7  -2   98.29    2.29
  -1  -7  -2   98.07    2.35
   1  -7   2   92.71    2.42
   1  -7   2  104.83    2.40
  -1  -7  -2  100.71    2.39
   1  -7   2  104.96    2.46
  -1  -7  -3   14.09    0.71
  -1  -7  -3   13.84    0.77
  -1  -7  -3   14.64    0.75
  -1  -7  -3   14.26    0.75
   1  -7   3   13.73    0.74
   1  -7   3   15.85    0.80
  -1  -7  -3   13.46    0.67
   1  -7   3   13.09    0.70
   1  -7   4   26.00    1.02
  -1  -7  -4   22.90    0.91
   1  -7   4   22.37    0.93
  -1  -7  -4   22.92    0.94
   1  -7   4   23.76    1.01
  -1  -7  -4   25.63    1.02
  -1  -7  -4   25.52    1.06
   1  -7   4   23.78    0.96
  -1  -7  -5    4.05    0.35
  -1  -7  -5    3.59    0.32
  -1  -7  -5    3.97    0.38
   1  -7   5    3.88    0.34
   1  -7   5    4.03    0.38
   1  -7   5    3.86    0.36
   1  -7   5    4.05    0.36
   1  -7   6    4.29    0.35
  -1  -7  -6    4.65    0.33
  -1  -7  -6    4.30    0.35
  -1  -7  -6    4.30    0.33
   1  -7   6    4.11    0.34
   1  -7   7   34.16    0.90
  -1  -7  -7   34.02    0.86
   1  -6  -9   15.56    0.54
   1  -6  -8   10.19    0.52
  -1  -6   8    9.11    0.50
  -1  -6   8   10.14    0.56
   1  -6  -8    9.47    0.52
   1  -6  -7   18.87    0.78
   1  -6  -7   18.15    0.79
  -1  -6   7   16.79    0.78
  -1  -6   7   16.88    0.74
   1  -6  -7   16.44    0.73
  -1  -6   7   17.16    0.84
   1  -6  -7   17.03    0.82
   1  -6  -7   17.56    0.77
   1  -6  -7   17.36    0.73
   1  -6  -6    3.50    0.33
   1  -6  -6    3.49    0.37
  -1  -6   6    3.56    0.37
  -1  -6   6    3.64    0.37
  -1  -6   6    3.40    0.38
   1  -6  -6    3.41    0.36
  -1  -6   6    3.65    0.37
   1  -6  -6    3.34    0.34
   1  -6  -6    3.36    0.33
   1  -6  -6    2.83    0.35
   1  -6  -6    3.33    0.35
  -1  -6   5   10.56    0.66
   1  -6  -5   10.34    0.66
  -1  -6   5   10.98    0.67
   1  -6  -5   10.52    0.63
   1  -6  -5   10.22    0.58
   1  -6  -5   10.92    0.62
   1  -6  -5   10.69    0.58
   1  -6  -5   10.83    0.67
  -1  -6   5   11.68    0.71
   1  -6  -5   11.08    0.65
   1  -6  -4   52.79    1.58
   1  -6  -4   50.22    1.39
   1  -6  -4   51.64    1.58
   1  -6  -4   49.78    1.51
   1  -6  -4   50.77    1.50
  -1  -6   4   51.92    1.55
  -1  -6   4   48.65    1.55
   1  -6  -4   47.08    1.48
  -1  -6   4   51.67    1.56
  -1  -6   4   51.11    1.46
  -1  -6   3   14.56    0.71
   1  -6  -3   15.41    0.74
   1  -6  -3   14.52    0.75
  -1  -6   3   15.11    0.73
   1  -6  -3   16.54    0.74
  -1  -6   3   13.96    0.70
   1  -6  -3   15.75    0.77
  -1  -6   3   14.60    0.75
  -1  -6   3   15.04    0.74
   1  -6  -2  151.30    2.96
   1  -6  -2  151.75    3.15
  -1  -6   2  159.90    3.23
   1  -6  -2  153.55    3.05
   1  -6  -2  146.13    2.97
   1  -6  -2  153.22    3.11
  -1  -6   2  154.05    3.10
  -1  -6   2  158.13    3.17
   1  -6  -2  149.61    3.11
  -1  -6   2  147.45    3.12
   1  -6  -2  158.72    3.08
   1  -6  -1   68.02    1.70
   1  -6  -1   65.55    1.65
   1  -6  -1   62.27    1.57
   1  -6  -1   63.74    1.58
   1  -6  -1   63.75    1.64
   1  -6  -1   64.38    1.65
  -1  -6   1   64.52    1.76
  -1  -6   1   67.09    1.73
  -1  -6   1   64.42    1.67
   1  -6  -1   67.45    1.75
   1  -6  -1   62.44    1.68
  -1  -6   1   62.19    1.59
  -1  -6   0   62.79    1.61
   1  -6   0   66.74    1.73
  -1  -6   0   65.04    1.69
   1  -6   0   62.29    1.63
   1  -6   0   65.04    1.69
   1  -6   0   59.98    1.52
  -1  -6   0   62.74    1.58
   1  -6   0   62.01    1.67
   1  -6   0   63.27    1.64
   1  -6   1   35.94    1.13
   1  -6   1   38.63    1.25
   1  -6   1   38.38    1.22
   1  -6   1   36.87    1.21
  -1  -6  -1   38.58    1.13
  -1  -6  -1   37.81    1.23
   1  -6   2   48.57    1.42
  -1  -6  -2   44.63    1.35
   1  -6   2   48.21    1.38
  -1  -6  -2   46.16    1.40
  -1  -6  -2   46.89    1.49
  -1  -6  -2   45.86    1.43
  -1  -6  -2   47.22    1.40
  -1  -6  -2   44.66    1.32
   1  -6   2   43.95    1.35
  -1  -6  -2   49.92    1.45
   1  -6   2   48.19    1.45
  -1  -6  -3  235.57    4.51
  -1  -6  -3  227.94    4.23
  -1  -6  -3  232.30    4.32
   1  -6   3  233.79    4.44
   1  -6   3  223.27    4.38
  -1  -6  -3  232.86    4.43
  -1  -6  -3  235.10    4.38
   1  -6   4   83.31    2.16
  -1  -6  -4   83.35    2.04
  -1  -6  -4   84.79    2.05
   1  -6   4   78.03    2.07
   1  -6   4   82.07    2.19
  -1  -6  -4   81.82    2.00
  -1  -6  -5    3.37    0.35
  -1  -6  -5    4.03    0.36
  -1  -6  -5    3.32    0.35
  -1  -6  -5    3.68    0.39
  -1  -6  -5    3.27    0.34
   1  -6   5    3.23    0.38
   1  -6   5    2.95    0.32
  -1  -6  -5    2.96    0.33
  -1  -6  -6   29.19    1.03
   1  -6   6   30.10    1.14
  -1  -6  -6   32.39    1.12
  -1  -6  -6   32.00    1.09
  -1  -6  -6   30.97    1.08
  -1  -6  -7   28.10    0.93
   1  -6   7   27.54    0.99
  -1  -6  -7   30.04    0.96
  -1  -6  -7   27.23    0.88
  -1  -6  -7   27.04    0.86
  -1  -6  -8   24.53    0.72
   1  -6   8   22.85    0.73
  -1  -5   9    1.67    0.23
   1  -5  -9    1.48    0.20
   1  -5  -9    1.69    0.21
  -1  -5   9    1.86    0.23
   1  -5  -9    1.51    0.17
   1  -5  -8   20.95    0.84
   1  -5  -8   21.17    0.88
   1  -5  -8   21.34    0.91
  -1  -5   8   22.00    0.93
  -1  -5   7   20.36    0.85
  -1  -5   7   19.99    0.88
   1  -5  -7   20.03    0.86
  -1  -5   7   20.81    0.96
   1  -5  -7   20.48    0.90
   1  -5  -7   20.36    0.85
  -1  -5   7   20.61    0.97
   1  -5  -7   20.05    0.89
   1  -5  -7   21.14    0.85
   1  -5  -7   20.18    0.95
   1  -5  -6    4.27    0.38
   1  -5  -6    3.74    0.39
   1  -5  -6    4.10    0.38
   1  -5  -6    3.78    0.38
  -1  -5   6    3.61    0.40
   1  -5  -6    3.75    0.38
  -1  -5   6    3.97    0.38
  -1  -5   6    3.81    0.38
   1  -5  -6    4.37    0.43
  -1  -5   6    4.17    0.42
  -1  -5   5   20.87    0.89
   1  -5  -5   20.78    0.90
   1  -5  -5   19.02    0.86
   1  -5  -5   19.08    0.89
   1  -5  -5   19.73    0.83
   1  -5  -5   20.01    0.80
  -1  -5   5   19.38    0.87
   1  -5  -5   19.16    0.81
   1  -5  -5   19.87    0.85
  -1  -5   5   20.80    0.92
  -1  -5   5   18.95    0.85
  -1  -5   4   31.25    1.10
   1  -5  -4   29.33    1.06
  -1  -5   4   32.50    1.11
  -1  -5   4   31.18    1.09
  -1  -5   3   22.74    0.84
   1  -5  -3   21.17    0.78
   1  -5  -3   22.24    0.81
   1  -5  -2   43.35    1.16
  -1  -5   2   42.79    1.25
   1  -5  -2   46.34    1.26
   1  -5  -1   53.70    1.30
  -1  -5   1   54.77    1.44
   1  -5  -1   53.41    1.40
   1  -5   0  197.64    3.58
  -1  -5   0  187.40    3.56
   1  -5   1   17.18    0.70
  -1  -5  -1   16.88    0.71
  -1  -5  -2  118.59    2.41
   1  -5   2  112.93    2.32
   1  -5   2  117.98    2.38
  -1  -5  -3   23.91    0.84
   1  -5   3   22.25    0.88
   1  -5   3   22.20    0.87
  -1  -5  -3   20.67    0.89
   1  -5   3   22.88    0.91
   1  -5   3   22.95    0.87
   1  -5   3   21.86    0.91
   1  -5   4  278.75    5.08
  -1  -5  -4  278.73    4.96
   1  -5   4  268.02    4.97
   1  -5   4  275.82    5.17
  -1  -5  -4  278.45    5.01
   1  -5   4  279.83    5.10
  -1  -5  -4  286.08    5.03
   1  -5   4  273.78    5.16
   1  -5   4  284.82    5.11
  -1  -5  -4  281.50    5.09
  -1  -5  -4  281.12    5.14
   1  -5   5   80.62    2.05
   1  -5   5   88.13    2.27
  -1  -5  -5   86.69    2.15
  -1  -5  -5   86.26    2.18
   1  -5   5   91.39    2.24
  -1  -5  -5   83.27    2.13
   1  -5   5   88.66    2.27
  -1  -5  -5   89.91    2.17
  -1  -5  -5   89.72    2.14
  -1  -5  -6   17.33    0.81
   1  -5   6   16.70    0.88
   1  -5   6   17.47    0.88
  -1  -5  -6   16.54    0.80
  -1  -5  -6   17.10    0.82
  -1  -5  -6   17.14    0.80
   1  -5   6   18.00    0.87
  -1  -5  -7   26.06    1.00
   1  -5   7   24.94    1.00
  -1  -5  -7   26.08    0.96
  -1  -5  -7   23.51    0.87
   1  -5   7   26.47    1.03
   1  -5   7   26.63    1.07
  -1  -5  -7   25.53    0.96
   1  -5   8   15.05    0.69
   1  -5   8   14.46    0.63
  -1  -5  -8   14.99    0.60
  -1  -5  -9   27.61    0.73
  -1  -4  10   11.07    0.48
  -1  -4  10    9.97    0.45
   1  -4 -10   10.54    0.46
   1  -4  -9   10.29    0.54
  -1  -4   9   10.54    0.57
  -1  -4   9   10.09    0.60
   1  -4  -9    9.64    0.55
   1  -4  -9    9.56    0.57
  -1  -4   9    9.86    0.58
   1  -4  -8   41.56    1.42
  -1  -4   8   42.98    1.46
  -1  -4   8   43.12    1.39
   1  -4  -8   40.52    1.34
  -1  -4   8   42.83    1.44
   1  -4  -7   17.73    0.86
  -1  -4   7   18.99    0.88
  -1  -4   7   19.35    0.94
  -1  -4   7   19.28    0.83
   1  -4  -7   18.50    0.83
   1  -4  -7   18.53    0.87
  -1  -4   7   20.38    0.96
   1  -4  -7   18.76    0.92
   1  -4  -6   59.45    1.59
   1  -4  -6   57.82    1.60
  -1  -4   6   61.47    1.76
   1  -4  -6   61.86    1.76
  -1  -4   6   62.49    1.75
   1  -4  -6   59.35    1.57
  -1  -4   6   60.57    1.62
   1  -4  -6   57.79    1.67
  -1  -4   6   59.72    1.66
  -1  -4   6   60.54    1.64
   1  -4  -6   58.51    1.65
   1  -4  -5   11.10    0.59
  -1  -4   5   10.39    0.61
  -1  -4   5    9.94    0.56
  -1  -4   5   11.00    0.62
  -1  -4   5   10.12    0.54
   1  -4  -5   10.16    0.59
  -1  -4   5   11.27    0.60
   1  -4  -4   73.33    1.77
   1  -4  -4   69.18    1.60
   1  -4  -4   76.19    1.58
  -1  -4   4   73.41    1.59
  -1  -4   4   74.21    1.62
   1  -4  -3   81.32    1.75
   1  -4  -3   86.21    1.75
   1  -4  -3   83.38    1.76
  -1  -4   3   85.08    1.67
  -1  -4   3   82.49    1.77
   1  -4  -3   85.72    1.87
  -1  -4   3   82.38    1.64
  -1  -4   2  193.74    3.42
   1  -4  -2  194.86    3.42
  -1  -4   2  195.61    3.17
   1  -4  -2  197.08    3.37
   1  -4  -2  200.95    3.50
  -1  -4   1  400.10    6.23
  -1  -4   1  384.64    5.91
   1  -4   0    9.23    0.43
  -1  -4   0    9.60    0.35
  -1  -4   0    8.77    0.43
   1  -4   0    9.73    0.44
   1  -4   1  298.37    4.99
  -1  -4  -1  305.06    5.08
   1  -4   1  317.96    5.10
  -1  -4  -1  303.91    4.89
  -1  -4  -2   46.24    1.15
   1  -4   2   43.48    1.11
   1  -4   2   45.18    1.15
  -1  -4  -3  398.91    6.28
   1  -4   3  380.93    6.43
  -1  -4  -3  380.08    6.47
   1  -4   4  280.03    5.00
   1  -4   4  284.30    4.98
   1  -4   4  278.82    4.90
   1  -4   4  278.06    5.03
  -1  -4  -4  274.90    4.93
  -1  -4  -5    7.77    0.52
   1  -4   5    7.82    0.55
   1  -4   5    7.48    0.50
   1  -4   5    7.86    0.57
  -1  -4  -5    5.89    0.45
  -1  -4  -5    6.63    0.47
  -1  -4  -5    6.53    0.47
  -1  -4  -5    6.24    0.48
   1  -4   5    7.47    0.54
   1  -4   6   65.27    1.88
   1  -4   6   64.68    1.84
  -1  -4  -6   66.29    1.73
  -1  -4  -6   61.09    1.77
   1  -4   6   67.75    1.93
   1  -4   7   39.28    1.37
  -1  -4  -7   36.69    1.19
   1  -4   7   40.58    1.35
  -1  -4  -7   38.20    1.29
  -1  -4  -7   37.24    1.28
  -1  -4  -8   27.35    0.99
   1  -4   8   27.13    1.02
   1  -4   8   26.73    0.98
  -1  -4  -8   28.87    0.99
  -1  -4  -8   28.01    0.92
  -1  -4  -9   11.45    0.48
   1  -4   9   12.53    0.54
  -1  -4  -9   12.83    0.53
   1  -4   9   12.14    0.55
  -1  -3  10    6.91    0.44
   1  -3 -10    6.68    0.40
  -1  -3  10    6.71    0.42
   1  -3 -10    6.60    0.38
  -1  -3  10    7.35    0.43
   1  -3  -9   15.58    0.74
  -1  -3   9   14.52    0.74
  -1  -3   9   16.78    0.82
  -1  -3   9   15.84    0.78
   1  -3  -9   14.95    0.73
  -1  -3   8    0.34    0.16
   1  -3  -8    0.32    0.14
  -1  -3   8    0.37    0.16
   1  -3  -8    0.36    0.14
  -1  -3   8    0.55    0.17
  -1  -3   8    0.53    0.19
   1  -3  -8    0.79    0.20
  -1  -3   7    0.72    0.18
  -1  -3   7    1.13    0.23
   1  -3  -7    0.80    0.19
   1  -3  -7    0.91    0.20
   1  -3  -7    1.20    0.22
  -1  -3   7    0.88    0.22
   1  -3  -7    0.77    0.18
  -1  -3   6   20.96    0.87
   1  -3  -6   21.04    0.89
  -1  -3   6   19.34    0.80
  -1  -3   6   20.86    0.88
  -1  -3   6   19.28    0.87
  -1  -3   6   20.86    0.90
  -1  -3   6   20.20    0.81
   1  -3  -6   19.46    0.80
  -1  -3   6   17.95    0.76
  -1  -3   5   94.98    2.04
   1  -3  -5   98.35    2.16
   1  -3  -5   96.54    2.10
   1  -3  -4   37.03    1.04
  -1  -3   4   37.10    0.98
   1  -3  -4   35.96    0.92
  -1  -3   3  163.52    2.77
  -1  -3   3  166.33    2.88
   1  -3  -3  176.11    2.86
   1  -3  -3  170.91    2.85
   1  -3  -3  165.39    2.92
   1  -3  -3  165.96    2.85
  -1  -3   3  158.24    2.85
   1  -3  -3  176.71    3.02
   1  -3  -3  170.00    2.97
  -1  -3   3  166.66    2.85
  -1  -3   2   73.58    1.38
  -1  -3   2   70.93    1.43
   1  -3  -2   76.19    1.45
  -1  -3   2   69.90    1.22
   1  -3  -2   73.14    1.42
   1  -3  -2   73.32    1.42
  -1  -3   2   73.19    1.32
   1  -3  -2   75.10    1.45
  -1  -3   1   56.19    1.20
  -1  -3   1   56.36    1.20
   1  -3   0  219.28    3.60
   1  -3   0  212.31    3.57
  -1  -3   0  211.55    3.57
  -1  -3   0  221.74    3.42
   1  -3   1  679.31   10.19
   1  -3   1  687.51   10.22
  -1  -3  -1  666.87   10.20
   1  -3   2   50.55    1.15
  -1  -3  -2   49.99    1.09
   1  -3   2   48.23    0.92
   1  -3   2   48.41    1.07
  -1  -3  -2   49.98    1.16
  -1  -3  -2   49.85    1.17
   1  -3   2   51.63    1.10
  -1  -3  -3  188.67    3.49
  -1  -3  -3  194.63    3.29
   1  -3   3  199.98    3.53
   1  -3   3  191.66    3.46
   1  -3   4   41.35    1.14
  -1  -3  -4   40.82    1.22
  -1  -3  -4   39.88    1.15
   1  -3   4   42.81    1.22
  -1  -3  -5   64.85    1.75
   1  -3   5   66.91    1.77
   1  -3   5   63.48    1.70
   1  -3   5   66.83    1.76
  -1  -3  -5   64.53    1.67
  -1  -3  -5   62.49    1.62
   1  -3   6   27.92    1.08
  -1  -3  -6   28.12    1.09
   1  -3   6   29.22    1.16
   1  -3   6   29.04    1.06
  -1  -3  -6   27.80    1.04
  -1  -3  -6   28.86    1.08
  -1  -3  -6   28.31    1.06
  -1  -3  -6   24.97    0.93
  -1  -3  -6   28.41    1.04
   1  -3   6   28.61    1.14
  -1  -3  -7   17.15    0.84
  -1  -3  -7   17.68    0.84
   1  -3   7   18.35    0.92
   1  -3   7   18.49    0.92
  -1  -3  -7   18.32    0.84
   1  -3   7   17.13    0.84
  -1  -3  -7   17.66    0.83
   1  -3   7   19.21    0.86
  -1  -3  -8   48.74    1.43
   1  -3   8   50.09    1.42
  -1  -3  -8   50.95    1.46
   1  -3   8   47.16    1.42
  -1  -3  -8   49.55    1.47
   1  -3   8   50.55    1.55
   1  -3   8   51.50    1.56
  -1  -3  -9   10.14    0.50
   1  -3   9    9.22    0.52
  -1  -3  -9   10.33    0.51
   1  -3   9    9.14    0.46
  -1  -3  -9   10.11    0.51
   1  -3   9    9.31    0.53
   1  -2 -11   25.44    0.72
   1  -2 -10   55.63    1.41
  -1  -2  10   55.49    1.41
  -1  -2  10   59.94    1.59
   1  -2 -10   61.71    1.56
  -1  -2  10   57.10    1.48
  -1  -2  10   59.31    1.57
   1  -2 -10   62.32    1.52
  -1  -2   9    2.36    0.32
   1  -2  -9    2.05    0.28
   1  -2  -9    2.05    0.29
   1  -2  -9    1.89    0.27
   1  -2  -9    1.80    0.27
  -1  -2   9    2.06    0.31
  -1  -2   9    2.28    0.28
  -1  -2   9    1.85    0.27
   1  -2  -8   63.77    1.64
  -1  -2   8   62.79    1.82
   1  -2  -8   63.52    1.83
   1  -2  -8   62.94    1.78
   1  -2  -8   62.93    1.75
  -1  -2   8   61.86    1.73
  -1  -2   8   66.80    1.89
  -1  -2   7   53.99    1.56
   1  -2  -7   55.04    1.56
  -1  -2   7   60.40    1.72
   1  -2  -7   53.67    1.55
   1  -2  -7   56.87    1.56
   1  -2  -7   54.67    1.48
  -1  -2   7   54.24    1.62
   1  -2  -7   48.68    1.52
   1  -2  -7   58.98    1.65
   1  -2  -7   58.05    1.66
  -1  -2   7   57.51    1.65
  -1  -2   6   33.01    1.09
   1  -2  -6   32.40    1.08
  -1  -2   5  106.31    2.15
   1  -2  -5  104.17    2.17
   1  -2  -5  102.44    2.08
  -1  -2   4  146.98    2.67
   1  -2  -4  143.92    2.52
   1  -2  -4  152.42    2.70
   1  -2  -3  236.20    3.73
  -1  -2   3  241.78    3.73
   1  -2  -3  239.37    3.87
  -1  -2   3  232.27    3.83
   1  -2  -3  232.63    3.74
   1  -2  -3  235.64    3.71
   1  -2  -3  226.97    3.87
   1  -2  -3  246.49    3.85
  -1  -2   3  232.04    3.81
   1  -2  -2  238.12    3.77
   1  -2  -2  233.12    3.86
   1  -2  -2  242.41    3.79
   1  -2  -2  252.50    3.84
  -1  -2   2  242.98    3.74
  -1  -2   2  236.25    3.80
   1  -2  -2  245.94    3.81
   1  -2  -2  239.02    3.83
  -1  -2   2  236.46    3.81
  -1  -2   1  404.36    6.34
   1  -2  -1  396.17    6.37
  -1  -2   1  423.57    6.39
  -1  -2   1  418.76    6.22
  -1  -2   1  422.97    6.37
  -1  -2   1  425.79    6.20
  -1  -2   0  219.78    3.35
   1  -2   0  213.50    3.47
   1  -2   0  217.59    3.41
   1  -2   0  219.86    3.45
   1  -2   0  215.13    3.45
  -1  -2   0  222.65    3.47
   1  -2   1  835.19   12.57
   1  -2   1  861.34   12.75
   1  -2   1  885.58   12.79
   1  -2   1  858.59   12.73
   1  -2   2   20.27    0.50
   1  -2   2   21.98    0.53
  -1  -2  -2   21.30    0.61
   1  -2   2   21.76    0.60
  -1  -2  -2   22.13    0.61
   1  -2   2   19.91    0.51
   1  -2   2   21.33    0.61
  -1  -2  -2   19.58    0.51
  -1  -2  -3  323.63    4.98
   1  -2   3  319.84    5.11
   1  -2   3  318.59    5.21
  -1  -2  -3  326.53    5.24
  -1  -2  -3  322.70    5.27
  -1  -2  -4   21.97    0.78
  -1  -2  -4   22.41    0.74
   1  -2   4   22.52    0.71
   1  -2   4   22.08    0.73
  -1  -2  -5   63.62    1.55
  -1  -2  -5   65.09    1.66
   1  -2   5   64.56    1.55
   1  -2   5   65.44    1.54
   1  -2   6   40.68    1.29
  -1  -2  -6   42.29    1.32
  -1  -2  -6   41.26    1.35
  -1  -2  -6   41.59    1.29
   1  -2   6   43.52    1.40
  -1  -2  -6   42.77    1.31
  -1  -2  -6   43.61    1.36
  -1  -2  -7    0.17    0.13
  -1  -2  -7    0.07    0.11
   1  -2   7    0.02    0.08
   1  -2   7    0.27    0.14
  -1  -2  -7    0.05    0.10
  -1  -2  -7    0.14    0.10
  -1  -2  -8   23.62    0.98
   1  -2   8   26.00    1.02
  -1  -2  -8   25.31    0.97
  -1  -2  -8   26.31    1.04
   1  -2   8   23.62    0.93
   1  -2   8   26.37    1.07
  -1  -2  -8   25.49    0.95
   1  -2   8   25.90    0.99
  -1  -2  -8   24.80    0.96
  -1  -2  -9    8.84    0.52
  -1  -2  -9    9.42    0.53
   1  -2   9    8.42    0.47
   1  -2   9    8.80    0.53
  -1  -2  -9    8.72    0.47
   1  -2   9    8.11    0.49
  -1  -2 -10    2.84    0.21
  -1  -1  11    5.32    0.33
   1  -1 -11    5.07    0.29
   1  -1 -11    5.31    0.31
  -1  -1  11    5.11    0.32
   1  -1 -10    4.22    0.36
   1  -1 -10    3.98    0.35
  -1  -1  10    3.90    0.33
  -1  -1  10    4.27    0.38
  -1  -1   9    3.05    0.36
  -1  -1   9    3.52    0.39
   1  -1  -9    3.25    0.33
  -1  -1   9    2.89    0.33
   1  -1  -9    3.40    0.38
   1  -1  -9    3.30    0.32
   1  -1  -8   13.24    0.74
   1  -1  -8   14.57    0.70
  -1  -1   8   16.36    0.80
   1  -1  -8   13.44    0.72
   1  -1  -8   13.61    0.70
  -1  -1   8   14.96    0.81
  -1  -1   8   12.43    0.66
   1  -1  -7   15.99    0.76
   1  -1  -7   15.40    0.74
   1  -1  -7   16.43    0.72
   1  -1  -7   15.92    0.75
   1  -1  -7   15.79    0.76
  -1  -1   7   17.21    0.78
  -1  -1   7   15.06    0.75
  -1  -1   7   15.80    0.77
  -1  -1   7   14.37    0.69
  -1  -1   6    3.11    0.30
   1  -1  -6    3.40    0.31
  -1  -1   6    2.83    0.29
  -1  -1   5   18.27    0.68
   1  -1  -5   20.29    0.69
  -1  -1   5   19.23    0.68
   1  -1  -5   17.96    0.60
  -1  -1   4  580.77    9.20
  -1  -1   4  622.60    9.00
   1  -1  -4  584.55    9.00
   1  -1  -4  597.84    9.23
   1  -1  -4  582.86    9.18
  -1  -1   4  608.28    9.25
  -1  -1   3   83.81    1.38
   1  -1  -3   86.59    1.52
  -1  -1   3   81.23    1.53
   1  -1  -3   83.64    1.38
  -1  -1   3   78.42    1.34
  -1  -1   3   82.71    1.50
   1  -1  -3   86.59    1.53
   1  -1  -3   80.17    1.34
   1  -1  -2  622.11    8.75
   1  -1  -2  611.11    8.83
   1  -1  -2  545.14    8.85
  -1  -1   2  557.40    8.80
   1  -1  -1   61.43    1.02
  -1  -1   1   60.20    0.97
  -1  -1   1   62.36    1.03
  -1  -1   0  532.53    7.58
   1  -1   0  523.32    7.64
  -1  -1  -2   14.24    0.43
   1  -1   2   13.65    0.39
  -1  -1  -2   13.75    0.38
   1  -1   2   14.43    0.32
  -1  -1  -3  122.64    2.05
  -1  -1  -3  121.51    2.19
  -1  -1  -3  116.25    1.84
   1  -1   3  125.58    2.16
   1  -1   3  120.89    2.20
  -1  -1  -4   49.71    1.16
  -1  -1  -4   49.26    1.20
  -1  -1  -5  261.94    4.49
  -1  -1  -5  257.48    4.61
   1  -1   5  260.10    4.57
   1  -1   5  263.52    4.47
  -1  -1  -6   63.10    1.71
  -1  -1  -6   63.77    1.72
   1  -1   6   67.23    1.77
  -1  -1  -6   66.65    1.72
   1  -1   6   63.38    1.68
   1  -1   6   62.38    1.62
   1  -1   6   65.76    1.77
   1  -1   7   21.24    0.97
   1  -1   7   23.05    0.99
  -1  -1  -7   21.19    0.88
  -1  -1  -7   22.63    0.97
  -1  -1  -7   21.77    0.93
  -1  -1  -8   15.59    0.77
  -1  -1  -8   15.42    0.79
  -1  -1  -8   15.00    0.71
   1  -1   8   16.65    0.83
   1  -1   8   16.01    0.83
   1  -1   9   19.01    0.83
   1  -1   9   18.65    0.80
  -1  -1  -9   19.32    0.81
   1  -1   9   20.01    0.81
  -1  -1  -9   18.54    0.75
  -1  -1  -9   19.91    0.82
   1  -1   9   19.09    0.79
  -1  -1  -9   18.15    0.73
   1  -1  10   10.61    0.46
  -1  -1 -10   11.04    0.47
   1  -1  10   10.33    0.48
   1   0 -11   88.27    1.78
  -1   0  11   90.01    1.84
   1   0 -11   94.02    1.81
  -1   0  11   88.57    1.80
  -1   0  10   34.08    1.15
   1   0 -10   33.68    1.10
   1   0 -10   30.87    0.95
  -1   0  10   33.11    1.12
   1   0  -9   50.58    1.52
  -1   0   9   51.81    1.60
   1   0  -9   48.06    1.51
   1   0  -9   44.58    1.46
  -1   0   9   48.33    1.44
   1   0  -9   46.91    1.38
   1   0  -8   23.64    1.00
   1   0  -8   25.87    1.04
   1   0  -8   26.61    0.97
  -1   0   8   25.45    1.00
   1   0  -8   27.22    1.07
  -1   0   7    1.89    0.24
  -1   0   7    2.10    0.27
  -1   0   7    3.03    0.33
   1   0  -7    2.01    0.26
   1   0  -7    2.07    0.27
   1   0  -7    1.71    0.25
   1   0  -7    2.23    0.26
   1   0  -7    1.88    0.26
  -1   0   6    1.48    0.21
  -1   0   6    1.41    0.20
   1   0  -6    1.39    0.20
   1   0  -5  158.29    2.83
   1   0  -5  172.82    3.00
   1   0  -4    1.73    0.14
   1   0  -4    1.66    0.16
  -1   0   4    1.56    0.10
   1   0  -4    1.57    0.10
   1   0  -3  483.10    7.15
   1   0  -3  483.05    7.32
   1   0  -3  461.90    7.22
   1   0  -3  491.60    7.30
  -1   0   3  475.84    7.14
  -1   0   3  489.88    7.36
  -1   0   2  645.05    9.66
  -1   0   1   42.53    0.72
   1   0  -1   43.92    0.68
  -1   0   1   42.68    0.75
   1   0  -1   41.97    0.74
   1   0   0  101.54    1.70
  -1   0   0  108.92    1.65
   1   0   0  106.33    1.67
   1   0   0  114.16    1.69
  -1   0   0  114.62    1.70
  -1   0   0  112.62    1.72
  -1   0   0  108.56    1.71
  -1   0  -1   53.66    0.88
   1   0   1   53.78    0.98
  -1   0  -1   53.14    0.92
   1   0   1   53.81    0.96
  -1   0  -1   56.34    0.89
  -1   0  -1   52.96    0.95
  -1   0  -2  132.59    2.08
  -1   0  -2  135.76    2.25
   1   0   2  139.01    2.26
  -1   0  -2  136.11    2.26
   1   0   2  133.64    2.25
  -1   0  -3    5.65    0.27
   1   0   3    5.42    0.27
   1   0   3    5.26    0.29
  -1   0  -3    6.09    0.30
   1   0   3    6.08    0.30
  -1   0  -4  143.93    2.59
   1   0   4  143.87    2.72
  -1   0  -4  144.97    2.68
   1   0   4  145.49    2.68
   1   0   4  147.66    2.60
   1   0   5    2.21    0.24
   1   0   5    2.86    0.24
  -1   0  -5    2.08    0.21
   1   0   5    2.41    0.26
  -1   0  -5    2.26    0.24
  -1   0  -6    0.66    0.16
  -1   0  -6    0.63    0.14
  -1   0  -6    0.48    0.14
  -1   0  -6    0.37    0.12
  -1   0  -6    0.33    0.12
   1   0   6    0.73    0.17
   1   0   6    0.98    0.19
  -1   0  -7   13.41    0.72
  -1   0  -7   13.76    0.74
  -1   0  -7   12.35    0.70
   1   0   7   13.13    0.72
   1   0   7   14.82    0.78
   1   0   8   15.38    0.77
   1   0   8   16.96    0.84
  -1   0  -8   16.23    0.81
  -1   0  -8   15.04    0.78
  -1   0  -8   16.04    0.79
   1   0   9    0.19    0.12
  -1   0  -9    0.02    0.10
  -1   0  -9    0.26    0.12
   1   0   9    0.19    0.11
  -1   0  -9    0.13    0.09
   1   0  10   11.38    0.49
  -1   0 -10   12.38    0.50
   1   0  10   10.99    0.47
   1   0  10   10.99    0.48
   1   0  10   11.63    0.50
   1   1 -11    5.06    0.30
   1   1 -11    5.86    0.32
  -1   1  11    5.20    0.32
   1   1 -10    4.23    0.36
  -1   1  10    3.80    0.36
   1   1 -10    4.28    0.33
  -1   1  10    4.46    0.37
   1   1  -9    3.08    0.34
   1   1  -9    3.42    0.34
   1   1  -9    4.14    0.40
  -1   1   9    3.70    0.38
   1   1  -9    3.60    0.37
   1   1  -8   12.03    0.68
   1   1  -8   12.72    0.65
   1   1  -8   11.42    0.67
   1   1  -8   11.91    0.67
  -1   1   8   12.69    0.66
  -1   1   7   16.59    0.77
   1   1  -7   16.22    0.75
   1   1  -7   16.09    0.72
  -1   1   7   16.83    0.81
   1   1  -7   18.81    0.80
   1   1  -7   16.00    0.75
   1   1  -7   16.74    0.72
  -1   1   6    3.23    0.29
  -1   1   6    3.03    0.30
   1   1  -5   16.01    0.46
   1   1  -5   15.70    0.46
   1   1  -5   15.04    0.58
  -1   1   5   16.88    0.65
   1   1  -4  589.48    8.94
   1   1  -4  595.37    8.98
  -1   1   4  611.52    9.12
  -1   1   4  586.34    8.90
  -1   1   4  586.18    9.17
   1   1  -4  584.34    8.90
  -1   1   3   74.37    1.41
  -1   1   3   74.15    1.26
   1   1  -3   73.36    1.31
   1   1  -3   72.34    1.22
  -1   1   3   77.61    1.39
   1   1  -2  586.48    8.97
  -1   1   2  604.35    9.06
  -1   1   1   53.40    0.89
  -1   1   1   50.87    0.85
  -1   1   1   52.42    0.91
  -1   1   0  521.89    7.71
   1   1   0  522.71    7.66
   1   1   2   19.72    0.38
   1   1   2   20.96    0.51
   1   1   2   21.49    0.55
  -1   1  -2   20.25    0.39
   1   1   2   21.73    0.43
  -1   1  -2   20.26    0.50
   1   1   3  136.81    2.35
  -1   1  -3  129.87    2.06
  -1   1  -3  136.71    2.29
  -1   1  -3  137.97    2.37
   1   1   4   46.15    1.23
   1   1   4   51.09    1.16
  -1   1  -4   48.53    1.13
  -1   1  -4   49.80    1.20
   1   1   4   48.04    1.17
   1   1   5  260.40    4.32
  -1   1  -5  269.17    4.49
   1   1   5  249.46    4.43
  -1   1  -5  247.47    4.31
   1   1   5  242.98    4.56
  -1   1  -6   69.80    1.76
  -1   1  -6   73.81    1.82
  -1   1  -6   69.74    1.67
  -1   1  -6   69.34    1.80
   1   1   6   71.73    1.79
  -1   1  -6   65.11    1.73
   1   1   6   70.40    1.87
  -1   1  -7   21.79    0.92
  -1   1  -7   20.40    0.92
  -1   1  -7   21.11    0.90
  -1   1  -7   19.41    0.87
   1   1   7   21.38    0.89
  -1   1  -8   18.53    0.86
   1   1   8   19.35    0.88
  -1   1  -8   18.06    0.84
   1   1   8   18.83    0.83
   1   1   9   18.48    0.78
  -1   1  -9   17.35    0.74
  -1   1  -9   17.27    0.75
   1   1  10    9.24    0.44
   1   1  10    8.02    0.42
  -1   1 -10    8.64    0.39
   1   1  10    9.05    0.44
   1   2 -11   25.42    0.68
   1   2 -10   52.72    1.45
  -1   2  10   53.46    1.45
   1   2 -10   56.21    1.38
   1   2  -9    3.24    0.35
   1   2  -9    3.46    0.36
   1   2  -9    3.43    0.33
   1   2  -9    3.68    0.37
   1   2  -8   61.52    1.69
   1   2  -8   59.85    1.66
   1   2  -8   62.22    1.66
   1   2  -8   64.90    1.79
   1   2  -8   60.30    1.72
   1   2  -8   62.43    1.68
   1   2  -7   61.92    1.66
   1   2  -7   61.36    1.65
   1   2  -7   60.66    1.60
  -1   2   7   58.62    1.73
   1   2  -7   55.99    1.56
   1   2  -7   60.01    1.66
   1   2  -6   26.56    0.92
  -1   2   6   25.56    0.90
  -1   2   6   27.50    0.99
  -1   2   5  107.07    2.12
   1   2  -5  105.50    1.93
  -1   2   5  109.40    2.24
   1   2  -5  103.83    1.91
  -1   2   4  135.79    2.50
  -1   2   4  139.35    2.44
  -1   2   4  138.99    2.30
   1   2  -3  207.69    3.32
  -1   2   3  201.85    3.32
   1   2  -3  210.91    3.39
  -1   2   2  263.55    4.13
   1   2  -2  268.73    4.20
   1   2  -2  271.52    4.19
  -1   2   2  268.04    4.15
   1   2  -2  262.70    4.16
   1   2  -1  405.03    6.03
  -1   2   1  395.03    5.95
  -1   2   1  396.18    6.04
  -1   2   1  390.25    6.08
   1   2  -1  396.82    6.07
  -1   2   0  216.22    3.43
   1   2   0  215.48    3.40
   1   2   0  212.62    3.30
  -1   2   0  218.15    3.42
  -1   2  -1  816.34   12.64
   1   2   1  857.89   12.53
   1   2   1  837.83   12.48
   1   2   1  882.93   12.64
  -1   2  -2   19.30    0.54
   1   2   2   17.94    0.44
  -1   2  -2   16.70    0.44
   1   2   2   19.72    0.47
   1   2   2   17.79    0.53
  -1   2  -3  327.48    5.29
  -1   2  -3  325.30    5.07
   1   2   3  324.81    5.34
  -1   2  -4   16.26    0.59
   1   2   4   16.51    0.60
   1   2   4   16.87    0.59
  -1   2  -5   59.23    1.53
  -1   2  -5   61.11    1.45
   1   2   5   60.06    1.45
   1   2   5   63.21    1.66
   1   2   5   61.59    1.49
  -1   2  -6   37.80    1.15
  -1   2  -6   38.14    1.24
  -1   2  -6   36.77    1.20
  -1   2  -6   37.69    1.19
   1   2   6   36.81    1.18
  -1   2  -6   37.71    1.22
  -1   2  -7    0.15    0.12
  -1   2  -7    0.16    0.12
  -1   2  -7    0.07    0.10
  -1   2  -7    0.04    0.07
  -1   2  -7    0.07    0.10
  -1   2  -8   24.64    1.00
   1   2   8   25.13    0.98
  -1   2  -8   24.92    0.97
  -1   2  -8   23.85    0.94
  -1   2  -9    9.08    0.48
   1   2   9    8.67    0.49
  -1   2  -9    9.35    0.52
  -1   2  -9   10.50    0.56
   1   2  10    2.34    0.21
  -1   2 -10    2.37    0.21
  -1   3  10    6.74    0.40
   1   3 -10    7.55    0.41
   1   3 -10    7.15    0.40
   1   3 -10    6.59    0.42
   1   3  -9   15.37    0.74
   1   3  -9   14.42    0.67
   1   3  -9   15.14    0.69
   1   3  -9   14.12    0.70
   1   3  -8    0.33    0.14
   1   3  -8    0.68    0.17
   1   3  -8    0.44    0.15
   1   3  -8    0.25    0.12
   1   3  -7    1.52    0.24
   1   3  -7    1.23    0.22
   1   3  -7    1.35    0.23
  -1   3   6   16.64    0.75
   1   3  -6   17.40    0.77
   1   3  -6   17.33    0.76
  -1   3   5  100.98    2.08
   1   3  -5   99.73    1.93
  -1   3   5   94.62    2.09
  -1   3   4   35.92    0.99
   1   3  -4   33.23    0.80
  -1   3   4   33.86    0.86
  -1   3   4   32.63    0.90
   1   3  -4   35.26    0.88
  -1   3   4   36.17    0.93
   1   3  -3  163.54    2.86
   1   3  -3  164.85    2.81
   1   3  -3  157.47    2.76
  -1   3   3  161.29    2.76
   1   3  -2   82.40    1.56
   1   3  -2   81.87    1.57
  -1   3   2   82.31    1.55
  -1   3   2   82.81    1.43
  -1   3   2   79.19    1.46
  -1   3   1   62.32    1.26
  -1   3   1   61.52    1.03
   1   3  -1   64.05    1.26
   1   3  -1   62.80    1.21
  -1   3   1   61.86    1.20
  -1   3   0  230.79    3.74
   1   3   0  229.94    3.72
  -1   3   0  228.51    3.71
   1   3   0  230.87    3.60
  -1   3   0  218.14    3.72
  -1   3  -1  656.66    9.95
   1   3   1  635.87    9.67
   1   3   1  670.48    9.88
   1   3   1  642.73    9.65
  -1   3  -1  652.62    9.88
  -1   3  -2   50.78    1.10
   1   3   2   54.18    1.20
   1   3   2   50.81    1.09
   1   3   2   55.68    1.12
   1   3   2   52.32    1.01
   1   3   3  214.67    3.63
  -1   3  -3  221.76    3.62
  -1   3  -4   47.94    1.22
   1   3   4   46.78    1.22
  -1   3  -5   59.92    1.56
  -1   3  -5   59.00    1.50
   1   3   5   59.90    1.50
  -1   3  -5   61.60    1.56
  -1   3  -5   56.52    1.49
  -1   3  -5   62.62    1.56
   1   3   5   64.92    1.74
  -1   3  -5   59.50    1.49
  -1   3  -6   24.48    0.90
  -1   3  -6   24.93    0.96
  -1   3  -6   23.04    0.90
  -1   3  -6   23.43    0.91
  -1   3  -6   24.74    0.97
  -1   3  -7   20.36    0.90
  -1   3  -7   20.15    0.83
  -1   3  -7   20.02    0.85
  -1   3  -7   19.94    0.88
  -1   3  -8   55.74    1.55
  -1   3  -8   52.60    1.36
  -1   3  -8   53.19    1.47
  -1   3  -9    8.77    0.49
   1   3   9    8.20    0.46
  -1   3 -10    4.24    0.24
   1   4 -10   10.09    0.42
   1   4 -10   10.77    0.45
   1   4  -9   11.49    0.58
   1   4  -9   11.16    0.60
   1   4  -9   11.72    0.57
   1   4  -9   12.09    0.60
   1   4  -8   46.10    1.40
   1   4  -8   45.05    1.37
   1   4  -8   44.32    1.38
   1   4  -8   48.38    1.44
   1   4  -7   12.75    0.63
   1   4  -7   14.30    0.72
   1   4  -7   14.23    0.72
   1   4  -7   14.39    0.73
   1   4  -6   65.99    1.65
   1   4  -6   64.58    1.73
  -1   4   6   68.16    1.81
   1   4  -6   67.69    1.74
   1   4  -5   10.09    0.54
  -1   4   5    9.69    0.50
   1   4  -5    8.73    0.51
  -1   4   5   10.31    0.56
  -1   4   4   67.11    1.50
   1   4  -4   68.02    1.44
   1   4  -4   64.64    1.48
  -1   4   4   64.10    1.52
  -1   4   4   65.64    1.49
   1   4  -3   72.18    1.52
  -1   4   3   67.92    1.54
  -1   4   3   67.45    1.44
   1   4  -3   66.19    1.46
   1   4  -3   67.12    1.52
  -1   4   2  196.02    3.54
   1   4  -2  207.40    3.52
  -1   4   2  204.60    3.47
   1   4  -2  199.99    3.47
   1   4  -1  381.29    6.14
  -1   4   1  377.00    6.17
   1   4  -1  371.19    6.02
  -1   4   0    8.41    0.40
  -1   4   0    7.59    0.39
   1   4   0    7.56    0.32
  -1   4  -1  291.80    4.83
   1   4   1  290.10    4.78
  -1   4  -1  287.41    4.80
  -1   4  -2   46.88    1.11
  -1   4  -2   46.36    1.18
   1   4   2   44.19    1.08
  -1   4  -3  392.17    6.31
  -1   4  -3  384.29    6.51
   1   4   4  264.30    4.72
  -1   4  -4  272.53    4.71
  -1   4  -4  268.42    4.75
  -1   4  -4  265.75    4.73
   1   4   5    5.90    0.50
  -1   4  -5    5.89    0.42
  -1   4  -5    5.97    0.43
  -1   4  -5    5.55    0.42
  -1   4  -6   60.14    1.63
  -1   4  -6   60.75    1.62
  -1   4  -6   60.20    1.59
  -1   4  -6   57.88    1.65
  -1   4  -7   37.75    1.21
  -1   4  -7   40.97    1.31
  -1   4  -7   41.85    1.32
  -1   4  -7   40.31    1.27
  -1   4  -8   26.81    0.91
  -1   4  -8   25.45    0.83
   1   4   9   12.30    0.51
  -1   4  -9   12.61    0.54
  -1   4  -9   12.10    0.52
   1   5  -9    1.87    0.21
   1   5  -9    1.71    0.20
   1   5  -9    1.71    0.20
   1   5  -9    1.68    0.19
   1   5  -9    1.82    0.21
   1   5  -8   20.41    0.82
   1   5  -8   20.46    0.83
   1   5  -8   20.05    0.81
   1   5  -8   20.27    0.83
   1   5  -7   21.78    0.90
   1   5  -7   21.94    0.91
   1   5  -7   22.48    0.86
   1   5  -6    3.01    0.33
   1   5  -6    3.32    0.34
   1   5  -6    3.52    0.34
   1   5  -5   19.75    0.82
   1   5  -5   20.41    0.83
   1   5  -5   19.44    0.77
   1   5  -4   33.00    1.01
   1   5  -4   31.83    1.06
   1   5  -4   31.67    1.07
   1   5  -4   32.72    1.04
  -1   5   4   30.65    1.02
   1   5  -3   18.66    0.71
  -1   5   3   17.73    0.74
   1   5  -3   20.21    0.75
   1   5  -2   48.28    1.27
  -1   5   2   47.54    1.21
   1   5  -2   50.35    1.29
  -1   5   2   48.96    1.32
   1   5  -2   48.98    1.24
   1   5  -1   60.34    1.44
  -1   5   1   58.56    1.46
  -1   5   1   58.22    1.38
  -1   5   0  180.32    3.36
  -1   5   0  176.23    3.38
  -1   5  -1   20.85    0.77
   1   5   1   21.09    0.76
  -1   5  -1   20.65    0.78
  -1   5  -2  116.76    2.35
   1   5   2  114.17    2.33
  -1   5  -2  110.48    2.40
   1   5   2  117.25    2.34
  -1   5  -3   27.19    0.88
  -1   5  -3   29.60    1.01
   1   5   3   30.52    1.03
  -1   5  -3   27.25    0.96
  -1   5  -3   28.15    1.00
  -1   5  -3   29.10    0.99
  -1   5  -4  277.27    4.99
  -1   5  -4  277.84    4.99
   1   5   4  270.92    4.98
  -1   5  -4  276.40    4.95
  -1   5  -5   81.81    2.00
  -1   5  -5   76.74    1.93
  -1   5  -5   78.77    1.85
  -1   5  -6   22.78    0.92
  -1   5  -6   22.43    0.93
  -1   5  -6   21.91    0.87
  -1   5  -7   28.40    1.01
  -1   5  -7   28.52    0.98
  -1   5  -7   27.20    1.00
  -1   5  -8   13.49    0.54
  -1   5  -8   14.64    0.62
  -1   5  -9   25.25    0.68
   1   6  -8   10.43    0.52
   1   6  -7   18.18    0.79
   1   6  -7   16.63    0.70
   1   6  -7   15.69    0.69
   1   6  -6    3.17    0.32
   1   6  -6    2.56    0.27
   1   6  -6    3.13    0.33
   1   6  -5   11.99    0.61
   1   6  -5   11.08    0.63
   1   6  -5    9.82    0.61
   1   6  -5   10.10    0.58
   1   6  -4   53.89    1.56
   1   6  -4   54.25    1.50
   1   6  -4   55.75    1.58
   1   6  -4   55.03    1.58
   1   6  -3   19.59    0.82
   1   6  -3   20.27    0.85
   1   6  -3   19.43    0.83
   1   6  -3   19.41    0.81
  -1   6   3   20.26    0.86
   1   6  -2  156.55    3.06
   1   6  -2  147.82    3.03
  -1   6   2  148.93    3.09
   1   6  -2  144.49    3.00
   1   6  -2  148.74    2.94
  -1   6   1   59.60    1.53
  -1   6   1   62.66    1.67
   1   6  -1   63.65    1.62
  -1   6   0   63.48    1.68
   1   6   0   61.76    1.63
   1   6   0   63.60    1.65
  -1   6   0   62.66    1.61
   1   6   1   44.91    1.32
  -1   6  -1   46.03    1.35
  -1   6  -1   43.49    1.26
   1   6   1   46.41    1.34
  -1   6  -1   44.30    1.33
  -1   6  -2   46.35    1.40
  -1   6  -2   45.45    1.32
  -1   6  -2   47.89    1.40
   1   6   2   49.95    1.47
  -1   6  -2   46.81    1.35
  -1   6  -2   46.40    1.34
   1   6   2   45.09    1.32
   1   6   2   45.98    1.34
  -1   6  -3  227.35    4.33
  -1   6  -3  229.31    4.30
  -1   6  -3  235.22    4.38
  -1   6  -4   79.78    2.00
  -1   6  -5    3.49    0.35
  -1   6  -5    3.75    0.36
  -1   6  -5    4.02    0.35
  -1   6  -6   35.46    1.16
  -1   6  -6   34.93    1.10
  -1   6  -6   36.04    1.16
  -1   6  -7   26.27    0.86
  -1   6  -7   27.30    0.91
  -1   6  -7   26.99    0.90
  -1   6  -8   24.67    0.73
   1   7  -8    8.45    0.39
   1   7  -8    8.12    0.38
   1   7  -7    5.70    0.35
   1   7  -7    6.02    0.40
   1   7  -6    3.05    0.31
   1   7  -6    2.62    0.26
   1   7  -5    0.20    0.11
   1   7  -5    0.22    0.12
   1   7  -5    0.21    0.11
   1   7  -4    6.01    0.47
   1   7  -4    5.93    0.47
   1   7  -4    5.67    0.44
   1   7  -3   27.47    1.07
   1   7  -3   28.81    1.08
   1   7  -2   11.72    0.66
   1   7  -2   12.36    0.68
   1   7  -1   12.20    0.67
  -1   7   0    1.54    0.23
  -1   7  -1   17.63    0.81
  -1   7  -1   17.34    0.77
  -1   7  -2  103.07    2.40
  -1   7  -2  100.57    2.32
  -1   7  -3   11.35    0.66
  -1   7  -3   11.86    0.67
  -1   7  -3   13.18    0.68
  -1   7  -4   22.71    0.92
  -1   7  -4   21.74    0.92
  -1   7  -5    3.74    0.33
  -1   7  -5    3.51    0.30
  -1   7  -5    3.70    0.35
  -1   7  -5    3.28    0.32
  -1   7  -6    5.90    0.38
  -1   7  -6    5.80    0.36
  -1   7  -6    6.12    0.40
  -1   7  -7   37.11    0.93
  -1   7  -7   35.29    0.90
  -1   7  -7   36.19    0.94
   1   8  -6    5.06    0.33
   1   8  -6    4.66    0.33
   1   8  -5   17.60    0.68
   1   8  -5   17.63    0.74
   1   8  -4   44.82    1.35
   1   8  -4   44.55    1.30
   1   8  -3    7.12    0.50
   1   8  -3    8.38    0.55
   1   8  -3    8.02    0.53
   1   8  -3    7.53    0.51
   1   8  -2   24.46    0.97
   1   8  -2   24.24    0.98
   1   8  -1    8.42    0.55
   1   8  -1    8.27    0.55
   1   8   0   22.39    0.91
  -1   8   0   21.32    0.87
  -1   8  -1   83.55    1.98
  -1   8  -1   83.66    2.06
  -1   8  -1   85.68    2.11
  -1   8  -2   31.55    1.11
  -1   8  -2   30.39    1.04
  -1   8  -3   33.84    1.14
  -1   8  -3   33.74    1.14
  -1   8  -4   25.91    0.89
  -1   8  -4   25.97    0.93
  -1   8  -4   26.30    0.87
  -1   8  -4   26.37    0.92
  -1   8  -5   10.05    0.46
  -1   8  -5   10.18    0.48
  -1   8  -5    9.15    0.42
   1   9  -5    3.09    0.24
   1   9  -5    3.31    0.24
   1   9  -4   10.49    0.48
   1   9  -3   11.56    0.57
   1   9  -3   11.51    0.55
   1   9  -3   10.62    0.54
   1   9  -2    7.63    0.47
   1   9  -2    7.09    0.46
   1   9  -2    7.00    0.45
   1   9  -1    9.80    0.54
   1   9  -1   10.02    0.52
   1   9  -1    9.54    0.53
  -1   9   0   40.99    1.21
  -1   9   0   37.45    1.10
   1   9   0   39.79    1.13
   1   9   0   40.82    1.18
   1   9   1   41.07    1.17
  -1   9  -1   41.68    1.18
   1   9   2    7.60    0.42
  -1   9  -2    7.88    0.45
  -1   9  -2    8.51    0.49
  -1   9  -3   24.12    0.80
  -1   9  -3   23.44    0.78
  -1   9  -3   23.43    0.79
  -1   9  -4    1.09    0.15
  -1   9  -4    1.13    0.15
   1  10   0    9.50    0.42
  -1  10   0    9.72    0.42
   2  -9  -5    2.06    0.21
   2  -9  -5    2.10    0.21
   2  -9  -4    6.91    0.41
  -2  -9   4    7.05    0.37
  -2  -9   4    6.77    0.42
   2  -9  -4    7.56    0.44
  -2  -9   4    7.13    0.44
   2  -9  -3   13.08    0.63
  -2  -9   3   14.48    0.65
  -2  -9   3   14.66    0.64
   2  -9  -3   14.14    0.62
   2  -9  -2   27.56    0.94
   2  -9  -2   26.15    0.87
  -2  -9   2   24.01    0.86
  -2  -9   2   27.08    0.99
   2  -9  -2   29.90    1.01
  -2  -9   2   26.89    0.90
   2  -9  -1    2.76    0.30
  -2  -9   1    3.37    0.30
   2  -9  -1    3.21    0.29
  -2  -9   1    3.20    0.28
  -2  -9   1    3.55    0.35
  -2  -9   0    9.92    0.57
  -2  -9   0    8.95    0.49
   2  -9   0    9.38    0.49
   2  -9   1    5.17    0.36
  -2  -9  -1    5.30    0.36
  -2  -9  -1    5.79    0.40
   2  -9   2   50.49    1.31
   2  -9   2   50.69    1.33
  -2  -9  -2   48.61    1.22
   2  -9   2   47.34    1.26
  -2  -9  -2   49.84    1.29
   2  -9   3   34.07    0.98
   2  -9   3   32.05    0.92
  -2  -9  -3   33.96    0.89
  -2  -9  -3   35.30    0.98
  -2  -8   7   14.65    0.56
  -2  -8   7   15.00    0.56
  -2  -8   7   16.08    0.59
  -2  -8   6    1.47    0.21
   2  -8  -6    2.08    0.24
   2  -8  -6    1.91    0.21
  -2  -8   6    1.76    0.23
  -2  -8   5   18.75    0.78
   2  -8  -5   18.24    0.78
   2  -8  -5   19.52    0.81
   2  -8  -4   12.92    0.63
  -2  -8   4   13.24    0.65
  -2  -8   4   12.76    0.70
   2  -8  -4   12.76    0.68
  -2  -8   4   12.81    0.68
   2  -8  -4   13.67    0.73
  -2  -8   4   12.81    0.65
  -2  -8   3   10.60    0.58
   2  -8  -3   11.30    0.64
  -2  -8   3   11.28    0.66
  -2  -8   3   10.36    0.63
  -2  -8   3   10.65    0.63
   2  -8  -3   10.52    0.62
   2  -8  -3   10.44    0.63
   2  -8  -2    8.76    0.58
   2  -8  -2    9.93    0.62
  -2  -8   2    8.88    0.56
  -2  -8   2    8.32    0.56
  -2  -8   2    9.04    0.61
   2  -8  -2    8.28    0.54
   2  -8  -1   32.78    1.21
   2  -8  -1   35.87    1.23
  -2  -8   1   31.92    1.11
   2  -8  -1   33.36    1.15
   2  -8  -1   33.78    1.14
  -2  -8   1   34.27    1.13
  -2  -8   1   34.72    1.27
  -2  -8   0   25.55    0.98
   2  -8   0   26.64    1.05
  -2  -8   0   26.61    1.08
   2  -8   0   26.23    1.01
   2  -8   0   27.77    1.08
   2  -8   0   28.44    1.07
   2  -8   1    9.17    0.59
   2  -8   1    9.12    0.58
  -2  -8  -1    9.30    0.59
  -2  -8  -1    8.68    0.54
   2  -8   1    9.08    0.57
   2  -8   1   10.12    0.61
  -2  -8  -1    8.95    0.58
   2  -8   2   15.70    0.70
   2  -8   2   15.38    0.71
  -2  -8  -2   15.49    0.71
   2  -8   2   15.71    0.75
  -2  -8  -2   15.33    0.78
   2  -8   2   15.37    0.75
  -2  -8  -2   16.00    0.72
   2  -8   3   11.85    0.60
   2  -8   3   12.98    0.67
   2  -8   3   10.95    0.57
   2  -8   3   12.29    0.65
  -2  -8  -3   11.61    0.65
  -2  -8  -3   12.34    0.60
   2  -8   4   29.85    0.99
  -2  -8  -4   29.91    1.01
   2  -8   4   28.57    0.91
   2  -8   4   30.73    0.99
   2  -8   4   30.02    0.91
  -2  -8  -4   28.98    0.91
   2  -8   5    0.94    0.15
  -2  -8  -5    1.00    0.14
  -2  -8  -5    1.18    0.17
   2  -7  -8   25.71    0.81
  -2  -7   8   23.45    0.73
   2  -7  -7   15.31    0.66
   2  -7  -7   17.31    0.70
   2  -7  -7   14.94    0.59
  -2  -7   7   16.46    0.72
   2  -7  -7   16.72    0.74
   2  -7  -6    0.49    0.14
   2  -7  -6    0.69    0.19
   2  -7  -6    0.65    0.16
  -2  -7   6    0.61    0.17
   2  -7  -6    0.54    0.16
   2  -7  -6    0.76    0.20
  -2  -7   6    0.79    0.19
  -2  -7   5   12.68    0.72
  -2  -7   5   10.78    0.68
  -2  -7   5   10.95    0.61
   2  -7  -5   10.94    0.64
   2  -7  -5   10.95    0.66
   2  -7  -5   11.23    0.69
   2  -7  -4   42.17    1.30
  -2  -7   4   41.73    1.33
   2  -7  -4   40.63    1.37
  -2  -7   4   43.36    1.40
   2  -7  -4   39.65    1.36
  -2  -7   4   43.61    1.45
   2  -7  -4   44.45    1.47
  -2  -7   4   42.05    1.41
   2  -7  -4   40.75    1.42
   2  -7  -4   41.17    1.41
  -2  -7   3   45.54    1.47
  -2  -7   3   44.10    1.45
   2  -7  -3   42.17    1.37
   2  -7  -3   44.95    1.39
  -2  -7   3   44.60    1.42
  -2  -7   3   44.70    1.44
   2  -7  -3   42.80    1.46
   2  -7  -3   42.12    1.40
   2  -7  -2   10.69    0.63
  -2  -7   2   10.06    0.58
   2  -7  -2    9.72    0.62
   2  -7  -2    9.78    0.61
  -2  -7   2   10.16    0.63
  -2  -7   2   10.59    0.66
  -2  -7   2   10.04    0.57
   2  -7  -2   10.72    0.60
   2  -7  -2    8.92    0.62
   2  -7  -1   81.49    2.01
   2  -7  -1   76.40    1.87
   2  -7  -1   72.46    1.97
   2  -7  -1   73.42    1.91
  -2  -7   1   77.64    1.94
   2  -7  -1   74.58    1.91
  -2  -7   1   69.90    1.90
  -2  -7   1   71.97    1.85
   2  -7   0   57.98    1.72
   2  -7   0   60.45    1.64
   2  -7   0   62.60    1.71
   2  -7   0   60.28    1.71
  -2  -7   0   60.51    1.57
  -2  -7   0   59.20    1.68
  -2  -7   0   60.51    1.70
   2  -7   0   64.22    1.76
  -2  -7  -1  109.92    2.45
  -2  -7  -1  103.89    2.47
  -2  -7  -1   99.27    2.38
  -2  -7  -1  103.67    2.49
   2  -7   1  110.60    2.50
   2  -7   1  104.24    2.47
  -2  -7  -1  104.68    2.51
   2  -7   1  104.74    2.41
  -2  -7  -2   94.79    2.33
   2  -7   2   99.76    2.41
  -2  -7  -2   94.93    2.29
  -2  -7  -2   98.37    2.37
  -2  -7  -2  100.44    2.32
   2  -7   2   93.90    2.30
  -2  -7  -2   99.66    2.45
   2  -7   2  102.95    2.44
   2  -7   2   98.46    2.29
   2  -7   2   94.94    2.32
   2  -7   3   77.31    1.99
  -2  -7  -3   72.28    1.88
   2  -7   3   75.37    1.97
   2  -7   3   70.33    1.86
  -2  -7  -3   75.29    2.04
   2  -7   3   75.95    1.99
   2  -7   4  108.74    2.51
   2  -7   4  111.23    2.38
   2  -7   4  105.91    2.48
  -2  -7  -4  110.20    2.33
  -2  -7  -4  111.64    2.43
   2  -7   5   71.74    1.79
  -2  -7  -5   78.47    1.74
  -2  -7  -5   75.89    1.86
  -2  -7  -5   77.85    1.79
   2  -7   5   71.57    1.84
   2  -7   6   24.30    0.76
   2  -7   6   25.13    0.83
  -2  -7  -6   23.68    0.78
  -2  -7  -6   24.54    0.78
  -2  -7  -6   25.20    0.76
  -2  -6   9    4.94    0.33
   2  -6  -9    5.20    0.34
   2  -6  -9    4.58    0.27
   2  -6  -8   32.46    1.02
  -2  -6   8   29.13    1.04
  -2  -6   8   28.99    0.95
   2  -6  -8   31.72    1.08
   2  -6  -8   29.36    0.97
   2  -6  -7   40.25    1.25
  -2  -6   7   42.02    1.33
  -2  -6   7   42.13    1.38
   2  -6  -7   37.80    1.13
  -2  -6   7   41.00    1.33
   2  -6  -7   43.45    1.33
   2  -6  -7   39.44    1.31
   2  -6  -7   40.14    1.37
   2  -6  -7   41.13    1.26
  -2  -6   6   10.24    0.65
   2  -6  -6    9.78    0.64
   2  -6  -6    9.21    0.64
   2  -6  -6    9.60    0.60
  -2  -6   6   10.58    0.66
   2  -6  -6   10.25    0.64
  -2  -6   6    9.62    0.63
   2  -6  -6    9.90    0.57
   2  -6  -6    9.70    0.57
   2  -6  -5   44.85    1.42
   2  -6  -5   40.90    1.35
   2  -6  -5   43.14    1.47
  -2  -6   5   45.73    1.49
   2  -6  -5   43.81    1.45
  -2  -6   5   42.94    1.40
   2  -6  -5   44.98    1.47
  -2  -6   5   43.45    1.34
   2  -6  -4   12.30    0.67
   2  -6  -4   11.71    0.70
   2  -6  -4   11.36    0.68
  -2  -6   4   12.64    0.68
  -2  -6   4   12.42    0.71
  -2  -6   4   11.05    0.63
   2  -6  -4   11.37    0.65
   2  -6  -4   12.08    0.63
   2  -6  -4   12.25    0.70
   2  -6  -3    2.84    0.33
   2  -6  -3    2.95    0.34
   2  -6  -3    2.76    0.30
   2  -6  -3    3.37    0.36
  -2  -6   3    2.15    0.29
  -2  -6   3    3.03    0.33
  -2  -6   3    2.74    0.32
   2  -6  -3    2.58    0.29
   2  -6  -3    2.97    0.32
  -2  -6   3    2.87    0.32
   2  -6  -2   59.53    1.60
   2  -6  -2   59.49    1.57
  -2  -6   2   55.89    1.62
  -2  -6   2   60.00    1.72
   2  -6  -2   62.34    1.68
   2  -6  -2   59.02    1.54
  -2  -6   2   56.60    1.56
  -2  -6   2   60.05    1.62
   2  -6  -2   60.11    1.61
   2  -6  -2   61.53    1.66
  -2  -6   2   55.52    1.63
   2  -6  -2   57.34    1.62
   2  -6  -2   58.66    1.56
  -2  -6   1   44.61    1.40
   2  -6  -1   45.23    1.32
   2  -6  -1   46.15    1.31
   2  -6  -1   45.86    1.39
   2  -6  -1   49.64    1.40
   2  -6  -1   47.00    1.34
  -2  -6   1   43.27    1.30
   2  -6  -1   43.05    1.32
   2  -6  -1   47.00    1.42
  -2  -6   1   47.25    1.48
  -2  -6   0    1.11    0.20
   2  -6   0    1.08    0.20
  -2  -6   0    1.93    0.28
  -2  -6   0    0.99    0.21
   2  -6   0    1.27    0.21
   2  -6   0    0.97    0.19
   2  -6   0    0.96    0.19
  -2  -6   0    1.01    0.19
  -2  -6   0    1.18    0.18
   2  -6   1   63.82    1.71
  -2  -6  -1   67.46    1.75
   2  -6   1   66.22    1.75
   2  -6   1   64.64    1.71
  -2  -6  -1   64.73    1.70
   2  -6   1   62.79    1.69
   2  -6   1   64.35    1.75
   2  -6   1   66.81    1.74
  -2  -6  -1   64.17    1.69
  -2  -6  -1   65.39    1.80
  -2  -6  -1   63.40    1.77
  -2  -6  -1   64.01    1.72
  -2  -6  -1   63.59    1.67
   2  -6   2  100.77    2.43
   2  -6   2  103.74    2.35
  -2  -6  -2  108.86    2.46
  -2  -6  -2  110.26    2.48
   2  -6   2  104.32    2.38
   2  -6   2  109.30    2.48
  -2  -6  -2  105.80    2.53
  -2  -6  -2  105.20    2.39
   2  -6   2  104.28    2.38
   2  -6   2  103.98    2.45
   2  -6   3   22.99    1.00
  -2  -6  -3   23.70    0.94
   2  -6   3   23.85    0.97
   2  -6   3   23.23    0.97
  -2  -6  -3   24.21    1.01
  -2  -6  -3   23.87    1.03
  -2  -6  -3   22.47    0.90
  -2  -6  -3   23.95    0.96
   2  -6   3   22.37    0.91
   2  -6   4    3.77    0.39
   2  -6   4    3.62    0.41
  -2  -6  -4    4.01    0.38
   2  -6   4    3.47    0.33
   2  -6   4    3.65    0.36
  -2  -6  -4    4.20    0.42
  -2  -6  -5   14.45    0.76
  -2  -6  -5   15.47    0.74
   2  -6   5   15.39    0.80
   2  -6   5   15.26    0.76
  -2  -6  -6    2.34    0.27
   2  -6   6    2.06    0.26
  -2  -6  -6    2.29    0.27
   2  -6   6    2.08    0.28
   2  -6   6    2.12    0.25
   2  -6   7   19.19    0.66
   2  -6   7   20.24    0.75
  -2  -6  -7   20.28    0.70
   2  -5 -10    4.19    0.28
  -2  -5   9    8.80    0.50
   2  -5  -9    8.08    0.47
  -2  -5   9    8.87    0.53
   2  -5  -9    8.90    0.50
  -2  -5   8   13.72    0.68
   2  -5  -8   12.66    0.70
  -2  -5   8   14.62    0.73
  -2  -5   8   14.31    0.68
   2  -5  -8   14.34    0.72
  -2  -5   8   14.52    0.77
   2  -5  -7   30.90    1.07
   2  -5  -7   29.64    1.03
  -2  -5   7   28.88    1.12
  -2  -5   7   31.64    1.23
   2  -5  -7   30.78    1.12
   2  -5  -7   29.34    1.09
  -2  -5   7   28.39    1.10
   2  -5  -7   30.04    1.20
  -2  -5   7   31.44    1.15
   2  -5  -7   29.25    1.16
  -2  -5   6   28.60    1.11
   2  -5  -6   27.48    1.03
   2  -5  -6   26.47    1.10
   2  -5  -6   26.44    0.98
   2  -5  -6   28.38    1.05
   2  -5  -6   28.24    1.15
  -2  -5   6   28.08    1.13
  -2  -5   6   29.41    1.12
   2  -5  -6   31.01    1.12
   2  -5  -6   27.90    0.96
   2  -5  -5   16.10    0.79
   2  -5  -5   15.85    0.80
  -2  -5   5   17.96    0.84
   2  -5  -5   15.30    0.79
  -2  -5   5   16.67    0.81
  -2  -5   5   16.83    0.81
   2  -5  -4    4.34    0.36
  -2  -5   4    5.44    0.43
  -2  -5   4    4.14    0.36
  -2  -5   4    4.37    0.37
  -2  -5   4    4.20    0.35
  -2  -5   4    4.47    0.40
  -2  -5   3   39.54    1.22
   2  -5  -3   40.20    1.18
   2  -5  -3   39.73    1.25
   2  -5  -3   40.83    1.17
  -2  -5   2   12.16    0.62
   2  -5  -2   12.42    0.57
   2  -5  -2   11.67    0.58
   2  -5  -1  355.09    6.15
  -2  -5   1  372.11    6.27
   2  -5  -1  370.32    6.21
  -2  -5   1  370.53    6.20
  -2  -5   0   69.09    1.70
   2  -5   0   67.08    1.67
   2  -5   0   69.37    1.67
  -2  -5   0   64.96    1.67
  -2  -5  -1   50.35    1.42
   2  -5   1   54.29    1.42
  -2  -5  -1   50.70    1.46
  -2  -5  -2   24.05    0.89
   2  -5   2   22.52    0.88
   2  -5   2   25.35    0.95
  -2  -5  -2   24.45    0.98
  -2  -5  -2   22.53    0.93
   2  -5   2   24.62    0.92
   2  -5   3  109.15    2.49
   2  -5   3  109.44    2.40
  -2  -5  -3  108.10    2.56
   2  -5   3  108.92    2.52
   2  -5   3  110.63    2.55
   2  -5   3  108.40    2.50
  -2  -5  -4  380.73    6.70
  -2  -5  -4  401.34    6.60
   2  -5   4  381.51    6.89
   2  -5   4  381.22    6.82
  -2  -5  -4  381.59    6.80
  -2  -5  -4  393.41    6.70
   2  -5   4  386.07    6.82
   2  -5   5   41.54    1.46
  -2  -5  -5   42.59    1.34
   2  -5   5   40.16    1.40
  -2  -5  -5   39.13    1.33
   2  -5   5   39.52    1.38
  -2  -5  -5   39.37    1.32
  -2  -5  -6   20.15    0.88
  -2  -5  -6   20.64    0.86
   2  -5   6   19.53    0.90
   2  -5   6   20.69    0.95
   2  -5   6   18.77    0.87
  -2  -5  -6   18.40    0.81
   2  -5   7   12.08    0.63
  -2  -5  -7   11.11    0.58
   2  -5   8   46.66    1.17
  -2  -5  -8   51.44    1.20
  -2  -4  10   16.98    0.68
  -2  -4  10   16.79    0.69
   2  -4 -10   16.58    0.67
   2  -4 -10   16.17    0.63
  -2  -4   9    0.81    0.19
   2  -4  -9    0.72    0.18
   2  -4  -9    0.58    0.17
   2  -4  -9    0.59    0.18
   2  -4  -8   28.45    1.16
  -2  -4   8   29.80    1.17
   2  -4  -8   32.00    1.20
  -2  -4   8   29.19    1.04
  -2  -4   8   31.43    1.21
   2  -4  -7   84.53    2.22
  -2  -4   7   88.08    2.14
  -2  -4   7   90.86    2.32
   2  -4  -7   86.74    2.05
  -2  -4   7   87.51    2.13
   2  -4  -7   84.12    2.24
   2  -4  -7   85.73    2.06
  -2  -4   7   89.75    2.26
  -2  -4   7   88.59    2.29
   2  -4  -7   87.46    2.17
  -2  -4   6   14.96    0.74
   2  -4  -6   15.87    0.80
   2  -4  -6   16.81    0.82
  -2  -4   6   16.03    0.78
   2  -4  -6   16.19    0.79
  -2  -4   6   15.85    0.80
   2  -4  -6   15.11    0.72
   2  -4  -6   15.17    0.73
  -2  -4   6   15.64    0.76
  -2  -4   5   28.00    0.94
  -2  -4   5   28.95    1.05
   2  -4  -5   29.95    1.07
  -2  -4   5   30.96    1.06
  -2  -4   5   27.80    1.02
  -2  -4   4    0.14    0.08
  -2  -4   4    0.13    0.06
   2  -4  -4    0.16    0.08
   2  -4  -4    0.21    0.09
  -2  -4   3   39.63    1.09
   2  -4  -3   40.38    1.07
   2  -4  -3   40.71    1.09
   2  -4  -3   40.09    1.14
  -2  -4   2   29.53    0.91
   2  -4  -2   29.47    0.88
   2  -4  -2   32.32    0.92
   2  -4  -2   31.10    0.88
   2  -4  -2   29.75    0.90
  -2  -4   1   18.06    0.66
   2  -4  -1   18.39    0.66
  -2  -4   1   17.52    0.64
   2  -4  -1   17.88    0.62
   2  -4  -1   19.64    0.67
  -2  -4   0   68.57    1.56
   2  -4   0   67.93    1.53
  -2  -4   0   69.75    1.57
   2  -4   0   70.43    1.56
  -2  -4  -1   16.82    0.63
   2  -4   1   16.59    0.64
  -2  -4  -1   16.09    0.66
   2  -4   1   15.54    0.60
   2  -4   1   16.71    0.63
  -2  -4  -2  182.74    3.36
  -2  -4  -2  181.13    3.50
   2  -4   2  189.50    3.34
   2  -4   2  191.53    3.50
   2  -4   3   67.69    1.72
  -2  -4  -3   63.84    1.70
  -2  -4  -4   30.51    1.11
   2  -4   4   31.41    1.16
  -2  -4  -4   29.68    1.07
   2  -4   4   31.02    1.12
  -2  -4  -4   30.80    1.10
   2  -4   4   31.08    1.15
   2  -4   5   52.09    1.61
  -2  -4  -5   47.72    1.45
  -2  -4  -5   46.79    1.45
   2  -4   5   48.74    1.58
   2  -4   5   50.55    1.53
  -2  -4  -5   50.32    1.47
  -2  -4  -6   36.76    1.22
  -2  -4  -6   35.27    1.25
  -2  -4  -6   38.10    1.26
   2  -4   6   33.24    1.23
   2  -4   6   38.54    1.38
  -2  -4  -6   36.97    1.19
   2  -4   6   38.40    1.37
  -2  -4  -6   35.23    1.17
   2  -4   7    8.32    0.57
  -2  -4  -7    7.46    0.48
   2  -4   7    8.92    0.59
  -2  -4  -7    8.79    0.55
  -2  -4  -7    7.58    0.50
  -2  -4  -7    8.51    0.50
   2  -4   7    7.44    0.50
   2  -4   8    5.24    0.39
   2  -4   8    5.07    0.38
  -2  -4  -8    4.73    0.31
  -2  -4  -8    5.40    0.37
  -2  -4  -8    4.99    0.32
   2  -3 -11    5.79    0.29
   2  -3 -11    5.89    0.32
  -2  -3  10    9.93    0.53
  -2  -3  10   10.85    0.59
  -2  -3  10    9.97    0.56
   2  -3 -10   10.37    0.57
   2  -3 -10   10.53    0.56
  -2  -3   9    8.33    0.58
  -2  -3   9    7.67    0.54
  -2  -3   9    6.99    0.51
   2  -3  -9    7.00    0.52
   2  -3  -9    7.60    0.55
  -2  -3   9    7.12    0.55
   2  -3  -9    7.23    0.51
  -2  -3   8   23.68    1.01
  -2  -3   8   24.68    1.07
   2  -3  -8   22.66    0.97
   2  -3  -8   22.79    1.02
   2  -3  -8   24.42    1.04
  -2  -3   8   22.19    1.01
   2  -3  -8   20.39    0.90
  -2  -3   8   22.55    1.00
  -2  -3   7   29.89    1.06
  -2  -3   7   31.30    1.18
   2  -3  -7   29.91    1.04
   2  -3  -7   28.67    1.04
   2  -3  -7   30.13    1.16
  -2  -3   7   32.13    1.15
  -2  -3   7   33.88    1.23
  -2  -3   7   29.61    1.04
   2  -3  -7   31.58    1.17
  -2  -3   6   63.87    1.66
  -2  -3   6   63.05    1.73
  -2  -3   6   69.09    1.77
  -2  -3   6   65.44    1.75
   2  -3  -6   68.26    1.71
   2  -3  -6   66.91    1.70
  -2  -3   6   61.32    1.64
  -2  -3   6   64.40    1.60
   2  -3  -6   66.72    1.69
  -2  -3   6   62.53    1.63
   2  -3  -5   37.86    1.12
   2  -3  -5   37.58    1.08
  -2  -3   5   35.04    1.06
  -2  -3   5   35.21    0.99
  -2  -3   4   80.91    1.69
  -2  -3   4   76.28    1.58
   2  -3  -4   81.17    1.56
   2  -3  -4   79.44    1.76
   2  -3  -4   77.26    1.52
   2  -3  -4   80.26    1.68
  -2  -3   4   77.99    1.57
  -2  -3   3   68.36    1.44
  -2  -3   3   66.19    1.43
   2  -3  -3   69.49    1.42
  -2  -3   3   68.83    1.31
  -2  -3   2   73.07    1.46
  -2  -3   2   73.57    1.20
  -2  -3   2   70.65    1.26
   2  -3  -2   74.55    1.49
  -2  -3   2   71.58    1.49
  -2  -3   2   72.16    1.45
   2  -3  -1  463.82    7.24
   2  -3  -1  477.19    7.21
   2  -3  -1  461.42    7.25
  -2  -3   1  460.84    7.28
  -2  -3   1  453.06    7.22
   2  -3   0  261.69    4.09
  -2  -3   0  256.89    4.23
   2  -3   0  259.69    4.22
   2  -3   0  251.74    4.21
   2  -3   0  264.38    4.22
  -2  -3  -1   37.40    0.95
   2  -3   1   37.74    0.99
  -2  -3  -1   38.49    1.02
   2  -3   1   40.11    1.01
   2  -3   2  300.08    5.08
   2  -3   2  302.58    4.91
  -2  -3  -2  298.36    5.11
   2  -3   2  285.43    5.04
  -2  -3  -2  316.06    4.92
  -2  -3  -2  312.78    5.02
  -2  -3  -3   26.96    0.93
  -2  -3  -3   27.65    0.92
   2  -3   3   28.27    0.94
   2  -3   4  247.72    4.65
  -2  -3  -4  255.13    4.60
   2  -3   4  249.11    4.54
   2  -3   4  256.95    4.66
   2  -3   4  249.86    4.64
  -2  -3  -4  249.78    4.60
  -2  -3  -4  263.53    4.64
   2  -3   5  139.42    2.96
  -2  -3  -5  137.18    2.96
  -2  -3  -5  134.11    2.90
   2  -3   5  142.66    2.93
   2  -3   5  139.48    3.08
  -2  -3  -5  141.98    2.98
  -2  -3  -5  145.37    3.06
   2  -3   5  143.83    2.96
   2  -3   5  141.49    3.07
  -2  -3  -5  149.75    2.97
  -2  -3  -5  133.29    2.82
   2  -3   5  140.52    2.96
  -2  -3  -5  140.38    2.98
  -2  -3  -5  138.98    2.87
   2  -3   6   53.57    1.68
  -2  -3  -6   54.01    1.56
   2  -3   6   52.77    1.65
  -2  -3  -6   53.94    1.58
   2  -3   6   51.41    1.56
  -2  -3  -6   51.44    1.48
   2  -3   6   49.01    1.51
   2  -3   6   52.52    1.53
  -2  -3  -6   54.42    1.57
  -2  -3  -7   57.38    1.52
  -2  -3  -7   63.84    1.71
  -2  -3  -7   61.73    1.68
   2  -3   7   57.92    1.65
   2  -3   7   57.03    1.60
   2  -3   7   60.50    1.76
  -2  -3  -7   58.20    1.63
   2  -3   7   60.99    1.63
  -2  -3  -8   12.10    0.60
  -2  -3  -8   12.00    0.58
  -2  -3  -8   12.89    0.61
   2  -3   8   12.02    0.59
   2  -3   8   11.81    0.63
  -2  -3  -9   29.06    0.78
  -2  -3  -9   27.42    0.74
   2  -3   9   30.86    0.86
  -2  -3  -9   31.91    0.83
  -2  -2  11   23.01    0.74
   2  -2 -11   23.43    0.75
   2  -2 -11   23.55    0.74
  -2  -2  11   22.63    0.73
  -2  -2  10   12.21    0.65
  -2  -2  10   12.81    0.68
   2  -2 -10   12.17    0.64
  -2  -2  10   11.53    0.63
  -2  -2  10   11.34    0.58
   2  -2 -10   12.51    0.64
  -2  -2   9    7.04    0.51
  -2  -2   9    7.82    0.57
   2  -2  -9    7.96    0.56
   2  -2  -9    7.41    0.52
   2  -2  -9    7.39    0.55
  -2  -2   9    8.43    0.60
  -2  -2   9    7.36    0.55
  -2  -2   8   73.07    2.00
   2  -2  -8   77.47    2.05
  -2  -2   8   74.88    1.98
   2  -2  -8   70.88    1.87
   2  -2  -8   69.25    1.89
   2  -2  -8   73.73    1.98
   2  -2  -8   69.22    1.90
  -2  -2   8   78.29    2.09
  -2  -2   7    5.72    0.45
  -2  -2   7    5.83    0.45
  -2  -2   7    5.97    0.48
   2  -2  -7    5.66    0.42
   2  -2  -7    5.99    0.47
   2  -2  -7    5.40    0.43
  -2  -2   7    5.28    0.43
  -2  -2   7    5.76    0.46
   2  -2  -7    5.94    0.46
  -2  -2   6   52.72    1.44
  -2  -2   6   56.47    1.46
   2  -2  -6   53.42    1.41
  -2  -2   6   56.41    1.48
   2  -2  -6   56.91    1.46
  -2  -2   5  117.09    2.34
  -2  -2   5  115.60    2.29
   2  -2  -5  118.84    2.35
  -2  -2   5  113.47    2.31
   2  -2  -4   53.05    1.02
  -2  -2   4   53.01    1.09
   2  -2  -4   54.26    1.27
   2  -2  -4   53.61    1.08
  -2  -2   4   54.75    1.21
  -2  -2   4   54.00    1.18
   2  -2  -4   57.02    1.22
  -2  -2   4   55.21    1.25
   2  -2  -4   57.66    1.23
  -2  -2   3   57.16    1.20
   2  -2  -3   57.40    1.18
   2  -2  -3   56.38    1.23
  -2  -2   3   56.61    1.09
   2  -2  -3   58.55    1.15
  -2  -2   3   56.23    1.14
   2  -2  -2   63.49    1.26
  -2  -2   2   63.23    1.16
  -2  -2   2   64.88    1.24
  -2  -2   2   61.18    1.05
  -2  -2   1   73.58    1.31
  -2  -2   1   70.57    1.21
   2  -2   0  452.79    7.42
  -2  -2   0  478.64    7.47
  -2  -2  -1  150.29    2.51
   2  -2   1  145.11    2.55
   2  -2   1  143.68    2.27
  -2  -2  -2   12.68    0.42
  -2  -2  -2   14.27    0.53
   2  -2   2   13.19    0.51
   2  -2   2   12.48    0.38
   2  -2   2   13.62    0.42
  -2  -2  -2   14.62    0.51
   2  -2   3    2.01    0.22
   2  -2   3    2.04    0.21
  -2  -2  -3    1.83    0.20
  -2  -2  -3    2.01    0.22
   2  -2   3    2.65    0.19
   2  -2   4   31.12    1.04
  -2  -2  -4   32.20    1.02
  -2  -2  -4   30.09    0.99
   2  -2   4   31.66    1.00
  -2  -2  -5   20.31    0.81
  -2  -2  -5   19.68    0.84
   2  -2   5   19.50    0.80
   2  -2   5   19.05    0.83
  -2  -2  -5   19.47    0.82
   2  -2   5   19.34    0.87
   2  -2   5   21.35    0.89
  -2  -2  -5   19.12    0.77
   2  -2   5   19.15    0.86
   2  -2   5   20.35    0.82
  -2  -2  -5   21.51    0.87
   2  -2   6    4.77    0.45
  -2  -2  -6    4.60    0.42
  -2  -2  -6    4.41    0.40
   2  -2   6    5.36    0.46
   2  -2   6    5.02    0.45
  -2  -2  -6    5.08    0.41
  -2  -2  -6    5.88    0.46
  -2  -2  -6    4.97    0.39
   2  -2   6    5.06    0.41
  -2  -2  -6    4.54    0.41
  -2  -2  -7   32.12    1.15
   2  -2   7   30.09    1.20
  -2  -2  -7   30.89    1.13
  -2  -2  -7   29.23    1.08
  -2  -2  -7   29.93    1.02
  -2  -2  -7   33.49    1.19
   2  -2   7   32.65    1.21
   2  -2   7   30.34    1.17
   2  -2   7   31.98    1.16
   2  -2   7   30.70    1.12
  -2  -2  -8    3.82    0.35
  -2  -2  -8    2.75    0.29
  -2  -2  -8    3.27    0.34
   2  -2   8    2.93    0.33
   2  -2   8    3.01    0.31
   2  -2   8    3.11    0.33
   2  -2   8    2.97    0.34
   2  -2   9    0.20    0.09
   2  -2   9    0.18    0.10
  -2  -2  -9    0.26    0.10
   2  -2   9    0.28    0.10
  -2  -2  -9    0.21    0.08
   2  -2   9    0.28    0.09
  -2  -1  11   16.07    0.65
   2  -1 -11   16.78    0.64
   2  -1 -11   18.46    0.67
  -2  -1  11   15.62    0.60
  -2  -1  11   16.31    0.66
  -2  -1  11   15.91    0.59
  -2  -1  10   37.34    1.14
   2  -1 -10   37.55    1.23
  -2  -1  10   36.94    1.30
   2  -1 -10   40.06    1.27
  -2  -1  10   38.75    1.23
  -2  -1  10   39.38    1.30
  -2  -1   9   22.48    0.94
   2  -1  -9   23.06    0.93
   2  -1  -9   23.89    0.97
   2  -1  -9   23.00    0.99
  -2  -1   9   25.98    1.04
  -2  -1   8    3.79    0.38
   2  -1  -8    3.69    0.37
   2  -1  -8    4.49    0.40
  -2  -1   8    3.99    0.40
   2  -1  -8    3.28    0.34
   2  -1  -8    3.45    0.38
   2  -1  -8    5.02    0.44
   2  -1  -7   93.74    2.13
   2  -1  -7   93.71    2.15
   2  -1  -7   94.24    2.15
   2  -1  -7   88.83    2.18
  -2  -1   7   94.78    2.20
  -2  -1   7   98.25    2.31
  -2  -1   7   94.52    2.17
   2  -1  -6   34.20    1.01
  -2  -1   6   34.30    1.05
  -2  -1   6   34.38    1.11
   2  -1  -6   37.74    1.06
   2  -1  -5   33.59    0.93
  -2  -1   5   33.89    0.92
  -2  -1   5   32.05    0.96
   2  -1  -5   35.10    0.92
   2  -1  -4   56.23    1.20
  -2  -1   4   54.59    1.19
   2  -1  -4   54.61    1.12
  -2  -1   3   47.75    0.97
   2  -1  -3   52.98    1.08
   2  -1  -3   49.95    0.97
   2  -1  -3   50.88    1.00
  -2  -1   3   50.26    1.05
  -2  -1   2  523.96    7.68
  -2  -1   2  480.98    7.54
  -2  -1   2  526.83    7.52
  -2  -1   2  508.76    7.66
   2  -1  -2  491.35    7.55
  -2  -1   1   34.05    0.68
   2  -1  -1   34.03    0.66
  -2  -1   1   34.56    0.71
  -2  -1   1   34.50    0.69
   2  -1   0  175.20    2.84
  -2  -1   0  176.31    2.81
   2  -1   0  178.32    2.71
  -2  -1   0  172.56    2.83
  -2  -1   0  174.86    2.74
  -2  -1  -1   55.40    1.02
  -2  -1  -1   50.76    0.88
   2  -1   1   54.08    1.07
   2  -1   1   51.10    1.06
  -2  -1  -1   55.04    1.08
   2  -1   2  237.78    3.95
   2  -1   2  244.40    3.87
  -2  -1  -2  246.79    3.92
   2  -1   3   97.94    1.93
   2  -1   3   96.13    1.88
  -2  -1  -3   97.34    1.91
   2  -1   4  138.62    2.73
  -2  -1  -4  143.04    2.78
   2  -1   5   84.24    1.95
  -2  -1  -5   87.53    2.01
   2  -1   5   83.83    2.06
   2  -1   5   84.28    1.95
   2  -1   5   84.85    2.02
  -2  -1  -5   88.85    2.04
   2  -1   6   66.41    1.87
  -2  -1  -6   73.95    1.88
  -2  -1  -6   66.18    1.73
  -2  -1  -6   67.79    1.83
  -2  -1  -6   67.61    1.70
   2  -1   6   70.53    1.86
  -2  -1  -6   69.48    1.74
   2  -1   7   78.65    2.11
  -2  -1  -7   75.90    1.85
  -2  -1  -7   79.06    2.03
  -2  -1  -7   83.03    2.07
   2  -1   7   77.57    2.04
  -2  -1  -7   76.81    1.90
   2  -1   7   77.14    2.07
   2  -1   8   34.36    1.19
  -2  -1  -8   32.49    1.12
  -2  -1  -8   31.51    1.09
   2  -1   8   30.60    1.08
  -2  -1  -8   30.23    1.11
   2  -1   8   30.70    1.11
   2  -1   8   32.24    1.15
   2  -1   9   10.52    0.53
   2  -1   9   10.84    0.50
  -2  -1  -9   10.92    0.51
  -2  -1  -9   10.98    0.54
   2  -1   9   10.59    0.53
   2  -1   9   10.33    0.49
   2  -1   9   10.08    0.51
   2   0 -11    7.69    0.43
   2   0 -11    7.42    0.41
  -2   0  11    6.89    0.42
  -2   0  11    6.77    0.37
   2   0 -10   16.99    0.77
  -2   0  10   18.20    0.79
   2   0 -10   18.61    0.80
  -2   0  10   17.19    0.84
  -2   0   9    7.99    0.52
   2   0  -9    8.05    0.56
   2   0  -9    9.51    0.60
   2   0  -9    8.56    0.57
   2   0  -9    8.26    0.57
  -2   0   9    8.84    0.58
   2   0  -8    4.78    0.42
   2   0  -8    4.00    0.38
   2   0  -8    4.09    0.40
  -2   0   8    4.30    0.39
   2   0  -8    3.71    0.38
   2   0  -8    4.04    0.39
   2   0  -7  109.37    2.44
   2   0  -7  113.70    2.43
   2   0  -7  112.51    2.44
   2   0  -7  116.03    2.43
  -2   0   7  110.13    2.44
   2   0  -7  106.41    2.44
  -2   0   6   65.12    1.56
   2   0  -6   63.04    1.47
  -2   0   6   64.43    1.61
   2   0  -5    8.36    0.39
  -2   0   5    7.43    0.40
  -2   0   5    8.13    0.40
   2   0  -5    8.44    0.39
   2   0  -4  124.21    2.16
   2   0  -4  128.35    2.18
  -2   0   4  123.14    2.21
   2   0  -4  123.39    2.22
  -2   0   4  121.54    2.25
  -2   0   3  104.37    1.85
   2   0  -3  112.32    1.88
  -2   0   3  109.82    1.91
  -2   0   3  104.01    1.77
   2   0  -3  108.29    1.90
   2   0  -3  111.86    1.82
   2   0  -2  577.47    8.56
  -2   0   1   33.11    0.63
  -2   0   1   33.08    0.60
  -2   0   1   30.55    0.65
   2   0  -1   31.87    0.59
   2   0  -1   32.26    0.66
   2   0  -1   33.39    0.65
  -2   0   1   32.03    0.65
  -2   0   0  192.35    2.99
  -2   0   0  192.97    2.99
   2   0   0  192.54    2.97
  -2   0   0  191.80    3.02
   2   0   0  180.98    3.00
   2   0   0  191.98    2.92
  -2   0   0  187.99    3.00
   2   0   0  189.59    2.99
  -2   0   0  189.63    2.89
   2   0   1  243.52    3.80
  -2   0  -1  238.20    3.78
  -2   0  -1  237.61    3.70
  -2   0  -1  240.70    3.62
  -2   0  -1  237.32    3.69
  -2   0  -1  227.89    3.70
   2   0   2   38.60    0.91
  -2   0  -2   39.12    0.90
  -2   0  -2   36.76    0.71
   2   0   3  135.41    2.48
  -2   0  -3  136.51    2.46
  -2   0  -3  132.66    2.46
   2   0   4   35.80    1.04
   2   0   4   34.40    0.99
  -2   0  -4   33.44    0.96
  -2   0  -4   35.87    1.02
  -2   0  -5    0.87    0.17
  -2   0  -5    1.05    0.18
   2   0   5    1.30    0.21
  -2   0  -5    0.97    0.17
   2   0   6   11.41    0.66
   2   0   6   11.69    0.64
  -2   0  -6   11.47    0.59
  -2   0  -6   11.61    0.60
  -2   0  -7   75.55    1.96
  -2   0  -7   70.58    1.75
   2   0   7   72.37    1.96
  -2   0  -7   70.18    1.76
   2   0   7   73.39    1.89
   2   0   8   17.25    0.75
   2   0   8   16.97    0.80
  -2   0  -8   18.64    0.82
  -2   0  -8   17.84    0.81
  -2   0  -8   16.10    0.78
   2   0   8   16.86    0.82
   2   0   9    0.35    0.11
  -2   0  -9    0.33    0.11
  -2   0  -9    0.44    0.13
  -2   0  -9    0.37    0.12
   2   0   9    0.45    0.13
   2   0   9    0.34    0.12
  -2   1  11   17.47    0.69
   2   1 -11   18.53    0.64
   2   1 -11   17.40    0.67
  -2   1  11   15.78    0.64
   2   1 -10   34.87    1.04
   2   1 -10   37.54    1.17
  -2   1  10   35.00    1.21
  -2   1  10   35.32    1.12
   2   1 -10   36.37    1.19
  -2   1   9   24.30    0.98
   2   1  -9   23.68    0.87
   2   1  -9   25.21    1.02
   2   1  -9   25.71    1.01
   2   1  -9   22.81    0.98
   2   1  -8    7.15    0.46
   2   1  -8    6.01    0.48
   2   1  -8    6.98    0.46
   2   1  -8    6.13    0.48
   2   1  -8    6.34    0.49
   2   1  -8    6.85    0.50
   2   1  -8    6.54    0.48
   2   1  -8    6.07    0.47
   2   1  -7   96.30    2.09
  -2   1   7   97.88    2.30
   2   1  -7   93.13    2.17
   2   1  -7   95.95    2.08
   2   1  -7   98.02    2.23
   2   1  -7  101.65    2.20
  -2   1   7   98.31    2.22
   2   1  -7   97.88    2.22
  -2   1   7   97.79    2.35
   2   1  -7   95.71    2.21
  -2   1   6   27.72    0.95
  -2   1   6   27.04    0.97
   2   1  -6   28.43    0.89
  -2   1   5   37.84    1.01
   2   1  -5   37.71    0.94
  -2   1   5   38.70    1.07
  -2   1   5   38.29    1.03
   2   1  -5   39.01    0.91
   2   1  -5   38.28    0.97
  -2   1   4   49.30    1.10
  -2   1   4   50.64    1.12
   2   1  -4   49.16    1.07
   2   1  -4   48.16    0.84
   2   1  -4   49.52    0.93
  -2   1   4   51.56    0.93
  -2   1   4   49.56    1.15
   2   1  -4   50.65    1.05
   2   1  -3   64.79    1.16
  -2   1   3   62.85    1.02
  -2   1   3   64.60    1.28
  -2   1   3   66.18    1.24
   2   1  -3   62.33    1.21
  -2   1   2  511.44    7.67
   2   1  -2  494.26    7.61
  -2   1   2  507.46    7.58
  -2   1   1   22.42    0.44
  -2   1   1   21.54    0.52
  -2   1   1   22.22    0.55
   2   1  -1   23.13    0.54
  -2   1   0  191.05    3.07
   2   1   0  197.13    3.09
  -2   1   0  198.83    3.08
   2   1   0  190.37    2.94
   2   1   0  192.99    3.06
   2   1   1   43.21    0.93
  -2   1  -1   41.63    0.90
  -2   1  -1   41.81    0.86
  -2   1  -2  231.22    3.68
   2   1   2  226.77    3.82
   2   1   2  233.37    3.60
   2   1   2  238.91    3.72
  -2   1  -2  223.80    3.60
  -2   1  -3   97.71    1.91
   2   1   3  100.88    1.95
  -2   1  -3   96.55    1.77
   2   1   3   94.26    1.87
   2   1   4  131.46    2.54
  -2   1  -4  131.46    2.53
   2   1   4  129.33    2.51
  -2   1  -4  130.72    2.56
  -2   1  -5   92.98    2.13
  -2   1  -5   97.74    2.19
   2   1   5   98.16    2.28
  -2   1  -5   94.13    2.14
   2   1   5   99.14    2.12
  -2   1  -5   97.81    2.12
  -2   1  -5   95.34    2.09
  -2   1  -5  101.06    2.20
   2   1   6   63.24    1.71
  -2   1  -6   62.19    1.63
  -2   1  -6   63.77    1.74
  -2   1  -6   62.00    1.70
  -2   1  -6   63.14    1.64
  -2   1  -6   59.36    1.64
  -2   1  -7   71.53    1.77
  -2   1  -7   70.64    1.76
  -2   1  -7   70.19    1.90
  -2   1  -7   72.98    1.94
   2   1   7   73.76    1.93
   2   1   8   35.50    1.18
  -2   1  -8   33.77    1.16
  -2   1  -8   37.58    1.22
   2   1   8   36.31    1.24
   2   1   9    7.20    0.44
   2   1   9    7.10    0.40
  -2   1  -9    7.15    0.41
  -2   1  -9    8.40    0.45
  -2   1  -9    7.51    0.43
   2   1   9    7.54    0.46
   2   1   9    7.75    0.46
  -2   2  11   22.96    0.74
   2   2 -11   22.47    0.66
   2   2 -10    9.07    0.48
  -2   2  10    8.65    0.54
   2   2 -10    9.24    0.51
   2   2 -10    8.73    0.53
   2   2  -9    5.67    0.41
   2   2  -9    5.56    0.42
   2   2  -9    5.25    0.45
   2   2  -9    5.77    0.45
   2   2  -9    5.53    0.44
   2   2  -8   70.11    1.84
   2   2  -8   74.28    1.94
   2   2  -8   71.52    1.81
   2   2  -8   75.29    1.82
   2   2  -8   70.61    1.86
   2   2  -7    6.18    0.42
   2   2  -7    5.87    0.43
  -2   2   7    6.38    0.48
   2   2  -7    5.96    0.45
  -2   2   7    5.83    0.47
   2   2  -7    5.61    0.44
   2   2  -7    5.73    0.42
  -2   2   6   52.20    1.38
  -2   2   6   51.55    1.43
  -2   2   6   53.45    1.43
   2   2  -6   53.78    1.36
  -2   2   5  127.24    2.43
   2   2  -5  127.14    2.31
   2   2  -5  122.91    2.32
  -2   2   5  133.37    2.49
  -2   2   5  124.71    2.48
   2   2  -4   47.38    0.97
   2   2  -4   46.75    1.05
  -2   2   4   46.49    1.12
   2   2  -3   63.81    1.22
  -2   2   3   62.48    1.26
  -2   2   3   64.00    1.29
  -2   2   3   65.29    1.25
   2   2  -2   55.66    1.10
  -2   2   2   53.97    1.12
   2   2  -2   53.21    1.09
  -2   2   1   76.87    1.36
  -2   2   1   76.29    1.44
   2   2  -1   74.09    1.39
  -2   2   1   76.06    1.45
  -2   2   0  473.81    7.41
  -2   2   0  485.42    7.30
   2   2   0  494.29    7.36
   2   2   0  487.02    7.30
   2   2   1  143.59    2.29
   2   2   1  147.52    2.53
  -2   2  -1  142.47    2.39
   2   2   1  148.60    2.44
   2   2   1  143.15    2.35
  -2   2  -1  147.32    2.50
  -2   2  -2   12.88    0.46
   2   2   2   13.43    0.41
   2   2   2   13.19    0.50
  -2   2  -2   12.32    0.35
   2   2   2   12.48    0.39
  -2   2  -3    2.21    0.21
  -2   2  -3    2.24    0.19
   2   2   3    2.33    0.22
   2   2   3    2.27    0.19
   2   2   4   32.14    0.97
  -2   2  -4   30.57    0.95
   2   2   4   29.23    0.88
  -2   2  -4   30.40    0.95
  -2   2  -5   20.10    0.81
  -2   2  -5   20.90    0.81
  -2   2  -5   20.50    0.82
  -2   2  -5   19.12    0.77
  -2   2  -5   18.94    0.76
   2   2   5   20.39    0.79
  -2   2  -5   19.83    0.81
   2   2   5   19.67    0.89
  -2   2  -5   19.76    0.81
  -2   2  -6    5.08    0.43
  -2   2  -6    4.98    0.43
  -2   2  -6    5.29    0.43
  -2   2  -6    4.75    0.39
  -2   2  -6    5.41    0.42
  -2   2  -7   30.02    1.11
  -2   2  -7   32.33    1.13
  -2   2  -7   31.08    1.06
  -2   2  -7   31.86    1.05
  -2   2  -8    2.56    0.30
  -2   2  -8    2.24    0.27
  -2   2  -8    2.77    0.26
   2   2   8    2.41    0.30
   2   2   9    0.16    0.09
  -2   2  -9    0.12    0.08
   2   2   9    0.09    0.08
   2   2   9    0.06    0.09
   2   3 -10    8.84    0.44
   2   3 -10    9.10    0.47
   2   3 -10    9.09    0.51
   2   3 -10    8.81    0.51
  -2   3  10    7.89    0.47
   2   3  -9    7.66    0.49
   2   3  -9    7.90    0.50
   2   3  -9    8.93    0.56
   2   3  -9    7.86    0.54
   2   3  -9    7.84    0.48
   2   3  -8   26.12    1.05
   2   3  -8   25.45    0.97
   2   3  -8   26.14    1.04
   2   3  -7   28.20    1.06
   2   3  -7   26.36    0.98
   2   3  -7   27.91    1.04
  -2   3   6   72.32    1.74
   2   3  -6   67.70    1.75
  -2   3   6   67.10    1.72
  -2   3   6   75.60    1.80
   2   3  -6   71.15    1.76
  -2   3   5   29.91    0.92
  -2   3   5   30.04    0.93
   2   3  -5   29.98    0.86
  -2   3   5   28.72    0.91
  -2   3   4   82.36    1.72
   2   3  -4   85.18    1.65
  -2   3   3   57.14    1.24
   2   3  -3   61.85    1.28
  -2   3   3   61.78    1.22
   2   3  -3   61.65    1.30
  -2   3   3   61.57    1.25
  -2   3   2   62.07    1.32
  -2   3   2   57.96    1.23
   2   3  -2   59.92    1.26
  -2   3   2   60.22    1.15
   2   3  -2   60.40    1.26
  -2   3   1  476.87    7.36
  -2   3   1  478.36    7.41
   2   3  -1  485.78    7.33
   2   3  -1  461.30    7.36
  -2   3   1  464.51    7.16
  -2   3   0  233.25    3.93
  -2   3   0  239.56    3.93
   2   3   0  242.33    3.84
   2   3   1   33.16    0.84
   2   3   1   34.25    0.91
  -2   3  -1   34.90    0.91
   2   3   1   31.89    0.80
   2   3   2  270.23    4.65
  -2   3  -2  275.12    4.46
  -2   3  -2  272.85    4.64
   2   3   3   34.95    1.02
  -2   3  -3   33.76    0.97
  -2   3  -4  250.65    4.48
  -2   3  -4  259.79    4.44
   2   3   4  253.46    4.51
  -2   3  -4  249.24    4.51
  -2   3  -5  135.98    2.88
  -2   3  -5  139.82    2.89
   2   3   5  137.60    2.84
  -2   3  -5  140.17    2.86
  -2   3  -5  137.31    2.83
  -2   3  -5  139.63    2.87
  -2   3  -6   40.44    1.28
  -2   3  -6   39.68    1.30
  -2   3  -6   43.06    1.32
  -2   3  -6   40.67    1.32
  -2   3  -7   57.62    1.62
  -2   3  -7   58.12    1.55
  -2   3  -8   12.61    0.62
  -2   3  -8   10.95    0.51
  -2   3  -8   11.94    0.60
   2   3   8   12.66    0.61
  -2   3  -9   32.12    0.86
   2   3   9   33.10    0.88
   2   4 -10   14.67    0.61
   2   4 -10   13.86    0.52
   2   4 -10   14.13    0.59
   2   4  -9    1.14    0.20
   2   4  -9    1.07    0.20
   2   4  -9    1.06    0.18
   2   4  -9    0.84    0.18
   2   4  -8   27.01    1.01
   2   4  -8   27.01    1.06
   2   4  -8   27.41    1.06
   2   4  -7   89.00    2.21
   2   4  -7   88.70    2.18
  -2   4   6   13.94    0.67
   2   4  -6   13.91    0.71
   2   4  -6   14.00    0.67
   2   4  -6   13.98    0.69
   2   4  -6   13.78    0.62
  -2   4   5   29.60    0.96
   2   4  -5   27.87    0.97
   2   4  -5   29.22    0.98
   2   4  -5   29.89    0.97
   2   4  -4    0.05    0.04
  -2   4   4    0.20    0.08
   2   4  -3   43.95    1.12
  -2   4   3   41.96    1.13
  -2   4   2   31.58    0.91
  -2   4   2   29.91    0.82
   2   4  -2   29.25    0.85
   2   4  -2   31.50    0.88
   2   4  -1   18.65    0.65
  -2   4   1   19.25    0.68
  -2   4   1   19.62    0.65
   2   4  -1   19.59    0.65
   2   4   0   73.49    1.53
  -2   4   0   72.89    1.58
  -2   4   0   68.71    1.58
   2   4   0   71.42    1.55
  -2   4  -1   18.89    0.65
   2   4   1   19.01    0.69
  -2   4  -1   18.14    0.68
   2   4   1   20.35    0.67
   2   4   1   17.76    0.60
   2   4   2  197.94    3.44
   2   4   2  196.40    3.58
  -2   4  -2  195.30    3.58
  -2   4  -2  193.20    3.40
  -2   4  -3   65.88    1.61
   2   4   3   64.33    1.63
  -2   4  -4   30.40    1.03
  -2   4  -4   32.50    1.08
  -2   4  -4   31.59    1.06
  -2   4  -4   32.25    1.06
   2   4   4   30.57    1.06
  -2   4  -4   32.04    1.02
  -2   4  -5   48.42    1.44
  -2   4  -5   50.57    1.46
  -2   4  -5   46.68    1.41
  -2   4  -6   35.70    1.22
  -2   4  -6   36.84    1.22
  -2   4  -6   36.91    1.23
  -2   4  -7    7.47    0.49
  -2   4  -7    7.08    0.48
  -2   4  -7    8.21    0.50
  -2   4  -8    5.89    0.39
  -2   4  -8    4.92    0.32
   2   4   8    6.13    0.38
  -2   4  -8    5.86    0.38
  -2   4  -9    5.28    0.29
   2   5  -9    7.88    0.46
   2   5  -9    7.34    0.43
   2   5  -9    7.07    0.42
   2   5  -9    7.52    0.44
   2   5  -8   17.81    0.78
   2   5  -8   19.39    0.83
   2   5  -8   17.08    0.78
   2   5  -7   33.42    1.19
   2   5  -7   32.14    1.04
   2   5  -7   33.96    1.18
   2   5  -6   23.00    0.95
   2   5  -6   23.83    0.90
   2   5  -6   22.82    0.94
   2   5  -6   24.30    0.96
   2   5  -5   17.17    0.77
   2   5  -5   17.74    0.79
   2   5  -5   19.00    0.78
   2   5  -5   17.40    0.79
   2   5  -5   17.72    0.79
   2   5  -4    4.64    0.35
   2   5  -4    4.51    0.36
   2   5  -4    4.46    0.35
   2   5  -4    4.38    0.36
  -2   5   4    3.96    0.36
   2   5  -4    4.70    0.38
   2   5  -3   40.02    1.15
  -2   5   3   40.81    1.22
  -2   5   3   37.31    1.12
   2   5  -3   40.99    1.15
  -2   5   2   15.93    0.70
  -2   5   2   15.49    0.67
   2   5  -2   17.34    0.69
   2   5  -2   16.07    0.66
   2   5  -1  374.90    6.22
  -2   5   1  367.44    6.23
   2   5  -1  380.76    6.25
   2   5   0   69.42    1.58
  -2   5   0   65.49    1.61
   2   5   0   64.22    1.58
  -2   5   0   66.24    1.64
   2   5   1   57.78    1.51
  -2   5  -1   56.78    1.44
   2   5   1   56.98    1.44
  -2   5  -1   59.04    1.53
   2   5   1   53.39    1.37
   2   5   2   15.59    0.72
  -2   5  -2   15.85    0.71
  -2   5  -2   17.12    0.73
   2   5   2   16.18    0.67
  -2   5  -2   16.63    0.67
  -2   5  -3  116.45    2.48
  -2   5  -3  109.53    2.45
   2   5   3  109.51    2.49
  -2   5  -3  107.60    2.42
  -2   5  -4  380.25    6.40
  -2   5  -4  363.42    6.44
  -2   5  -4  371.36    6.36
  -2   5  -5   40.63    1.29
  -2   5  -5   41.49    1.30
  -2   5  -5   39.03    1.19
  -2   5  -5   40.71    1.32
  -2   5  -6   19.68    0.83
  -2   5  -6   20.22    0.82
  -2   5  -6   19.12    0.83
  -2   5  -6   19.50    0.83
  -2   5  -7   10.97    0.55
  -2   5  -7   10.40    0.55
  -2   5  -7    9.91    0.51
  -2   5  -8   48.31    1.15
  -2   5  -8   47.41    1.14
   2   6  -9    5.94    0.34
   2   6  -9    5.94    0.33
   2   6  -9    5.92    0.32
   2   6  -8   31.41    1.01
   2   6  -8   29.88    0.96
   2   6  -8   30.40    0.98
   2   6  -7   39.56    1.24
   2   6  -7   39.89    1.17
   2   6  -7   40.51    1.26
   2   6  -6    7.82    0.51
   2   6  -6    7.78    0.53
   2   6  -6    7.83    0.54
   2   6  -6    7.03    0.50
   2   6  -5   46.54    1.40
   2   6  -5   46.13    1.31
   2   6  -5   45.81    1.40
   2   6  -5   45.96    1.43
   2   6  -4   14.51    0.74
   2   6  -4   12.72    0.67
   2   6  -3    2.31    0.28
  -2   6   3    2.39    0.31
   2   6  -3    2.37    0.28
   2   6  -3    2.41    0.29
   2   6  -3    2.65    0.30
   2   6  -2   56.70    1.53
   2   6  -2   60.85    1.59
  -2   6   2   52.56    1.49
  -2   6   2   54.98    1.60
   2   6  -2   58.70    1.57
  -2   6   1   44.55    1.40
  -2   6   1   46.58    1.38
   2   6  -1   50.12    1.42
   2   6  -1   46.81    1.36
  -2   6   0    1.01    0.18
  -2   6   0    0.91    0.18
  -2   6   0    0.79    0.18
   2   6   0    1.07    0.19
   2   6   0    0.85    0.17
  -2   6  -1   67.82    1.74
   2   6   1   63.80    1.77
   2   6   1   65.20    1.65
   2   6   1   63.92    1.69
  -2   6  -1   65.07    1.69
  -2   6  -1   68.70    1.80
  -2   6  -2  106.90    2.41
  -2   6  -2  106.18    2.42
  -2   6  -2  103.71    2.31
  -2   6  -3   22.38    0.93
  -2   6  -4    4.31    0.38
  -2   6  -4    4.58    0.41
  -2   6  -4    4.95    0.43
  -2   6  -4    3.95    0.37
  -2   6  -5   15.46    0.71
  -2   6  -5   13.74    0.64
  -2   6  -5   14.81    0.72
  -2   6  -6    1.96    0.23
  -2   6  -6    1.95    0.24
  -2   6  -6    1.92    0.24
  -2   6  -7   21.10    0.70
  -2   6  -7   19.25    0.66
   2   7  -8   25.22    0.78
   2   7  -7   16.12    0.63
   2   7  -6    0.15    0.09
   2   7  -6    0.13    0.09
   2   7  -5   10.05    0.60
   2   7  -5    8.84    0.51
   2   7  -4   43.49    1.41
   2   7  -4   43.74    1.40
   2   7  -4   44.18    1.35
   2   7  -3   51.02    1.53
   2   7  -3   48.20    1.42
   2   7  -3   48.08    1.49
   2   7  -2    7.74    0.54
   2   7  -2    6.86    0.48
   2   7  -1   80.13    1.98
  -2   7   0   50.78    1.45
  -2   7  -1  106.31    2.46
  -2   7  -1  106.01    2.42
  -2   7  -2  113.19    2.53
  -2   7  -2  110.19    2.49
  -2   7  -3   70.02    1.83
  -2   7  -3   68.29    1.72
  -2   7  -4  118.94    2.53
  -2   7  -4  115.10    2.50
  -2   7  -4  111.40    2.41
  -2   7  -5   67.83    1.60
  -2   7  -5   67.40    1.56
  -2   7  -6   29.16    0.82
  -2   7  -6   29.91    0.88
  -2   7  -6   29.11    0.84
   2   8  -7   15.15    0.55
   2   8  -6    3.31    0.28
   2   8  -5   17.20    0.67
   2   8  -5   18.55    0.78
   2   8  -5   18.76    0.76
   2   8  -4   11.42    0.64
   2   8  -4   12.60    0.62
   2   8  -4   12.74    0.66
   2   8  -3   11.23    0.64
   2   8  -3   11.77    0.66
   2   8  -2   10.47    0.63
   2   8  -2   10.42    0.62
   2   8  -1   30.76    1.13
  -2   8   0   24.56    0.92
  -2   8   0   25.05    0.98
  -2   8  -1    8.80    0.53
  -2   8  -1    9.97    0.59
  -2   8  -2   15.28    0.71
  -2   8  -2   15.80    0.75
  -2   8  -3   11.27    0.59
  -2   8  -3   11.80    0.60
  -2   8  -3   11.40    0.53
  -2   8  -4   30.86    0.96
  -2   8  -4   29.11    0.93
  -2   8  -4   29.57    0.91
  -2   8  -5    0.91    0.14
  -2   8  -5    0.87    0.14
   2   9  -5    1.49    0.18
   2   9  -4    8.32    0.45
   2   9  -4    8.00    0.40
   2   9  -4    9.39    0.48
   2   9  -3   13.90    0.63
   2   9  -3   13.25    0.59
   2   9  -3   13.30    0.61
   2   9  -2   30.54    0.99
   2   9  -2   27.35    0.97
  -2   9   2   29.43    0.91
   2   9  -2   30.44    1.00
   2   9  -1    2.67    0.27
  -2   9   1    2.70    0.27
   2   9  -1    2.37    0.27
   2   9   0    7.48    0.45
  -2   9   0    7.65    0.46
   2   9   0    7.11    0.45
  -2   9  -1    5.58    0.36
  -2   9  -1    6.55    0.42
   2   9   1    5.70    0.38
   2   9   1    5.35    0.36
  -2   9  -2   50.68    1.29
  -2   9  -2   49.49    1.22
   2   9   2   46.46    1.17
  -2   9  -2   51.01    1.22
  -2   9  -3   31.79    0.88
  -2   9  -3   33.53    0.90
  -3  -9   5    0.06    0.07
  -3  -9   5    0.04    0.06
   3  -9  -5    0.05    0.06
   3  -9  -4   31.41    0.96
  -3  -9   4   31.08    0.92
   3  -9  -4   33.36    0.96
  -3  -9   4   31.75    0.92
  -3  -9   3    6.14    0.41
   3  -9  -3    6.45    0.39
  -3  -9   3    5.94    0.37
   3  -9  -3    6.83    0.42
   3  -9  -3    5.75    0.39
  -3  -9   3    5.49    0.37
   3  -9  -2    6.17    0.43
  -3  -9   2    5.75    0.42
   3  -9  -2    5.76    0.38
  -3  -9   2    5.68    0.38
   3  -9  -1    7.49    0.47
  -3  -9   1    6.35    0.41
   3  -9   0   24.03    0.87
   3  -9   0   24.22    0.83
  -3  -9   0   24.29    0.82
  -3  -9   0   23.69    0.86
  -3  -9  -1   18.17    0.68
   3  -9   1   18.38    0.70
  -3  -9  -1   18.47    0.67
  -3  -9  -2   21.55    0.69
   3  -9   2   22.48    0.74
  -3  -9  -2   22.18    0.72
  -3  -9  -3    4.36    0.25
  -3  -8   7    2.83    0.23
   3  -8  -7    3.20    0.25
  -3  -8   7    2.92    0.25
   3  -8  -7    2.76    0.20
  -3  -8   6    5.74    0.37
   3  -8  -6    6.01    0.39
  -3  -8   5   15.34    0.66
   3  -8  -5   16.31    0.74
  -3  -8   5   15.92    0.73
   3  -8  -5   16.35    0.73
  -3  -8   5   16.24    0.75
   3  -8  -4    1.52    0.23
  -3  -8   4    1.70    0.25
  -3  -8   4    1.45    0.23
  -3  -8   4    1.46    0.24
   3  -8  -4    1.40    0.23
   3  -8  -4    1.61    0.25
  -3  -8   3    0.47    0.13
   3  -8  -3    1.10    0.21
  -3  -8   3    0.41    0.14
  -3  -8   3    0.79    0.18
  -3  -8   3    0.79    0.18
   3  -8  -3    0.70    0.18
  -3  -8   3    0.65    0.18
   3  -8  -3    0.60    0.16
  -3  -8   2    4.02    0.35
  -3  -8   2    4.14    0.36
   3  -8  -2    3.22    0.35
   3  -8  -2    4.06    0.37
  -3  -8   2    4.31    0.42
   3  -8  -2    4.43    0.41
   3  -8  -1    4.11    0.36
   3  -8  -1    3.71    0.35
   3  -8  -1    3.91    0.39
   3  -8  -1    4.60    0.40
  -3  -8   1    3.64    0.36
  -3  -8   0    1.34    0.24
   3  -8   0    2.08    0.27
  -3  -8   0    1.37    0.22
   3  -8   0    1.47    0.25
   3  -8   0    1.54    0.25
   3  -8   0    1.72    0.27
   3  -8   1   20.87    0.89
   3  -8   1   19.90    0.86
   3  -8   1   19.99    0.85
  -3  -8  -1   19.64    0.87
  -3  -8  -1   19.52    0.82
   3  -8   1   20.71    0.84
  -3  -8  -1   19.87    0.85
   3  -8   1   20.87    0.86
   3  -8   2    2.11    0.26
   3  -8   2    1.87    0.23
   3  -8   2    2.01    0.26
   3  -8   2    1.91    0.26
  -3  -8  -2    2.07    0.24
  -3  -8  -2    1.82    0.24
   3  -8   2    2.41    0.27
  -3  -8  -2    2.21    0.29
   3  -8   3   15.86    0.67
  -3  -8  -3   15.64    0.65
   3  -8   3   15.85    0.69
  -3  -8  -3   16.20    0.72
   3  -8   4   19.11    0.67
   3  -8   4   19.38    0.71
   3  -8   4   19.59    0.68
  -3  -8  -4   21.04    0.74
   3  -7  -8   18.31    0.70
   3  -7  -8   16.70    0.58
  -3  -7   8   17.04    0.64
   3  -7  -8   15.89    0.61
   3  -7  -7   41.15    1.28
  -3  -7   7   40.41    1.25
   3  -7  -7   38.11    1.10
  -3  -7   7   41.73    1.26
   3  -7  -7   39.36    1.22
   3  -7  -7   39.53    1.17
   3  -7  -6   24.98    1.04
   3  -7  -6   25.73    1.03
   3  -7  -6   25.35    0.96
  -3  -7   6   27.36    1.07
  -3  -7   6   28.51    1.08
   3  -7  -6   25.05    0.94
   3  -7  -6   26.61    1.00
  -3  -7   5   13.38    0.74
   3  -7  -5   13.68    0.71
  -3  -7   5   13.34    0.71
   3  -7  -5   13.85    0.73
  -3  -7   5   12.28    0.72
   3  -7  -5   12.16    0.69
   3  -7  -5   12.23    0.73
   3  -7  -4   84.55    2.08
  -3  -7   4   88.76    2.23
  -3  -7   4   84.83    2.17
   3  -7  -4   82.64    2.15
   3  -7  -4   86.81    2.25
  -3  -7   4   85.83    2.21
   3  -7  -4   80.60    2.14
   3  -7  -3    1.16    0.23
  -3  -7   3    1.02    0.21
   3  -7  -3    1.35    0.23
   3  -7  -3    0.92    0.20
   3  -7  -3    0.85    0.20
  -3  -7   3    0.95    0.22
  -3  -7   3    0.90    0.20
   3  -7  -2    3.15    0.36
  -3  -7   2    3.21    0.38
   3  -7  -2    3.86    0.39
  -3  -7   2    4.11    0.39
   3  -7  -2    3.69    0.37
   3  -7  -2    3.50    0.36
   3  -7  -1    7.87    0.57
   3  -7  -1    9.01    0.58
   3  -7  -1    7.79    0.54
  -3  -7   1    8.43    0.58
   3  -7  -1    8.84    0.58
   3  -7  -1    7.51    0.52
   3  -7   0  137.86    3.02
   3  -7   0  133.50    2.97
   3  -7   0  138.07    2.99
   3  -7   0  137.22    2.97
  -3  -7   0  141.79    3.00
   3  -7   0  135.02    3.00
  -3  -7   0  133.69    2.98
   3  -7   1   29.48    1.13
   3  -7   1   28.72    1.10
   3  -7   1   30.48    1.14
   3  -7   1   28.98    1.12
   3  -7   1   29.39    1.09
  -3  -7  -1   28.87    1.15
   3  -7   2    0.28    0.13
   3  -7   2    0.29    0.15
   3  -7   2    0.27    0.12
   3  -7   2    0.28    0.12
  -3  -7  -2    0.19    0.12
  -3  -7  -2    0.47    0.14
   3  -7   2    0.58    0.15
   3  -7   3    4.18    0.39
   3  -7   3    4.86    0.43
   3  -7   3    4.18    0.35
   3  -7   3    4.22    0.38
  -3  -7  -3    4.55    0.42
   3  -7   4   10.76    0.56
  -3  -7  -4   10.07    0.52
   3  -7   4    9.52    0.58
   3  -7   4    9.33    0.53
  -3  -7  -4   10.91    0.57
   3  -7   5   24.24    0.76
  -3  -7  -5   23.94    0.76
  -3  -7  -5   23.63    0.79
  -3  -7  -5   22.80    0.81
   3  -7   5   24.36    0.86
  -3  -7  -6    2.80    0.20
   3  -6  -9    4.21    0.30
  -3  -6   9    4.16    0.28
  -3  -6   9    4.79    0.33
   3  -6  -8    0.55    0.16
  -3  -6   8    0.57    0.15
   3  -6  -8    0.61    0.14
  -3  -6   8    0.48    0.14
  -3  -6   8    0.39    0.13
   3  -6  -7    5.92    0.42
   3  -6  -7    5.70    0.48
   3  -6  -7    6.73    0.47
  -3  -6   7    5.92    0.48
  -3  -6   7    6.09    0.47
   3  -6  -7    6.08    0.45
  -3  -6   7    6.86    0.52
   3  -6  -6    6.74    0.51
   3  -6  -6    6.52    0.54
   3  -6  -6    7.36    0.55
  -3  -6   6    6.86    0.55
  -3  -6   6    7.55    0.53
   3  -6  -6    7.18    0.50
  -3  -6   6    8.14    0.58
  -3  -6   5    1.43    0.26
   3  -6  -5    1.28    0.24
  -3  -6   5    1.53    0.26
   3  -6  -5    1.39    0.26
  -3  -6   4   41.31    1.32
  -3  -6   4   42.79    1.42
   3  -6  -4   42.57    1.41
   3  -6  -4   44.76    1.47
   3  -6  -4   42.44    1.45
  -3  -6   4   41.02    1.40
  -3  -6   4   44.19    1.45
   3  -6  -4   43.80    1.34
  -3  -6   3   45.64    1.44
   3  -6  -3   47.40    1.43
   3  -6  -3   46.80    1.42
  -3  -6   3   47.05    1.45
  -3  -6   3   48.56    1.46
  -3  -6   3   44.79    1.47
   3  -6  -3   48.07    1.50
   3  -6  -3   47.95    1.51
   3  -6  -3   41.78    1.46
   3  -6  -3   47.96    1.41
   3  -6  -2   11.06    0.63
   3  -6  -2   10.92    0.62
  -3  -6   2   10.54    0.63
   3  -6  -2    9.60    0.58
   3  -6  -2   10.90    0.64
   3  -6  -2   11.25    0.66
  -3  -6   2   10.73    0.60
   3  -6  -2   10.00    0.59
  -3  -6   2   11.12    0.60
   3  -6  -2   10.63    0.60
   3  -6  -1    1.58    0.24
   3  -6  -1    1.62    0.25
   3  -6  -1    1.91    0.27
   3  -6  -1    1.84    0.25
   3  -6  -1    1.43    0.22
  -3  -6   1    1.68    0.26
   3  -6  -1    1.88    0.26
   3  -6  -1    1.71    0.26
  -3  -6   0   42.35    1.37
   3  -6   0   42.58    1.33
   3  -6   0   43.09    1.37
   3  -6   0   44.37    1.39
   3  -6   0   43.93    1.34
  -3  -6   0   43.58    1.35
  -3  -6   0   43.33    1.38
   3  -6   0   45.04    1.38
   3  -6   1    9.55    0.59
   3  -6   1    9.25    0.59
  -3  -6  -1    9.79    0.59
   3  -6   1   11.42    0.66
   3  -6   1   10.04    0.60
  -3  -6  -1    9.02    0.54
   3  -6   1    9.44    0.57
  -3  -6  -1    9.40    0.57
  -3  -6  -1    9.86    0.63
   3  -6   2   66.05    1.80
   3  -6   2   66.08    1.84
  -3  -6  -2   67.49    1.78
   3  -6   2   63.80    1.70
  -3  -6  -2   67.54    1.91
   3  -6   2   69.61    1.89
   3  -6   3   15.77    0.78
   3  -6   3   17.31    0.85
   3  -6   3   16.31    0.85
  -3  -6  -3   16.10    0.77
  -3  -6  -3   16.48    0.78
  -3  -6  -3   16.08    0.85
   3  -6   4   21.34    0.88
   3  -6   4   21.77    0.95
  -3  -6  -4   20.48    0.89
  -3  -6  -4   22.30    0.90
   3  -6   4   22.27    0.98
  -3  -6  -4   20.89    0.95
   3  -6   5   33.44    1.05
   3  -6   5   37.47    1.25
  -3  -6  -5   36.14    1.14
   3  -6   5   36.56    1.20
  -3  -6  -5   37.42    1.17
  -3  -6  -5   33.66    1.15
   3  -6   6    6.44    0.41
  -3  -6  -6    7.13    0.40
  -3  -6  -6    6.83    0.41
  -3  -6  -6    6.08    0.37
  -3  -6  -7    3.88    0.24
  -3  -5  10   35.25    0.99
   3  -5 -10   33.47    0.93
  -3  -5   9    6.31    0.40
   3  -5  -9    6.47    0.46
  -3  -5   9    6.51    0.41
  -3  -5   9    6.75    0.47
   3  -5  -9    6.65    0.46
   3  -5  -8   10.42    0.65
  -3  -5   8   11.29    0.63
   3  -5  -8   10.65    0.55
   3  -5  -8    8.93    0.61
  -3  -5   8   10.29    0.61
   3  -5  -8   10.82    0.62
  -3  -5   8   10.84    0.66
   3  -5  -7  114.23    2.53
  -3  -5   7  119.37    2.80
   3  -5  -7  117.20    2.61
   3  -5  -7  119.22    2.68
  -3  -5   7  129.27    2.83
   3  -5  -7  130.96    2.78
   3  -5  -7  117.32    2.82
  -3  -5   7  124.96    2.84
   3  -5  -7  123.35    2.86
   3  -5  -6   95.66    2.40
   3  -5  -6   92.09    2.20
   3  -5  -6  100.31    2.38
  -3  -5   6   97.28    2.39
  -3  -5   6   93.19    2.32
   3  -5  -6   91.07    2.37
  -3  -5   6   99.98    2.41
   3  -5  -5   29.39    1.13
   3  -5  -5   29.67    1.14
   3  -5  -5   27.40    1.09
  -3  -5   5   30.30    1.15
  -3  -5   5   28.29    1.07
  -3  -5   5   30.14    1.06
  -3  -5   4   46.72    1.39
  -3  -5   4   52.92    1.49
  -3  -5   4   48.94    1.41
   3  -5  -4   51.81    1.41
  -3  -5   4   51.32    1.52
  -3  -5   4   51.58    1.52
   3  -5  -4   53.74    1.57
   3  -5  -4   52.89    1.45
   3  -5  -4   50.86    1.47
   3  -5  -3   73.89    1.78
   3  -5  -3   71.93    1.75
  -3  -5   3   70.69    1.82
  -3  -5   3   75.14    1.81
   3  -5  -3   69.91    1.81
   3  -5  -3   66.53    1.77
   3  -5  -3   72.40    1.75
   3  -5  -2   25.61    0.90
   3  -5  -2   25.58    0.95
  -3  -5   2   27.74    1.00
  -3  -5   1   13.27    0.65
   3  -5  -1   14.34    0.67
   3  -5   0   83.27    1.94
   3  -5   0   86.14    1.99
  -3  -5   0   82.36    2.01
  -3  -5   0   83.80    2.03
   3  -5   1   36.00    1.15
   3  -5   1   36.68    1.15
   3  -5   1   36.99    1.19
   3  -5   1   36.28    1.20
  -3  -5  -1   37.74    1.27
  -3  -5  -1   37.87    1.20
  -3  -5  -1   35.55    1.21
   3  -5   1   38.23    1.18
  -3  -5  -1   35.45    1.14
   3  -5   1   35.65    1.10
   3  -5   2   45.67    1.38
  -3  -5  -2   45.60    1.32
   3  -5   2   52.36    1.53
  -3  -5  -2   49.57    1.40
   3  -5   2   49.60    1.40
   3  -5   2   46.19    1.31
   3  -5   2   49.66    1.49
  -3  -5  -2   51.82    1.55
  -3  -5  -3   63.81    1.70
  -3  -5  -3   65.51    1.83
   3  -5   4    6.97    0.55
  -3  -5  -4    6.55    0.48
  -3  -5  -4    7.52    0.54
  -3  -5  -4    7.54    0.56
  -3  -5  -5   43.63    1.34
   3  -5   5   42.69    1.45
   3  -5   5   41.97    1.44
  -3  -5  -5   45.18    1.39
  -3  -5  -5   42.89    1.37
   3  -5   6    7.62    0.52
   3  -5   6    6.57    0.49
  -3  -5  -6    7.75    0.48
  -3  -5  -6    5.91    0.41
   3  -5   7    4.09    0.32
   3  -5   7    4.54    0.34
  -3  -5  -7    4.42    0.32
   3  -4 -11    7.27    0.33
   3  -4 -10    9.68    0.52
  -3  -4  10    9.23    0.49
   3  -4 -10    9.19    0.51
  -3  -4  10    9.18    0.52
   3  -4  -9    5.34    0.46
   3  -4  -9    4.95    0.43
  -3  -4   9    5.61    0.45
  -3  -4   9    5.53    0.46
   3  -4  -8   19.18    0.92
   3  -4  -8   19.10    0.89
  -3  -4   8   18.45    0.84
  -3  -4   8   20.43    0.89
   3  -4  -8   19.05    0.93
  -3  -4   8   20.98    0.97
  -3  -4   8   21.91    0.95
  -3  -4   8   20.45    0.97
   3  -4  -7   11.85    0.72
  -3  -4   7   13.17    0.73
   3  -4  -7   13.10    0.71
   3  -4  -7   11.87    0.71
   3  -4  -7   13.28    0.68
  -3  -4   7   13.18    0.71
  -3  -4   7   14.44    0.78
  -3  -4   7   12.30    0.69
   3  -4  -7   11.81    0.61
  -3  -4   6    8.18    0.53
  -3  -4   6    8.69    0.57
  -3  -4   6    9.12    0.58
   3  -4  -6    8.49    0.53
   3  -4  -6    7.58    0.54
   3  -4  -6    8.34    0.58
  -3  -4   6    7.11    0.52
  -3  -4   6    8.74    0.58
   3  -4  -6    8.37    0.54
   3  -4  -6    9.39    0.60
   3  -4  -5    9.24    0.56
  -3  -4   5    9.12    0.55
   3  -4  -5    8.25    0.52
  -3  -4   5    8.30    0.53
   3  -4  -5    8.65    0.50
  -3  -4   5    9.86    0.57
  -3  -4   5    8.77    0.51
  -3  -4   4   12.09    0.57
   3  -4  -4   11.83    0.54
   3  -4  -4   12.51    0.62
  -3  -4   4   12.09    0.57
   3  -4  -3   13.99    0.59
  -3  -4   3   12.42    0.59
   3  -4  -3   13.75    0.58
   3  -4  -3   12.82    0.60
   3  -4  -2   16.41    0.63
  -3  -4   2   16.96    0.69
  -3  -4   2   16.17    0.61
   3  -4  -2   16.48    0.65
   3  -4  -1   14.92    0.56
   3  -4  -1   14.99    0.62
  -3  -4   1   14.72    0.60
  -3  -4   0   39.25    1.12
   3  -4   0   39.26    1.10
  -3  -4   0   38.59    1.13
   3  -4   1   51.51    1.30
  -3  -4  -1   50.56    1.32
   3  -4   1   50.70    1.37
  -3  -4  -1   47.63    1.38
  -3  -4  -2   44.89    1.22
   3  -4   2   45.94    1.36
   3  -4   3   12.79    0.70
   3  -4   3   12.68    0.70
  -3  -4  -3   11.35    0.60
  -3  -4  -3   11.88    0.66
  -3  -4  -3   12.08    0.69
  -3  -4  -3   13.61    0.70
   3  -4   3   12.36    0.66
  -3  -4  -3   12.15    0.63
   3  -4   3   12.68    0.70
  -3  -4  -4   72.63    1.83
   3  -4   4   71.73    1.97
   3  -4   4   70.44    1.94
   3  -4   4   68.08    1.83
  -3  -4  -4   67.89    1.85
  -3  -4  -4   66.95    1.86
   3  -4   5   23.53    1.04
  -3  -4  -5   23.95    1.00
  -3  -4  -5   23.44    0.95
   3  -4   5   24.33    0.98
   3  -4   5   22.16    1.02
  -3  -4  -5   22.82    0.95
  -3  -4  -5   22.94    0.96
   3  -4   6   33.91    1.25
  -3  -4  -6   35.73    1.17
  -3  -4  -6   35.09    1.20
   3  -4   6   33.58    1.23
  -3  -4  -6   35.00    1.11
  -3  -4  -6   31.54    1.05
   3  -4   7   11.11    0.60
   3  -4   7   11.67    0.63
  -3  -4  -7   11.33    0.57
  -3  -4  -7   12.16    0.54
   3  -4   8    4.81    0.32
   3  -4   8    4.88    0.31
  -3  -4  -8    5.31    0.30
   3  -3 -11   31.43    0.90
   3  -3 -11   32.49    0.90
  -3  -3  11   33.11    0.92
  -3  -3  11   32.60    0.93
  -3  -3  10   27.48    0.99
  -3  -3  10   26.21    0.91
   3  -3 -10   27.79    0.99
   3  -3 -10   27.72    1.00
  -3  -3  10   25.97    1.00
  -3  -3  10   29.33    1.03
  -3  -3   9   52.33    1.61
  -3  -3   9   51.70    1.51
   3  -3  -9   52.00    1.56
   3  -3  -9   51.31    1.58
   3  -3  -9   54.06    1.62
  -3  -3   9   52.99    1.62
  -3  -3   8   29.89    1.17
  -3  -3   8   29.59    1.18
  -3  -3   8   30.71    1.11
   3  -3  -8   28.70    1.11
   3  -3  -8   28.70    1.14
  -3  -3   8   28.95    1.17
  -3  -3   8   28.26    1.06
   3  -3  -7  103.69    2.40
   3  -3  -7  101.85    2.40
  -3  -3   7  104.29    2.38
   3  -3  -7  102.18    2.46
  -3  -3   7  105.65    2.43
  -3  -3   7  107.38    2.49
  -3  -3   7  111.34    2.56
   3  -3  -7  106.08    2.45
  -3  -3   6   84.22    2.01
   3  -3  -6   86.47    2.06
  -3  -3   6   87.19    2.07
   3  -3  -6   86.11    2.01
   3  -3  -6   82.35    1.91
  -3  -3   6   84.18    2.07
  -3  -3   6   86.65    2.04
  -3  -3   6   81.72    1.90
   3  -3  -5   94.95    2.10
   3  -3  -5   92.24    1.80
  -3  -3   5   89.12    2.00
  -3  -3   5   88.00    1.87
  -3  -3   4  184.52    3.37
  -3  -3   4  191.53    3.32
   3  -3  -4  189.12    3.26
   3  -3  -4  184.24    3.33
  -3  -3   3   51.73    1.23
   3  -3  -3   54.48    1.30
  -3  -3   3   51.22    1.08
   3  -3  -3   54.14    1.23
   3  -3  -2  114.29    2.15
  -3  -3   2  115.37    2.09
  -3  -3   2  111.50    1.94
  -3  -3   1  312.72    5.03
   3  -3  -1  304.01    4.91
   3  -3   0  286.68    4.57
   3  -3   0  284.48    4.82
  -3  -3  -1   39.73    1.11
   3  -3   1   40.35    1.02
   3  -3   2   48.46    1.32
  -3  -3  -2   49.15    1.17
  -3  -3  -2   49.46    1.24
  -3  -3  -3   16.44    0.76
   3  -3   3   14.60    0.70
  -3  -3  -3   14.88    0.66
   3  -3   4  119.72    2.60
   3  -3   4  116.95    2.61
   3  -3   4  113.85    2.61
  -3  -3  -4  113.94    2.53
  -3  -3  -4  118.11    2.66
  -3  -3  -4  110.95    2.42
  -3  -3  -4  109.97    2.49
   3  -3   4  115.54    2.50
  -3  -3  -4  116.03    2.57
  -3  -3  -4  114.60    2.52
   3  -3   4  115.75    2.54
   3  -3   5  118.80    2.69
   3  -3   5  118.47    2.78
  -3  -3  -5  124.68    2.63
  -3  -3  -5  114.10    2.62
   3  -3   5  117.28    2.65
  -3  -3  -5  116.59    2.58
   3  -3   5  113.38    2.56
   3  -3   5  118.30    2.73
  -3  -3  -5  112.46    2.53
   3  -3   6   12.37    0.74
  -3  -3  -6   13.13    0.70
  -3  -3  -6   11.66    0.65
   3  -3   6   12.99    0.74
   3  -3   6   12.75    0.72
   3  -3   6   13.39    0.71
  -3  -3  -6   12.56    0.67
   3  -3   7   43.94    1.39
  -3  -3  -7   44.58    1.30
  -3  -3  -7   44.30    1.30
   3  -3   7   43.38    1.31
   3  -3   7   42.48    1.26
   3  -3   7   41.45    1.32
   3  -3   8   20.85    0.77
   3  -3   8   21.98    0.75
  -3  -3  -8   22.61    0.74
  -3  -3  -8   21.78    0.71
   3  -2 -11   13.49    0.57
  -3  -2  11   13.83    0.57
   3  -2 -11   13.83    0.59
  -3  -2  11   13.29    0.59
  -3  -2  11   14.04    0.61
  -3  -2  10    5.16    0.42
  -3  -2  10    5.82    0.44
   3  -2 -10    4.55    0.40
  -3  -2  10    6.01    0.47
  -3  -2  10    5.37    0.44
  -3  -2   9   57.97    1.71
   3  -2  -9   56.31    1.67
   3  -2  -9   54.75    1.62
  -3  -2   9   59.28    1.76
  -3  -2   9   62.22    1.80
   3  -2  -8    0.41    0.15
   3  -2  -8    0.55    0.17
  -3  -2   8    0.63    0.18
   3  -2  -8    0.65    0.18
   3  -2  -8    0.50    0.17
  -3  -2   8    0.87    0.22
   3  -2  -8    0.55    0.17
  -3  -2   7   20.36    0.88
  -3  -2   7   21.08    0.91
   3  -2  -7   21.09    0.87
  -3  -2   7   19.99    0.83
  -3  -2   7   21.31    0.92
  -3  -2   7   22.15    0.88
   3  -2  -7   21.78    0.90
  -3  -2   7   20.59    0.85
   3  -2  -7   20.09    0.87
  -3  -2   7   20.63    0.88
   3  -2  -7   21.61    0.88
  -3  -2   6   88.00    2.02
  -3  -2   6   85.26    1.92
  -3  -2   6   90.31    2.01
   3  -2  -6   89.31    2.03
   3  -2  -6   88.81    1.92
  -3  -2   5   27.03    0.87
   3  -2  -5   27.68    0.90
  -3  -2   5   27.61    0.80
  -3  -2   5   26.09    0.84
   3  -2  -5   26.58    0.70
   3  -2  -5   29.21    0.82
  -3  -2   4  101.21    2.03
  -3  -2   4  101.69    1.86
   3  -2  -4  102.25    1.95
  -3  -2   4  103.69    1.98
   3  -2  -4  104.27    1.89
   3  -2  -4  104.19    2.08
  -3  -2   3   29.76    0.73
   3  -2  -3   27.75    0.73
  -3  -2   3   28.87    0.64
  -3  -2   3   26.67    0.60
   3  -2  -3   29.88    0.82
  -3  -2   2    5.35    0.24
  -3  -2   2    5.33    0.24
   3  -2  -2    5.73    0.29
  -3  -2   1   69.36    1.31
   3  -2  -1   67.69    1.32
   3  -2  -1   69.83    1.34
  -3  -2   0  462.28    6.75
   3  -2   0  457.56    6.77
  -3  -2   0  426.34    7.02
   3  -2   0  440.43    7.06
   3  -2   0  423.68    6.99
  -3  -2  -1  152.03    2.76
  -3  -2  -1  151.06    2.60
   3  -2   1  147.52    2.73
   3  -2   2    0.21    0.08
   3  -2   2    0.13    0.07
  -3  -2  -2    0.17    0.07
  -3  -2  -3   78.76    1.82
   3  -2   3   76.04    1.79
  -3  -2  -3   73.15    1.68
   3  -2   3   71.32    1.75
   3  -2   4    7.57    0.52
  -3  -2  -4    7.21    0.49
   3  -2   4    7.16    0.49
  -3  -2  -4    8.22    0.53
  -3  -2  -4    6.82    0.46
   3  -2   4    7.26    0.50
   3  -2   4    8.24    0.53
   3  -2   4    7.09    0.50
   3  -2   4    6.97    0.48
   3  -2   4    7.49    0.50
  -3  -2  -4    7.51    0.47
  -3  -2  -4    7.03    0.47
   3  -2   5  246.52    4.71
  -3  -2  -5  244.42    4.49
  -3  -2  -5  240.65    4.51
  -3  -2  -5  249.66    4.63
  -3  -2  -5  245.68    4.56
   3  -2   5  237.12    4.61
   3  -2   5  247.95    4.62
   3  -2   5  244.88    4.65
   3  -2   5  247.09    4.68
   3  -2   6   76.46    2.04
   3  -2   6   74.63    2.05
  -3  -2  -6   73.04    1.90
  -3  -2  -6   74.98    1.90
  -3  -2  -6   75.35    1.92
  -3  -2  -6   71.87    1.88
  -3  -2  -6   75.88    1.87
   3  -2   6   78.01    1.99
   3  -2   6   74.24    1.99
   3  -2   6   75.80    2.01
   3  -2   7   37.17    1.25
  -3  -2  -7   33.75    1.10
   3  -2   7   35.87    1.26
  -3  -2  -7   35.18    1.20
  -3  -2  -7   36.57    1.15
  -3  -2  -7   34.12    1.09
   3  -2   7   35.45    1.16
   3  -2   7   35.14    1.20
   3  -2   7   34.65    1.19
   3  -2   8   39.66    1.15
   3  -2   8   40.11    1.18
  -3  -2  -8   40.10    1.04
   3  -2   8   37.86    1.09
  -3  -2  -8   40.56    1.15
   3  -2   8   39.35    1.12
  -3  -2  -8   37.28    1.02
  -3  -2  -9   14.07    0.47
  -3  -1  11   20.99    0.72
  -3  -1  11   21.56    0.80
   3  -1 -11   21.49    0.76
  -3  -1  11   20.96    0.78
  -3  -1  10   25.82    0.98
   3  -1 -10   26.20    0.99
  -3  -1  10   25.84    1.06
   3  -1 -10   26.96    1.05
  -3  -1  10   25.49    1.01
  -3  -1   9   16.95    0.83
   3  -1  -9   16.48    0.78
   3  -1  -9   16.11    0.80
   3  -1  -9   16.50    0.80
  -3  -1   9   16.87    0.85
   3  -1  -9   16.13    0.77
  -3  -1   8   64.52    1.79
   3  -1  -8   67.09    1.74
   3  -1  -8   64.09    1.69
   3  -1  -8   64.26    1.74
   3  -1  -8   67.08    1.78
  -3  -1   8   65.74    1.70
   3  -1  -8   66.33    1.83
   3  -1  -8   62.77    1.78
  -3  -1   7   49.02    1.41
   3  -1  -7   45.48    1.38
   3  -1  -7   46.40    1.37
   3  -1  -7   48.64    1.36
  -3  -1   7   46.77    1.33
  -3  -1   7   46.45    1.36
   3  -1  -7   45.80    1.38
  -3  -1   7   46.31    1.43
   3  -1  -7   48.46    1.31
   3  -1  -7   47.65    1.32
   3  -1  -6  106.38    2.23
  -3  -1   6  106.57    2.28
   3  -1  -6  108.24    2.12
  -3  -1   5  110.64    2.23
   3  -1  -5  112.20    2.25
  -3  -1   5  108.19    2.24
  -3  -1   4   50.11    1.18
  -3  -1   4   52.67    1.10
  -3  -1   4   51.65    1.19
   3  -1  -4   53.85    1.23
   3  -1  -4   52.37    1.04
   3  -1  -4   50.71    1.08
  -3  -1   3  325.88    5.10
  -3  -1   3  312.72    4.95
   3  -1  -3  314.52    4.98
   3  -1  -3  324.03    4.87
   3  -1  -2  157.73    2.58
  -3  -1   2  149.79    2.53
  -3  -1   2  148.50    2.39
   3  -1  -2  148.00    2.38
  -3  -1   2  151.62    2.54
  -3  -1   1  431.79    6.44
  -3  -1   1  422.64    6.39
   3  -1   0   36.15    0.70
   3  -1   0   34.80    0.82
  -3  -1   0   36.46    0.74
  -3  -1   0   36.86    0.71
   3  -1   0   35.18    0.84
  -3  -1  -1   62.23    1.30
  -3  -1  -1   60.42    1.10
   3  -1   1   61.13    1.29
  -3  -1  -1   62.20    1.19
   3  -1   2  184.99    3.35
   3  -1   2  192.59    3.35
  -3  -1  -2  192.95    3.25
   3  -1   3  446.11    7.27
   3  -1   3  442.49    7.16
  -3  -1  -3  454.95    7.20
  -3  -1  -4   21.18    0.84
  -3  -1  -4   24.56    0.91
   3  -1   4   24.08    0.84
   3  -1   4   23.26    0.89
  -3  -1  -4   23.03    0.84
   3  -1   5   53.11    1.59
  -3  -1  -5   52.13    1.48
  -3  -1  -5   54.62    1.57
   3  -1   5   54.71    1.55
  -3  -1  -5   58.44    1.57
   3  -1   5   56.40    1.57
  -3  -1  -5   56.60    1.53
  -3  -1  -5   56.58    1.55
   3  -1   6   16.80    0.84
  -3  -1  -6   16.76    0.76
  -3  -1  -6   16.60    0.82
   3  -1   6   17.58    0.82
  -3  -1  -6   17.38    0.78
  -3  -1  -6   16.94    0.78
   3  -1   6   19.33    0.90
  -3  -1  -6   18.27    0.82
   3  -1   6   15.60    0.82
   3  -1   7  137.79    2.98
  -3  -1  -7  131.59    2.76
  -3  -1  -7  132.42    2.72
   3  -1   7  133.50    2.95
   3  -1   7  137.92    2.97
  -3  -1  -7  142.01    2.88
   3  -1   7  131.08    2.82
   3  -1   7  137.35    3.00
   3  -1   8  108.94    2.35
  -3  -1  -8  110.39    2.25
   3  -1   8  108.84    2.37
  -3  -1  -8  112.32    2.37
   3  -1   8  109.69    2.32
   3  -1   8  108.31    2.35
  -3  -1  -9    5.51    0.31
   3   0 -11    0.50    0.14
  -3   0  11    0.30    0.11
   3   0 -11    0.62    0.13
  -3   0  11    0.47    0.13
  -3   0  11    0.52    0.13
  -3   0  10    0.18    0.10
   3   0 -10    0.49    0.15
   3   0 -10    0.04    0.08
  -3   0  10    0.35    0.14
  -3   0  10    0.15    0.14
   3   0 -10    0.19    0.12
   3   0  -9   12.59    0.68
  -3   0   9   11.70    0.66
   3   0  -9   10.92    0.64
  -3   0   9   11.29    0.68
   3   0  -9   11.84    0.67
   3   0  -9   10.94    0.67
   3   0  -8   46.67    1.40
   3   0  -8   44.21    1.36
   3   0  -8   45.40    1.35
  -3   0   8   44.49    1.31
   3   0  -8   47.80    1.40
   3   0  -8   45.72    1.44
   3   0  -8   46.19    1.44
   3   0  -7   29.63    1.06
   3   0  -7   29.79    1.05
   3   0  -7   33.68    1.01
   3   0  -7   28.94    1.03
  -3   0   7   30.27    1.03
   3   0  -7   30.30    1.02
  -3   0   6   96.88    2.07
   3   0  -6  100.66    2.11
   3   0  -6  103.94    2.04
  -3   0   5   23.26    0.73
   3   0  -5   24.18    0.77
  -3   0   4   48.28    1.08
   3   0  -4   51.40    1.11
   3   0  -4   48.65    1.14
   3   0  -4   51.30    0.99
  -3   0   3   45.36    0.94
   3   0  -3   43.68    0.77
   3   0  -3   43.42    0.97
  -3   0   3   41.07    0.89
   3   0  -3   39.91    0.80
  -3   0   2   27.29    0.63
   3   0  -2   26.03    0.52
  -3   0   2   26.57    0.64
   3   0  -2   28.58    0.67
  -3   0   2   27.90    0.53
   3   0  -1  426.01    6.59
  -3   0   1  436.90    6.58
   3   0  -1  433.38    6.61
  -3   0   1  436.41    6.67
   3   0   0   13.89    0.43
  -3   0   0   12.53    0.41
  -3   0   0   12.60    0.35
  -3   0   0   13.92    0.41
   3   0   0   12.68    0.39
  -3   0   0   12.62    0.31
  -3   0   0   12.83    0.40
  -3   0  -1  244.19    4.12
  -3   0  -1  251.84    4.00
  -3   0  -1  251.20    3.87
   3   0   1  252.24    4.05
  -3   0  -1  253.13    3.97
   3   0   2   14.40    0.55
   3   0   2   13.26    0.50
  -3   0  -2   13.20    0.47
   3   0   3  214.86    3.73
  -3   0  -3  211.96    3.71
   3   0   3  205.66    3.69
  -3   0  -3  206.51    3.64
   3   0   4   71.13    1.72
  -3   0  -4   68.47    1.67
   3   0   4   71.55    1.73
   3   0   4   68.30    1.69
  -3   0  -4   70.19    1.66
   3   0   5   70.89    1.85
  -3   0  -5   70.73    1.80
  -3   0  -5   74.68    1.88
  -3   0  -5   72.34    1.79
   3   0   5   72.07    1.86
   3   0   5   68.67    1.82
  -3   0  -5   70.75    1.79
   3   0   6   52.21    1.55
  -3   0  -6   49.42    1.52
  -3   0  -6   50.71    1.45
  -3   0  -6   49.99    1.47
   3   0   6   48.03    1.55
   3   0   7   20.11    0.88
  -3   0  -7   21.71    0.84
  -3   0  -7   21.53    0.91
  -3   0  -7   21.08    0.88
  -3   0  -7   20.37    0.81
   3   0   7   20.94    0.94
   3   0   8   96.54    2.21
   3   0   8   98.16    2.15
  -3   0  -8   95.27    2.15
  -3   0  -8  100.05    2.20
   3   0   8   96.75    2.23
   3   0   8   99.52    2.23
   3   0   9    2.70    0.22
  -3   0  -9    2.52    0.18
  -3   0  -9    2.70    0.21
   3   1 -11   20.45    0.74
  -3   1  11   20.13    0.79
  -3   1  11   20.39    0.73
   3   1 -11   20.72    0.70
   3   1 -11   21.87    0.81
  -3   1  10   22.24    0.86
   3   1 -10   24.93    0.95
   3   1 -10   24.77    0.91
  -3   1  10   23.05    0.92
   3   1 -10   23.14    0.92
   3   1 -10   23.28    0.94
  -3   1   9   14.35    0.73
   3   1  -9   16.31    0.79
   3   1  -9   16.29    0.76
   3   1  -9   16.65    0.80
   3   1  -9   14.87    0.78
   3   1  -8   60.96    1.73
   3   1  -8   65.58    1.75
   3   1  -8   64.55    1.74
   3   1  -8   64.88    1.76
   3   1  -7   38.61    1.20
  -3   1   7   40.18    1.27
   3   1  -7   37.88    1.21
   3   1  -7   39.35    1.20
  -3   1   7   38.28    1.29
   3   1  -7   39.46    1.22
   3   1  -7   42.18    1.17
   3   1  -7   38.90    1.23
   3   1  -6  116.32    2.21
  -3   1   6  115.68    2.39
  -3   1   6  115.40    2.45
   3   1  -6  115.19    2.29
   3   1  -6  118.92    2.25
  -3   1   5  101.80    2.07
   3   1  -5  105.56    2.02
  -3   1   5  105.15    2.11
  -3   1   5  104.10    2.16
   3   1  -5  107.80    1.98
   3   1  -5  107.80    2.09
  -3   1   4   55.32    1.11
   3   1  -4   57.45    1.22
  -3   1   4   54.62    1.27
   3   1  -4   57.38    1.13
  -3   1   3  303.85    4.88
   3   1  -3  310.41    4.66
   3   1  -3  318.65    4.90
   3   1  -2  128.58    2.18
  -3   1   2  128.72    2.08
  -3   1   2  129.21    2.21
   3   1  -2  117.76    2.04
  -3   1   2  123.45    2.22
   3   1  -2  134.97    2.18
   3   1  -1  449.96    6.70
   3   1  -1  430.36    6.64
  -3   1   1  448.90    6.72
  -3   1   0   47.10    0.98
  -3   1   0   45.28    0.96
  -3   1   0   46.31    0.99
   3   1   0   48.44    1.02
  -3   1   0   48.25    1.02
   3   1   0   48.12    0.90
  -3   1   0   44.56    1.01
   3   1   0   45.82    0.88
   3   1   0   48.24    0.99
  -3   1  -1   74.42    1.39
  -3   1  -1   74.30    1.48
  -3   1  -1   71.64    1.45
  -3   1  -1   73.01    1.38
   3   1   1   73.20    1.36
   3   1   1   74.52    1.40
   3   1   2  194.44    3.41
  -3   1  -2  187.95    3.25
  -3   1  -2  198.24    3.14
  -3   1  -2  191.14    3.18
   3   1   3  449.35    7.25
  -3   1  -3  461.74    7.21
   3   1   4   28.87    0.99
  -3   1  -4   30.29    0.97
   3   1   5   65.82    1.70
  -3   1  -5   64.82    1.68
  -3   1  -5   67.00    1.70
  -3   1  -5   62.17    1.68
   3   1   5   62.54    1.78
   3   1   6   14.07    0.72
  -3   1  -6   13.43    0.69
  -3   1  -6   13.28    0.72
  -3   1  -6   14.44    0.70
  -3   1  -6   13.48    0.71
   3   1   6   13.99    0.76
   3   1   7  136.11    2.88
  -3   1  -7  141.90    2.97
  -3   1  -7  137.86    2.82
  -3   1  -7  138.41    2.82
  -3   1  -7  138.36    2.95
   3   1   7  136.57    3.00
  -3   1  -8  110.98    2.30
  -3   1  -8  115.15    2.30
  -3   1  -8  110.17    2.29
   3   1   8  108.86    2.37
   3   1   8  107.65    2.34
  -3   1  -9    5.65    0.29
  -3   1  -9    6.26    0.30
   3   2 -11   14.29    0.59
  -3   2  11   13.04    0.59
   3   2 -10    5.98    0.45
   3   2 -10    5.92    0.44
  -3   2  10    6.08    0.43
   3   2 -10    5.07    0.41
   3   2  -9   58.29    1.51
   3   2  -9   57.64    1.67
   3   2  -9   58.89    1.68
   3   2  -9   56.59    1.64
   3   2  -8    0.50    0.15
   3   2  -8    0.65    0.18
   3   2  -8    0.73    0.16
   3   2  -8    0.74    0.18
   3   2  -7   19.72    0.76
  -3   2   7   20.89    0.85
   3   2  -7   19.60    0.85
   3   2  -7   21.17    0.85
  -3   2   7   21.16    0.88
   3   2  -7   18.88    0.79
  -3   2   7   20.50    0.89
   3   2  -7   19.50    0.83
   3   2  -7   21.40    0.81
  -3   2   6   88.46    1.99
  -3   2   6   93.59    2.03
   3   2  -6   90.29    1.88
  -3   2   6   88.01    2.05
   3   2  -6   88.93    1.92
   3   2  -6   91.92    1.91
  -3   2   5   26.55    0.83
  -3   2   5   27.85    0.84
   3   2  -5   28.14    0.82
  -3   2   5   27.23    0.88
   3   2  -5   27.76    0.71
   3   2  -4  100.17    1.87
  -3   2   4  105.72    1.93
   3   2  -4   99.47    1.96
  -3   2   4  101.88    2.01
   3   2  -3   33.19    0.81
  -3   2   3   30.46    0.80
  -3   2   3   32.93    0.85
  -3   2   2    4.65    0.28
  -3   2   2    5.25    0.18
  -3   2   2    5.66    0.27
   3   2  -2    5.73    0.28
   3   2  -2    4.99    0.23
   3   2  -1   66.02    1.32
   3   2  -1   71.42    1.39
  -3   2   1   67.68    1.34
  -3   2   1   68.01    1.41
  -3   2   1   72.01    1.44
   3   2   0  428.49    6.86
   3   2   0  439.17    6.90
  -3   2  -1  147.84    2.54
  -3   2  -1  153.43    2.70
  -3   2  -1  152.79    2.76
   3   2   2    0.55    0.12
  -3   2  -2    0.44    0.10
  -3   2  -2    0.36    0.08
   3   2   3   75.85    1.74
  -3   2  -3   71.28    1.70
  -3   2  -3   73.43    1.55
  -3   2  -3   74.41    1.64
  -3   2  -4    9.32    0.52
   3   2   4    9.30    0.54
  -3   2  -4    9.71    0.54
  -3   2  -4    9.73    0.55
  -3   2  -4   10.34    0.54
  -3   2  -4   10.13    0.55
  -3   2  -4   10.19    0.54
  -3   2  -5  236.06    4.45
  -3   2  -5  235.97    4.44
  -3   2  -5  247.63    4.48
  -3   2  -6   85.70    2.07
  -3   2  -6   83.74    2.10
   3   2   6   84.52    2.14
  -3   2  -7   28.87    0.99
  -3   2  -7   29.15    1.02
  -3   2  -7   30.16    1.08
  -3   2  -7   29.10    0.99
   3   2   7   31.60    1.11
   3   2   8   42.78    1.18
  -3   2  -8   40.62    1.15
  -3   2  -8   39.41    1.07
  -3   2  -8   44.59    1.19
   3   2   8   40.79    1.22
   3   2   8   44.45    1.23
  -3   3  11   21.08    0.72
   3   3 -11   34.51    0.88
   3   3 -10   24.36    0.91
  -3   3  10   24.73    0.86
   3   3 -10   23.52    0.89
   3   3  -9   44.23    1.29
   3   3  -9   45.37    1.44
   3   3  -9   46.21    1.28
   3   3  -9   47.48    1.45
   3   3  -9   48.31    1.40
   3   3  -8   21.87    0.87
   3   3  -8   23.02    0.98
   3   3  -8   22.54    0.96
   3   3  -8   22.93    0.93
   3   3  -7  106.99    2.46
   3   3  -7  109.28    2.44
   3   3  -7  104.66    2.36
  -3   3   6   87.76    2.03
   3   3  -6   87.83    2.06
  -3   3   6   91.84    2.02
   3   3  -6   90.81    1.93
  -3   3   6   84.17    2.02
  -3   3   5   78.91    1.78
   3   3  -5   79.30    1.62
   3   3  -5   83.65    1.76
  -3   3   5   80.28    1.80
   3   3  -4  183.19    3.12
  -3   3   4  169.94    3.14
  -3   3   3   38.81    0.95
  -3   3   3   39.71    1.02
   3   3  -3   41.08    1.00
   3   3  -2  135.88    2.42
  -3   3   2  133.55    2.46
   3   3  -2  133.58    2.42
  -3   3   2  130.31    2.32
  -3   3   2  128.54    2.49
  -3   3   1  285.02    4.77
   3   3  -1  287.24    4.67
   3   3  -1  301.31    4.66
   3   3  -1  293.68    4.70
  -3   3   1  283.12    4.76
  -3   3   1  271.50    4.56
   3   3   0  305.03    5.24
   3   3   0  320.42    5.14
   3   3   0  331.98    5.25
  -3   3   0  316.62    5.30
  -3   3   0  343.33    5.35
   3   3   1   51.73    1.17
  -3   3  -1   52.98    1.25
   3   3   2   55.85    1.41
  -3   3  -2   56.73    1.37
  -3   3  -3   10.47    0.55
   3   3   3    9.80    0.54
  -3   3  -3   10.46    0.51
  -3   3  -4  115.59    2.44
   3   3   4  113.16    2.50
  -3   3  -4  113.54    2.50
  -3   3  -4  114.52    2.49
  -3   3  -4  112.97    2.44
  -3   3  -4  113.83    2.38
  -3   3  -4  111.51    2.43
  -3   3  -5  136.67    2.90
  -3   3  -5  141.64    2.96
  -3   3  -5  135.19    2.90
  -3   3  -6   16.86    0.79
  -3   3  -6   16.00    0.76
   3   3   6   16.74    0.78
  -3   3  -7   43.26    1.28
  -3   3  -7   39.57    1.17
  -3   3  -7   38.66    1.21
  -3   3  -7   40.00    1.19
   3   3   7   42.50    1.29
   3   3   7   41.69    1.23
  -3   3  -8   20.23    0.71
  -3   3  -8   22.60    0.75
   3   3   8   19.85    0.73
   3   3   8   21.38    0.72
   3   4 -10    9.67    0.51
   3   4 -10    9.79    0.51
   3   4  -9    5.65    0.40
   3   4  -9    5.49    0.44
   3   4  -9    5.80    0.40
   3   4  -9    6.23    0.46
   3   4  -8   17.37    0.78
   3   4  -8   18.58    0.88
   3   4  -8   18.50    0.86
   3   4  -7   13.05    0.71
   3   4  -7   11.88    0.68
  -3   4   6    9.41    0.56
   3   4  -6    8.86    0.56
   3   4  -6    8.95    0.52
   3   4  -6    9.33    0.51
   3   4  -5    8.78    0.50
  -3   4   5    8.26    0.48
   3   4  -5    8.01    0.49
   3   4  -5    8.78    0.52
  -3   4   5    7.29    0.47
   3   4  -5    9.19    0.50
  -3   4   4   11.10    0.56
   3   4  -4   11.97    0.53
  -3   4   3   13.19    0.56
  -3   4   3   13.76    0.62
   3   4  -3   14.61    0.59
  -3   4   2   18.33    0.72
   3   4  -2   19.78    0.70
   3   4  -2   20.17    0.69
  -3   4   2   18.68    0.69
  -3   4   1   15.16    0.62
  -3   4   1   16.20    0.66
   3   4  -1   15.96    0.59
   3   4  -1   14.78    0.59
  -3   4   0   41.22    1.11
   3   4   0   40.29    1.12
   3   4   0   43.82    1.13
  -3   4   0   41.33    1.17
   3   4   0   41.32    1.04
   3   4   1   44.65    1.17
  -3   4  -1   46.68    1.17
  -3   4  -1   47.29    1.28
   3   4   2   51.73    1.43
  -3   4  -2   53.35    1.42
  -3   4  -3   15.70    0.67
  -3   4  -3   16.48    0.74
   3   4   3   14.97    0.73
  -3   4  -3   16.59    0.73
  -3   4  -3   16.42    0.72
  -3   4  -3   17.16    0.70
  -3   4  -4   68.44    1.72
  -3   4  -4   67.44    1.78
  -3   4  -4   65.58    1.68
  -3   4  -4   65.67    1.79
  -3   4  -5   23.66    0.93
  -3   4  -5   23.09    0.86
  -3   4  -5   25.56    0.99
  -3   4  -5   25.00    0.99
  -3   4  -5   21.48    0.91
  -3   4  -6   37.27    1.19
  -3   4  -6   33.22    1.15
  -3   4  -7   14.12    0.60
  -3   4  -7   13.03    0.57
   3   4   7   12.11    0.60
  -3   4  -7   13.70    0.62
  -3   4  -7   12.92    0.60
   3   5 -10   34.89    0.94
   3   5 -10   34.08    0.93
   3   5  -9    6.48    0.40
   3   5  -9    5.61    0.41
   3   5  -9    6.14    0.38
   3   5  -9    6.09    0.42
   3   5  -8   12.52    0.64
   3   5  -8   12.06    0.66
   3   5  -8   12.59    0.67
   3   5  -7  116.94    2.72
   3   5  -7  123.39    2.73
   3   5  -6  101.08    2.39
   3   5  -6  104.18    2.24
   3   5  -6   97.91    2.30
   3   5  -5   28.23    1.02
   3   5  -5   27.20    1.02
  -3   5   5   26.44    1.03
   3   5  -5   27.60    1.02
   3   5  -5   28.56    1.00
   3   5  -5   26.91    0.97
  -3   5   4   49.03    1.42
   3   5  -4   53.61    1.47
   3   5  -4   52.95    1.46
   3   5  -4   49.69    1.44
   3   5  -4   52.22    1.43
   3   5  -4   53.85    1.41
   3   5  -3   76.24    1.83
  -3   5   3   70.80    1.81
  -3   5   3   73.43    1.87
   3   5  -2   20.46    0.79
   3   5  -2   19.41    0.75
  -3   5   2   17.86    0.73
  -3   5   2   19.62    0.81
  -3   5   1   10.30    0.57
  -3   5   1   10.91    0.59
   3   5  -1   10.61    0.53
   3   5  -1   10.84    0.56
   3   5   0   95.88    2.17
  -3   5   0   95.68    2.15
   3   5   0  100.01    2.16
  -3   5   0   94.64    2.20
   3   5   0   98.27    2.07
   3   5   1   37.97    1.12
  -3   5  -1   34.38    1.11
  -3   5  -1   34.05    1.09
  -3   5  -1   35.43    1.08
   3   5   2   57.15    1.61
  -3   5  -2   55.84    1.58
  -3   5  -2   55.88    1.55
  -3   5  -2   59.07    1.56
  -3   5  -3   51.22    1.48
  -3   5  -3   50.52    1.49
  -3   5  -3   51.34    1.41
  -3   5  -4    8.26    0.51
  -3   5  -4    8.48    0.53
  -3   5  -4    7.80    0.53
  -3   5  -4    8.93    0.57
  -3   5  -5   49.64    1.40
  -3   5  -5   47.69    1.32
  -3   5  -5   48.79    1.45
  -3   5  -5   50.30    1.43
  -3   5  -6    6.98    0.46
  -3   5  -6    7.47    0.46
  -3   5  -7    3.26    0.25
  -3   5  -7    3.60    0.27
  -3   5  -7    3.81    0.28
  -3   5  -7    3.76    0.28
   3   6  -9    4.34    0.29
   3   6  -9    4.69    0.31
   3   6  -9    4.43    0.31
   3   6  -9    4.60    0.29
   3   6  -8    0.50    0.14
   3   6  -8    0.41    0.13
   3   6  -8    0.42    0.13
   3   6  -7    5.83    0.46
   3   6  -7    6.49    0.48
   3   6  -6    7.63    0.53
   3   6  -6    8.18    0.53
   3   6  -6    6.90    0.47
   3   6  -5    1.20    0.22
   3   6  -5    1.18    0.22
   3   6  -5    1.03    0.21
   3   6  -5    1.55    0.25
   3   6  -4   43.43    1.33
   3   6  -4   41.05    1.33
   3   6  -4   40.73    1.33
   3   6  -4   41.24    1.32
   3   6  -3   48.12    1.41
   3   6  -3   48.28    1.45
   3   6  -2   10.12    0.58
   3   6  -2   10.89    0.62
  -3   6   2    9.36    0.59
   3   6  -1    1.23    0.21
   3   6  -1    1.18    0.21
   3   6  -1    1.11    0.19
  -3   6   1    1.76    0.26
  -3   6   1    1.23    0.22
  -3   6   0   45.26    1.29
  -3   6   0   43.05    1.32
  -3   6  -1   10.60    0.59
  -3   6  -1    8.77    0.55
  -3   6  -2   68.36    1.83
  -3   6  -2   69.14    1.81
  -3   6  -3   17.89    0.82
  -3   6  -3   15.93    0.79
  -3   6  -3   18.40    0.84
  -3   6  -3   17.36    0.76
  -3   6  -4   21.08    0.90
  -3   6  -4   21.09    0.89
  -3   6  -4   19.90    0.83
  -3   6  -5   33.07    1.01
  -3   6  -5   33.90    1.00
  -3   6  -5   36.22    1.13
  -3   6  -5   31.81    1.08
  -3   6  -5   32.79    1.03
  -3   6  -6    8.19    0.42
  -3   6  -6    7.56    0.42
   3   7  -8   16.15    0.61
   3   7  -8   16.30    0.59
   3   7  -7   41.41    1.09
   3   7  -7   41.00    1.18
   3   7  -6   23.75    0.90
   3   7  -6   25.46    0.91
   3   7  -6   25.08    0.95
   3   7  -6   24.29    0.93
   3   7  -5   14.12    0.71
   3   7  -5   13.27    0.70
   3   7  -4   89.37    2.14
   3   7  -4   86.61    2.16
   3   7  -4   82.61    2.14
   3   7  -3    2.50    0.31
   3   7  -3    2.21    0.30
   3   7  -2    3.36    0.36
   3   7  -1   11.06    0.65
  -3   7   1   11.15    0.62
  -3   7   0  125.78    2.76
  -3   7   0  128.15    2.68
  -3   7  -1   33.77    1.19
  -3   7  -1   35.61    1.17
  -3   7  -2    0.67    0.17
  -3   7  -2    0.47    0.16
  -3   7  -2    0.38    0.14
  -3   7  -2    0.56    0.15
  -3   7  -3    3.81    0.36
  -3   7  -3    3.37    0.34
  -3   7  -3    4.02    0.36
  -3   7  -3    3.60    0.32
  -3   7  -4    9.26    0.53
  -3   7  -4    8.96    0.51
  -3   7  -4    8.83    0.49
  -3   7  -5   18.99    0.62
  -3   7  -5   21.10    0.74
   3   8  -7    3.01    0.24
   3   8  -6    6.63    0.38
   3   8  -5   16.13    0.71
   3   8  -5   18.22    0.76
   3   8  -5   16.32    0.68
   3   8  -4    1.26    0.23
   3   8  -4    1.23    0.20
   3   8  -4    1.38    0.21
   3   8  -4    1.35    0.23
   3   8  -3    0.45    0.14
   3   8  -3    0.47    0.15
   3   8  -2    4.96    0.40
   3   8  -2    4.56    0.41
  -3   8   2    4.39    0.36
   3   8  -2    4.86    0.42
   3   8  -1    3.56    0.35
  -3   8   1    3.96    0.35
   3   8   0    1.49    0.23
  -3   8   0    1.71    0.25
  -3   8  -1   18.41    0.75
   3   8   1   17.19    0.76
  -3   8  -1   19.46    0.82
  -3   8  -1   18.38    0.79
  -3   8  -2    2.42    0.26
  -3   8  -2    2.22    0.25
  -3   8  -2    2.66    0.29
  -3   8  -3   16.83    0.61
  -3   8  -3   17.85    0.72
  -3   8  -3   18.83    0.71
  -3   8  -3   16.84    0.68
  -3   8  -4   18.39    0.64
  -3   8  -4   18.64    0.66
  -3   8  -4   17.76    0.60
   3   9  -5    0.07    0.06
   3   9  -4   30.18    0.93
   3   9  -4   31.50    0.84
   3   9  -4   32.49    0.96
   3   9  -3    6.21    0.37
   3   9  -3    6.70    0.42
   3   9  -3    6.17    0.40
   3   9  -2    5.56    0.39
  -3   9   2    4.78    0.32
   3   9  -2    4.86    0.36
   3   9  -1    9.13    0.50
  -3   9   1    8.47    0.44
   3   9  -1    9.23    0.51
  -3   9   1    8.96    0.46
   3   9   0   17.56    0.71
   3   9   0   17.81    0.70
  -3   9   0   18.57    0.70
  -3   9   0   19.22    0.70
  -3   9  -1   15.75    0.62
   3   9   1   14.84    0.60
  -3   9  -1   15.32    0.61
  -3   9  -1   16.58    0.62
   3   9   2   20.56    0.66
  -3   9  -2   20.65    0.63
   4  -9  -5    7.94    0.38
   4  -9  -5    7.49    0.37
   4  -9  -4   17.45    0.61
   4  -9  -4   17.30    0.62
  -4  -9   4   16.76    0.62
   4  -9  -4   18.19    0.66
   4  -9  -3   11.29    0.51
   4  -9  -3   11.56    0.54
  -4  -9   3   11.26    0.51
   4  -9  -3   10.32    0.48
  -4  -9   3   11.82    0.56
   4  -9  -2   11.72    0.50
  -4  -9   2   12.64    0.60
  -4  -9   2   13.48    0.56
   4  -9  -1    1.77    0.22
  -4  -9   1    1.82    0.22
  -4  -9   1    1.94    0.21
   4  -9   0    1.54    0.19
  -4  -9   0    1.37    0.18
   4  -9   1    6.09    0.35
   4  -8  -7    3.07    0.23
   4  -8  -7    3.15    0.24
  -4  -8   6    5.78    0.39
  -4  -8   6    5.55    0.39
   4  -8  -6    5.65    0.38
   4  -8  -5    4.36    0.32
  -4  -8   5    3.39    0.30
  -4  -8   5    3.96    0.35
   4  -8  -5    3.60    0.33
  -4  -8   5    3.46    0.32
  -4  -8   5    3.96    0.35
   4  -8  -4    7.59    0.49
  -4  -8   4    7.97    0.52
   4  -8  -4    7.08    0.49
  -4  -8   4    7.92    0.48
  -4  -8   4    7.92    0.49
  -4  -8   4    8.59    0.55
   4  -8  -4    8.26    0.53
   4  -8  -3    9.46    0.58
  -4  -8   3    9.31    0.60
  -4  -8   3    8.52    0.50
  -4  -8   3    8.99    0.58
   4  -8  -3    8.08    0.53
  -4  -8   3    8.68    0.49
  -4  -8   2    8.74    0.58
  -4  -8   2    8.35    0.56
   4  -8  -2    9.15    0.54
   4  -8  -2    8.27    0.52
   4  -8  -1    2.73    0.32
   4  -8  -1    2.28    0.29
  -4  -8   1    2.65    0.31
   4  -8  -1    2.68    0.31
   4  -8   0    9.58    0.57
  -4  -8   0    9.28    0.53
  -4  -8   0    8.57    0.54
   4  -8   0    9.17    0.54
   4  -8   0    8.56    0.54
  -4  -8   0    8.70    0.53
  -4  -8  -1   14.08    0.64
  -4  -8  -1   13.06    0.61
   4  -8   1   14.18    0.64
   4  -8   1   15.12    0.68
  -4  -8  -1   13.43    0.67
   4  -8   2   15.99    0.67
   4  -8   2   16.20    0.67
  -4  -8  -2   15.84    0.70
   4  -8   2   15.00    0.67
  -4  -8  -2   14.86    0.63
  -4  -8  -3   15.19    0.57
   4  -8   3   14.27    0.58
  -4  -8  -3   15.04    0.61
   4  -8   3   14.08    0.58
  -4  -8  -4    3.42    0.21
   4  -7  -8    2.08    0.20
   4  -7  -8    1.94    0.22
  -4  -7   8    2.16    0.23
  -4  -7   8    2.13    0.23
   4  -7  -7    6.34    0.42
   4  -7  -7    6.95    0.43
   4  -7  -7    6.59    0.43
   4  -7  -7    6.57    0.47
  -4  -7   7    6.85    0.47
   4  -7  -6   12.61    0.67
   4  -7  -6   12.44    0.65
  -4  -7   6   12.37    0.69
   4  -7  -6   12.94    0.72
  -4  -7   6   13.11    0.71
  -4  -7   6   12.21    0.65
   4  -7  -6   12.15    0.65
  -4  -7   5   25.42    1.04
   4  -7  -5   24.37    0.92
  -4  -7   5   24.03    1.01
   4  -7  -5   24.00    1.02
  -4  -7   5   26.13    1.05
   4  -7  -5   24.89    1.06
   4  -7  -4    4.30    0.41
   4  -7  -4    4.06    0.41
  -4  -7   4    4.93    0.44
   4  -7  -4    4.60    0.44
  -4  -7   4    4.75    0.43
  -4  -7   4    4.38    0.44
  -4  -7   3   24.79    1.05
   4  -7  -3   24.28    1.02
  -4  -7   3   22.92    0.93
  -4  -7   3   24.07    1.06
  -4  -7   3   23.82    0.95
   4  -7  -3   23.66    1.04
   4  -7  -3   23.05    0.98
  -4  -7   2    7.20    0.56
   4  -7  -2    7.13    0.52
   4  -7  -2    7.24    0.52
  -4  -7   2    6.42    0.52
   4  -7  -2    6.38    0.49
   4  -7  -1   50.70    1.54
  -4  -7   1   49.18    1.59
   4  -7  -1   48.02    1.55
   4  -7  -1   49.71    1.52
   4  -7  -1   49.35    1.53
  -4  -7   1   49.39    1.52
   4  -7   0    5.70    0.47
   4  -7   0    6.39    0.50
  -4  -7   0    5.75    0.47
  -4  -7   0    6.47    0.48
   4  -7   0    6.67    0.51
  -4  -7   0    6.07    0.46
  -4  -7   0    5.84    0.49
   4  -7   1    3.61    0.36
   4  -7   1    3.39    0.37
   4  -7   1    3.14    0.33
  -4  -7  -1    3.44    0.35
   4  -7   1    3.23    0.33
  -4  -7  -1    3.11    0.36
   4  -7   1    3.17    0.36
   4  -7   2    9.34    0.56
   4  -7   2    8.92    0.57
   4  -7   2    9.22    0.59
  -4  -7  -2    9.39    0.55
  -4  -7  -2    9.24    0.60
   4  -7   2    9.06    0.57
   4  -7   3    5.92    0.41
   4  -7   3    5.73    0.42
   4  -7   3    5.27    0.40
  -4  -7  -3    5.62    0.40
  -4  -7  -3    5.38    0.37
   4  -7   3    6.57    0.47
  -4  -7  -3    5.45    0.44
   4  -7   4    1.26    0.18
   4  -7   4    1.42    0.21
  -4  -7  -4    1.50    0.19
   4  -7   4    1.27    0.19
  -4  -7  -4    1.78    0.22
  -4  -7  -4    1.11    0.16
  -4  -7  -5    3.73    0.24
  -4  -7  -5    3.82    0.23
  -4  -6   9    9.31    0.45
   4  -6  -9    9.51    0.49
   4  -6  -9    9.88    0.50
  -4  -6   9    9.08    0.45
  -4  -6   9    8.98    0.43
   4  -6  -8    3.04    0.28
  -4  -6   8    3.02    0.32
   4  -6  -8    2.71    0.31
   4  -6  -8    2.42    0.28
   4  -6  -8    2.98    0.32
  -4  -6   8    2.42    0.29
  -4  -6   8    2.68    0.28
   4  -6  -7    3.43    0.34
  -4  -6   7    3.94    0.40
   4  -6  -7    3.92    0.40
   4  -6  -7    4.39    0.41
   4  -6  -7    4.38    0.43
  -4  -6   7    4.35    0.42
   4  -6  -7    3.22    0.32
  -4  -6   6   34.86    1.24
   4  -6  -6   34.39    1.32
   4  -6  -6   37.81    1.34
  -4  -6   5   13.29    0.68
   4  -6  -5   13.27    0.68
   4  -6  -5   13.60    0.78
  -4  -6   5   11.79    0.72
   4  -6  -5   13.78    0.77
  -4  -6   5   13.56    0.76
  -4  -6   5   14.16    0.78
  -4  -6   4   37.63    1.29
   4  -6  -4   38.80    1.29
  -4  -6   4   36.89    1.31
   4  -6  -4   38.92    1.31
  -4  -6   4   40.03    1.34
  -4  -6   4   37.27    1.35
   4  -6  -4   38.83    1.37
   4  -6  -3   31.06    1.14
  -4  -6   3   31.26    1.20
  -4  -6   3   30.81    1.18
   4  -6  -3   28.20    1.12
  -4  -6   3   30.99    1.18
   4  -6  -3   32.55    1.21
   4  -6  -3   31.25    1.20
  -4  -6   3   30.91    1.11
  -4  -6   3   29.50    1.11
   4  -6  -3   32.63    1.16
  -4  -6   2    1.99    0.30
  -4  -6   2    2.56    0.32
   4  -6  -2    2.23    0.30
  -4  -6   2    2.76    0.34
   4  -6  -2    2.23    0.31
   4  -6  -1   57.96    1.63
  -4  -6   1   54.01    1.66
   4  -6  -1   55.17    1.63
   4  -6  -1   54.06    1.64
   4  -6  -1   59.24    1.62
  -4  -6   1   57.69    1.64
  -4  -6   1   49.74    1.54
   4  -6  -1   55.70    1.61
   4  -6   0   10.77    0.63
  -4  -6   0    9.77    0.62
   4  -6   0    9.95    0.63
   4  -6   0   10.91    0.65
   4  -6   0   10.64    0.65
   4  -6   0   10.73    0.61
  -4  -6   0   10.59    0.60
   4  -6   0   10.55    0.64
  -4  -6   0    9.57    0.58
  -4  -6   0    9.89    0.65
   4  -6   1   94.48    2.28
  -4  -6  -1   95.61    2.29
   4  -6   1   97.61    2.40
   4  -6   1   94.94    2.28
   4  -6   1  100.45    2.42
  -4  -6  -1   96.92    2.27
   4  -6   1   97.33    2.22
  -4  -6  -1   97.12    2.45
   4  -6   2   10.78    0.62
   4  -6   2   10.65    0.67
   4  -6   2   12.29    0.72
  -4  -6  -2   11.17    0.63
  -4  -6  -2   11.58    0.71
   4  -6   3    9.78    0.56
   4  -6   3   10.98    0.67
  -4  -6  -3   10.27    0.59
  -4  -6  -3   11.01    0.62
   4  -6   4   26.34    1.02
  -4  -6  -4   26.35    0.94
  -4  -6  -4   27.11    0.97
  -4  -6  -4   26.18    1.00
   4  -6   5   14.42    0.65
  -4  -6  -5   15.05    0.63
   4  -6   5   15.31    0.68
  -4  -6  -5   13.00    0.59
  -4  -6  -5   14.27    0.59
   4  -6   6   10.61    0.46
  -4  -6  -6   10.79    0.43
   4  -5 -10   19.14    0.65
  -4  -5  10   19.43    0.64
   4  -5 -10   19.85    0.66
   4  -5  -9   26.69    0.94
  -4  -5   9   27.13    0.93
   4  -5  -9   29.51    1.02
   4  -5  -9   26.54    1.00
  -4  -5   9   27.80    0.96
  -4  -5   9   27.59    0.98
   4  -5  -8   20.34    0.79
  -4  -5   8   21.14    0.91
   4  -5  -8   20.53    0.92
   4  -5  -8   19.41    0.92
  -4  -5   8   20.03    0.91
  -4  -5   8   20.24    0.89
  -4  -5   7   18.18    0.89
   4  -5  -7   16.41    0.85
  -4  -5   7   17.96    0.91
  -4  -5   7   18.17    0.85
  -4  -5   6   28.77    1.15
   4  -5  -6   26.87    1.10
  -4  -5   6   27.41    1.14
   4  -5  -5   28.19    1.00
  -4  -5   5   27.58    1.02
  -4  -5   5   29.06    1.14
   4  -5  -5   29.60    1.13
   4  -5  -5   28.33    1.12
   4  -5  -5   28.08    1.13
  -4  -5   5   29.52    1.14
   4  -5  -4   37.22    1.21
  -4  -5   4   36.08    1.24
  -4  -5   4   38.58    1.28
  -4  -5   4   36.50    1.23
   4  -5  -4   38.22    1.28
  -4  -5   4   35.30    1.25
   4  -5  -4   37.47    1.29
   4  -5  -4   36.63    1.23
   4  -5  -4   37.26    1.16
   4  -5  -4   36.38    1.27
  -4  -5   4   36.67    1.21
   4  -5  -3   46.93    1.37
   4  -5  -3   45.80    1.41
  -4  -5   3   50.98    1.50
  -4  -5   3   45.85    1.41
  -4  -5   3   45.53    1.36
   4  -5  -3   46.68    1.41
   4  -5  -3   46.26    1.39
  -4  -5   3   44.22    1.38
   4  -5  -2   14.77    0.69
   4  -5  -2   13.25    0.68
  -4  -5   2   13.67    0.73
  -4  -5   2   14.11    0.72
   4  -5  -2   14.40    0.69
  -4  -5   2   13.28    0.65
  -4  -5   2   14.19    0.71
   4  -5  -1   64.06    1.67
  -4  -5   1   64.39    1.71
  -4  -5   1   64.42    1.78
   4  -5  -1   63.69    1.72
   4  -5  -1   61.64    1.71
  -4  -5   1   67.10    1.76
   4  -5  -1   65.49    1.72
   4  -5  -1   67.75    1.67
  -4  -5   1   66.18    1.71
   4  -5  -1   64.60    1.68
  -4  -5   1   64.44    1.71
  -4  -5   1   64.69    1.73
   4  -5   0   26.92    0.98
  -4  -5   0   30.21    1.09
   4  -5   0   27.25    1.04
   4  -5   0   26.75    1.01
  -4  -5   0   27.71    1.02
   4  -5   0   27.57    0.96
  -4  -5   0   27.78    0.97
  -4  -5   0   28.80    1.08
  -4  -5   0   27.88    1.07
  -4  -5   0   27.38    1.02
  -4  -5  -1   19.16    0.82
   4  -5   1   18.82    0.81
   4  -5   1   19.21    0.82
   4  -5   1   20.01    0.90
  -4  -5  -1   18.80    0.86
  -4  -5  -1   19.83    0.82
  -4  -5  -1   20.55    0.93
   4  -5   1   19.04    0.82
   4  -5   2    5.13    0.41
   4  -5   2    5.11    0.46
   4  -5   2    5.01    0.45
  -4  -5  -2    4.96    0.47
  -4  -5  -2    5.33    0.42
   4  -5   3   17.21    0.88
   4  -5   3   16.68    0.86
  -4  -5  -3   17.35    0.79
   4  -5   4    7.21    0.56
  -4  -5  -4    7.17    0.49
  -4  -5  -4    7.29    0.52
   4  -5   4    7.39    0.55
  -4  -5  -4    6.93    0.52
   4  -5   5    4.00    0.39
  -4  -5  -5    3.85    0.33
  -4  -5  -5    3.93    0.36
  -4  -5  -5    3.37    0.33
   4  -5   5    4.13    0.39
   4  -5   6   10.56    0.55
   4  -5   6   11.28    0.56
  -4  -5  -6   10.39    0.48
  -4  -5  -7    7.60    0.33
   4  -4 -11   14.51    0.51
   4  -4 -11   14.96    0.53
   4  -4 -10   18.75    0.74
  -4  -4  10   17.30    0.74
  -4  -4   9    4.66    0.38
   4  -4  -9    5.11    0.44
  -4  -4   9    4.60    0.40
  -4  -4   9    5.25    0.45
  -4  -4   8    6.52    0.53
  -4  -4   8    6.45    0.49
   4  -4  -8    6.43    0.51
   4  -4  -8    6.56    0.54
  -4  -4   8    7.44    0.55
  -4  -4   8    6.60    0.52
  -4  -4   7   30.09    1.19
  -4  -4   7   31.81    1.18
   4  -4  -7   29.84    1.11
   4  -4  -7   30.97    1.17
   4  -4  -7   31.14    1.21
  -4  -4   7   31.06    1.17
  -4  -4   7   32.02    1.22
  -4  -4   6   15.73    0.79
   4  -4  -6   16.45    0.82
  -4  -4   6   17.30    0.84
  -4  -4   6   16.04    0.80
   4  -4  -6   15.59    0.74
  -4  -4   6   15.48    0.75
   4  -4  -6   16.31    0.78
   4  -4  -6   15.47    0.72
  -4  -4   6   15.42    0.76
  -4  -4   5   41.60    1.27
  -4  -4   5   37.73    1.24
  -4  -4   5   41.59    1.33
   4  -4  -5   41.62    1.18
   4  -4  -5   41.65    1.35
   4  -4  -5   43.26    1.25
   4  -4  -5   40.77    1.25
   4  -4  -5   42.56    1.27
  -4  -4   5   40.52    1.26
   4  -4  -4    7.84    0.47
  -4  -4   4    9.06    0.52
   4  -4  -4    7.87    0.47
   4  -4  -4    8.24    0.52
   4  -4  -3   71.58    1.71
  -4  -4   3   71.71    1.76
   4  -4  -3   69.01    1.70
   4  -4  -3   67.64    1.64
   4  -4  -2   83.09    1.82
  -4  -4   2   83.05    1.81
  -4  -4   1   44.31    1.29
  -4  -4   1   45.02    1.25
   4  -4  -1   43.26    1.26
  -4  -4   0   46.33    1.31
   4  -4   0   48.03    1.32
  -4  -4   0   44.20    1.33
  -4  -4  -1   69.57    1.70
  -4  -4  -1   66.37    1.74
   4  -4   1   68.68    1.79
  -4  -4  -1   71.51    1.82
   4  -4   1   65.74    1.65
   4  -4   1   71.51    1.79
  -4  -4  -1   68.74    1.76
  -4  -4  -1   70.78    1.85
   4  -4   2   15.71    0.77
   4  -4   2   15.32    0.78
  -4  -4  -2   15.30    0.74
  -4  -4  -2   15.27    0.76
  -4  -4  -2   13.98    0.76
  -4  -4  -2   14.74    0.74
   4  -4   2   15.72    0.79
  -4  -4  -3   64.26    1.72
   4  -4   3   68.38    1.87
  -4  -4  -3   67.63    1.73
   4  -4   3   63.86    1.73
  -4  -4  -3   64.96    1.82
  -4  -4  -3   62.54    1.75
  -4  -4  -4   20.28    0.83
  -4  -4  -4   20.62    0.86
  -4  -4  -4   21.03    0.94
  -4  -4  -4   20.39    0.91
   4  -4   4   21.01    0.96
  -4  -4  -5   39.31    1.22
  -4  -4  -5   39.96    1.29
   4  -4   5   38.27    1.31
  -4  -4  -5   37.10    1.22
   4  -4   6   37.84    1.20
  -4  -4  -6   37.56    1.11
  -4  -4  -6   40.92    1.21
  -4  -4  -6   39.83    1.12
   4  -4   7   14.82    0.55
   4  -4   7   13.88    0.57
  -4  -4  -7   14.88    0.54
   4  -3 -11   28.29    0.84
  -4  -3  11   28.82    0.84
  -4  -3  11   28.83    0.90
  -4  -3  10   33.67    1.15
   4  -3 -10   32.87    1.10
  -4  -3  10   33.78    1.16
  -4  -3  10   34.67    1.12
   4  -3 -10   34.25    1.15
   4  -3  -9   32.29    1.17
  -4  -3   9   32.99    1.23
  -4  -3   9   29.80    1.09
   4  -3  -9   31.66    1.20
  -4  -3   9   31.55    1.21
  -4  -3   9   33.79    1.20
  -4  -3   8   42.74    1.41
  -4  -3   8   43.58    1.37
   4  -3  -8   42.12    1.41
  -4  -3   8   49.51    1.49
   4  -3  -8   46.41    1.51
   4  -3  -8   44.53    1.45
  -4  -3   8   47.44    1.52
  -4  -3   7   92.07    2.27
   4  -3  -7   88.21    2.17
   4  -3  -7   90.07    2.18
   4  -3  -7   86.12    2.22
  -4  -3   7   92.31    2.25
   4  -3  -7   92.39    2.20
  -4  -3   7   89.11    2.21
   4  -3  -7   88.41    2.18
   4  -3  -7   89.50    2.12
  -4  -3   6   52.70    1.52
  -4  -3   6   55.69    1.56
   4  -3  -6   60.86    1.65
  -4  -3   6   53.42    1.54
   4  -3  -6   56.06    1.55
  -4  -3   6   55.01    1.56
  -4  -3   6   51.84    1.44
  -4  -3   6   55.27    1.53
   4  -3  -6   57.46    1.52
   4  -3  -6   56.08    1.52
  -4  -3   5  159.80    3.12
  -4  -3   5  154.12    2.93
   4  -3  -5  163.56    3.03
   4  -3  -5  162.05    2.97
  -4  -3   4   64.16    1.54
  -4  -3   4   62.66    1.39
   4  -3  -4   64.95    1.49
   4  -3  -4   65.29    1.61
  -4  -3   3  180.64    3.09
   4  -3  -3  181.45    3.32
  -4  -3   2  128.35    2.29
   4  -3  -2  123.31    2.40
   4  -3  -1   67.04    1.40
  -4  -3   1   74.87    1.59
  -4  -3   0   42.23    1.17
   4  -3   0   41.67    1.13
   4  -3   1   16.23    0.70
   4  -3   1   16.45    0.72
  -4  -3  -1   18.00    0.76
   4  -3   2    4.89    0.40
   4  -3   2    4.59    0.38
  -4  -3  -2    6.19    0.46
  -4  -3  -2    4.34    0.37
  -4  -3  -2    5.61    0.42
  -4  -3  -2    5.63    0.43
  -4  -3  -2    4.91    0.39
   4  -3   2    4.54    0.39
   4  -3   3   96.01    2.27
  -4  -3  -3   91.09    2.15
   4  -3   3   96.74    2.32
  -4  -3  -3  101.93    2.30
   4  -3   3   94.66    2.26
  -4  -3  -3  100.70    2.38
   4  -3   3   92.14    2.28
  -4  -3  -3   91.28    2.22
  -4  -3  -3   95.63    2.21
   4  -3   3   97.90    2.35
   4  -3   3   95.82    2.26
   4  -3   3   94.06    2.20
   4  -3   4   35.23    1.25
   4  -3   4   34.53    1.28
  -4  -3  -4   33.24    1.10
  -4  -3  -4   33.70    1.12
  -4  -3  -4   34.98    1.24
  -4  -3  -4   35.02    1.21
  -4  -3  -4   34.85    1.19
  -4  -3  -4   34.00    1.14
   4  -3   4   34.29    1.18
   4  -3   4   34.38    1.22
   4  -3   4   33.98    1.22
   4  -3   5   17.96    0.88
  -4  -3  -5   19.47    0.81
  -4  -3  -5   18.14    0.83
   4  -3   5   17.36    0.84
   4  -3   5   17.75    0.86
  -4  -3  -5   16.29    0.81
  -4  -3  -5   16.31    0.75
   4  -3   5   17.06    0.83
   4  -3   6    3.12    0.33
   4  -3   6    3.06    0.35
  -4  -3  -6    3.39    0.33
   4  -3   6    2.47    0.30
  -4  -3  -6    3.07    0.32
   4  -3   7   15.38    0.68
  -4  -3  -7   16.68    0.63
  -4  -3  -7   16.92    0.65
   4  -3   7   16.21    0.64
   4  -3   7   14.55    0.59
   4  -2 -11   39.82    1.09
  -4  -2  11   40.61    1.14
  -4  -2  11   38.86    1.06
   4  -2 -11   43.47    1.19
  -4  -2  11   41.03    1.18
  -4  -2  11   43.05    1.18
  -4  -2  10   23.20    0.95
  -4  -2  10   22.50    0.89
   4  -2 -10   22.51    0.94
   4  -2 -10   22.07    0.88
  -4  -2  10   22.22    0.94
  -4  -2   9   39.32    1.36
   4  -2  -9   35.48    1.24
  -4  -2   9   40.42    1.37
   4  -2  -9   37.27    1.33
  -4  -2   9   39.82    1.38
  -4  -2   9   38.15    1.23
   4  -2  -9   37.88    1.33
   4  -2  -9   37.89    1.31
   4  -2  -8   70.72    1.87
   4  -2  -8   71.33    1.94
   4  -2  -8   66.66    1.85
  -4  -2   8   68.43    1.86
  -4  -2   8   75.97    2.00
   4  -2  -8   71.68    1.94
  -4  -2   8   71.06    1.85
   4  -2  -8   70.62    1.89
  -4  -2   7   36.19    1.25
  -4  -2   7   39.91    1.31
   4  -2  -7   42.51    1.33
  -4  -2   7   38.38    1.26
  -4  -2   7   41.20    1.29
  -4  -2   7   40.26    1.31
   4  -2  -7   39.08    1.27
  -4  -2   7   37.35    1.25
   4  -2  -7   39.16    1.28
   4  -2  -7   39.57    1.24
   4  -2  -6   64.34    1.67
  -4  -2   6   61.21    1.47
  -4  -2   6   63.21    1.61
   4  -2  -5   68.00    1.50
  -4  -2   5   66.42    1.43
  -4  -2   4   81.67    1.76
  -4  -2   4   77.28    1.67
   4  -2  -4   81.79    1.66
   4  -2  -3  164.58    3.08
  -4  -2   3  169.54    2.97
  -4  -2   2   53.45    1.19
   4  -2  -2   56.78    1.25
  -4  -2   2   58.21    1.18
   4  -2  -2   55.54    1.14
  -4  -2   1   10.12    0.41
   4  -2  -1    9.88    0.41
   4  -2  -1   10.35    0.38
  -4  -2   1    9.58    0.42
   4  -2   0  164.37    3.06
   4  -2   0  164.68    3.03
  -4  -2  -1   71.06    1.64
   4  -2   1   67.59    1.59
   4  -2   1   68.06    1.59
  -4  -2  -2  120.67    2.50
  -4  -2  -2  116.00    2.26
   4  -2   3   50.66    1.48
  -4  -2  -3   53.17    1.40
   4  -2   3   52.28    1.50
  -4  -2  -3   50.84    1.43
   4  -2   3   49.00    1.41
  -4  -2  -3   55.07    1.55
  -4  -2  -3   50.18    1.44
   4  -2   3   53.12    1.52
  -4  -2  -3   51.02    1.43
   4  -2   3   50.64    1.46
   4  -2   3   52.24    1.50
   4  -2   3   51.51    1.49
  -4  -2  -3   52.17    1.37
   4  -2   4  222.50    4.26
  -4  -2  -4  210.07    3.98
   4  -2   4  212.82    4.23
  -4  -2  -4  221.41    4.20
   4  -2   4  210.55    4.14
  -4  -2  -4  219.50    4.19
  -4  -2  -4  221.16    4.18
  -4  -2  -4  217.93    4.07
  -4  -2  -4  217.24    4.03
   4  -2   4  218.24    4.24
   4  -2   4  219.22    4.22
   4  -2   5   19.73    0.92
   4  -2   5   19.62    0.93
   4  -2   5   19.66    0.88
  -4  -2  -5   20.28    0.91
  -4  -2  -5   21.65    0.92
  -4  -2  -5   20.26    0.88
  -4  -2  -5   20.69    0.84
   4  -2   5   20.90    0.93
   4  -2   5   19.74    0.92
   4  -2   6    9.10    0.60
   4  -2   6    8.73    0.59
  -4  -2  -6    9.44    0.55
   4  -2   6    8.15    0.53
  -4  -2  -6    9.70    0.55
  -4  -2  -6    9.59    0.57
   4  -2   6   10.14    0.60
   4  -2   6    9.02    0.59
   4  -2   7   25.24    0.92
  -4  -2  -7   23.24    0.81
  -4  -2  -7   25.14    0.81
   4  -2   7   24.20    0.90
  -4  -2  -7   25.23    0.90
   4  -2   7   24.61    0.85
   4  -2   7   23.78    0.88
  -4  -2  -8   70.68    1.47
   4  -1 -12   30.69    0.79
  -4  -1  11   40.54    1.16
  -4  -1  11   40.37    1.17
   4  -1 -11   39.17    1.09
  -4  -1  11   41.67    1.22
   4  -1 -11   44.45    1.23
  -4  -1  11   41.36    1.21
  -4  -1  10   27.35    1.05
  -4  -1  10   27.59    1.09
   4  -1 -10   27.09    1.05
   4  -1 -10   26.84    0.98
  -4  -1  10   26.85    1.06
   4  -1 -10   26.95    1.05
  -4  -1   9   60.40    1.76
   4  -1  -9   65.98    1.82
   4  -1  -9   60.21    1.67
  -4  -1   9   60.67    1.67
   4  -1  -9   60.70    1.78
   4  -1  -9   61.76    1.64
   4  -1  -9   60.93    1.76
  -4  -1   8  376.95    6.47
  -4  -1   8  356.16    6.28
   4  -1  -8  355.53    6.27
  -4  -1   8  352.00    6.32
   4  -1  -8  364.33    6.46
   4  -1  -8  363.97    6.45
   4  -1  -8  365.34    6.24
   4  -1  -8  384.07    6.42
  -4  -1   7   74.86    1.82
   4  -1  -7   78.15    1.91
  -4  -1   7   75.05    1.90
  -4  -1   7   77.58    1.86
  -4  -1   7   73.19    1.78
   4  -1  -7   71.36    1.86
  -4  -1   7   69.37    1.88
   4  -1  -7   73.86    1.85
  -4  -1   6  155.79    3.08
   4  -1  -6  159.26    3.12
  -4  -1   6  158.62    3.12
  -4  -1   5   45.41    1.19
  -4  -1   5   42.39    1.06
   4  -1  -5   46.56    1.24
  -4  -1   5   44.47    1.20
  -4  -1   4  562.77    8.61
  -4  -1   4  531.85    8.39
  -4  -1   4  546.84    8.59
   4  -1  -4  550.73    8.41
  -4  -1   3  510.35    8.06
   4  -1  -3  524.85    8.13
  -4  -1   3  516.62    8.07
   4  -1  -2  158.75    2.81
  -4  -1   2  162.10    2.81
  -4  -1   2  162.53    2.67
   4  -1  -2  162.78    2.66
  -4  -1   1   32.00    0.79
   4  -1  -1   29.53    0.73
  -4  -1   1   29.12    0.79
  -4  -1   1   30.17    0.75
   4  -1   0  115.78    2.12
   4  -1   0  111.32    1.87
  -4  -1   0  109.50    1.96
  -4  -1   0  109.22    1.86
   4  -1   0  114.57    2.12
   4  -1   1  116.21    2.30
   4  -1   1  115.58    2.27
  -4  -1  -1  119.32    2.08
   4  -1   2   36.35    1.07
  -4  -1  -2   38.67    0.97
   4  -1   3   26.70    0.98
  -4  -1  -3   26.71    0.95
  -4  -1  -3   30.06    1.05
   4  -1   3   26.14    0.94
   4  -1   3   26.75    0.99
  -4  -1  -3   27.30    0.87
   4  -1   4   12.58    0.70
   4  -1   4   13.09    0.70
  -4  -1  -4   12.92    0.61
   4  -1   4   13.71    0.71
  -4  -1  -4   13.00    0.68
  -4  -1  -4   13.51    0.69
  -4  -1  -4   14.28    0.70
   4  -1   4   14.93    0.76
   4  -1   4   12.54    0.70
  -4  -1  -4   13.80    0.65
   4  -1   5    7.28    0.54
  -4  -1  -5    7.77    0.54
  -4  -1  -5    8.20    0.55
  -4  -1  -5    7.87    0.53
   4  -1   5    7.77    0.57
   4  -1   5    7.07    0.55
   4  -1   6   88.81    2.19
  -4  -1  -6   87.14    2.15
  -4  -1  -6   89.08    2.12
  -4  -1  -6   89.62    2.11
   4  -1   6   89.42    2.23
   4  -1   6   85.47    2.22
   4  -1   7    3.36    0.33
  -4  -1  -7    3.20    0.29
  -4  -1  -7    3.43    0.29
   4  -1   7    3.41    0.33
   4  -1   7    3.35    0.34
  -4  -1  -7    3.32    0.33
  -4  -1  -8    5.42    0.33
   4  -1   8    5.05    0.32
   4   0 -12    2.91    0.21
  -4   0  11   13.70    0.61
   4   0 -11   14.03    0.64
  -4   0  11   13.60    0.64
  -4   0  10  100.16    2.34
   4   0 -10   98.51    2.24
   4   0 -10   96.21    2.20
   4   0 -10  107.25    2.42
  -4   0  10  101.89    2.39
   4   0 -10   99.38    2.25
   4   0 -10   97.46    2.37
   4   0  -9    0.12    0.12
  -4   0   9    0.19    0.11
  -4   0   9    0.02    0.09
   4   0  -9    0.15    0.11
   4   0  -9    0.10    0.12
   4   0  -9    0.11    0.11
   4   0  -8   14.15    0.69
  -4   0   8   14.33    0.67
  -4   0   8   14.33    0.70
   4   0  -8   13.37    0.73
   4   0  -8   13.54    0.72
   4   0  -8   13.80    0.69
  -4   0   7  125.56    2.68
   4   0  -7  131.65    2.67
   4   0  -7  120.64    2.66
   4   0  -7  120.67    2.63
   4   0  -7  126.66    2.68
  -4   0   7  118.75    2.54
  -4   0   6    9.24    0.50
  -4   0   6    8.95    0.47
   4   0  -6    8.77    0.49
  -4   0   5  112.61    2.21
  -4   0   5  106.73    2.13
   4   0  -5  114.25    2.28
  -4   0   4    0.63    0.11
   4   0  -4    0.61    0.12
  -4   0   3  296.93    4.53
   4   0  -3  280.22    4.57
   4   0  -3  299.72    4.63
   4   0  -3  268.82    4.31
   4   0  -3  272.90    4.20
  -4   0   3  287.87    4.54
   4   0  -2  302.20    4.56
  -4   0   2  289.61    4.55
   4   0  -2  303.53    4.71
  -4   0   1   15.33    0.50
   4   0  -1   14.24    0.46
  -4   0   1   14.55    0.50
  -4   0   1   14.57    0.46
   4   0   0   29.60    0.80
  -4   0   0   31.20    0.80
  -4   0   0   29.95    0.77
  -4   0   0   29.49    0.68
   4   0   0   29.76    0.76
  -4   0   0   29.54    0.60
   4   0   1   22.88    0.74
  -4   0  -1   24.30    0.74
  -4   0  -1   21.51    0.63
   4   0   1   21.93    0.68
  -4   0  -1   22.74    0.59
   4   0   2    8.71    0.48
  -4   0  -2    8.95    0.47
   4   0   2    8.38    0.43
  -4   0  -2    9.01    0.40
   4   0   3  224.55    4.04
  -4   0  -3  216.52    3.98
   4   0   3  208.41    3.91
  -4   0  -3  217.87    3.82
  -4   0  -4   48.64    1.32
   4   0   4   48.85    1.41
   4   0   4   46.86    1.42
  -4   0  -4   48.55    1.41
  -4   0  -4   49.33    1.43
  -4   0  -4   52.24    1.44
   4   0   4   46.49    1.38
   4   0   4   46.35    1.39
   4   0   4   47.54    1.47
  -4   0  -4   46.82    1.31
   4   0   4   46.48    1.45
   4   0   5    5.95    0.47
  -4   0  -5    6.66    0.49
  -4   0  -5    7.18    0.51
  -4   0  -5    6.05    0.46
   4   0   5    6.13    0.51
   4   0   5    6.03    0.49
   4   0   6    7.63    0.55
   4   0   6    6.55    0.48
  -4   0  -6    7.18    0.51
  -4   0  -6    6.72    0.47
  -4   0  -6    6.51    0.47
  -4   0  -6    7.26    0.49
   4   0   6    6.87    0.54
   4   0   6    7.03    0.54
   4   0   7    6.49    0.43
  -4   0  -7    6.31    0.44
  -4   0  -7    6.08    0.40
  -4   0  -7    7.62    0.49
  -4   0  -7    6.09    0.40
   4   0   7    6.19    0.46
   4   0   7    6.49    0.47
  -4   0  -7    6.18    0.41
   4   0   8  114.11    1.69
   4   0   8  115.21    1.67
   4   1 -12   26.71    0.70
  -4   1  11   39.59    1.12
   4   1 -11   40.59    1.13
  -4   1  11   40.87    1.23
   4   1 -11   44.91    1.21
  -4   1  11   41.97    1.19
   4   1 -11   41.49    1.14
  -4   1  10   34.80    1.15
   4   1 -10   33.07    1.12
   4   1 -10   31.20    1.10
   4   1 -10   32.35    1.15
   4   1  -9   63.60    1.74
  -4   1   9   63.85    1.66
   4   1  -9   63.51    1.78
   4   1  -9   64.59    1.75
   4   1  -9   62.18    1.79
   4   1  -8  367.27    6.26
   4   1  -8  357.57    6.32
   4   1  -8  353.08    6.25
   4   1  -8  357.22    6.25
   4   1  -8  355.86    6.33
  -4   1   7   73.42    1.80
   4   1  -7   73.46    1.79
   4   1  -7   73.82    1.79
   4   1  -7   71.06    1.79
   4   1  -7   69.12    1.80
   4   1  -7   73.96    1.78
  -4   1   7   72.54    1.91
   4   1  -7   71.34    1.83
  -4   1   6  166.42    3.16
   4   1  -6  171.34    3.22
   4   1  -6  170.80    3.12
  -4   1   6  162.90    3.29
  -4   1   5   49.85    1.24
  -4   1   5   50.77    1.24
   4   1  -5   52.83    1.26
  -4   1   5   54.91    1.15
   4   1  -5   52.71    1.31
  -4   1   5   50.19    1.34
  -4   1   4  561.41    8.63
  -4   1   4  550.69    8.77
   4   1  -4  563.75    8.64
  -4   1   4  551.26    8.61
  -4   1   3  497.34    7.69
   4   1  -3  513.02    7.50
  -4   1   3  494.75    7.86
  -4   1   3  476.59    7.75
   4   1  -3  499.79    7.80
   4   1  -3  497.90    7.79
  -4   1   2  181.75    2.95
   4   1  -2  161.83    2.77
  -4   1   2  168.73    2.77
  -4   1   2  174.19    2.96
   4   1  -2  163.10    2.87
   4   1  -2  174.05    2.94
   4   1  -1   29.94    0.78
  -4   1   1   32.43    0.78
  -4   1   1   31.62    0.81
  -4   1   1   32.64    0.87
  -4   1   1   32.33    0.85
   4   1  -1   32.70    0.77
   4   1  -1   34.17    0.85
   4   1   0  105.51    2.06
  -4   1   0  112.92    2.07
   4   1   0  108.75    1.90
  -4   1   0  110.44    2.10
  -4   1   0  109.76    1.99
   4   1   0  110.09    1.89
   4   1   0  111.74    2.05
  -4   1   0  114.36    2.05
  -4   1   0  106.19    1.82
   4   1   1  125.88    2.39
  -4   1  -1  126.58    2.36
  -4   1  -1  121.93    2.22
  -4   1  -1  122.31    2.30
  -4   1  -1  120.76    2.17
  -4   1  -1  119.27    2.13
  -4   1  -2   33.01    0.88
   4   1   2   35.61    1.05
  -4   1  -2   34.10    1.02
   4   1   3   30.28    1.02
  -4   1  -3   28.78    0.98
  -4   1  -3   28.94    0.89
   4   1   4   11.88    0.65
  -4   1  -4   13.45    0.67
  -4   1  -4   12.20    0.63
   4   1   4   11.91    0.67
  -4   1  -4   13.21    0.66
  -4   1  -4   12.19    0.60
   4   1   4   12.11    0.66
  -4   1  -5    6.17    0.48
  -4   1  -5    6.93    0.50
  -4   1  -5    6.63    0.49
   4   1   5    6.76    0.53
   4   1   5    7.13    0.53
   4   1   6   89.76    2.24
  -4   1  -6   89.77    2.18
  -4   1  -6   88.76    2.14
  -4   1  -6   91.82    2.14
   4   1   6   94.35    2.32
   4   1   6   89.40    2.26
   4   1   7    3.26    0.33
  -4   1  -7    3.50    0.30
  -4   1  -7    3.61    0.33
  -4   1  -7    3.51    0.31
  -4   1  -7    3.55    0.33
  -4   1  -7    2.64    0.27
   4   1   7    3.28    0.33
   4   1   8    5.39    0.33
  -4   1  -8    5.02    0.31
  -4   1  -8    3.99    0.25
  -4   1  -8    5.30    0.31
   4   1   8    4.91    0.31
   4   1   8    5.07    0.33
  -4   2  11   39.42    1.05
   4   2 -11   41.11    1.12
   4   2 -11   43.22    1.15
  -4   2  11   42.02    1.13
   4   2 -11   40.45    1.12
  -4   2  10   22.89    0.88
   4   2 -10   24.46    0.94
   4   2 -10   24.16    0.93
   4   2 -10   24.20    0.95
   4   2  -9   37.60    1.26
  -4   2   9   34.65    1.12
   4   2  -9   35.97    1.21
   4   2  -9   35.19    1.23
   4   2  -9   35.60    1.25
   4   2  -8   79.70    2.01
   4   2  -8   75.74    1.94
   4   2  -8   75.29    1.96
   4   2  -8   76.96    2.00
   4   2  -7   33.83    1.13
   4   2  -7   32.95    1.11
   4   2  -7   33.76    1.03
  -4   2   7   32.85    1.18
   4   2  -7   32.51    1.10
   4   2  -7   32.34    1.12
   4   2  -6   65.97    1.63
   4   2  -6   68.33    1.59
  -4   2   6   63.20    1.68
  -4   2   5   76.06    1.57
   4   2  -5   78.49    1.59
  -4   2   4   74.49    1.48
  -4   2   4   73.75    1.63
  -4   2   4   71.64    1.64
   4   2  -4   73.90    1.55
  -4   2   4   78.37    1.57
   4   2  -3  177.69    3.05
   4   2  -3  169.42    2.83
  -4   2   3  176.83    3.08
  -4   2   3  168.05    3.12
   4   2  -3  177.37    3.05
   4   2  -2   45.82    1.08
   4   2  -2   42.78    0.97
  -4   2   2   45.40    1.07
  -4   2   2   45.27    1.14
   4   2  -2   44.42    1.04
   4   2  -1   13.01    0.50
   4   2  -1   13.93    0.50
  -4   2   1   13.30    0.50
  -4   2   1   12.88    0.51
   4   2  -1   12.70    0.45
   4   2   0  166.07    2.94
  -4   2   0  168.59    2.97
   4   2   0  164.38    2.96
  -4   2   0  175.31    3.07
   4   2   0  159.37    2.78
  -4   2   0  174.50    2.99
  -4   2  -1   84.26    1.70
  -4   2  -1   85.19    1.80
   4   2   1   81.99    1.81
  -4   2  -1   83.83    1.82
  -4   2  -1   81.33    1.70
   4   2   1   86.33    1.70
   4   2   2  101.85    2.21
  -4   2  -2  104.19    2.20
  -4   2  -2  102.94    2.02
  -4   2  -2  102.12    2.02
   4   2   3   63.33    1.63
  -4   2  -3   62.59    1.54
  -4   2  -3   61.77    1.59
  -4   2  -3   56.75    1.48
  -4   2  -3   58.27    1.46
  -4   2  -3   61.18    1.50
  -4   2  -4  207.98    3.83
  -4   2  -4  199.29    3.87
   4   2   4  209.62    3.96
  -4   2  -5   26.10    1.02
  -4   2  -5   29.23    1.07
  -4   2  -5   27.38    1.03
   4   2   5   28.92    1.11
   4   2   5   27.04    1.05
   4   2   6   13.66    0.71
  -4   2  -6   14.39    0.71
  -4   2  -6   14.41    0.70
  -4   2  -6   14.35    0.70
   4   2   6   13.73    0.75
   4   2   6   14.28    0.74
   4   2   7   20.94    0.80
  -4   2  -7   20.87    0.79
  -4   2  -7   21.31    0.76
   4   2   7   22.18    0.86
  -4   2  -7   20.22    0.74
  -4   2  -7   20.28    0.74
   4   2   7   21.89    0.84
  -4   2  -8   47.82    1.13
   4   2   8   63.45    1.32
   4   3 -11   34.19    0.96
   4   3 -11   33.26    0.90
  -4   3  11   33.37    0.90
   4   3 -11   34.26    0.95
  -4   3  10   36.12    1.10
   4   3 -10   38.84    1.20
   4   3 -10   37.86    1.18
   4   3 -10   37.50    1.14
   4   3  -9   31.11    1.13
   4   3  -9   34.86    1.21
   4   3  -9   33.51    1.18
   4   3  -8   43.40    1.25
   4   3  -8   44.26    1.40
   4   3  -8   41.61    1.36
   4   3  -7   89.81    2.02
   4   3  -7   88.49    2.14
   4   3  -7   85.64    2.11
  -4   3   6   62.27    1.64
   4   3  -6   66.22    1.68
   4   3  -6   64.73    1.60
   4   3  -6   65.48    1.67
   4   3  -5  173.78    3.07
  -4   3   5  165.58    3.18
  -4   3   4   53.55    1.40
  -4   3   4   56.56    1.37
   4   3  -3  195.56    3.29
  -4   3   3  189.01    3.40
   4   3  -2  120.62    2.34
   4   3  -2  125.69    2.26
  -4   3   2  120.28    2.26
   4   3  -1   72.20    1.60
   4   3  -1   73.25    1.59
  -4   3   1   73.24    1.55
  -4   3   1   74.67    1.70
  -4   3   1   75.50    1.68
   4   3   0   46.46    1.15
   4   3   0   44.02    1.18
  -4   3   0   44.69    1.19
   4   3   1   14.38    0.57
   4   3   1   14.03    0.62
  -4   3  -1   13.81    0.60
  -4   3  -2    6.68    0.45
   4   3   2    7.42    0.47
  -4   3  -2    6.88    0.42
  -4   3  -2    7.05    0.45
  -4   3  -2    7.54    0.46
  -4   3  -2    6.84    0.44
   4   3   3   91.72    2.17
  -4   3  -3   86.95    2.14
  -4   3  -3   95.48    2.17
  -4   3  -3   88.35    2.07
  -4   3  -3   93.73    2.16
  -4   3  -3   90.85    2.02
  -4   3  -3   89.63    2.03
  -4   3  -4   33.78    1.09
  -4   3  -4   32.44    1.16
  -4   3  -4   30.39    1.07
   4   3   4   34.24    1.15
  -4   3  -5   18.07    0.82
  -4   3  -5   17.47    0.72
  -4   3  -5   17.97    0.80
   4   3   5   19.66    0.86
  -4   3  -6    2.93    0.31
  -4   3  -6    3.04    0.31
  -4   3  -6    3.08    0.31
   4   3   6    2.63    0.32
   4   3   6    2.66    0.30
  -4   3  -7   15.59    0.62
  -4   3  -7   15.40    0.59
   4   3   7   14.92    0.65
   4   3   7   15.75    0.63
   4   4 -10   19.13    0.75
   4   4 -10   18.63    0.74
   4   4  -9    4.72    0.36
   4   4  -9    5.21    0.43
   4   4  -9    4.71    0.40
   4   4  -8    7.37    0.48
   4   4  -8    7.60    0.56
   4   4  -8    7.41    0.54
   4   4  -8    8.40    0.53
   4   4  -7   30.09    1.16
   4   4  -7   30.91    1.09
   4   4  -6   16.46    0.78
   4   4  -6   17.50    0.74
  -4   4   6   15.37    0.75
   4   4  -6   17.72    0.72
   4   4  -6   18.24    0.77
   4   4  -6   14.88    0.72
   4   4  -5   43.57    1.18
   4   4  -5   42.21    1.28
   4   4  -5   40.92    1.20
   4   4  -5   41.02    1.16
   4   4  -5   42.74    1.25
   4   4  -4    9.96    0.51
  -4   4   4    8.18    0.48
  -4   4   4    9.17    0.55
   4   4  -3   68.11    1.59
   4   4  -3   64.85    1.46
  -4   4   3   63.26    1.59
  -4   4   3   62.50    1.64
   4   4  -2   85.85    1.83
   4   4  -2   84.03    1.89
  -4   4   2   87.41    2.00
  -4   4   2   84.65    1.95
   4   4  -1   40.40    1.16
   4   4  -1   42.36    1.16
  -4   4   1   41.91    1.23
   4   4   0   45.64    1.22
   4   4   0   42.50    1.22
  -4   4   0   43.03    1.17
  -4   4   0   41.31    1.28
  -4   4   0   41.81    1.24
  -4   4  -1   76.79    1.81
   4   4   1   78.87    1.74
  -4   4  -1   72.89    1.74
   4   4   1   75.15    1.84
  -4   4  -1   72.25    1.80
  -4   4  -1   74.47    1.78
  -4   4  -1   71.75    1.77
  -4   4  -2   16.80    0.77
   4   4   2   17.54    0.79
  -4   4  -2   16.17    0.74
  -4   4  -2   16.64    0.75
  -4   4  -2   17.03    0.75
  -4   4  -2   17.34    0.76
  -4   4  -2   17.20    0.74
  -4   4  -3   61.39    1.70
  -4   4  -3   63.77    1.72
  -4   4  -3   66.69    1.70
  -4   4  -3   59.08    1.58
  -4   4  -4   15.78    0.73
  -4   4  -4   15.38    0.71
  -4   4  -4   16.08    0.78
  -4   4  -5   37.47    1.12
  -4   4  -5   39.01    1.20
   4   4   5   38.11    1.25
  -4   4  -6   44.47    1.21
  -4   4  -6   43.60    1.24
  -4   4  -6   42.36    1.20
   4   4   6   43.97    1.26
   4   4   7   13.48    0.56
  -4   4  -7   12.48    0.48
  -4   4  -7   12.28    0.49
  -4   4  -7   13.68    0.50
   4   5 -10   22.23    0.74
   4   5 -10   22.18    0.74
   4   5  -9   31.36    0.95
   4   5  -9   32.61    1.07
   4   5  -9   31.43    1.05
   4   5  -8   17.62    0.82
   4   5  -8   16.71    0.80
   4   5  -7   16.02    0.81
   4   5  -6   35.60    1.24
   4   5  -6   34.28    1.22
   4   5  -6   36.09    1.19
   4   5  -6   34.09    1.13
   4   5  -5   32.46    1.16
   4   5  -5   32.19    1.16
   4   5  -5   33.09    1.09
   4   5  -5   34.41    1.14
   4   5  -4   32.32    1.14
   4   5  -4   36.47    1.14
   4   5  -4   34.21    1.16
   4   5  -4   33.05    1.11
  -4   5   4   32.84    1.18
   4   5  -4   33.09    1.09
   4   5  -3   47.70    1.35
   4   5  -3   49.13    1.42
   4   5  -3   49.13    1.42
   4   5  -3   50.41    1.40
   4   5  -3   49.93    1.32
  -4   5   3   45.90    1.44
   4   5  -2   10.54    0.57
   4   5  -2   11.01    0.60
   4   5  -2   11.80    0.58
  -4   5   2    9.35    0.58
  -4   5   2   11.05    0.61
  -4   5   2   10.62    0.62
   4   5  -1   68.49    1.74
   4   5  -1   74.38    1.78
  -4   5   1   67.28    1.77
  -4   5   1   67.94    1.66
  -4   5   1   69.90    1.84
   4   5  -1   75.41    1.80
   4   5   0   26.35    0.95
   4   5   0   23.57    0.93
  -4   5   0   24.84    0.92
  -4   5   0   24.74    0.99
  -4   5   0   23.46    0.88
   4   5   1   19.94    0.80
  -4   5  -1   19.11    0.83
  -4   5  -1   20.41    0.84
  -4   5  -1   21.13    0.84
  -4   5  -1   18.76    0.82
  -4   5  -2    5.92    0.45
  -4   5  -2    5.51    0.44
  -4   5  -2    6.20    0.46
  -4   5  -2    5.98    0.44
  -4   5  -3   16.33    0.79
  -4   5  -3   16.54    0.80
  -4   5  -3   16.24    0.77
  -4   5  -3   15.44    0.72
  -4   5  -4    7.02    0.47
  -4   5  -4    7.44    0.52
  -4   5  -4    6.40    0.43
  -4   5  -5    4.36    0.33
  -4   5  -5    4.37    0.38
  -4   5  -5    4.25    0.34
   4   5   5    4.32    0.38
   4   5   6   10.51    0.51
  -4   5  -6   10.69    0.51
   4   6  -9   10.10    0.44
   4   6  -9   10.83    0.50
   4   6  -9   10.40    0.50
   4   6  -8    3.47    0.30
   4   6  -8    3.84    0.35
   4   6  -8    3.86    0.35
   4   6  -7    2.82    0.33
   4   6  -7    2.85    0.33
   4   6  -6   37.00    1.25
   4   6  -6   35.92    1.19
   4   6  -6   35.18    1.12
   4   6  -5   17.27    0.82
   4   6  -5   17.30    0.83
   4   6  -5   16.43    0.79
   4   6  -5   17.05    0.79
   4   6  -4   38.24    1.28
   4   6  -4   36.26    1.26
   4   6  -4   37.02    1.26
   4   6  -4   38.13    1.25
   4   6  -3   28.57    1.08
   4   6  -3   29.83    1.11
   4   6  -2    2.36    0.30
   4   6  -2    2.42    0.31
   4   6  -1   56.28    1.61
  -4   6   1   54.72    1.50
   4   6   0   12.39    0.67
  -4   6   0   13.54    0.68
  -4   6  -1   98.59    2.31
  -4   6  -1   98.01    2.28
  -4   6  -1   90.93    2.18
  -4   6  -1   94.90    2.27
  -4   6  -2    7.82    0.52
  -4   6  -2    7.60    0.53
  -4   6  -2    8.44    0.56
  -4   6  -2    7.98    0.52
  -4   6  -3   14.72    0.72
  -4   6  -3   15.28    0.75
  -4   6  -3   14.82    0.73
  -4   6  -3   13.84    0.66
   4   6   4   24.42    0.90
  -4   6  -4   24.90    0.88
  -4   6  -4   23.80    0.91
   4   6   5   14.95    0.62
  -4   6  -5   13.55    0.53
  -4   6  -5   14.89    0.62
   4   7  -8    3.27    0.26
   4   7  -8    3.36    0.26
   4   7  -8    3.20    0.26
   4   7  -7    5.48    0.39
   4   7  -7    5.67    0.40
   4   7  -6   11.83    0.62
   4   7  -6   10.75    0.56
   4   7  -6   11.67    0.61
   4   7  -5   22.72    0.93
   4   7  -5   24.61    0.98
   4   7  -5   25.54    0.99
   4   7  -5   25.43    0.97
   4   7  -4    3.71    0.36
   4   7  -4    3.56    0.37
   4   7  -4    3.60    0.37
   4   7  -4    3.50    0.36
   4   7  -3   23.41    0.95
   4   7  -3   24.60    1.01
   4   7  -3   24.55    0.99
   4   7  -2    7.93    0.53
   4   7  -2    7.76    0.55
   4   7  -1   46.47    1.41
   4   7  -1   47.43    1.49
  -4   7   1   45.75    1.36
   4   7   0    7.14    0.50
  -4   7   0    7.07    0.50
  -4   7   0    7.40    0.50
   4   7   1    2.01    0.27
  -4   7  -1    2.67    0.31
  -4   7  -1    2.69    0.31
  -4   7  -1    2.34    0.27
  -4   7  -1    2.52    0.30
  -4   7  -2    9.77    0.55
  -4   7  -2   10.48    0.59
  -4   7  -2    9.68    0.55
  -4   7  -3    5.92    0.41
  -4   7  -3    5.57    0.42
  -4   7  -3    5.78    0.40
  -4   7  -3    6.25    0.38
   4   7   4    1.55    0.19
  -4   7  -4    1.83    0.21
  -4   7  -4    1.40    0.18
   4   8  -6    4.84    0.31
   4   8  -6    5.75    0.36
   4   8  -5    3.92    0.33
   4   8  -5    4.21    0.34
   4   8  -4    6.96    0.46
   4   8  -4    7.37    0.48
   4   8  -3    9.33    0.55
   4   8  -3    9.32    0.57
   4   8  -3    9.30    0.56
   4   8  -2    9.78    0.59
   4   8  -2    9.72    0.57
  -4   8   2    9.53    0.52
   4   8  -1    1.04    0.20
  -4   8   1    1.48    0.22
  -4   8   1    1.73    0.23
   4   8   0    9.44    0.55
  -4   8   0    9.16    0.52
  -4   8   0    9.98    0.55
  -4   8   0   10.28    0.57
   4   8   1   11.45    0.59
  -4   8  -1   12.30    0.59
  -4   8  -1   11.87    0.60
  -4   8  -1   11.98    0.59
   4   8   2   17.86    0.70
  -4   8  -2   18.41    0.71
  -4   8  -2   18.52    0.66
  -4   8  -2   17.79    0.66
   4   8   3   12.70    0.52
  -4   8  -3   14.28    0.55
  -4   8  -3   14.43    0.56
  -4   8  -3   14.48    0.53
   4   9  -4   14.92    0.58
   4   9  -4   18.04    0.63
   4   9  -3    9.65    0.44
   4   9  -3    9.48    0.42
   4   9  -3   10.37    0.50
  -4   9   3    9.58    0.44
   4   9  -2   12.65    0.52
   4   9  -2   13.82    0.59
  -4   9   2   12.52    0.54
   4   9  -1    1.40    0.17
   4   9  -1    1.70    0.20
  -4   9   1    1.40    0.17
   4   9  -1    1.39    0.19
  -4   9   1    1.61    0.20
   4   9   0    1.71    0.18
   4   9   0    1.77    0.20
  -4   9   0    1.91    0.20
  -4   9   0    1.86    0.19
   4   9   0    1.66    0.20
  -4   9   0    1.66    0.19
   4   9   1    5.71    0.32
  -4   9  -1    6.03    0.33
  -4   9  -1    5.92    0.32
  -4   9  -1    5.99    0.32
   5  -9  -5   12.08    0.44
   5  -9  -4   15.21    0.53
  -5  -9   4   14.78    0.52
   5  -9  -4   14.59    0.52
   5  -9  -4   13.82    0.50
   5  -9  -3    7.07    0.38
   5  -9  -3    6.11    0.32
  -5  -9   3    7.46    0.37
   5  -9  -3    5.44    0.29
  -5  -9   3    7.61    0.40
  -5  -9   2    1.88    0.19
   5  -9  -2    2.10    0.21
   5  -9  -1    5.18    0.32
  -5  -9   1    5.59    0.31
  -5  -9   0    5.25    0.28
   5  -8  -7    9.00    0.39
   5  -8  -7    9.23    0.40
  -5  -8   6   24.80    0.80
   5  -8  -6   25.06    0.81
  -5  -8   6   23.00    0.78
   5  -8  -5   31.58    0.93
   5  -8  -5   30.41    0.98
  -5  -8   5   27.36    0.89
  -5  -8   5   29.48    0.93
  -5  -8   5   28.62    0.92
  -5  -8   5   30.42    1.01
   5  -8  -5   31.62    1.01
   5  -8  -4    9.04    0.51
  -5  -8   4    9.18    0.54
  -5  -8   4    8.45    0.53
   5  -8  -4    8.02    0.50
   5  -8  -3   20.01    0.83
  -5  -8   3   19.34    0.83
   5  -8  -3   18.04    0.77
   5  -8  -2    1.83    0.26
  -5  -8   2    1.45    0.22
   5  -8  -2    1.76    0.24
   5  -8  -2    1.48    0.21
   5  -8  -1   47.07    1.33
   5  -8  -1   48.33    1.38
  -5  -8   1   46.44    1.29
  -5  -8   1   45.52    1.36
  -5  -8   0   38.89    1.12
   5  -8   0   40.06    1.18
   5  -8   0   40.38    1.16
  -5  -8   0   37.22    1.12
   5  -8   0   39.82    1.18
  -5  -8   0   38.17    1.12
  -5  -8  -1    7.33    0.41
   5  -8   1    6.96    0.42
   5  -8   1    7.68    0.45
  -5  -8  -1    6.57    0.42
   5  -8   2    8.41    0.43
  -5  -8  -2    9.19    0.41
   5  -8   2    9.68    0.45
  -5  -8  -2    9.78    0.46
  -5  -7   8    0.80    0.15
   5  -7  -8    0.86    0.12
   5  -7  -8    0.90    0.13
   5  -7  -8    0.96    0.16
  -5  -7   8    0.96    0.16
   5  -7  -8    0.99    0.15
   5  -7  -7    8.32    0.49
   5  -7  -7    8.89    0.48
   5  -7  -7    7.65    0.45
  -5  -7   7    9.95    0.55
  -5  -7   7    8.16    0.45
  -5  -7   7    9.41    0.53
  -5  -7   6   17.05    0.79
   5  -7  -6   15.35    0.75
  -5  -7   6   16.05    0.76
  -5  -7   6   16.08    0.76
   5  -7  -6   16.01    0.74
  -5  -7   5    4.61    0.40
   5  -7  -5    4.35    0.38
  -5  -7   5    4.20    0.40
   5  -7  -5    4.38    0.41
  -5  -7   5    4.36    0.42
   5  -7  -5    4.09    0.41
  -5  -7   4   33.57    1.21
   5  -7  -4   35.33    1.22
  -5  -7   4   32.74    1.15
   5  -7  -4   36.26    1.30
  -5  -7   4   35.03    1.16
  -5  -7   4   36.76    1.30
  -5  -7   3    7.22    0.55
   5  -7  -3    7.72    0.56
   5  -7  -3    7.64    0.54
  -5  -7   3    6.87    0.53
   5  -7  -2    6.53    0.52
   5  -7  -2    6.96    0.52
  -5  -7   2    6.63    0.51
  -5  -7   1    6.38    0.51
   5  -7  -1    6.73    0.51
  -5  -7   1    5.64    0.44
   5  -7  -1    6.48    0.50
  -5  -7   1    6.26    0.47
   5  -7  -1    5.95    0.48
  -5  -7   0    2.42    0.30
   5  -7   0    2.46    0.30
   5  -7   0    2.79    0.34
   5  -7   0    2.63    0.31
  -5  -7   0    2.68    0.30
  -5  -7   0    2.32    0.32
   5  -7   1   16.40    0.71
   5  -7   1   17.64    0.82
  -5  -7  -1   16.69    0.73
   5  -7   1   17.10    0.78
  -5  -7  -1   17.93    0.84
   5  -7   2    1.99    0.26
  -5  -7  -2    1.56    0.21
  -5  -7  -2    1.71    0.21
   5  -7   2    2.05    0.25
  -5  -7  -2    1.39    0.23
  -5  -7  -3    7.60    0.40
  -5  -7  -3    7.05    0.38
   5  -7   3    7.26    0.41
  -5  -7  -3    7.74    0.46
  -5  -7  -4   16.68    0.52
  -5  -6   9   22.88    0.77
   5  -6  -9   22.56    0.77
  -5  -6   9   22.29    0.77
   5  -6  -9   23.12    0.75
   5  -6  -8    6.23    0.44
   5  -6  -8    6.04    0.38
   5  -6  -8    5.87    0.38
  -5  -6   8    5.79    0.43
   5  -6  -8    5.87    0.43
  -5  -6   8    5.84    0.44
   5  -6  -7   43.56    1.32
   5  -6  -7   45.77    1.47
   5  -6  -7   45.02    1.44
   5  -6  -7   47.91    1.45
  -5  -6   7   45.15    1.36
  -5  -6   6   15.54    0.80
  -5  -6   6   16.22    0.84
   5  -6  -6   14.62    0.79
   5  -6  -6   15.22    0.83
  -5  -6   6   14.48    0.79
   5  -6  -6   14.74    0.81
   5  -6  -5   50.53    1.62
  -5  -6   5   47.58    1.47
  -5  -6   5   49.53    1.61
   5  -6  -5   48.59    1.47
  -5  -6   5   51.26    1.60
   5  -6  -5   49.82    1.61
  -5  -6   5   50.37    1.56
  -5  -6   4  118.18    2.76
   5  -6  -4  118.22    2.74
  -5  -6   4  120.33    2.79
  -5  -6   4  115.81    2.72
   5  -6  -4  115.95    2.81
  -5  -6   4  120.36    2.70
  -5  -6   4  122.99    2.86
   5  -6  -4  125.85    2.79
  -5  -6   3   39.09    1.37
  -5  -6   3   36.10    1.33
   5  -6  -3   39.05    1.37
  -5  -6   3   36.28    1.23
   5  -6  -3   38.47    1.37
   5  -6  -3   39.68    1.35
  -5  -6   3   38.31    1.36
   5  -6  -3   39.33    1.32
   5  -6  -2  138.11    3.02
   5  -6  -2  134.53    3.03
   5  -6  -2  128.33    3.01
  -5  -6   2  135.93    3.00
   5  -6  -2  134.08    2.95
  -5  -6   1    5.81    0.50
   5  -6  -1    6.84    0.53
   5  -6  -1    6.32    0.51
  -5  -6   1    5.44    0.47
  -5  -6   1    5.57    0.45
   5  -6  -1    6.49    0.49
  -5  -6   1    6.12    0.50
   5  -6   0   82.40    2.04
  -5  -6   0   80.87    2.08
   5  -6   0   84.08    2.18
   5  -6   0   81.99    2.11
  -5  -6   0   80.18    1.94
   5  -6   0   80.31    2.07
  -5  -6   0   82.25    2.17
  -5  -6   0   79.47    1.99
   5  -6   1   49.00    1.42
  -5  -6  -1   45.59    1.38
  -5  -6  -1   45.90    1.38
   5  -6   1   50.36    1.57
   5  -6   1   47.28    1.41
   5  -6   1   47.37    1.52
   5  -6   1   46.59    1.44
  -5  -6  -1   49.47    1.58
   5  -6   2    1.09    0.22
  -5  -6  -2    0.94    0.19
   5  -6   2    0.98    0.22
   5  -6   2    1.41    0.23
  -5  -6  -2    1.05    0.23
   5  -6   3   24.72    0.98
   5  -6   3   24.25    0.96
  -5  -6  -3   23.92    0.90
   5  -6   3   22.87    0.86
  -5  -6  -3   24.17    0.87
   5  -6   4   10.57    0.56
  -5  -6  -4   11.54    0.50
  -5  -6  -4   10.59    0.52
   5  -6   4   12.02    0.58
   5  -6   4   10.00    0.47
  -5  -6  -4    9.80    0.52
  -5  -6  -5    0.09    0.06
   5  -6   5    0.07    0.06
   5  -5 -10   10.85    0.47
   5  -5 -10   11.66    0.49
  -5  -5  10   10.95    0.47
  -5  -5   9   15.50    0.72
  -5  -5   9   16.23    0.70
   5  -5  -9   16.29    0.71
   5  -5  -9   15.99    0.73
   5  -5  -9   16.12    0.75
  -5  -5   9   15.75    0.66
   5  -5  -8    6.12    0.41
   5  -5  -8    6.47    0.43
  -5  -5   8    7.58    0.53
   5  -5  -8    7.58    0.53
   5  -5  -8    7.55    0.55
   5  -5  -8    6.90    0.52
  -5  -5   8    7.60    0.55
  -5  -5   7    4.81    0.46
   5  -5  -7    4.81    0.44
   5  -5  -7    4.28    0.43
  -5  -5   7    4.29    0.41
   5  -5  -7    4.51    0.45
   5  -5  -6    0.83    0.20
   5  -5  -6    0.95    0.22
   5  -5  -6    0.70    0.19
  -5  -5   6    0.88    0.22
  -5  -5   5   72.97    1.99
   5  -5  -5   72.01    1.88
  -5  -5   5   72.32    1.92
  -5  -5   5   74.83    2.03
   5  -5  -5   73.45    1.96
   5  -5  -5   72.89    1.99
   5  -5  -5   72.72    1.87
  -5  -5   5   72.93    1.89
   5  -5  -5   74.27    1.90
  -5  -5   4   68.13    1.87
   5  -5  -4   70.60    1.93
   5  -5  -4   69.54    1.88
  -5  -5   4   63.82    1.79
   5  -5  -4   68.13    1.77
   5  -5  -4   66.44    1.72
  -5  -5   4   65.92    1.82
   5  -5  -4   65.51    1.84
  -5  -5   3   20.15    0.91
   5  -5  -3   18.71    0.88
   5  -5  -3   19.55    0.88
  -5  -5   3   18.61    0.80
   5  -5  -3   19.96    0.86
   5  -5  -3   19.04    0.82
  -5  -5   3   19.15    0.89
  -5  -5   2    5.16    0.45
   5  -5  -2    6.01    0.48
   5  -5  -2    5.27    0.44
   5  -5  -2    5.73    0.44
   5  -5  -2    5.07    0.41
   5  -5  -1    1.69    0.24
   5  -5  -1    1.85    0.29
  -5  -5   1    1.67    0.26
  -5  -5   1    1.61    0.26
   5  -5  -1    1.75    0.26
   5  -5  -1    1.58    0.26
  -5  -5   1    1.85    0.25
   5  -5  -1    1.45    0.23
   5  -5  -1    1.61    0.24
  -5  -5   1    2.00    0.29
   5  -5   0   53.24    1.50
   5  -5   0   55.37    1.66
  -5  -5   0   56.26    1.58
   5  -5   0   57.16    1.65
   5  -5   0   51.25    1.52
   5  -5   0   54.55    1.55
  -5  -5   0   54.32    1.65
  -5  -5   0   53.62    1.49
  -5  -5   0   51.46    1.54
  -5  -5  -1    8.84    0.55
   5  -5   1    9.79    0.65
  -5  -5  -1    9.56    0.62
   5  -5   1    9.67    0.63
  -5  -5  -1    9.03    0.63
  -5  -5  -1    8.98    0.55
   5  -5   2    2.79    0.36
  -5  -5  -2    3.30    0.36
  -5  -5  -2    3.48    0.35
   5  -5   2    3.65    0.39
  -5  -5  -3    7.25    0.47
   5  -5   3    6.85    0.54
   5  -5   3    6.10    0.49
  -5  -5  -3    5.89    0.49
  -5  -5  -4   10.15    0.58
   5  -5   4   11.00    0.62
  -5  -5  -4   11.08    0.55
  -5  -5  -4   10.62    0.60
  -5  -5  -5   15.79    0.58
   5  -5   5   15.20    0.65
  -5  -5  -5   14.29    0.59
  -5  -5  -6    5.98    0.30
   5  -4 -11   12.82    0.45
   5  -4 -11   12.67    0.46
   5  -4 -10    3.06    0.28
   5  -4 -10    2.81    0.29
  -5  -4  10    2.80    0.27
  -5  -4  10    2.63    0.27
  -5  -4   9   24.85    1.00
  -5  -4   9   23.10    0.91
   5  -4  -9   24.92    0.95
   5  -4  -9   24.55    1.01
  -5  -4   9   24.03    0.95
  -5  -4   9   25.53    1.00
  -5  -4   8   42.75    1.43
  -5  -4   8   43.81    1.41
   5  -4  -8   41.88    1.37
   5  -4  -8   42.61    1.44
  -5  -4   8   41.88    1.44
  -5  -4   8   42.15    1.37
  -5  -4   7   71.24    1.93
  -5  -4   7   72.71    1.98
   5  -4  -7   69.09    1.87
   5  -4  -7   69.07    1.95
  -5  -4   7   67.91    1.81
   5  -4  -7   70.84    1.86
  -5  -4   7   73.68    2.01
  -5  -4   6   59.20    1.64
   5  -4  -6   56.46    1.62
   5  -4  -6   58.24    1.69
  -5  -4   6   57.67    1.66
  -5  -4   6   58.23    1.72
   5  -4  -6   58.78    1.67
   5  -4  -6   56.82    1.57
   5  -4  -6   56.71    1.64
  -5  -4   5   96.47    2.23
  -5  -4   5   96.50    2.23
   5  -4  -5   88.30    2.28
  -5  -4   5   90.22    2.26
   5  -4  -5   93.38    2.16
   5  -4  -5   93.99    2.15
  -5  -4   5   91.98    2.26
   5  -4  -5   97.94    2.25
  -5  -4   5   88.92    2.13
   5  -4  -5   94.16    2.22
   5  -4  -4   85.96    2.09
  -5  -4   4   84.33    2.08
   5  -4  -4   84.73    2.09
  -5  -4   4   83.29    2.05
  -5  -4   4   86.75    2.11
   5  -4  -4   92.00    2.11
   5  -4  -4   86.66    2.05
  -5  -4   4   85.58    2.05
   5  -4  -4   84.34    2.01
   5  -4  -4   87.15    2.01
  -5  -4   3  132.18    2.84
   5  -4  -3  129.47    2.71
   5  -4  -3  131.47    2.72
   5  -4  -3  135.44    2.77
   5  -4  -3  132.92    2.76
   5  -4  -3  134.05    2.80
  -5  -4   3  139.61    2.85
  -5  -4   3  131.84    2.80
  -5  -4   2   48.98    1.41
  -5  -4   2   49.71    1.46
   5  -4  -2   51.69    1.45
  -5  -4   2   52.07    1.43
   5  -4  -2   52.35    1.41
  -5  -4   2   51.58    1.36
   5  -4  -1   42.97    1.22
  -5  -4   1   38.93    1.26
  -5  -4   1   43.39    1.30
   5  -4  -1   42.51    1.29
  -5  -4   1   43.47    1.29
   5  -4  -1   40.86    1.22
   5  -4  -1   40.57    1.27
  -5  -4   1   41.70    1.32
  -5  -4   1   42.89    1.30
  -5  -4   1   42.45    1.29
   5  -4  -1   42.01    1.31
  -5  -4   0  196.32    3.75
  -5  -4   0  184.64    3.74
   5  -4   0  189.18    3.77
  -5  -4   0  194.50    3.66
   5  -4   0  190.56    3.72
   5  -4   0  194.92    3.73
  -5  -4   0  183.42    3.75
   5  -4   0  182.38    3.59
  -5  -4   0  188.19    3.75
  -5  -4   0  187.74    3.66
  -5  -4  -1   25.74    1.03
   5  -4   1   26.16    1.05
  -5  -4  -1   25.54    1.06
   5  -4   1   26.00    1.02
  -5  -4  -1   26.78    1.03
  -5  -4  -1   25.71    0.93
  -5  -4  -1   24.87    0.91
  -5  -4  -2   53.68    1.58
   5  -4   2   53.26    1.64
  -5  -4  -2   50.13    1.43
   5  -4   2   50.69    1.55
  -5  -4  -2   51.09    1.57
  -5  -4  -2   53.29    1.63
  -5  -4  -2   49.84    1.55
   5  -4   2   49.63    1.51
   5  -4   3    2.07    0.31
  -5  -4  -3    2.09    0.28
  -5  -4  -3    1.90    0.25
   5  -4   3    1.84    0.29
  -5  -4  -3    2.11    0.30
  -5  -4  -3    2.37    0.32
  -5  -4  -3    1.78    0.27
   5  -4   3    2.22    0.30
   5  -4   4   22.69    0.99
  -5  -4  -4   20.76    0.82
   5  -4   4   21.57    0.92
  -5  -4  -4   22.20    0.84
  -5  -4  -4   20.78    0.90
   5  -4   4   20.91    0.88
   5  -4   5   15.85    0.76
   5  -4   5   17.47    0.75
  -5  -4  -5   16.62    0.65
  -5  -4  -5   17.87    0.75
  -5  -4  -5   16.14    0.67
   5  -4   6   10.41    0.51
  -5  -4  -6   11.34    0.49
  -5  -4  -6    9.32    0.40
   5  -4   6   10.45    0.47
   5  -3 -11    3.97    0.27
   5  -3 -11    4.17    0.31
  -5  -3  11    4.41    0.32
  -5  -3  10    2.43    0.27
   5  -3 -10    2.46    0.27
   5  -3 -10    2.66    0.30
  -5  -3  10    2.71    0.30
  -5  -3   9    9.43    0.62
  -5  -3   9    9.31    0.56
   5  -3  -9   11.15    0.62
   5  -3  -9    9.96    0.63
  -5  -3   9   10.24    0.63
  -5  -3   9   10.18    0.64
  -5  -3   8   14.45    0.79
  -5  -3   8   14.93    0.79
  -5  -3   8   13.07    0.72
   5  -3  -8   13.75    0.71
   5  -3  -8   13.44    0.75
  -5  -3   8   14.51    0.76
   5  -3  -8   14.94    0.77
   5  -3  -8   14.80    0.78
   5  -3  -8   14.71    0.72
  -5  -3   7  153.21    3.27
   5  -3  -7  153.10    3.17
   5  -3  -7  153.11    3.28
  -5  -3   7  160.84    3.35
  -5  -3   7  153.22    3.17
  -5  -3   7  157.06    3.23
   5  -3  -7  160.27    3.25
   5  -3  -7  155.91    3.26
   5  -3  -7  153.70    3.30
  -5  -3   6   17.94    0.82
  -5  -3   6   18.82    0.82
  -5  -3   6   19.50    0.86
  -5  -3   6   17.54    0.80
   5  -3  -6   19.30    0.81
   5  -3  -6   19.01    0.84
   5  -3  -6   17.65    0.80
   5  -3  -6   19.52    0.85
   5  -3  -5   60.76    1.65
  -5  -3   5   56.48    1.56
   5  -3  -5   53.74    1.41
  -5  -3   5   57.47    1.55
   5  -3  -5   55.48    1.53
   5  -3  -5   57.29    1.55
  -5  -3   4   18.59    0.67
   5  -3  -4   18.59    0.78
   5  -3  -4   17.51    0.69
  -5  -3   3   99.58    1.97
   5  -3  -3   95.76    2.11
  -5  -3   2   90.92    1.88
   5  -3  -2   96.01    1.94
  -5  -3   2   94.69    1.95
   5  -3  -1   40.84    1.13
  -5  -3   1   39.74    1.15
  -5  -3   0   55.48    1.52
   5  -3   0   55.38    1.47
  -5  -3  -1    2.84    0.31
   5  -3   1    3.10    0.34
   5  -3   1    2.88    0.31
  -5  -3  -1    3.46    0.36
  -5  -3  -1    2.78    0.30
   5  -3   1    2.99    0.32
  -5  -3  -1    2.74    0.31
   5  -3   1    2.48    0.29
   5  -3   1    3.24    0.33
   5  -3   1    3.29    0.34
  -5  -3  -2    6.43    0.48
   5  -3   2    5.91    0.48
  -5  -3  -2    7.01    0.52
   5  -3   2    6.78    0.48
  -5  -3  -2    7.09    0.51
  -5  -3  -2    5.23    0.44
  -5  -3  -2    7.09    0.51
   5  -3   2    6.74    0.49
   5  -3   2    6.88    0.51
  -5  -3  -3   12.61    0.67
   5  -3   3   11.46    0.70
   5  -3   3   11.49    0.66
  -5  -3  -3   12.07    0.69
  -5  -3  -3   11.18    0.66
  -5  -3  -3   10.80    0.65
  -5  -3  -3   12.02    0.66
   5  -3   3   11.34    0.66
   5  -3   3   11.65    0.69
  -5  -3  -4   35.28    1.15
   5  -3   4   38.42    1.34
   5  -3   4   35.83    1.23
  -5  -3  -4   36.82    1.23
  -5  -3  -4   37.18    1.21
   5  -3   4   35.52    1.24
   5  -3   4   38.30    1.31
   5  -3   5    4.87    0.43
  -5  -3  -5    4.97    0.41
   5  -3   5    4.99    0.40
  -5  -3  -5    4.02    0.38
   5  -3   5    4.72    0.39
   5  -3   5    4.82    0.41
   5  -3   6    6.16    0.42
  -5  -3  -6    6.60    0.39
  -5  -3  -6    6.15    0.39
   5  -3   6    5.96    0.38
   5  -3   6    6.36    0.40
  -5  -2  11   14.75    0.64
   5  -2 -11   15.33    0.65
  -5  -2  11   14.53    0.61
  -5  -2  11   14.30    0.64
  -5  -2  10   18.55    0.81
  -5  -2  10   17.84    0.83
   5  -2 -10   17.41    0.74
   5  -2 -10   17.33    0.80
  -5  -2  10   18.32    0.84
  -5  -2  10   16.13    0.72
   5  -2  -9    3.51    0.35
  -5  -2   9    3.73    0.38
   5  -2  -9    3.89    0.40
  -5  -2   9    4.44    0.41
  -5  -2   9    4.17    0.40
  -5  -2   9    4.06    0.41
   5  -2  -9    3.84    0.39
   5  -2  -9    3.78    0.38
  -5  -2   8   53.66    1.62
   5  -2  -8   51.07    1.57
  -5  -2   8   52.60    1.58
  -5  -2   8   52.19    1.57
   5  -2  -8   50.51    1.57
   5  -2  -8   51.91    1.58
  -5  -2   8   49.78    1.55
   5  -2  -8   49.12    1.50
  -5  -2   7  286.54    5.33
  -5  -2   7  289.41    5.30
  -5  -2   7  299.35    5.35
  -5  -2   7  282.68    5.25
   5  -2  -7  292.22    5.28
  -5  -2   7  287.98    5.16
   5  -2  -7  295.20    5.32
   5  -2  -7  290.35    5.32
   5  -2  -7  295.89    5.34
   5  -2  -7  298.29    5.22
  -5  -2   7  296.40    5.34
  -5  -2   6   55.98    1.57
   5  -2  -6   61.19    1.68
  -5  -2   6   57.27    1.53
  -5  -2   6   58.86    1.58
  -5  -2   6   57.74    1.53
   5  -2  -6   58.91    1.57
   5  -2  -6   56.80    1.57
  -5  -2   6   60.08    1.61
   5  -2  -6   57.17    1.56
   5  -2  -6   58.07    1.58
  -5  -2   5   76.76    1.83
   5  -2  -5   82.38    1.94
  -5  -2   5   76.40    1.79
   5  -2  -5   79.49    1.69
  -5  -2   4   39.93    1.12
  -5  -2   4   38.11    1.06
   5  -2  -4   39.85    1.17
   5  -2  -4   38.05    1.01
   5  -2  -3  228.13    3.91
  -5  -2   3  210.22    3.78
  -5  -2   2  240.90    3.95
  -5  -2   2  231.87    4.01
   5  -2  -2  230.23    3.99
   5  -2  -2  233.23    3.91
  -5  -2   1  139.34    2.62
   5  -2  -1  134.65    2.57
  -5  -2   0   50.65    1.34
   5  -2   0   48.12    1.29
   5  -2   1  138.89    2.89
   5  -2   1  139.21    2.88
   5  -2   2   11.20    0.64
  -5  -2  -2   13.82    0.67
   5  -2   2   12.12    0.65
   5  -2   2   11.39    0.60
  -5  -2  -2   13.91    0.72
  -5  -2  -2   12.10    0.64
  -5  -2  -2   12.66    0.66
   5  -2   2   13.16    0.70
   5  -2   2   11.18    0.64
   5  -2   2   12.69    0.68
   5  -2   2   12.32    0.66
   5  -2   3   64.60    1.82
  -5  -2  -3   68.80    1.75
   5  -2   3   62.54    1.79
   5  -2   3   63.31    1.70
  -5  -2  -3   70.31    1.84
  -5  -2  -3   67.36    1.77
   5  -2   3   64.60    1.82
   5  -2   3   66.09    1.85
  -5  -2  -3   70.36    1.80
   5  -2   4   40.41    1.40
  -5  -2  -4   43.38    1.29
   5  -2   4   44.00    1.43
   5  -2   4   39.24    1.29
  -5  -2  -4   42.66    1.38
  -5  -2  -4   42.23    1.31
  -5  -2  -4   42.08    1.29
   5  -2   4   44.31    1.43
   5  -2   4   42.44    1.43
   5  -2   5    1.55    0.26
  -5  -2  -5    1.57    0.24
  -5  -2  -5    2.00    0.27
  -5  -2  -5    1.65    0.25
   5  -2   5    1.93    0.29
   5  -2   5    1.59    0.25
   5  -2   6   18.16    0.77
  -5  -2  -6   19.23    0.72
  -5  -2  -6   19.90    0.77
   5  -2   6   19.56    0.77
   5  -2   6   18.81    0.79
   5  -2   7    5.47    0.32
   5  -2   7    5.64    0.33
   5  -1 -12   19.39    0.60
  -5  -1  11   17.40    0.73
  -5  -1  11   17.52    0.70
  -5  -1  11   19.39    0.76
   5  -1 -11   20.05    0.76
  -5  -1  10   51.99    1.55
   5  -1 -10   55.15    1.55
  -5  -1  10   53.04    1.56
   5  -1 -10   51.17    1.55
  -5  -1  10   51.25    1.45
   5  -1 -10   49.26    1.50
  -5  -1   9   10.81    0.62
   5  -1  -9   11.52    0.67
  -5  -1   9   10.70    0.64
  -5  -1   9   12.21    0.70
   5  -1  -9   11.57    0.70
   5  -1  -9   10.74    0.67
   5  -1  -9   11.42    0.67
   5  -1  -8    0.30    0.13
  -5  -1   8    0.40    0.16
  -5  -1   8    0.14    0.12
   5  -1  -8    0.57    0.17
  -5  -1   8    0.34    0.13
   5  -1  -8    0.42    0.16
  -5  -1   7   25.80    1.01
   5  -1  -7   27.63    1.05
  -5  -1   7   26.84    0.99
  -5  -1   7   26.89    1.00
  -5  -1   7   25.60    0.91
  -5  -1   7   24.37    0.88
   5  -1  -7   26.64    1.02
   5  -1  -7   23.67    0.97
   5  -1  -7   25.13    0.98
   5  -1  -7   24.72    0.95
  -5  -1   6    5.60    0.36
   5  -1  -6    6.52    0.47
  -5  -1   6    5.97    0.43
  -5  -1   5   18.22    0.72
  -5  -1   5   17.46    0.60
  -5  -1   5   17.70    0.71
   5  -1  -5   18.95    0.59
  -5  -1   4   21.66    0.74
  -5  -1   4   23.08    0.63
   5  -1  -4   22.58    0.80
  -5  -1   4   20.49    0.74
   5  -1  -4   19.95    0.61
   5  -1  -3   21.86    0.74
  -5  -1   3   20.70    0.71
   5  -1  -2   58.39    1.33
  -5  -1   2   58.86    1.38
  -5  -1   2   57.67    1.34
   5  -1  -2   59.27    1.24
   5  -1  -1   73.08    1.51
  -5  -1   1   78.73    1.70
  -5  -1   1   77.59    1.59
  -5  -1   0   90.59    1.88
   5  -1   0   79.32    1.78
  -5  -1  -1   21.93    0.83
   5  -1   1   19.74    0.76
   5  -1   2   15.55    0.74
  -5  -1  -2   16.42    0.72
   5  -1   2   15.39    0.70
  -5  -1  -2   14.93    0.66
  -5  -1  -2   17.15    0.78
  -5  -1  -2   16.51    0.73
  -5  -1  -2   16.28    0.73
   5  -1   2   15.21    0.74
   5  -1   2   15.36    0.70
   5  -1   3   19.62    0.89
  -5  -1  -3   21.66    0.86
   5  -1   3   20.48    0.87
  -5  -1  -3   19.25    0.83
  -5  -1  -3   21.91    0.91
  -5  -1  -3   20.24    0.87
   5  -1   3   20.03    0.86
   5  -1   3   19.76    0.90
   5  -1   4   21.78    0.97
  -5  -1  -4   21.01    0.84
   5  -1   4   20.18    0.90
   5  -1   4   21.26    0.91
  -5  -1  -4   21.39    0.91
  -5  -1  -4   21.81    0.93
   5  -1   4   21.60    0.98
   5  -1   5   16.96    0.85
   5  -1   5   16.87    0.80
  -5  -1  -5   18.92    0.83
  -5  -1  -5   19.29    0.85
  -5  -1  -5   18.37    0.82
   5  -1   5   16.75    0.77
   5  -1   5   19.19    0.90
   5  -1   5   17.75    0.88
   5  -1   6    0.77    0.19
   5  -1   6    0.91    0.18
  -5  -1  -6    1.23    0.20
  -5  -1  -6    1.05    0.18
   5  -1   6    0.95    0.20
   5  -1   6    0.80    0.18
  -5  -1  -7    0.75    0.14
  -5  -1  -7    0.90    0.14
   5  -1   7    1.00    0.16
   5  -1   7    0.87    0.15
   5   0 -12   12.10    0.45
  -5   0  11   17.54    0.73
  -5   0  11   17.46    0.75
   5   0 -11   19.08    0.74
  -5   0  11   18.59    0.77
  -5   0  10   28.68    1.07
   5   0 -10   26.64    0.93
   5   0 -10   28.13    1.04
  -5   0  10   27.12    0.98
   5   0 -10   26.09    1.05
   5   0 -10   25.73    0.92
  -5   0   9   55.24    1.64
   5   0  -9   54.67    1.50
   5   0  -9   55.32    1.60
  -5   0   9   56.45    1.59
   5   0  -9   55.04    1.67
  -5   0   9   52.48    1.50
   5   0  -9   53.39    1.63
   5   0  -9   55.98    1.52
   5   0  -9   55.43    1.65
  -5   0   8  342.79    5.93
   5   0  -8  330.94    5.81
   5   0  -8  331.15    5.81
  -5   0   8  351.46    5.99
   5   0  -8  334.22    6.05
   5   0  -8  336.00    6.03
   5   0  -8  333.91    6.02
  -5   0   7  167.93    3.36
  -5   0   7  164.27    3.23
   5   0  -7  169.76    3.42
  -5   0   7  171.92    3.34
  -5   0   7  166.05    3.19
   5   0  -7  164.33    3.37
   5   0  -7  170.41    3.38
   5   0  -7  165.62    3.32
   5   0  -7  164.04    3.34
  -5   0   6  117.61    2.47
  -5   0   6  112.61    2.35
  -5   0   5    8.19    0.44
  -5   0   5    7.02    0.38
   5   0  -5    8.10    0.47
  -5   0   4    0.28    0.08
   5   0  -4    0.91    0.15
   5   0  -3  804.94   12.53
  -5   0   3  817.72   12.38
   5   0  -2  125.03    2.17
  -5   0   2  121.31    2.16
  -5   0   2  121.15    2.35
   5   0  -1  118.23    2.20
  -5   0   1  115.13    2.24
  -5   0   1  114.25    2.12
   5   0   0   66.46    1.51
  -5   0   0   67.84    1.51
  -5   0   0   66.31    1.45
   5   0   0   64.21    1.43
   5   0   1  168.46    3.17
  -5   0  -1  172.37    3.16
   5   0   2    4.57    0.38
  -5   0  -2    3.92    0.34
  -5   0  -2    3.66    0.33
  -5   0  -2    3.50    0.32
   5   0   2    3.27    0.34
   5   0   2    3.41    0.34
   5   0   3   35.39    1.22
  -5   0  -3   35.69    1.15
  -5   0  -3   36.16    1.15
  -5   0  -3   37.65    1.22
  -5   0  -3   36.96    1.21
   5   0   3   36.30    1.26
   5   0   3   35.51    1.24
   5   0   4   30.66    1.18
  -5   0  -4   32.12    1.07
  -5   0  -4   32.58    1.13
   5   0   4   31.92    1.21
   5   0   5   50.28    1.58
  -5   0  -5   50.98    1.49
  -5   0  -5   50.06    1.50
  -5   0  -5   52.71    1.52
   5   0   5   53.74    1.64
   5   0   5   52.23    1.60
   5   0   6    0.81    0.19
  -5   0  -6    1.09    0.19
  -5   0  -6    0.86    0.17
  -5   0  -6    1.01    0.19
   5   0   6    1.05    0.19
   5   0   6    1.25    0.22
   5   0   6    1.19    0.22
  -5   0  -7    0.08    0.08
  -5   0  -7    0.10    0.07
  -5   0  -7    0.07    0.05
   5   0   7    0.10    0.06
   5   0   7    0.24    0.10
   5   0   7    0.07    0.07
  -5   1  11   18.79    0.73
   5   1 -11   17.17    0.66
   5   1 -11   18.82    0.71
  -5   1  11   18.58    0.75
   5   1 -11   16.83    0.65
   5   1 -11   19.00    0.76
  -5   1  10   53.19    1.53
   5   1 -10   52.92    1.45
   5   1 -10   54.21    1.50
  -5   1  10   49.57    1.40
   5   1 -10   50.61    1.51
   5   1 -10   53.80    1.46
   5   1 -10   52.62    1.55
   5   1  -9   10.06    0.59
  -5   1   9    9.79    0.58
   5   1  -9   10.55    0.65
   5   1  -9   10.41    0.63
   5   1  -9    9.13    0.57
   5   1  -9   10.59    0.66
   5   1  -8    0.21    0.12
  -5   1   8    0.12    0.09
   5   1  -8    0.26    0.13
   5   1  -8    0.14    0.10
   5   1  -8    0.12    0.09
   5   1  -8    0.22    0.14
  -5   1   7   23.22    0.91
  -5   1   7   22.94    0.89
   5   1  -7   23.08    0.88
   5   1  -7   24.41    0.95
  -5   1   7   23.23    0.84
   5   1  -7   23.31    0.94
   5   1  -7   22.54    0.91
   5   1  -7   23.29    0.87
  -5   1   6    5.77    0.39
  -5   1   6    5.70    0.39
   5   1  -6    6.20    0.44
  -5   1   6    5.86    0.44
   5   1  -6    5.86    0.40
  -5   1   5   18.43    0.67
   5   1  -5   19.36    0.75
  -5   1   5   17.23    0.72
  -5   1   5   18.64    0.65
  -5   1   4   20.10    0.64
  -5   1   4   21.31    0.70
  -5   1   4   19.28    0.73
  -5   1   4   19.53    0.75
  -5   1   3   20.46    0.68
  -5   1   3   21.12    0.73
  -5   1   3   19.85    0.59
   5   1  -2   59.83    1.30
   5   1  -2   59.93    1.24
  -5   1   2   58.31    1.21
  -5   1   2   58.34    1.39
  -5   1   2   57.50    1.41
   5   1  -2   58.72    1.36
  -5   1   1   79.62    1.68
   5   1  -1   79.87    1.64
  -5   1   1   78.08    1.62
  -5   1   1   80.58    1.74
  -5   1   1   77.99    1.72
  -5   1   1   78.99    1.64
   5   1  -1   79.10    1.56
   5   1   0   80.96    1.75
  -5   1   0   80.85    1.72
  -5   1   0   81.28    1.75
  -5   1   0   77.51    1.60
  -5   1   0   78.38    1.68
   5   1   1   21.36    0.80
  -5   1  -1   22.41    0.80
  -5   1  -1   21.73    0.76
   5   1   2   14.09    0.67
  -5   1  -2   14.71    0.69
  -5   1  -2   15.32    0.68
  -5   1  -2   16.70    0.71
   5   1   2   14.75    0.72
   5   1   2   14.99    0.71
  -5   1  -2   13.98    0.64
   5   1   3   17.94    0.82
  -5   1  -3   19.17    0.78
  -5   1  -3   19.85    0.84
   5   1   3   18.35    0.87
   5   1   3   18.43    0.85
   5   1   4   23.30    0.99
  -5   1  -4   24.68    0.92
  -5   1  -4   24.97    0.96
   5   1   4   23.93    1.04
   5   1   4   24.78    1.04
   5   1   5   15.24    0.78
  -5   1  -5   15.19    0.73
  -5   1  -5   17.73    0.81
  -5   1  -5   16.26    0.77
   5   1   5   15.24    0.81
   5   1   5   15.59    0.80
   5   1   6    1.13    0.21
  -5   1  -6    1.46    0.21
  -5   1  -6    1.01    0.17
  -5   1  -6    1.02    0.19
  -5   1  -6    1.43    0.21
   5   1   6    1.44    0.23
   5   1   6    1.02    0.21
   5   1   6    1.25    0.22
  -5   1  -7    0.45    0.11
  -5   1  -7    0.34    0.09
  -5   1  -7    0.42    0.10
   5   1   7    0.42    0.11
   5   1   7    0.40    0.11
   5   1   7    0.41    0.12
  -5   2  11   14.43    0.60
   5   2 -11   13.97    0.58
   5   2 -11   14.20    0.56
  -5   2  11   14.16    0.62
   5   2 -11   14.25    0.59
   5   2 -11   13.17    0.60
   5   2 -10   20.13    0.83
  -5   2  10   19.60    0.77
   5   2 -10   20.31    0.83
   5   2 -10   20.71    0.84
   5   2 -10   21.70    0.90
   5   2  -9    6.50    0.49
   5   2  -9    5.69    0.46
   5   2  -9    5.68    0.45
   5   2  -9    6.43    0.50
   5   2  -8   54.38    1.58
   5   2  -8   53.76    1.58
   5   2  -8   54.38    1.55
   5   2  -8   53.14    1.61
   5   2  -7  282.14    5.07
   5   2  -7  285.14    5.13
  -5   2   7  268.98    5.14
   5   2  -7  271.12    5.07
   5   2  -7  293.28    5.03
   5   2  -7  275.86    5.01
   5   2  -7  282.40    5.04
   5   2  -7  287.17    5.15
  -5   2   6   62.35    1.59
   5   2  -6   65.14    1.62
   5   2  -6   65.40    1.69
  -5   2   6   58.77    1.63
  -5   2   6   57.85    1.60
   5   2  -6   64.73    1.65
   5   2  -6   66.21    1.68
   5   2  -6   65.13    1.62
  -5   2   5   86.19    1.98
   5   2  -5   89.11    1.86
  -5   2   5   92.04    1.86
  -5   2   4   45.57    1.17
  -5   2   4   44.03    1.22
  -5   2   4   41.27    1.23
   5   2  -4   48.64    1.23
   5   2  -4   49.33    1.21
  -5   2   3  205.97    3.68
  -5   2   3  203.15    3.71
  -5   2   3  200.98    3.79
   5   2  -3  209.16    3.69
  -5   2   2  221.63    3.76
   5   2  -2  222.51    3.79
  -5   2   2  223.21    3.96
  -5   2   2  230.58    4.01
   5   2  -2  229.29    3.86
   5   2  -2  232.48    3.96
  -5   2   1  138.22    2.54
   5   2  -1  132.01    2.48
  -5   2   1  127.98    2.45
  -5   2   1  127.95    2.54
  -5   2   1  124.30    2.59
  -5   2   1  128.92    2.53
   5   2  -1  129.34    2.38
   5   2  -1  137.29    2.54
   5   2   0   56.44    1.42
  -5   2   0   57.56    1.41
  -5   2   0   56.52    1.46
  -5   2   0   58.34    1.38
  -5   2   0   58.54    1.38
   5   2   0   60.52    1.41
   5   2   1  134.26    2.74
  -5   2  -1  135.74    2.57
  -5   2  -1  137.34    2.73
  -5   2  -1  132.47    2.72
  -5   2  -2   19.28    0.82
  -5   2  -2   19.33    0.79
  -5   2  -2   19.06    0.79
   5   2   2   18.60    0.82
   5   2   2   18.89    0.79
  -5   2  -2   17.47    0.75
  -5   2  -3   65.72    1.72
  -5   2  -3   69.08    1.80
   5   2   3   68.87    1.87
   5   2   3   67.66    1.80
  -5   2  -3   66.45    1.69
   5   2   4   37.67    1.26
  -5   2  -4   39.76    1.24
  -5   2  -4   40.24    1.31
   5   2   4   41.44    1.40
   5   2   4   38.67    1.32
   5   2   5    2.01    0.27
  -5   2  -5    1.57    0.21
  -5   2  -5    1.80    0.25
  -5   2  -5    1.80    0.26
   5   2   5    2.14    0.31
   5   2   5    1.88    0.27
   5   2   6   19.22    0.75
  -5   2  -6   20.09    0.74
  -5   2  -6   18.16    0.74
  -5   2  -6   18.46    0.75
   5   2   6   18.62    0.80
   5   2   6   18.93    0.81
   5   2   6   18.56    0.78
   5   2   7    8.41    0.38
  -5   2  -7    7.92    0.35
  -5   2  -7    7.67    0.35
   5   2   7    8.10    0.40
   5   2   7    8.88    0.41
   5   2   7    8.58    0.42
  -5   3  11    3.32    0.25
   5   3 -11    3.50    0.27
  -5   3  11    3.53    0.28
   5   3 -11    3.83    0.28
   5   3 -11    3.38    0.26
   5   3 -10    1.79    0.24
   5   3 -10    1.97    0.25
   5   3 -10    1.73    0.24
   5   3  -9   12.29    0.68
   5   3  -9   12.44    0.68
   5   3  -9   13.25    0.70
   5   3  -8   12.91    0.71
   5   3  -8   12.96    0.70
   5   3  -8   12.45    0.71
   5   3  -7  153.49    3.21
   5   3  -7  149.80    3.12
   5   3  -7  156.70    3.23
  -5   3   6   17.38    0.79
   5   3  -6   20.08    0.85
   5   3  -6   19.98    0.83
  -5   3   6   18.67    0.82
   5   3  -6   19.94    0.82
   5   3  -6   21.64    0.85
   5   3  -6   19.95    0.85
  -5   3   5   50.41    1.47
  -5   3   5   58.57    1.43
   5   3  -5   57.46    1.51
   5   3  -5   53.18    1.45
  -5   3   5   54.58    1.46
   5   3  -5   58.54    1.43
  -5   3   4   18.26    0.73
  -5   3   4   18.34    0.78
   5   3  -4   19.63    0.75
  -5   3   4   21.06    0.76
   5   3  -4   19.96    0.74
   5   3  -3  100.25    2.11
  -5   3   3   99.09    2.09
  -5   3   3   99.01    2.22
   5   3  -3   99.91    2.08
   5   3  -2   92.06    1.99
   5   3  -2   94.22    1.91
  -5   3   2   89.09    1.95
  -5   3   2   94.97    2.13
  -5   3   2   91.14    2.07
   5   3  -2   95.08    1.94
   5   3  -1   37.60    1.10
   5   3  -1   40.92    1.11
  -5   3   1   39.99    1.17
   5   3  -1   38.98    1.02
  -5   3   0   55.41    1.40
  -5   3   0   54.84    1.42
   5   3   0   55.27    1.44
  -5   3   0   56.03    1.53
  -5   3   0   53.71    1.42
   5   3   0   54.36    1.39
   5   3   1    2.61    0.29
  -5   3  -1    2.05    0.25
  -5   3  -1    2.33    0.24
  -5   3  -1    2.50    0.26
  -5   3  -1    2.46    0.27
  -5   3  -1    2.56    0.27
  -5   3  -1    2.66    0.29
   5   3   1    2.61    0.30
  -5   3  -1    2.58    0.28
  -5   3  -2    7.98    0.51
  -5   3  -2    8.08    0.52
  -5   3  -2    7.35    0.49
  -5   3  -2    7.39    0.48
  -5   3  -3   10.20    0.59
  -5   3  -3    9.39    0.59
   5   3   3   10.59    0.63
  -5   3  -3    9.54    0.55
  -5   3  -4   37.03    1.17
  -5   3  -4   38.37    1.26
   5   3   4   35.63    1.27
  -5   3  -5    3.73    0.35
   5   3   5    3.84    0.38
   5   3   5    3.81    0.35
   5   3   6    7.94    0.50
  -5   3  -6    8.14    0.42
  -5   3  -6    8.11    0.45
  -5   3  -6    8.53    0.46
   5   3   6    8.11    0.47
   5   3   6    8.40    0.45
   5   4 -10    4.91    0.36
   5   4 -10    4.57    0.33
   5   4  -9   26.24    0.99
   5   4  -9   25.65    0.95
   5   4  -8   42.06    1.37
   5   4  -8   42.91    1.36
   5   4  -7   66.61    1.81
   5   4  -6   50.59    1.51
   5   4  -6   50.18    1.38
   5   4  -6   52.95    1.53
   5   4  -5  108.64    2.43
   5   4  -5  107.91    2.40
   5   4  -5  108.37    2.28
  -5   4   5  109.73    2.32
   5   4  -5  102.39    2.28
   5   4  -4   88.79    2.00
   5   4  -4   88.23    2.07
   5   4  -4   87.51    2.04
  -5   4   4   81.69    2.10
   5   4  -4   90.03    2.02
   5   4  -3  122.61    2.63
   5   4  -3  126.83    2.62
   5   4  -3  128.97    2.68
   5   4  -3  123.39    2.62
  -5   4   3  118.88    2.67
  -5   4   3  124.76    2.73
   5   4  -3  126.61    2.57
   5   4  -2   49.33    1.41
   5   4  -2   47.94    1.36
  -5   4   2   52.76    1.50
   5   4  -2   49.88    1.31
  -5   4   2   51.65    1.49
   5   4  -2   49.71    1.31
   5   4  -1   36.80    1.19
   5   4  -1   34.68    1.11
   5   4  -1   33.96    1.11
   5   4  -1   35.98    1.11
  -5   4   1   34.63    1.20
  -5   4   1   36.78    1.12
  -5   4   1   36.71    1.20
  -5   4   1   36.51    1.14
   5   4   0  197.36    3.74
   5   4   0  202.21    3.86
   5   4   0  197.00    3.81
  -5   4   0  201.21    3.82
  -5   4   0  209.49    3.90
  -5   4   0  202.32    3.74
  -5   4  -1   27.79    0.95
  -5   4  -1   28.45    1.03
  -5   4  -1   25.47    0.96
  -5   4  -1   28.82    1.00
  -5   4  -1   27.26    1.00
   5   4   1   26.89    1.02
  -5   4  -1   25.81    0.98
  -5   4  -2   53.17    1.51
  -5   4  -2   47.67    1.45
  -5   4  -2   49.55    1.46
   5   4   2   48.58    1.51
  -5   4  -2   50.26    1.45
  -5   4  -3    0.58    0.15
  -5   4  -3    0.62    0.17
   5   4   3    1.07    0.22
  -5   4  -3    0.72    0.17
  -5   4  -4   21.45    0.84
  -5   4  -4   21.75    0.90
   5   4   4   22.93    0.98
  -5   4  -4   20.98    0.78
  -5   4  -5   14.92    0.68
   5   4   5   16.88    0.77
   5   4   6   14.83    0.61
  -5   4  -6   14.18    0.55
  -5   4  -6   12.75    0.53
   5   4   6   14.32    0.60
   5   5 -10   11.66    0.51
   5   5  -9   15.29    0.70
   5   5  -8    5.56    0.46
   5   5  -7    4.11    0.40
   5   5  -7    4.18    0.38
   5   5  -6    0.95    0.19
   5   5  -6    0.71    0.19
   5   5  -6    0.94    0.17
   5   5  -6    1.27    0.22
   5   5  -5   75.64    1.97
   5   5  -5   73.91    1.85
   5   5  -5   73.65    1.80
   5   5  -4   69.20    1.86
   5   5  -3   19.31    0.84
   5   5  -3   17.87    0.83
  -5   5   3   16.28    0.80
   5   5  -2    5.83    0.45
   5   5  -2    5.26    0.44
   5   5  -2    5.86    0.42
  -5   5   2    4.98    0.43
  -5   5   2    5.59    0.41
   5   5  -2    5.24    0.40
   5   5  -1    2.58    0.31
  -5   5   1    1.78    0.25
  -5   5   0   59.26    1.62
   5   5   0   54.66    1.57
  -5   5   0   58.08    1.56
   5   5   1    9.36    0.59
  -5   5  -1    9.95    0.60
  -5   5  -1    9.20    0.57
  -5   5  -1    9.18    0.55
  -5   5  -1    9.75    0.59
   5   5   2    2.98    0.35
  -5   5  -2    3.73    0.37
  -5   5  -2    3.47    0.36
  -5   5  -2    2.80    0.32
  -5   5  -2    3.02    0.33
  -5   5  -3    5.89    0.45
  -5   5  -3    5.90    0.46
  -5   5  -3    5.47    0.43
   5   5   3    5.63    0.45
  -5   5  -3    5.29    0.40
   5   5   4   11.34    0.62
  -5   5  -4   10.57    0.55
  -5   5  -4   11.45    0.59
   5   5   4   10.68    0.59
   5   5   5   16.22    0.67
  -5   5  -5   14.76    0.61
   5   5   5   14.32    0.61
   5   6  -9   23.88    0.79
   5   6  -9   23.53    0.78
   5   6  -8    4.12    0.36
   5   6  -8    4.75    0.38
   5   6  -7   43.63    1.37
   5   6  -6   17.40    0.83
   5   6  -6   17.03    0.82
   5   6  -6   18.39    0.80
   5   6  -6   16.75    0.74
   5   6  -5   53.57    1.60
   5   6  -5   52.75    1.59
   5   6  -5   54.18    1.54
   5   6  -5   52.08    1.48
   5   6  -4  116.51    2.69
   5   6  -4  118.95    2.71
   5   6  -4  117.28    2.63
   5   6  -4  114.95    2.56
   5   6  -3   32.12    1.19
   5   6  -3   31.64    1.18
   5   6  -2  136.32    2.93
   5   6  -2  139.63    3.02
   5   6  -2  138.11    3.02
  -5   6   2  133.84    2.84
   5   6  -1    7.52    0.53
   5   6  -1    8.70    0.59
  -5   6   1    8.23    0.54
  -5   6   1    7.50    0.49
  -5   6   1    8.17    0.55
   5   6   0   84.86    2.13
  -5   6   0   81.37    2.07
  -5   6   0   85.00    2.04
   5   6   1   45.95    1.45
  -5   6  -1   46.51    1.42
  -5   6  -1   46.05    1.39
  -5   6  -1   44.16    1.32
  -5   6  -1   45.20    1.40
  -5   6  -2    0.23    0.12
  -5   6  -2    0.55    0.16
  -5   6  -2    0.29    0.12
  -5   6  -2    0.35    0.12
   5   6   3   24.24    0.90
  -5   6  -3   26.37    0.92
  -5   6  -3   25.69    0.94
  -5   6  -3   24.52    0.91
  -5   6  -3   24.56    0.85
   5   6   4   10.62    0.51
  -5   6  -4   10.48    0.49
  -5   6  -4   11.47    0.53
  -5   6  -5    0.55    0.11
   5   7  -8    0.90    0.13
   5   7  -8    0.83    0.14
   5   7  -8    1.00    0.15
   5   7  -7    9.02    0.49
   5   7  -7    9.00    0.50
   5   7  -6   16.73    0.75
   5   7  -6   16.39    0.68
   5   7  -5    4.83    0.41
   5   7  -5    4.55    0.40
   5   7  -5    4.56    0.39
   5   7  -5    4.59    0.38
   5   7  -4   34.36    1.19
   5   7  -4   34.11    1.20
   5   7  -4   34.37    1.18
   5   7  -4   34.28    1.14
   5   7  -3    6.77    0.50
   5   7  -3    8.43    0.57
   5   7  -3    7.24    0.52
   5   7  -2    7.13    0.50
   5   7  -2    7.01    0.52
  -5   7   2    6.67    0.46
   5   7  -1    6.34    0.48
   5   7  -1    6.52    0.50
  -5   7   1    5.91    0.44
  -5   7   1    6.34    0.43
  -5   7   1    6.50    0.48
   5   7   0    1.89    0.26
  -5   7   0    2.23    0.28
  -5   7   0    2.13    0.26
   5   7   1   17.00    0.74
   5   7   1   16.62    0.75
  -5   7  -1   17.49    0.76
  -5   7  -1   17.27    0.75
  -5   7  -1   17.21    0.75
   5   7   2    1.16    0.18
   5   7   2    1.00    0.18
  -5   7  -2    1.55    0.22
  -5   7  -2    1.57    0.20
  -5   7  -2    1.43    0.20
   5   7   3    8.20    0.43
   5   7   3    7.32    0.40
  -5   7  -3    8.21    0.43
  -5   7  -3    8.28    0.41
  -5   7  -3    7.56    0.37
   5   8  -6   25.68    0.81
   5   8  -5   28.56    0.87
   5   8  -5   30.19    0.90
   5   8  -4    8.63    0.47
   5   8  -4    9.64    0.53
   5   8  -4    9.63    0.53
   5   8  -4    9.88    0.52
  -5   8   4    8.92    0.46
   5   8  -3   17.96    0.72
   5   8  -3   18.33    0.77
   5   8  -3   18.63    0.78
   5   8  -3   18.49    0.76
  -5   8   3   19.69    0.75
   5   8  -2    1.76    0.24
  -5   8   2    2.00    0.22
   5   8  -2    2.12    0.26
  -5   8   2    2.30    0.26
   5   8  -1   46.19    1.31
  -5   8   1   45.36    1.23
  -5   8   1   44.77    1.28
   5   8   0   36.41    1.11
  -5   8   0   37.40    1.07
  -5   8   0   34.87    1.00
  -5   8   0   35.13    1.07
   5   8   1    9.27    0.48
  -5   8  -1   10.13    0.48
  -5   8  -1    8.52    0.43
  -5   8  -1    8.78    0.45
   5   8   2    6.85    0.37
   5   9  -3    6.81    0.35
   5   9  -2    1.46    0.17
  -5   9   2    1.85    0.18
   5   9  -1    5.54    0.32
   5   9  -1    5.42    0.31
  -5   9   1    5.85    0.32
   6  -8  -6    9.08    0.43
   6  -8  -5   13.34    0.53
   6  -8  -5   13.29    0.57
  -6  -8   5   13.43    0.55
  -6  -8   5   13.66    0.59
   6  -8  -4   26.50    0.88
   6  -8  -4   26.45    0.86
  -6  -8   4   25.09    0.82
  -6  -8   4   27.10    0.91
  -6  -8   4   26.98    0.90
   6  -8  -3   48.98    1.27
  -6  -8   3   53.69    1.36
  -6  -8   3   52.10    1.29
   6  -8  -2   24.47    0.86
  -6  -8   2   22.37    0.76
   6  -8  -2   22.33    0.81
   6  -8  -1   43.54    1.16
  -6  -8   1   41.39    1.08
  -6  -8   1   39.51    1.12
   6  -8  -1   42.09    1.16
  -6  -8   0    0.73    0.13
   6  -8   0    0.79    0.13
   6  -8   0    0.58    0.13
  -6  -8  -1   35.39    0.84
   6  -7  -8    2.66    0.20
   6  -7  -8    2.84    0.21
   6  -7  -8    3.07    0.24
  -6  -7   8    2.51    0.22
   6  -7  -7   12.11    0.54
  -6  -7   7   12.04    0.57
   6  -7  -7   12.70    0.59
  -6  -7   7   12.84    0.58
  -6  -7   7   11.75    0.55
   6  -7  -7   11.72    0.54
   6  -7  -6   79.84    1.74
  -6  -7   6   78.36    1.88
   6  -7  -6   81.08    1.97
  -6  -7   6   79.00    1.85
  -6  -7   6   80.77    1.94
  -6  -7   5   14.80    0.69
   6  -7  -5   13.82    0.67
  -6  -7   5   14.61    0.68
  -6  -7   5   13.79    0.64
  -6  -7   5   14.09    0.72
  -6  -7   4   43.19    1.35
   6  -7  -4   39.75    1.30
  -6  -7   4   41.58    1.35
  -6  -7   3   24.39    1.00
   6  -7  -3   23.78    0.97
  -6  -7   3   22.91    0.95
  -6  -7   2    3.82    0.38
   6  -7  -2    3.41    0.36
   6  -7  -2    2.88    0.30
  -6  -7   2    3.39    0.32
   6  -7  -2    3.31    0.36
  -6  -7   2    2.93    0.31
  -6  -7   1   54.99    1.54
   6  -7  -1   54.91    1.55
  -6  -7   1   54.34    1.44
  -6  -7   1   51.74    1.38
   6  -7  -1   56.75    1.55
  -6  -7   1   54.65    1.51
   6  -7   0    5.57    0.40
  -6  -7   0    5.92    0.39
   6  -7   0    6.86    0.45
  -6  -7   0    5.80    0.44
   6  -7   1   25.95    0.92
  -6  -7  -1   25.36    0.82
   6  -7   1   25.82    0.87
  -6  -7  -1   26.21    0.93
  -6  -7  -2    8.53    0.39
  -6  -7  -2    8.05    0.37
   6  -7   2    9.50    0.47
   6  -7   2    8.30    0.41
  -6  -7  -2    8.83    0.47
  -6  -6   9    8.95    0.44
   6  -6  -9    8.92    0.44
   6  -6  -9    9.19    0.46
  -6  -6   9    9.44    0.46
   6  -6  -8   37.62    1.07
   6  -6  -8   40.40    1.10
  -6  -6   8   40.92    1.22
   6  -6  -8   41.50    1.23
  -6  -6   8   39.11    1.10
   6  -6  -8   42.19    1.24
  -6  -6   7   24.37    0.99
   6  -6  -7   24.69    1.00
   6  -6  -7   26.06    1.01
  -6  -6   7   24.87    0.99
  -6  -6   7   27.01    1.00
  -6  -6   6    9.04    0.53
   6  -6  -6    9.11    0.53
  -6  -6   6    8.48    0.58
   6  -6  -6    9.86    0.62
  -6  -6   6    9.96    0.61
  -6  -6   6    8.36    0.58
  -6  -6   5   54.52    1.61
   6  -6  -5   53.17    1.58
  -6  -6   5   56.04    1.66
  -6  -6   5   57.50    1.67
   6  -6  -5   56.14    1.71
   6  -6  -5   54.57    1.67
  -6  -6   5   56.15    1.60
  -6  -6   5   56.89    1.72
   6  -6  -5   53.42    1.52
  -6  -6   4   57.22    1.71
   6  -6  -4   58.63    1.72
  -6  -6   4   57.69    1.73
  -6  -6   4   54.79    1.62
   6  -6  -4   58.60    1.75
  -6  -6   4   57.04    1.74
   6  -6  -4   56.58    1.57
  -6  -6   3   97.57    2.44
  -6  -6   3   94.13    2.42
  -6  -6   3   95.74    2.39
   6  -6  -3  100.93    2.46
   6  -6  -3   99.01    2.26
  -6  -6   2   23.52    1.02
   6  -6  -2   21.48    0.97
  -6  -6   2   22.40    0.99
   6  -6  -2   21.64    0.99
  -6  -6   2   20.76    0.92
   6  -6  -2   22.15    0.94
  -6  -6   1    0.74    0.20
  -6  -6   1    0.67    0.16
   6  -6  -1    1.03    0.22
   6  -6  -1    0.80    0.20
  -6  -6   1    1.03    0.19
   6  -6  -1    1.14    0.22
  -6  -6   1    1.04    0.22
  -6  -6   0   64.70    1.73
   6  -6   0   63.94    1.74
  -6  -6   0   62.04    1.63
   6  -6   0   65.29    1.82
   6  -6   0   64.93    1.72
  -6  -6   0   64.50    1.83
   6  -6   1   23.46    0.98
  -6  -6  -1   22.84    0.84
   6  -6   1   20.96    0.91
   6  -6   1   21.06    0.85
  -6  -6  -1   22.74    0.98
   6  -6   2   13.15    0.68
  -6  -6  -2   12.55    0.56
   6  -6   2   12.71    0.65
   6  -6   2   13.45    0.60
  -6  -6  -2   12.00    0.65
   6  -6   3   16.98    0.70
  -6  -6  -3   16.52    0.58
  -6  -6  -3   17.74    0.67
   6  -6   3   17.90    0.70
  -6  -6  -3   17.49    0.70
  -6  -6  -4    4.51    0.27
   6  -5 -10    1.45    0.18
   6  -5 -10    1.32    0.17
  -6  -5  10    1.63    0.18
  -6  -5   9    1.97    0.24
   6  -5  -9    2.27    0.25
   6  -5  -9    2.21    0.27
   6  -5  -9    2.13    0.26
  -6  -5   9    1.89    0.25
  -6  -5   8   16.75    0.80
   6  -5  -8   15.99    0.73
   6  -5  -8   16.77    0.81
   6  -5  -8   14.85    0.76
  -6  -5   8   16.07    0.72
  -6  -5   7   19.87    0.94
   6  -5  -7   19.15    0.85
   6  -5  -7   21.39    0.94
  -6  -5   7   21.05    0.96
  -6  -5   6  148.04    3.04
  -6  -5   6  148.26    3.23
  -6  -5   6  144.07    3.09
   6  -5  -6  143.16    3.00
  -6  -5   6  151.15    3.28
   6  -5  -6  140.46    3.16
   6  -5  -6  146.28    3.26
   6  -5  -6  147.35    3.11
  -6  -5   5    1.35    0.24
  -6  -5   5    1.22    0.23
  -6  -5   5    1.28    0.24
   6  -5  -5    1.57    0.27
   6  -5  -5    1.50    0.26
   6  -5  -5    1.82    0.27
   6  -5  -5    1.42    0.24
  -6  -5   4  105.84    2.61
   6  -5  -4  107.12    2.60
   6  -5  -4  107.12    2.56
   6  -5  -4  116.18    2.63
   6  -5  -4  108.16    2.51
  -6  -5   4  106.57    2.44
   6  -5  -4  110.62    2.48
  -6  -5   4  110.44    2.61
  -6  -5   3   36.00    1.33
   6  -5  -3   39.39    1.34
   6  -5  -3   36.67    1.26
  -6  -5   3   38.67    1.36
   6  -5  -3   37.65    1.22
  -6  -5   2   27.81    1.11
   6  -5  -2   26.79    1.08
   6  -5  -2   28.04    1.10
   6  -5  -2   29.77    1.09
   6  -5  -2   26.99    1.05
  -6  -5   2   27.54    1.09
  -6  -5   2   27.27    1.10
  -6  -5   1   33.51    1.24
  -6  -5   1   33.18    1.20
  -6  -5   1   33.54    1.13
  -6  -5   1   33.14    1.10
   6  -5  -1   33.43    1.23
   6  -5  -1   33.94    1.17
   6  -5  -1   33.12    1.19
  -6  -5   1   33.98    1.26
  -6  -5   1   33.99    1.23
  -6  -5   0   10.92    0.68
  -6  -5   0   12.55    0.66
  -6  -5   0   10.99    0.59
   6  -5   0   10.49    0.65
   6  -5   0   10.75    0.61
   6  -5   0   10.93    0.66
  -6  -5   0   11.77    0.72
  -6  -5   0   11.82    0.66
  -6  -5  -1   81.48    1.96
  -6  -5  -1   84.15    2.17
  -6  -5  -1   81.54    1.95
   6  -5   1   86.69    2.17
   6  -5   1   84.71    2.02
   6  -5   1   84.37    2.12
  -6  -5  -1   88.62    2.26
   6  -5   2    6.99    0.53
  -6  -5  -2    6.71    0.43
   6  -5   2    6.75    0.50
   6  -5   2    6.75    0.49
   6  -5   3    3.92    0.37
  -6  -5  -3    3.85    0.30
   6  -5   3    3.85    0.35
   6  -5   3    3.49    0.32
  -6  -5  -3    4.15    0.37
   6  -5   4    1.83    0.22
   6  -5   4    2.04    0.22
  -6  -5  -4    1.88    0.21
  -6  -5  -5   25.17    0.69
   6  -4 -11    6.51    0.33
   6  -4 -11    5.72    0.31
  -6  -4  10    3.85    0.29
   6  -4 -10    3.74    0.28
   6  -4 -10    3.89    0.33
  -6  -4  10    3.79    0.32
  -6  -4  10    3.51    0.28
  -6  -4   9   53.06    1.50
  -6  -4   9   52.79    1.48
   6  -4  -9   51.03    1.40
   6  -4  -9   54.41    1.53
  -6  -4   9   51.37    1.55
  -6  -4   8   17.79    0.83
  -6  -4   8   18.36    0.87
   6  -4  -8   17.69    0.79
   6  -4  -8   18.19    0.86
  -6  -4   8   19.42    0.92
  -6  -4   7   67.39    1.79
   6  -4  -7   66.99    1.78
   6  -4  -7   67.03    1.87
  -6  -4   7   73.25    2.00
  -6  -4   7   66.77    1.86
   6  -4  -7   68.06    1.81
   6  -4  -7   68.99    1.90
  -6  -4   6   21.84    0.93
   6  -4  -6   22.14    0.95
  -6  -4   6   22.98    1.00
  -6  -4   6   22.37    0.98
   6  -4  -6   21.59    0.95
   6  -4  -6   20.12    0.86
   6  -4  -6   21.89    0.96
  -6  -4   5   37.66    1.28
  -6  -4   5   38.63    1.31
   6  -4  -5   39.58    1.35
   6  -4  -5   38.09    1.27
   6  -4  -5   41.27    1.34
  -6  -4   5   37.99    1.32
   6  -4  -5   39.66    1.32
  -6  -4   5   39.61    1.30
   6  -4  -5   36.76    1.27
   6  -4  -4  293.62    5.39
   6  -4  -4  290.83    5.30
   6  -4  -4  297.58    5.36
  -6  -4   4  300.32    5.29
   6  -4  -4  291.56    5.38
  -6  -4   4  297.56    5.42
   6  -4  -4  291.75    5.36
  -6  -4   4  307.11    5.44
   6  -4  -4  293.86    5.34
  -6  -4   3   33.56    1.13
   6  -4  -3   36.17    1.21
   6  -4  -3   35.93    1.21
  -6  -4   3   33.23    1.18
   6  -4  -3   37.76    1.20
   6  -4  -3   34.56    1.20
  -6  -4   3   34.99    1.23
   6  -4  -3   34.85    1.18
  -6  -4   2   95.38    2.28
  -6  -4   2   97.83    2.35
   6  -4  -2   99.45    2.29
   6  -4  -2   97.07    2.29
   6  -4  -2   98.05    2.23
   6  -4  -2   95.73    2.31
  -6  -4   2   99.56    2.36
  -6  -4   2   94.71    2.25
   6  -4  -2   97.34    2.26
  -6  -4   1   18.82    0.88
   6  -4  -1   18.90    0.88
  -6  -4   1   19.69    0.86
   6  -4  -1   17.45    0.82
   6  -4  -1   19.04    0.80
   6  -4  -1   17.65    0.85
  -6  -4   1   20.78    0.93
  -6  -4   1   18.84    0.85
  -6  -4   1   18.55    0.86
   6  -4  -1   18.11    0.83
  -6  -4   0   14.49    0.77
   6  -4   0   13.93    0.77
  -6  -4   0   15.05    0.72
   6  -4   0   15.24    0.77
   6  -4   0   14.41    0.68
  -6  -4   0   14.54    0.78
  -6  -4   0   14.46    0.73
   6  -4   0   14.91    0.74
  -6  -4  -1   96.54    2.38
   6  -4   1   96.48    2.41
   6  -4   1   95.61    2.33
  -6  -4  -1  104.69    2.50
  -6  -4  -1   96.13    2.34
   6  -4   1   95.02    2.29
  -6  -4  -2   18.16    0.86
   6  -4   2   19.41    0.92
   6  -4   2   17.48    0.83
  -6  -4  -2   18.78    0.87
  -6  -4  -2   19.51    0.91
  -6  -4  -2   19.62    0.90
   6  -4   3   17.11    0.83
  -6  -4  -3   16.32    0.75
   6  -4   3   16.04    0.76
  -6  -4  -3   16.23    0.79
  -6  -4  -3   15.98    0.76
   6  -4   4   30.73    1.07
  -6  -4  -4   29.30    1.01
   6  -4   4   29.83    0.98
  -6  -4  -4   30.31    0.99
   6  -4   5    6.66    0.39
  -6  -4  -5    7.21    0.38
  -6  -3  11    6.10    0.37
   6  -3 -11    5.82    0.35
  -6  -3  11    5.36    0.33
  -6  -3  10    0.74    0.17
   6  -3 -10    0.58    0.15
  -6  -3  10    0.57    0.15
  -6  -3  10    0.76    0.16
  -6  -3   9   12.69    0.70
  -6  -3   9   13.58    0.72
  -6  -3   9   12.38    0.66
   6  -3  -9   13.08    0.70
  -6  -3   9   13.77    0.69
   6  -3  -9   12.71    0.69
  -6  -3   8    4.73    0.43
   6  -3  -8    4.58    0.43
  -6  -3   8    6.32    0.51
  -6  -3   8    4.68    0.40
  -6  -3   8    4.36    0.40
   6  -3  -8    4.89    0.44
   6  -3  -8    4.75    0.44
  -6  -3   7   76.25    1.96
   6  -3  -7   76.54    1.98
  -6  -3   7   78.46    2.00
   6  -3  -7   74.28    1.94
   6  -3  -7   77.87    2.01
   6  -3  -7   73.58    2.01
  -6  -3   6   44.44    1.41
   6  -3  -6   43.09    1.33
  -6  -3   6   41.67    1.34
   6  -3  -6   41.92    1.23
  -6  -3   6   44.35    1.40
   6  -3  -6   42.45    1.31
   6  -3  -6   41.56    1.33
   6  -3  -6   44.65    1.41
   6  -3  -5   16.95    0.83
  -6  -3   5   16.97    0.78
  -6  -3   5   15.49    0.72
   6  -3  -5   16.40    0.70
  -6  -3   5   15.87    0.78
  -6  -3   5   16.69    0.76
   6  -3  -5   16.22    0.74
   6  -3  -5   16.54    0.79
  -6  -3   4   22.74    0.90
   6  -3  -4   22.79    0.91
  -6  -3   4   24.76    0.90
   6  -3  -4   24.71    0.94
  -6  -3   4   23.43    0.93
   6  -3  -4   21.72    0.82
  -6  -3   4   24.36    0.94
   6  -3  -4   22.96    0.92
   6  -3  -4   21.02    0.83
   6  -3  -4   23.11    0.92
  -6  -3   3   29.86    1.02
   6  -3  -3   30.13    1.04
  -6  -3   3   30.27    1.04
  -6  -3   3   30.15    1.07
   6  -3  -3   29.98    1.07
   6  -3  -3   31.69    1.08
  -6  -3   2  139.68    2.86
   6  -3  -2  136.38    2.90
   6  -3  -2  136.21    2.83
  -6  -3   2  136.57    2.79
  -6  -3   2  144.34    2.92
   6  -3  -2  141.27    2.93
  -6  -3   2  139.06    2.83
   6  -3  -2  135.20    2.87
  -6  -3   1   37.86    1.23
   6  -3  -1   38.88    1.26
   6  -3  -1   39.23    1.21
  -6  -3   1   40.54    1.23
   6  -3  -1   38.78    1.18
  -6  -3   1   39.50    1.24
  -6  -3   1   39.11    1.25
   6  -3  -1   36.60    1.23
  -6  -3   0    9.52    0.59
   6  -3   0    9.13    0.58
  -6  -3   0    9.55    0.54
   6  -3   0   10.03    0.57
  -6  -3   0    8.95    0.54
  -6  -3   0    9.14    0.58
   6  -3   0    9.87    0.58
  -6  -3   0    9.81    0.56
  -6  -3   0   10.85    0.63
   6  -3   0    9.59    0.59
  -6  -3  -1   38.06    1.30
   6  -3   1   36.90    1.29
   6  -3   1   37.85    1.24
  -6  -3  -1   36.65    1.24
   6  -3   1   38.72    1.30
   6  -3   1   38.08    1.31
  -6  -3  -2   21.92    0.95
   6  -3   2   23.91    1.01
   6  -3   2   23.65    0.94
  -6  -3  -2   23.33    0.98
  -6  -3  -2   21.86    0.97
  -6  -3  -2   23.00    0.98
   6  -3   2   22.38    0.97
   6  -3   2   23.39    1.01
  -6  -3  -3   12.86    0.68
   6  -3   3   11.25    0.68
   6  -3   3   12.64    0.66
  -6  -3  -3   12.67    0.71
  -6  -3  -3   12.48    0.69
  -6  -3  -3   12.48    0.68
   6  -3   3   11.91    0.68
   6  -3   3   12.68    0.72
   6  -3   4   13.41    0.69
  -6  -3  -4   13.01    0.61
  -6  -3  -4   13.13    0.68
  -6  -3  -4   12.75    0.63
  -6  -3  -4   12.59    0.62
   6  -3   4   13.21    0.66
   6  -3   4   12.51    0.68
   6  -3   5    6.45    0.42
  -6  -3  -5    6.74    0.41
  -6  -3  -5    6.59    0.42
  -6  -3  -6    7.89    0.34
   6  -2 -11   19.43    0.71
  -6  -2  11   18.91    0.71
  -6  -2  10   38.58    1.25
   6  -2 -10   37.82    1.21
  -6  -2  10   39.60    1.22
  -6  -2  10   39.34    1.24
   6  -2 -10   37.40    1.24
   6  -2 -10   37.87    1.18
  -6  -2   9    2.80    0.34
  -6  -2   9    3.39    0.34
   6  -2  -9    2.97    0.34
  -6  -2   9    3.27    0.36
  -6  -2   9    3.30    0.36
  -6  -2   9    2.96    0.33
   6  -2  -9    3.17    0.36
   6  -2  -9    3.04    0.36
   6  -2  -9    3.05    0.33
  -6  -2   8   22.03    0.96
   6  -2  -8   20.30    0.89
  -6  -2   8   22.58    0.98
  -6  -2   8   22.35    0.90
  -6  -2   8   22.80    0.94
   6  -2  -8   21.18    0.95
   6  -2  -8   21.33    0.97
   6  -2  -8   21.89    0.90
  -6  -2   7   37.44    1.28
  -6  -2   7   33.64    1.17
   6  -2  -7   34.83    1.17
  -6  -2   7   37.31    1.26
  -6  -2   7   35.57    1.20
  -6  -2   7   34.21    1.14
   6  -2  -7   34.78    1.22
   6  -2  -7   35.48    1.25
   6  -2  -7   33.42    1.22
   6  -2  -7   35.34    1.25
   6  -2  -7   36.74    1.17
  -6  -2   6   45.25    1.41
  -6  -2   6   46.73    1.40
  -6  -2   6   49.59    1.37
  -6  -2   6   47.97    1.40
   6  -2  -6   47.31    1.51
  -6  -2   6   49.82    1.47
  -6  -2   6   48.99    1.43
  -6  -2   6   46.91    1.42
   6  -2  -6   48.09    1.42
   6  -2  -6   48.80    1.45
   6  -2  -6   46.23    1.41
   6  -2  -6   46.47    1.43
  -6  -2   5   36.50    1.16
  -6  -2   5   34.41    1.11
   6  -2  -5   37.52    1.25
  -6  -2   5   36.39    1.16
  -6  -2   5   36.43    1.13
  -6  -2   5   36.33    1.17
   6  -2  -5   36.47    1.19
   6  -2  -5   37.56    1.18
   6  -2  -5   35.38    1.18
  -6  -2   5   34.86    1.15
  -6  -2   4   32.93    1.04
   6  -2  -4   34.15    1.12
   6  -2  -4   32.75    0.95
  -6  -2   3   84.40    1.92
   6  -2  -3   90.49    1.98
  -6  -2   2  123.95    2.55
   6  -2  -2  128.65    2.43
  -6  -2   1   11.01    0.55
   6  -2  -1   10.78    0.54
  -6  -2   0   51.40    1.46
   6  -2   0   52.50    1.47
  -6  -2   0   56.40    1.52
  -6  -2   0   52.89    1.42
  -6  -2   0   52.23    1.41
   6  -2   0   53.07    1.47
  -6  -2   0   49.61    1.42
   6  -2   0   49.69    1.49
   6  -2   0   52.78    1.53
  -6  -2  -1   51.88    1.50
   6  -2   1   51.88    1.51
  -6  -2  -1   52.01    1.48
   6  -2   1   51.11    1.53
  -6  -2  -1   50.25    1.48
   6  -2   1   54.46    1.58
   6  -2   1   50.94    1.56
  -6  -2  -2   50.27    1.50
   6  -2   2   49.40    1.51
  -6  -2  -2   49.37    1.50
  -6  -2  -2   49.66    1.51
   6  -2   2   48.86    1.54
   6  -2   2   49.17    1.56
  -6  -2  -3   27.19    1.03
   6  -2   3   27.00    1.07
  -6  -2  -3   28.52    1.10
  -6  -2  -3   28.75    1.09
  -6  -2  -3   27.77    1.05
  -6  -2  -3   29.20    1.07
   6  -2   3   26.69    1.09
   6  -2   3   26.70    1.11
  -6  -2  -4    5.08    0.39
   6  -2   4    5.16    0.43
  -6  -2  -4    5.80    0.46
  -6  -2  -4    5.62    0.45
  -6  -2  -4    4.54    0.37
  -6  -2  -4    5.11    0.39
   6  -2   4    4.80    0.43
   6  -2   4    5.26    0.46
   6  -2   5   19.73    0.77
  -6  -2  -5   19.19    0.72
   6  -2   5   18.17    0.76
   6  -2   5   18.69    0.79
  -6  -2  -6    1.44    0.18
  -6  -2  -6    1.33    0.16
   6  -2   6    1.16    0.16
  -6  -1  11   12.35    0.59
  -6  -1  11   10.96    0.54
   6  -1 -11   12.59    0.56
  -6  -1  11   11.24    0.56
   6  -1 -10   20.05    0.82
  -6  -1  10   19.32    0.83
  -6  -1  10   18.79    0.84
  -6  -1  10   19.87    0.81
   6  -1 -10   18.46    0.82
  -6  -1   9   17.71    0.85
   6  -1  -9   17.38    0.80
  -6  -1   9   16.83    0.81
  -6  -1   9   19.17    0.86
   6  -1  -9   17.11    0.85
   6  -1  -9   17.12    0.82
  -6  -1   8    8.45    0.57
  -6  -1   8    8.42    0.57
  -6  -1   8    8.02    0.55
  -6  -1   8    8.33    0.52
   6  -1  -8    8.06    0.58
   6  -1  -8    8.51    0.59
   6  -1  -8    7.91    0.55
  -6  -1   7   44.13    1.35
  -6  -1   7   49.70    1.48
  -6  -1   7   46.87    1.44
  -6  -1   7   50.90    1.44
   6  -1  -7   49.85    1.51
   6  -1  -7   49.36    1.49
   6  -1  -7   49.81    1.45
  -6  -1   6    7.30    0.49
  -6  -1   6    6.96    0.46
  -6  -1   6    6.88    0.43
  -6  -1   6    7.28    0.50
  -6  -1   6    8.14    0.52
  -6  -1   6    7.46    0.48
  -6  -1   6    7.72    0.49
   6  -1  -6    7.48    0.50
   6  -1  -6    7.26    0.49
   6  -1  -6    7.52    0.51
   6  -1  -6    7.25    0.47
  -6  -1   5   11.24    0.57
   6  -1  -5   11.86    0.64
  -6  -1   5   11.11    0.59
   6  -1  -4   11.37    0.59
  -6  -1   4   11.46    0.57
   6  -1  -3  112.23    2.31
  -6  -1   3  109.09    2.32
  -6  -1   3  111.01    2.31
   6  -1  -2   48.39    1.21
  -6  -1   2   48.63    1.31
  -6  -1   2   47.08    1.23
   6  -1  -2   48.31    1.16
  -6  -1   1   24.41    0.82
   6  -1  -1   20.95    0.76
  -6  -1   0   66.82    1.70
   6  -1   0   65.02    1.74
  -6  -1  -1    9.43    0.56
  -6  -1  -1    9.89    0.59
  -6  -1  -1    9.03    0.53
  -6  -1  -1    9.74    0.56
   6  -1   1    8.91    0.55
   6  -1   1    8.64    0.57
   6  -1   1    8.46    0.56
  -6  -1  -2   96.22    2.24
   6  -1   2   88.41    2.15
  -6  -1  -2   93.74    2.22
  -6  -1  -2   96.51    2.25
   6  -1   2   91.15    2.21
   6  -1   2   90.72    2.31
   6  -1   2   94.17    2.33
  -6  -1  -3   29.70    1.07
   6  -1   3   27.37    1.04
  -6  -1  -3   29.87    1.11
  -6  -1  -3   31.20    1.13
  -6  -1  -3   27.45    1.02
   6  -1   3   26.37    1.04
   6  -1   3   28.60    1.15
   6  -1   3   28.11    1.14
  -6  -1  -4   38.68    1.19
   6  -1   4   37.99    1.23
  -6  -1  -4   41.20    1.32
   6  -1   4   38.78    1.25
  -6  -1  -4   38.99    1.20
   6  -1   4   39.03    1.34
  -6  -1  -5   16.53    0.71
   6  -1   5   15.12    0.73
  -6  -1  -6    6.69    0.37
   6  -1   6    7.10    0.40
   6  -1   6    6.42    0.39
  -6   0  11   41.56    1.19
  -6   0  11   40.41    1.18
   6   0 -11   39.58    1.09
  -6   0  11   40.53    1.19
   6   0 -11   38.96    1.16
   6   0 -10   14.09    0.66
  -6   0  10   12.64    0.63
  -6   0  10   13.20    0.67
   6   0 -10   13.46    0.71
   6   0 -10   11.97    0.67
   6   0  -9    0.90    0.21
  -6   0   9    1.44    0.24
  -6   0   9    0.96    0.21
   6   0  -9    1.02    0.23
   6   0  -9    0.97    0.21
  -6   0   8    9.53    0.60
  -6   0   8    9.78    0.60
  -6   0   8    8.59    0.52
   6   0  -8    9.20    0.61
   6   0  -8    9.14    0.61
   6   0  -8    9.25    0.60
  -6   0   7    4.69    0.41
  -6   0   7    4.05    0.35
  -6   0   7    4.96    0.38
  -6   0   7    5.41    0.43
  -6   0   7    4.97    0.39
   6   0  -7    5.14    0.44
   6   0  -7    5.81    0.46
   6   0  -7    4.71    0.40
   6   0  -7    5.20    0.43
  -6   0   6   77.60    1.85
  -6   0   6   71.96    1.78
  -6   0   6   72.72    1.73
  -6   0   6   76.17    1.75
   6   0  -6   81.33    1.99
  -6   0   6   81.26    1.87
   6   0  -6   77.22    1.85
   6   0  -6   75.73    1.91
   6   0  -6   77.11    1.87
   6   0  -6   76.45    1.86
  -6   0   5    9.77    0.50
  -6   0   5    8.90    0.44
   6   0  -5    9.76    0.56
   6   0  -4   95.81    2.11
  -6   0   4   91.54    2.10
  -6   0   3    0.59    0.14
   6   0  -3    0.75    0.15
  -6   0   2   98.24    2.09
   6   0  -2   98.39    1.90
   6   0  -2   92.94    1.99
   6   0  -1   35.81    1.01
  -6   0   1   34.15    0.98
  -6   0   1   33.38    1.00
   6   0   0   86.96    1.95
  -6   0   0   88.67    1.94
   6   0   1   22.87    0.90
   6   0   1   26.35    0.97
  -6   0  -1   27.00    0.95
  -6   0  -1   26.78    0.94
   6   0   1   25.63    0.99
   6   0   1   24.47    0.98
   6   0   1   24.02    0.97
  -6   0  -2   33.23    1.13
   6   0   2   30.76    1.10
  -6   0  -2   32.28    1.12
  -6   0  -2   32.30    1.12
   6   0   2   31.81    1.17
   6   0   2   30.64    1.17
   6   0   2   31.55    1.17
   6   0   3   16.23    0.82
  -6   0  -3   17.48    0.78
  -6   0  -3   17.38    0.81
  -6   0  -3   17.02    0.80
   6   0   3   15.19    0.80
   6   0   3   14.82    0.81
   6   0   3   15.27    0.82
  -6   0  -4   29.03    1.01
   6   0   4   29.20    1.04
  -6   0  -4   29.40    1.03
  -6   0  -4   31.47    1.12
  -6   0  -4   30.71    1.11
   6   0   4   29.94    1.13
   6   0   4   29.09    1.15
  -6   0  -5    2.21    0.26
   6   0   5    2.17    0.27
   6   0   5    2.38    0.29
  -6   0  -6    4.88    0.32
  -6   0  -6    5.28    0.33
   6   0   6    4.55    0.30
   6   0   6    4.82    0.35
   6   0   6    5.26    0.36
  -6   1  11   10.82    0.55
  -6   1  11   11.35    0.52
   6   1 -11   11.26    0.57
  -6   1  10   18.97    0.84
   6   1 -10   19.85    0.77
  -6   1  10   21.27    0.80
  -6   1  10   19.58    0.82
   6   1 -10   19.59    0.86
   6   1 -10   19.88    0.77
   6   1 -10   19.30    0.85
   6   1  -9   15.34    0.72
  -6   1   9   15.66    0.74
  -6   1   9   14.81    0.74
   6   1  -9   15.25    0.79
   6   1  -9   16.19    0.79
   6   1  -9   14.97    0.70
   6   1  -8    6.96    0.48
  -6   1   8    7.35    0.51
  -6   1   8    6.91    0.46
   6   1  -8    7.06    0.53
   6   1  -8    6.66    0.51
   6   1  -8    6.95    0.47
   6   1  -7   44.74    1.32
  -6   1   7   47.44    1.37
   6   1  -7   48.58    1.47
   6   1  -7   47.60    1.44
   6   1  -7   47.85    1.46
  -6   1   6    5.03    0.38
  -6   1   6    4.97    0.37
   6   1  -6    5.26    0.38
  -6   1   6    5.44    0.38
   6   1  -6    5.57    0.44
  -6   1   6    5.17    0.43
  -6   1   6    5.63    0.45
  -6   1   6    6.21    0.43
   6   1  -6    5.66    0.44
   6   1  -6    5.60    0.43
   6   1  -6    6.34    0.46
  -6   1   5   14.18    0.69
  -6   1   5   13.52    0.69
   6   1  -5   15.19    0.67
  -6   1   4    8.08    0.45
  -6   1   4    7.58    0.48
   6   1  -4    8.40    0.46
  -6   1   3  104.94    2.17
  -6   1   3   99.00    2.22
  -6   1   3  102.04    2.26
   6   1  -3  105.00    2.13
   6   1  -2   56.51    1.28
  -6   1   2   53.95    1.39
  -6   1   2   56.69    1.48
  -6   1   2   54.42    1.45
  -6   1   2   58.37    1.40
  -6   1   1   14.45    0.63
   6   1  -1   15.67    0.62
  -6   1   1   15.52    0.61
  -6   1   1   15.02    0.67
  -6   1   1   15.27    0.59
   6   1   0   65.87    1.70
   6   1   0   66.28    1.65
  -6   1   0   69.96    1.65
  -6   1   0   66.57    1.64
  -6   1   0   68.00    1.66
   6   1   0   64.54    1.70
  -6   1   0   68.24    1.67
   6   1   1   10.20    0.60
   6   1   1   10.94    0.60
  -6   1  -1   11.10    0.60
  -6   1  -1   11.71    0.59
   6   1   1   10.34    0.61
   6   1   1    9.37    0.57
  -6   1  -1   11.42    0.61
  -6   1  -2   93.92    2.19
  -6   1  -2   94.08    2.18
   6   1   2   88.87    2.27
   6   1   2   92.26    2.29
   6   1   2   87.21    2.21
   6   1   3   35.97    1.25
  -6   1  -3   39.07    1.25
  -6   1  -3   40.51    1.31
  -6   1  -3   37.36    1.25
   6   1   3   39.39    1.37
   6   1   3   37.06    1.33
   6   1   3   35.25    1.28
  -6   1  -4   34.64    1.12
  -6   1  -4   36.10    1.21
  -6   1  -4   37.49    1.23
   6   1   4   34.64    1.26
   6   1   4   35.62    1.28
   6   1   4   34.54    1.24
   6   1   5   15.07    0.67
  -6   1  -5   15.02    0.63
   6   1   5   14.86    0.71
   6   1   5   15.32    0.74
   6   1   5   13.73    0.69
  -6   1  -6    8.42    0.42
  -6   1  -6    8.34    0.41
  -6   1  -6    7.81    0.40
   6   1   6    8.20    0.43
   6   1   6    8.07    0.45
   6   1   6    8.28    0.44
  -6   2  11   16.95    0.66
   6   2 -11   15.71    0.59
  -6   2  11   16.11    0.59
   6   2 -11   16.06    0.59
   6   2 -11   16.63    0.67
   6   2 -10   36.74    1.14
  -6   2  10   36.94    1.14
   6   2 -10   37.01    1.18
   6   2 -10   37.84    1.14
   6   2 -10   37.83    1.23
   6   2  -9    3.42    0.35
  -6   2   9    3.78    0.35
   6   2  -9    3.54    0.36
   6   2  -9    3.01    0.32
   6   2  -9    3.04    0.36
   6   2  -8   25.82    1.01
  -6   2   8   25.76    0.94
   6   2  -8   26.13    1.05
   6   2  -8   25.05    0.99
   6   2  -8   25.74    0.98
   6   2  -8   26.61    1.07
   6   2  -7   32.15    1.11
   6   2  -7   32.04    1.16
   6   2  -7   29.23    1.07
   6   2  -7   33.13    1.18
   6   2  -6   42.24    1.26
   6   2  -6   43.21    1.23
  -6   2   6   44.04    1.22
   6   2  -6   39.07    1.31
  -6   2   6   38.93    1.31
  -6   2   6   38.50    1.30
   6   2  -6   40.76    1.31
   6   2  -6   45.36    1.32
   6   2  -6   40.64    1.27
  -6   2   5   33.89    1.04
   6   2  -5   35.45    1.09
  -6   2   5   32.62    1.15
  -6   2   5   35.21    1.05
  -6   2   5   31.91    1.11
  -6   2   5   35.27    1.06
   6   2  -5   37.15    1.14
   6   2  -5   32.81    1.08
  -6   2   4   37.11    1.09
  -6   2   4   36.07    1.14
   6   2  -4   36.58    1.10
   6   2  -4   36.79    1.11
  -6   2   4   34.62    1.18
  -6   2   3   94.74    2.15
   6   2  -3   99.01    2.07
  -6   2   3   98.01    2.11
   6   2  -2  118.13    2.29
  -6   2   2  112.91    2.46
  -6   2   2  110.30    2.50
  -6   2   2  118.08    2.46
   6   2  -2  124.28    2.34
   6   2  -2  118.88    2.45
  -6   2   2  117.11    2.42
   6   2  -1   11.93    0.63
  -6   2   1   13.17    0.60
   6   2  -1   12.32    0.57
  -6   2   1   12.86    0.57
  -6   2   1   11.56    0.62
  -6   2   1   12.52    0.58
  -6   2   1   13.42    0.62
   6   2   0   47.64    1.34
  -6   2   0   46.26    1.31
  -6   2   0   47.98    1.27
  -6   2   0   46.04    1.37
  -6   2   0   47.10    1.34
   6   2   0   48.48    1.44
  -6   2   0   47.08    1.29
   6   2   0   47.09    1.36
  -6   2   0   49.23    1.37
   6   2   1   53.85    1.53
  -6   2  -1   55.86    1.50
   6   2   1   54.67    1.62
   6   2   1   55.28    1.57
  -6   2  -1   55.99    1.53
  -6   2  -2   56.48    1.56
  -6   2  -2   55.11    1.54
   6   2   2   50.57    1.62
   6   2   2   52.63    1.58
   6   2   2   51.11    1.52
  -6   2  -2   50.98    1.49
  -6   2  -3   26.49    1.04
  -6   2  -3   26.75    1.03
   6   2   3   27.58    1.13
   6   2   3   26.77    1.08
   6   2   3   24.57    1.01
  -6   2  -4    7.14    0.46
  -6   2  -4    8.00    0.53
  -6   2  -4    7.27    0.50
   6   2   4    7.70    0.54
   6   2   4    6.90    0.50
   6   2   5   16.28    0.73
  -6   2  -5   17.48    0.73
   6   2   5   17.55    0.77
   6   2   5   18.31    0.78
   6   2   5   18.33    0.75
   6   2   6    1.77    0.18
  -6   2  -6    1.86    0.19
  -6   2  -6    1.56    0.17
   6   2   6    1.48    0.19
   6   2   6    1.85    0.20
   6   2   6    1.64    0.18
  -6   3  11    5.25    0.33
   6   3 -11    4.93    0.31
   6   3 -11    5.25    0.31
   6   3 -11    5.65    0.34
   6   3 -10    0.78    0.18
   6   3 -10    0.94    0.18
  -6   3  10    0.97    0.17
   6   3 -10    0.83    0.16
  -6   3   9   11.29    0.59
   6   3  -9   11.61    0.64
   6   3  -9   11.71    0.63
   6   3  -9   10.63    0.64
   6   3  -8    4.59    0.41
  -6   3   8    4.36    0.37
   6   3  -8    4.13    0.39
   6   3  -8    4.29    0.39
   6   3  -8    4.25    0.41
   6   3  -7   73.83    1.94
   6   3  -7   74.87    1.94
   6   3  -7   78.44    2.03
   6   3  -6   40.19    1.28
   6   3  -6   38.47    1.23
   6   3  -6   38.95    1.27
  -6   3   5   15.50    0.67
   6   3  -5   16.05    0.75
   6   3  -5   15.14    0.70
  -6   3   5   14.91    0.72
  -6   3   5   14.76    0.76
  -6   3   5   15.48    0.69
   6   3  -5   15.87    0.74
   6   3  -5   16.58    0.72
  -6   3   4   20.79    0.80
   6   3  -4   19.87    0.82
   6   3  -4   19.77    0.79
  -6   3   4   19.69    0.80
  -6   3   4   18.81    0.80
  -6   3   4   17.87    0.84
  -6   3   4   18.40    0.85
   6   3  -4   20.14    0.80
   6   3  -4   19.50    0.80
   6   3  -3   30.26    1.06
   6   3  -3   30.52    1.04
   6   3  -3   29.75    1.04
  -6   3   3   30.34    1.02
   6   3  -3   29.70    0.99
  -6   3   3   29.88    1.02
  -6   3   3   29.96    1.11
  -6   3   3   30.51    1.09
   6   3  -3   31.29    1.00
  -6   3   3   28.58    0.95
   6   3  -2  130.19    2.76
   6   3  -2  122.02    2.53
  -6   3   2  136.67    2.74
  -6   3   2  129.54    2.61
  -6   3   2  133.08    2.78
   6   3  -2  130.11    2.57
   6   3  -2  129.07    2.71
   6   3  -2  135.09    2.72
  -6   3   2  132.06    2.67
   6   3  -1   38.22    1.25
   6   3  -1   37.98    1.15
  -6   3   1   38.60    1.15
  -6   3   1   37.72    1.27
  -6   3   1   40.00    1.20
  -6   3   1   40.40    1.20
  -6   3   1   37.84    1.20
   6   3  -1   40.55    1.26
   6   3  -1   39.26    1.19
  -6   3   1   40.47    1.22
   6   3   0    9.41    0.59
   6   3   0    8.87    0.54
  -6   3   0    9.20    0.54
  -6   3   0    9.23    0.52
  -6   3   0    9.30    0.59
  -6   3   0    8.83    0.52
  -6   3   0    9.20    0.52
   6   3   0   11.69    0.65
   6   3   0    9.25    0.52
  -6   3   0   10.14    0.57
  -6   3   0    9.87    0.57
  -6   3   0    9.15    0.52
   6   3   1   39.37    1.35
  -6   3  -1   42.46    1.31
  -6   3  -1   40.37    1.24
   6   3   1   39.59    1.34
  -6   3  -1   39.33    1.27
  -6   3  -2   25.01    0.97
  -6   3  -2   22.91    0.93
   6   3   2   23.24    1.02
   6   3   2   23.89    0.96
  -6   3  -2   22.71    0.92
  -6   3  -3   10.58    0.60
  -6   3  -3   10.73    0.62
   6   3   3   10.33    0.67
   6   3   3   11.28    0.65
  -6   3  -4   14.46    0.70
  -6   3  -4   14.09    0.68
   6   3   4   13.39    0.72
   6   3   4   13.80    0.69
   6   3   5    9.94    0.53
  -6   3  -5    9.06    0.48
   6   3   5    9.26    0.53
   6   3   5   10.04    0.52
   6   4 -10    5.02    0.36
  -6   4  10    4.80    0.32
   6   4 -10    4.97    0.35
   6   4 -10    4.98    0.34
   6   4  -9   51.56    1.48
   6   4  -9   50.61    1.43
   6   4  -9   50.76    1.44
   6   4  -8   24.27    0.99
   6   4  -8   22.14    0.93
   6   4  -8   23.77    0.97
   6   4  -7   62.53    1.78
   6   4  -7   63.30    1.78
   6   4  -6   16.89    0.82
   6   4  -6   16.85    0.80
   6   4  -5   42.52    1.37
   6   4  -5   42.70    1.34
   6   4  -5   43.07    1.32
  -6   4   4  300.84    5.22
   6   4  -4  297.76    5.38
   6   4  -4  290.22    5.30
   6   4  -3   39.54    1.30
   6   4  -3   36.96    1.22
   6   4  -3   38.80    1.25
  -6   4   3   37.22    1.32
  -6   4   3   39.30    1.33
   6   4  -3   39.71    1.20
  -6   4   3   41.01    1.22
   6   4  -2   87.61    2.18
   6   4  -2   84.76    2.11
  -6   4   2   86.89    2.07
   6   4  -1   22.30    0.95
   6   4  -1   21.95    0.93
  -6   4   1   21.82    0.88
   6   4  -1   24.33    0.93
  -6   4   1   23.64    0.93
   6   4   0   14.57    0.76
  -6   4   0   15.61    0.75
  -6   4   0   14.68    0.69
   6   4   0   14.26    0.73
   6   4   1   93.60    2.36
  -6   4  -1  100.82    2.32
  -6   4  -1   96.23    2.25
  -6   4  -1   99.71    2.23
   6   4   1   97.41    2.35
  -6   4  -1   90.61    2.24
   6   4   2   16.53    0.83
  -6   4  -2   15.89    0.77
  -6   4  -2   16.11    0.76
   6   4   2   16.68    0.83
  -6   4  -2   15.94    0.76
   6   4   3   19.51    0.88
  -6   4  -3   18.11    0.78
  -6   4  -3   17.98    0.80
   6   4   3   17.50    0.83
  -6   4  -3   17.15    0.73
   6   4   4   30.85    1.08
  -6   4  -4   31.28    1.02
  -6   4  -4   28.86    0.98
   6   4   4   30.66    1.06
   6   4   5    6.51    0.39
  -6   4  -5    6.14    0.36
   6   4   5    6.50    0.39
   6   5 -10    1.62    0.18
   6   5  -9    2.66    0.28
   6   5  -8   14.12    0.72
   6   5  -8   14.67    0.71
   6   5  -8   14.32    0.68
   6   5  -7   20.64    0.91
   6   5  -7   19.09    0.85
   6   5  -6  147.45    3.17
   6   5  -6  147.95    3.14
   6   5  -6  142.95    2.92
   6   5  -6  145.74    3.10
   6   5  -5    1.84    0.29
   6   5  -5    2.21    0.30
   6   5  -5    2.05    0.26
  -6   5   4  115.30    2.45
   6   5  -4  110.81    2.61
   6   5  -4  109.37    2.57
  -6   5   4  112.66    2.44
   6   5  -3   32.98    1.20
   6   5  -3   34.91    1.25
   6   5  -3   33.00    1.19
  -6   5   3   34.14    1.15
   6   5  -2   23.82    1.00
   6   5  -2   24.34    1.02
   6   5  -2   22.51    0.92
  -6   5   2   23.68    0.92
  -6   5   2   23.42    0.95
   6   5  -1   34.02    1.24
   6   5  -1   34.69    1.19
  -6   5   1   33.24    1.16
  -6   5   1   35.30    1.21
   6   5   0   11.83    0.70
   6   5   0   12.63    0.70
  -6   5   0   12.97    0.69
  -6   5   0   12.55    0.64
   6   5   1   86.41    2.16
  -6   5  -1   82.17    1.90
  -6   5  -1   88.39    2.13
  -6   5  -1   86.01    2.07
  -6   5  -1   85.85    2.00
  -6   5  -1   85.29    2.09
   6   5   2    4.82    0.43
  -6   5  -2    4.86    0.41
  -6   5  -2    6.27    0.44
   6   5   2    6.02    0.45
  -6   5  -2    5.15    0.40
   6   5   3    5.28    0.41
  -6   5  -3    5.48    0.39
  -6   5  -3    4.66    0.37
   6   5   3    4.66    0.38
  -6   5  -3    5.11    0.36
   6   5   4    0.90    0.16
  -6   5  -4    1.10    0.17
   6   5   4    0.88    0.15
   6   6  -9    9.11    0.44
   6   6  -8   35.66    1.11
   6   6  -7   29.15    1.05
   6   6  -6   10.82    0.63
   6   6  -6   10.73    0.57
   6   6  -5   58.48    1.68
   6   6  -5   56.37    1.54
   6   6  -5   57.20    1.49
   6   6  -4   60.01    1.72
   6   6  -4   56.83    1.58
   6   6  -4   55.96    1.52
  -6   6   4   58.19    1.55
   6   6  -3   92.90    2.32
  -6   6   3   94.32    2.22
   6   6  -2   24.53    1.01
   6   6  -2   26.64    1.07
  -6   6   2   26.27    0.97
  -6   6   2   25.89    1.01
   6   6  -1    0.19    0.14
   6   6  -1    0.52    0.18
  -6   6   1    0.34    0.14
  -6   6   1    0.36    0.15
   6   6   0   63.76    1.76
  -6   6   0   63.48    1.69
  -6   6   0   61.94    1.61
   6   6   1   22.06    0.91
   6   6   1   20.49    0.82
  -6   6  -1   19.34    0.72
  -6   6  -1   20.59    0.85
  -6   6  -1   22.16    0.85
  -6   6  -1   21.52    0.86
   6   6   2   13.70    0.66
   6   6   2   12.90    0.61
  -6   6  -2   12.56    0.57
  -6   6  -2   12.21    0.58
   6   6   3   17.54    0.69
   6   6   3   16.19    0.63
  -6   6  -3   16.38    0.63
  -6   6  -3   16.75    0.61
  -6   6  -3   15.97    0.57
   6   7  -8    3.43    0.25
   6   7  -8    3.20    0.25
   6   7  -7   11.55    0.55
   6   7  -7   11.76    0.55
   6   7  -6   86.49    1.94
   6   7  -6   78.26    1.71
   6   7  -5   14.75    0.70
   6   7  -5   14.23    0.69
   6   7  -5   13.72    0.63
   6   7  -5   13.18    0.59
   6   7  -4   43.77    1.35
   6   7  -4   47.11    1.40
   6   7  -4   44.21    1.30
   6   7  -4   43.03    1.24
  -6   7   4   45.46    1.26
   6   7  -3   21.27    0.89
   6   7  -3   23.78    0.94
   6   7  -3   21.83    0.88
   6   7  -3   20.96    0.83
  -6   7   3   22.52    0.86
   6   7  -2    2.26    0.29
   6   7  -2    2.35    0.30
  -6   7   2    1.92    0.24
  -6   7   2    2.32    0.28
   6   7  -1   54.61    1.47
   6   7  -1   56.09    1.54
   6   7  -1   55.08    1.56
  -6   7   1   57.02    1.48
  -6   7   1   54.59    1.50
   6   7   0    6.58    0.43
   6   7   0    7.41    0.48
   6   7   0    6.42    0.46
  -6   7   0    6.61    0.43
  -6   7   0    6.61    0.40
   6   7   1   25.39    0.87
   6   7   1   27.01    0.90
  -6   7  -1   27.35    0.89
  -6   7  -1   26.98    0.88
   6   7   2    7.54    0.40
   6   7   2    7.57    0.40
  -6   7  -2    7.96    0.38
   6   8  -6   11.50    0.48
   6   8  -5   15.45    0.57
   6   8  -5   14.53    0.51
  -6   8   5   14.42    0.51
   6   8  -4   25.52    0.82
   6   8  -4   25.69    0.86
   6   8  -4   26.29    0.83
   6   8  -4   25.38    0.78
  -6   8   4   26.07    0.76
   6   8  -3   48.05    1.24
   6   8  -3   49.23    1.30
   6   8  -3   48.85    1.26
   6   8  -3   48.28    1.22
  -6   8   3   49.04    1.22
   6   8  -2   25.93    0.83
   6   8  -2   27.79    0.91
   6   8  -2   26.28    0.87
   6   8  -2   26.38    0.84
  -6   8   2   27.26    0.86
   6   8  -1   44.44    1.18
   6   8  -1   45.20    1.17
  -6   8   1   43.74    1.08
  -6   8   1   41.55    1.12
   6   8   0    0.31    0.10
  -6   8   0    0.36    0.09
  -6   8   0    0.28    0.09
   7  -8  -5   12.28    0.44
   7  -8  -5   11.33    0.44
   7  -8  -5   11.09    0.44
   7  -8  -4    8.97    0.42
  -7  -8   4    7.93    0.35
  -7  -8   4    8.86    0.43
   7  -8  -4    7.92    0.37
   7  -8  -3   25.65    0.78
  -7  -8   3   24.33    0.67
   7  -8  -2    9.35    0.42
  -7  -8   2    8.31    0.34
   7  -7  -7   20.06    0.68
  -7  -7   7   20.80    0.69
  -7  -7   7   20.98    0.70
   7  -7  -6    6.32    0.36
  -7  -7   6    5.29    0.35
   7  -7  -6    6.68    0.43
  -7  -7   6    5.68    0.39
   7  -7  -6    5.79    0.39
  -7  -7   5    2.30    0.25
   7  -7  -5    2.96    0.28
   7  -7  -4   23.97    0.90
  -7  -7   4   22.99    0.78
  -7  -7   4   24.46    0.91
  -7  -7   3   36.08    1.15
   7  -7  -3   35.60    1.16
  -7  -7   3   35.56    1.01
  -7  -7   3   35.58    1.09
  -7  -7   2   22.06    0.84
   7  -7  -2   21.78    0.85
  -7  -7   2   21.38    0.73
   7  -7  -2   23.25    0.87
  -7  -7   2   22.19    0.75
  -7  -7   1    5.75    0.38
   7  -7  -1    5.87    0.39
   7  -7  -1    6.61    0.42
  -7  -7   1    5.44    0.33
  -7  -7   1    5.84    0.38
   7  -7   0    1.95    0.19
  -7  -7   0    1.83    0.18
   7  -7   0    2.13    0.23
  -7  -7   0    1.98    0.23
   7  -7   1   21.76    0.71
  -7  -7  -1   24.57    0.74
   7  -6  -9    0.75    0.13
  -7  -6   8   12.35    0.57
  -7  -6   8   11.81    0.53
   7  -6  -8   12.81    0.53
  -7  -6   7   31.95    1.08
   7  -6  -7   32.79    1.10
  -7  -6   7   31.00    1.03
  -7  -6   7   32.79    1.08
  -7  -6   6    3.72    0.34
   7  -6  -6    3.58    0.32
  -7  -6   6    3.52    0.36
   7  -6  -6    3.11    0.35
  -7  -6   6    3.48    0.32
  -7  -6   6    3.41    0.37
  -7  -6   5   64.24    1.72
   7  -6  -5   61.05    1.68
  -7  -6   5   63.48    1.73
  -7  -6   5   60.13    1.66
   7  -6  -5   61.00    1.73
   7  -6  -5   61.66    1.63
  -7  -6   4    4.60    0.42
  -7  -6   4    4.20    0.41
   7  -6  -4    4.42    0.42
  -7  -6   4    3.82    0.35
   7  -6  -4    4.36    0.41
   7  -6  -4    4.35    0.40
  -7  -6   4    4.31    0.41
   7  -6  -4    3.76    0.36
  -7  -6   3    1.50    0.26
  -7  -6   3    1.36    0.24
  -7  -6   3    1.33    0.20
   7  -6  -3    1.64    0.27
   7  -6  -3    1.33    0.25
  -7  -6   3    1.69    0.25
   7  -6  -3    1.65    0.24
  -7  -6   2    2.39    0.31
  -7  -6   2    3.12    0.35
   7  -6  -2    2.55    0.32
  -7  -6   2    2.41    0.26
   7  -6  -2    2.34    0.31
  -7  -6   2    2.42    0.28
   7  -6  -2    2.21    0.27
  -7  -6   2    2.73    0.31
  -7  -6   1    2.77    0.31
   7  -6  -1    2.65    0.31
  -7  -6   1    2.81    0.27
   7  -6  -1    3.06    0.34
   7  -6  -1    2.99    0.30
   7  -6  -1    2.52    0.28
  -7  -6   1    2.83    0.33
   7  -6   0    6.09    0.44
  -7  -6   0    4.99    0.37
   7  -6   0    5.81    0.40
   7  -6   0    5.68    0.39
  -7  -6   0    6.22    0.46
   7  -6   1    0.26    0.11
  -7  -6  -1    0.39    0.13
  -7  -6  -2    0.52    0.12
   7  -6   2    0.46    0.12
  -7  -6  -2    0.39    0.11
   7  -5 -10    0.84    0.13
   7  -5 -10    0.85    0.13
  -7  -5   9   25.98    0.87
   7  -5  -9   26.30    0.85
  -7  -5   8    0.23    0.11
   7  -5  -8    0.30    0.13
   7  -5  -8    0.25    0.11
  -7  -5   8    0.10    0.10
  -7  -5   7    8.94    0.53
  -7  -5   7    9.21    0.60
   7  -5  -7    8.30    0.57
   7  -5  -7    8.48    0.55
  -7  -5   7    8.41    0.56
  -7  -5   6   17.06    0.81
   7  -5  -6   14.86    0.73
   7  -5  -6   16.41    0.83
   7  -5  -6   15.62    0.78
  -7  -5   6   14.82    0.75
   7  -5  -6   15.28    0.77
   7  -5  -6   16.03    0.78
  -7  -5   6   16.83    0.78
  -7  -5   5    8.19    0.58
   7  -5  -5    8.32    0.58
  -7  -5   5    7.02    0.50
   7  -5  -5    7.68    0.54
   7  -5  -5    7.20    0.52
  -7  -5   5    7.98    0.57
  -7  -5   4   67.55    1.92
   7  -5  -4   66.19    1.86
   7  -5  -4   70.86    1.92
   7  -5  -4   64.67    1.82
  -7  -5   4   70.87    1.94
   7  -5  -4   66.38    1.80
  -7  -5   3   18.05    0.89
   7  -5  -3   18.34    0.85
   7  -5  -3   19.97    0.90
   7  -5  -3   18.04    0.86
  -7  -5   3   19.20    0.92
   7  -5  -3   16.98    0.80
  -7  -5   2   48.77    1.52
   7  -5  -2   45.89    1.47
  -7  -5   2   47.91    1.41
   7  -5  -2   46.70    1.48
  -7  -5   2   45.91    1.49
   7  -5  -2   47.95    1.41
  -7  -5   2   45.78    1.50
  -7  -5   1    8.16    0.54
   7  -5  -1    8.06    0.55
   7  -5  -1    8.02    0.51
   7  -5  -1    7.55    0.54
  -7  -5   1    8.75    0.60
  -7  -5   1    7.77    0.55
   7  -5   0   25.78    0.98
   7  -5   0   25.41    1.00
   7  -5   0   25.97    1.02
  -7  -5   0   29.05    1.12
  -7  -5   0   25.74    0.96
   7  -5   1   15.55    0.77
   7  -5   1   15.47    0.72
   7  -5   1   14.50    0.71
  -7  -5  -1   16.30    0.79
   7  -5   2   46.94    1.37
   7  -5   2   47.22    1.29
   7  -5   2   46.62    1.30
  -7  -5  -2   49.07    1.38
   7  -5   3   11.85    0.54
   7  -5   3   10.62    0.46
  -7  -5  -3   10.71    0.50
  -7  -5  -4   37.80    0.87
   7  -4 -11    1.40    0.15
  -7  -4  10    2.10    0.22
   7  -4 -10    2.22    0.24
   7  -4 -10    2.09    0.22
  -7  -4  10    2.23    0.24
  -7  -4   9    3.79    0.35
   7  -4  -9    3.69    0.36
   7  -4  -9    3.82    0.34
  -7  -4   9    4.16    0.37
  -7  -4   8   14.20    0.74
   7  -4  -8   12.24    0.70
   7  -4  -8   13.82    0.69
  -7  -4   8   12.70    0.71
   7  -4  -8   13.08    0.66
  -7  -4   7   43.08    1.33
   7  -4  -7   44.01    1.46
   7  -4  -7   42.23    1.35
  -7  -4   7   45.13    1.46
  -7  -4   7   42.16    1.41
   7  -4  -7   42.25    1.32
   7  -4  -7   43.46    1.42
  -7  -4   6   84.54    2.15
   7  -4  -6   81.48    2.15
   7  -4  -6   82.88    2.06
  -7  -4   6   85.81    2.16
  -7  -4   6   80.77    2.17
   7  -4  -6   84.94    2.18
  -7  -4   6   82.16    2.07
   7  -4  -6   85.10    2.16
  -7  -4   5   77.61    2.06
   7  -4  -5   75.24    1.99
   7  -4  -5   73.48    1.89
  -7  -4   5   71.88    1.90
   7  -4  -5   74.24    2.00
  -7  -4   5   73.29    1.98
   7  -4  -5   76.58    2.02
  -7  -4   4    7.78    0.57
   7  -4  -4    7.47    0.53
   7  -4  -4    7.73    0.55
  -7  -4   4    6.96    0.53
   7  -4  -4    7.37    0.55
  -7  -4   4    8.15    0.57
   7  -4  -4    7.22    0.53
  -7  -4   3   20.84    0.89
  -7  -4   3   22.80    1.00
   7  -4  -3   21.67    0.91
   7  -4  -3   21.29    0.93
  -7  -4   3   22.36    0.93
   7  -4  -3   21.39    0.96
  -7  -4   3   22.58    0.98
   7  -4  -3   20.44    0.91
  -7  -4   2   39.41    1.32
  -7  -4   2   39.12    1.33
   7  -4  -2   39.99    1.32
   7  -4  -2   39.20    1.23
   7  -4  -2   37.86    1.33
  -7  -4   2   39.40    1.35
  -7  -4   2   38.46    1.29
   7  -4  -2   38.25    1.30
  -7  -4   1   18.50    0.88
   7  -4  -1   19.01    0.91
  -7  -4   1   18.09    0.83
   7  -4  -1   18.78    0.85
   7  -4  -1   18.12    0.88
  -7  -4   1   19.25    0.93
  -7  -4   1   17.50    0.84
  -7  -4   1   17.91    0.86
   7  -4  -1   18.37    0.86
  -7  -4   0   20.25    0.93
   7  -4   0   21.46    0.96
  -7  -4   0   19.31    0.80
   7  -4   0   19.35    0.87
   7  -4   0   19.86    0.93
  -7  -4   0   22.45    1.01
  -7  -4   0   21.37    0.96
  -7  -4   0   19.82    0.85
   7  -4   0   20.38    0.90
  -7  -4  -1    0.74    0.19
   7  -4   1    0.79    0.21
   7  -4   1    1.09    0.21
  -7  -4  -1    0.99    0.22
   7  -4   1    1.06    0.20
  -7  -4  -2   16.24    0.75
   7  -4   2   16.22    0.78
   7  -4   2   15.72    0.71
  -7  -4  -2   16.02    0.76
   7  -4   2   15.25    0.70
   7  -4   3    8.99    0.52
  -7  -4  -3    9.45    0.51
   7  -4   4    3.39    0.26
  -7  -4  -4    3.51    0.26
   7  -4   4    2.82    0.24
   7  -3 -11    5.02    0.29
  -7  -3  10    4.61    0.35
  -7  -3  10    4.56    0.33
   7  -3 -10    4.55    0.34
  -7  -3  10    3.91    0.34
  -7  -3   9    8.45    0.52
  -7  -3   9    8.26    0.53
   7  -3  -9    8.25    0.51
  -7  -3   9    8.94    0.57
  -7  -3   9    8.74    0.50
   7  -3  -9    8.54    0.53
   7  -3  -9    7.77    0.52
  -7  -3   8   23.05    0.92
   7  -3  -8   23.07    0.92
  -7  -3   8   22.13    0.93
   7  -3  -8   22.44    0.92
   7  -3  -8   23.65    0.98
  -7  -3   7   18.30    0.89
  -7  -3   7   18.08    0.86
   7  -3  -7   18.65    0.83
   7  -3  -7   18.71    0.89
   7  -3  -7   18.28    0.86
  -7  -3   6   30.52    1.15
  -7  -3   6   30.69    1.17
   7  -3  -6   30.70    1.17
  -7  -3   6   31.24    1.10
   7  -3  -6   29.37    1.10
   7  -3  -6   30.09    1.16
   7  -3  -5   17.65    0.82
  -7  -3   5   15.75    0.76
  -7  -3   5   16.57    0.80
   7  -3  -5   17.30    0.79
   7  -3  -5   16.36    0.82
  -7  -3   4   37.15    1.24
   7  -3  -4   36.93    1.21
   7  -3  -4   39.38    1.26
  -7  -3   4   38.14    1.28
  -7  -3   4   37.02    1.27
   7  -3  -4   35.86    1.19
   7  -3  -4   38.52    1.30
  -7  -3   3  194.47    3.75
  -7  -3   3  200.01    3.76
   7  -3  -3  191.51    3.77
  -7  -3   3  200.05    3.81
  -7  -3   3  193.00    3.87
   7  -3  -3  191.11    3.87
  -7  -3   2   57.56    1.60
   7  -3  -2   57.45    1.57
  -7  -3   2   53.24    1.47
  -7  -3   2   55.19    1.60
  -7  -3   2   53.88    1.56
   7  -3  -2   54.34    1.62
  -7  -3   1   36.07    1.26
   7  -3  -1   37.99    1.31
   7  -3  -1   38.48    1.24
  -7  -3   1   38.92    1.28
  -7  -3   1   39.77    1.33
   7  -3  -1   40.34    1.35
  -7  -3   0   33.86    1.21
   7  -3   0   32.12    1.19
   7  -3   0   34.52    1.14
  -7  -3   0   30.67    1.09
  -7  -3   0   32.71    1.12
  -7  -3   0   34.64    1.24
   7  -3   0   33.15    1.22
  -7  -3  -1   66.65    1.85
   7  -3   1   64.19    1.82
  -7  -3  -1   64.98    1.77
  -7  -3  -1   71.13    1.94
   7  -3   1   67.41    1.87
  -7  -3  -2   35.06    1.20
   7  -3   2   36.27    1.23
  -7  -3  -2   32.85    1.16
  -7  -3  -2   36.39    1.25
  -7  -3  -2   34.78    1.21
   7  -3   2   33.78    1.21
  -7  -3  -3   55.75    1.48
   7  -3   3   57.42    1.55
  -7  -3  -3   54.53    1.51
  -7  -3  -3   56.48    1.51
  -7  -3  -3   56.46    1.50
   7  -3   3   56.07    1.52
   7  -3   4    7.91    0.44
  -7  -3  -4    6.57    0.35
  -7  -3  -4    7.80    0.43
   7  -3   4    7.20    0.40
  -7  -2  11    3.39    0.28
   7  -2 -11    3.23    0.25
  -7  -2  11    3.47    0.27
  -7  -2  11    3.24    0.25
  -7  -2  10    4.57    0.37
   7  -2 -10    3.84    0.32
  -7  -2  10    3.48    0.33
  -7  -2  10    3.80    0.32
   7  -2 -10    3.67    0.34
   7  -2 -10    3.64    0.31
  -7  -2   9   23.82    0.95
   7  -2  -9   22.42    0.89
  -7  -2   9   25.28    1.00
  -7  -2   9   23.12    0.88
  -7  -2   9   24.26    0.91
   7  -2  -9   25.34    1.01
   7  -2  -9   23.55    0.98
   7  -2  -9   23.18    0.89
  -7  -2   8   48.99    1.47
  -7  -2   8   53.28    1.60
  -7  -2   8   48.53    1.52
  -7  -2   8   49.79    1.50
   7  -2  -8   51.11    1.56
   7  -2  -8   51.92    1.59
   7  -2  -8   50.98    1.59
  -7  -2   7   13.37    0.67
  -7  -2   7   14.29    0.76
  -7  -2   7   12.88    0.70
  -7  -2   7   14.13    0.74
   7  -2  -7   13.41    0.73
   7  -2  -7   13.48    0.75
   7  -2  -7   13.93    0.75
   7  -2  -7   12.79    0.73
  -7  -2   6    2.69    0.32
  -7  -2   6    2.63    0.31
  -7  -2   6    2.76    0.31
  -7  -2   6    3.19    0.35
  -7  -2   6    2.71    0.30
   7  -2  -6    2.75    0.32
   7  -2  -6    2.80    0.33
   7  -2  -6    3.29    0.36
   7  -2  -6    2.72    0.34
  -7  -2   5   20.50    0.89
  -7  -2   5   21.16    0.89
   7  -2  -5   22.08    0.96
  -7  -2   5   24.15    0.93
  -7  -2   5   20.91    0.82
  -7  -2   5   23.48    0.92
   7  -2  -5   22.24    0.89
   7  -2  -5   21.72    0.93
   7  -2  -5   21.93    0.92
   7  -2  -5   22.64    0.96
  -7  -2   4   43.77    1.32
  -7  -2   4   40.00    1.26
   7  -2  -4   39.80    1.29
  -7  -2   4   40.62    1.21
  -7  -2   4   40.37    1.26
  -7  -2   4   43.85    1.34
  -7  -2   4   41.46    1.29
   7  -2  -4   42.09    1.34
   7  -2  -4   39.98    1.28
  -7  -2   3   56.60    1.54
  -7  -2   3   57.84    1.51
  -7  -2   3   53.40    1.52
  -7  -2   3   57.52    1.54
   7  -2  -3   57.67    1.63
   7  -2  -3   55.75    1.56
  -7  -2   2   32.27    1.05
  -7  -2   2   30.15    1.07
  -7  -2   2   33.93    1.15
  -7  -2   2   31.99    1.02
   7  -2  -2   32.33    1.16
   7  -2  -2   30.48    1.07
   7  -2  -2   32.49    1.17
  -7  -2   1   51.87    1.50
   7  -2  -1   46.24    1.43
  -7  -2   1   50.46    1.45
   7  -2  -1   48.08    1.41
   7  -2  -1   49.54    1.52
  -7  -2   0   19.21    0.87
   7  -2   0   19.81    0.86
  -7  -2   0   18.52    0.80
  -7  -2   0   18.79    0.79
  -7  -2   0   17.33    0.79
   7  -2   0   17.51    0.79
   7  -2   0   18.64    0.90
   7  -2   1   12.56    0.68
  -7  -2  -1   11.66    0.64
  -7  -2  -1   11.87    0.67
   7  -2   1   12.36    0.72
  -7  -2  -2    2.22    0.30
   7  -2   2    1.84    0.27
  -7  -2  -2    2.22    0.28
  -7  -2  -2    1.89    0.28
  -7  -2  -2    2.39    0.31
  -7  -2  -2    1.48    0.25
   7  -2   2    1.58    0.27
   7  -2   2    1.85    0.29
  -7  -2  -3    9.78    0.56
   7  -2   3    9.86    0.56
  -7  -2  -3   11.88    0.63
  -7  -2  -3    9.83    0.58
  -7  -2  -3   10.01    0.57
  -7  -2  -3    9.81    0.57
   7  -2   3    9.35    0.59
   7  -2   3    9.73    0.61
  -7  -2  -4   15.11    0.61
   7  -2   4   15.11    0.63
  -7  -2  -4   16.96    0.66
  -7  -2  -4   16.76    0.70
  -7  -2  -4   15.34    0.62
   7  -2   4   17.26    0.72
   7  -2   4   16.21    0.71
  -7  -2  -5    0.41    0.10
  -7  -1  11    7.29    0.43
  -7  -1  11    6.52    0.38
  -7  -1  11    7.35    0.41
   7  -1 -11    6.25    0.38
  -7  -1  10   14.67    0.71
  -7  -1  10   15.26    0.71
  -7  -1  10   15.52    0.72
  -7  -1  10   14.51    0.68
   7  -1 -10   14.35    0.72
   7  -1 -10   15.40    0.70
  -7  -1   9   19.12    0.85
  -7  -1   9   18.79    0.86
  -7  -1   9   19.01    0.79
  -7  -1   9   18.12    0.81
   7  -1  -9   17.97    0.87
   7  -1  -9   18.90    0.89
   7  -1  -9   18.30    0.83
  -7  -1   8   43.18    1.36
  -7  -1   8   45.01    1.44
  -7  -1   8   43.85    1.40
  -7  -1   8   43.34    1.35
   7  -1  -8   43.19    1.44
   7  -1  -8   41.87    1.43
   7  -1  -8   42.29    1.41
   7  -1  -8   42.76    1.36
  -7  -1   7   28.03    1.05
  -7  -1   7   30.25    1.05
  -7  -1   7   29.83    1.12
  -7  -1   7   30.67    1.11
  -7  -1   7   30.44    1.10
   7  -1  -7   29.40    1.13
   7  -1  -7   29.66    1.12
   7  -1  -7   29.42    1.13
   7  -1  -7   29.48    1.07
  -7  -1   6   25.67    0.99
  -7  -1   6   26.21    1.00
  -7  -1   6   25.04    0.95
  -7  -1   6   26.19    0.95
  -7  -1   6   26.72    1.02
   7  -1  -6   26.45    1.02
   7  -1  -6   25.77    1.01
   7  -1  -6   26.07    1.04
   7  -1  -6   24.10    1.00
   7  -1  -6   25.51    0.94
  -7  -1   5   47.01    1.38
  -7  -1   5   48.06    1.38
   7  -1  -5   48.43    1.48
  -7  -1   5   44.05    1.39
  -7  -1   5   45.26    1.34
  -7  -1   5   45.70    1.28
   7  -1  -5   46.52    1.39
   7  -1  -5   47.06    1.40
   7  -1  -5   45.97    1.42
   7  -1  -5   46.29    1.42
  -7  -1   4   98.89    2.25
  -7  -1   4   99.92    2.24
   7  -1  -4  104.09    2.33
  -7  -1   4   99.41    2.31
  -7  -1   4  105.19    2.22
  -7  -1   4  100.01    2.30
  -7  -1   4  102.01    2.25
   7  -1  -4   95.95    2.27
   7  -1  -4   99.87    2.32
   7  -1  -4   98.23    2.31
  -7  -1   3  277.21    4.94
  -7  -1   3  274.95    4.93
  -7  -1   3  272.14    5.00
  -7  -1   3  278.82    4.94
  -7  -1   3  284.24    4.90
   7  -1  -3  272.98    5.01
   7  -1  -3  284.50    5.05
   7  -1  -3  279.47    5.06
  -7  -1   2   34.23    1.10
  -7  -1   2   36.95    1.14
   7  -1  -2   35.38    1.13
  -7  -1   2   36.51    1.13
   7  -1  -2   37.86    1.22
   7  -1  -2   37.17    1.24
  -7  -1   1  136.92    2.74
  -7  -1   1  140.07    2.89
   7  -1  -1  134.97    2.79
   7  -1  -1  139.34    2.80
   7  -1  -1  136.39    2.91
   7  -1  -1  137.69    2.98
  -7  -1   0  118.99    2.66
  -7  -1   0  118.48    2.52
  -7  -1   0  117.88    2.52
  -7  -1   0  120.18    2.57
   7  -1   0  118.07    2.66
   7  -1   0  120.90    2.74
  -7  -1  -1  114.04    2.51
  -7  -1  -1  110.34    2.51
   7  -1   1  109.18    2.54
   7  -1   1  110.93    2.64
  -7  -1  -2   92.14    2.21
  -7  -1  -2   92.95    2.21
  -7  -1  -2   90.44    2.20
   7  -1   2   87.96    2.18
   7  -1   2   88.43    2.30
   7  -1   2   87.73    2.28
  -7  -1  -3   35.02    1.14
  -7  -1  -3   35.86    1.18
  -7  -1  -3   34.52    1.17
  -7  -1  -3   31.32    1.06
   7  -1   3   32.99    1.12
  -7  -1  -3   34.64    1.15
   7  -1   3   32.61    1.21
   7  -1   3   35.35    1.25
  -7  -1  -4   36.88    1.07
  -7  -1  -4   39.43    1.18
  -7  -1  -4   41.39    1.19
  -7  -1  -4   38.57    1.09
   7  -1   4   39.52    1.23
   7  -1   4   38.30    1.23
  -7  -1  -5   29.82    0.86
   7  -1   5   30.23    0.90
  -7   0  11    4.05    0.32
  -7   0  11    3.65    0.30
  -7   0  11    3.69    0.28
  -7   0  11    3.61    0.30
  -7   0  11    4.11    0.32
   7   0 -11    3.71    0.32
   7   0 -11    4.07    0.32
  -7   0  10   25.74    0.97
  -7   0  10   27.79    0.98
  -7   0  10   25.88    0.97
   7   0 -10   28.07    1.04
   7   0 -10   27.24    1.01
   7   0 -10   26.21    0.99
  -7   0   9   48.88    1.46
  -7   0   9   48.54    1.45
  -7   0   9   43.83    1.40
  -7   0   9   45.67    1.33
   7   0  -9   46.88    1.49
   7   0  -9   47.97    1.50
   7   0  -9   44.64    1.43
  -7   0   8    0.71    0.18
  -7   0   8    0.50    0.16
  -7   0   8    0.53    0.16
   7   0  -8    0.56    0.17
   7   0  -8    0.62    0.17
   7   0  -8    0.59    0.17
  -7   0   7    3.03    0.32
  -7   0   7    3.32    0.32
  -7   0   7    3.08    0.34
   7   0  -7    3.19    0.36
   7   0  -7    3.56    0.36
   7   0  -7    3.40    0.36
  -7   0   6    4.01    0.36
  -7   0   6    2.82    0.30
  -7   0   6    3.09    0.32
   7   0  -6    3.34    0.36
   7   0  -6    3.01    0.32
   7   0  -6    2.57    0.32
   7   0  -6    2.74    0.32
   7   0  -6    2.90    0.32
   7   0  -6    3.53    0.32
  -7   0   5  148.60    3.03
  -7   0   5  153.23    3.03
   7   0  -5  158.17    3.20
  -7   0   5  142.38    3.12
  -7   0   5  154.03    3.19
  -7   0   5  149.66    3.04
  -7   0   5  148.96    2.97
   7   0  -5  149.48    3.03
   7   0  -5  150.28    3.13
   7   0  -5  149.20    3.09
  -7   0   4    0.07    0.08
  -7   0   4    0.41    0.14
  -7   0   4    0.39    0.13
   7   0  -4    0.20    0.10
  -7   0   4    0.13    0.09
   7   0  -4    0.09    0.08
  -7   0   4    0.36    0.13
  -7   0   3    0.02    0.07
  -7   0   3    0.04    0.09
  -7   0   3    0.02    0.07
  -7   0   3   -0.02    0.07
   7   0  -3    0.18    0.09
  -7   0   3    0.02    0.07
   7   0  -3    0.04    0.08
  -7   0   3    0.16    0.10
   7   0  -3   -0.02    0.07
  -7   0   2   45.14    1.28
  -7   0   2   44.11    1.26
   7   0  -2   43.37    1.31
  -7   0   2   44.12    1.25
  -7   0   2   43.54    1.28
  -7   0   2   45.36    1.30
   7   0  -2   45.56    1.38
   7   0  -2   47.30    1.40
  -7   0   1  184.90    3.50
  -7   0   1  183.84    3.57
   7   0  -1  189.08    3.63
  -7   0   1  180.49    3.44
  -7   0   1  186.65    3.51
   7   0  -1  187.51    3.71
   7   0  -1  188.43    3.71
  -7   0   0   18.56    0.82
   7   0   0   17.16    0.79
  -7   0   0   18.47    0.76
  -7   0   0   17.28    0.75
   7   0   0   17.20    0.83
   7   0   0   17.61    0.85
   7   0   0   17.93    0.84
   7   0   1    6.54    0.48
  -7   0  -1    6.24    0.46
  -7   0  -1    6.77    0.48
   7   0   1    6.88    0.52
   7   0   1    6.22    0.51
   7   0   1    7.00    0.53
  -7   0  -2    0.09    0.11
   7   0   2    0.04    0.09
  -7   0  -2    0.11    0.11
  -7   0  -2    0.24    0.12
   7   0   2    0.17    0.13
   7   0   2    0.03    0.10
   7   0   2    0.03    0.11
  -7   0  -3    1.74    0.24
   7   0   3    1.67    0.24
  -7   0  -3    2.25    0.29
  -7   0  -3    1.99    0.27
   7   0   3    1.31    0.25
   7   0   3    1.95    0.29
   7   0   3    2.15    0.30
  -7   0  -4   12.00    0.56
  -7   0  -4   13.82    0.64
  -7   0  -4   13.64    0.64
   7   0   4   13.60    0.65
  -7   0  -4   12.29    0.56
   7   0   4   13.59    0.68
   7   0   4   13.46    0.67
  -7   0  -5    2.27    0.22
   7   0   5    2.07    0.20
   7   0   5    2.55    0.25
  -7   1  11    9.17    0.46
  -7   1  11    9.89    0.50
   7   1 -11    8.70    0.47
  -7   1  10   13.61    0.68
  -7   1  10   14.93    0.67
  -7   1  10   14.84    0.69
   7   1 -10   15.47    0.73
   7   1 -10   14.55    0.69
   7   1 -10   15.28    0.73
  -7   1   9   17.97    0.81
  -7   1   9   18.21    0.83
  -7   1   9   16.64    0.72
   7   1  -9   17.52    0.85
   7   1  -9   18.68    0.85
   7   1  -9   17.37    0.84
  -7   1   8   46.75    1.43
  -7   1   8   45.65    1.37
   7   1  -8   43.36    1.46
   7   1  -8   44.99    1.45
   7   1  -8   45.34    1.46
  -7   1   7   27.63    1.01
  -7   1   7   30.30    1.01
  -7   1   7   29.69    1.07
   7   1  -7   31.02    1.17
   7   1  -7   29.83    1.13
   7   1  -7   29.75    1.13
   7   1  -6   27.35    0.96
  -7   1   6   24.46    0.94
  -7   1   6   27.26    0.97
  -7   1   6   28.42    1.02
  -7   1   6   27.43    0.94
   7   1  -6   28.21    1.08
   7   1  -6   26.02    1.03
  -7   1   5   52.45    1.44
  -7   1   5   53.59    1.43
   7   1  -5   51.12    1.52
  -7   1   5   48.42    1.50
  -7   1   5   51.62    1.39
  -7   1   5   49.41    1.42
   7   1  -5   48.33    1.47
  -7   1   4   93.76    2.12
  -7   1   4   91.75    2.09
   7   1  -4   96.23    2.21
  -7   1   4   89.16    2.20
  -7   1   4   88.91    2.21
  -7   1   4   93.25    2.09
  -7   1   4   94.60    2.10
   7   1  -4   90.25    2.18
   7   1  -4   91.01    2.10
   7   1  -3  297.54    5.16
   7   1  -3  292.43    5.23
  -7   1   3  306.06    5.13
   7   1  -3  306.88    5.19
  -7   1   3  292.01    5.26
  -7   1   3  287.69    5.26
  -7   1   3  274.92    5.05
  -7   1   3  285.74    5.10
  -7   1   3  288.72    5.04
   7   1  -3  286.40    5.23
   7   1  -3  287.44    5.14
  -7   1   3  287.99    5.00
   7   1  -2   40.92    1.25
  -7   1   2   44.09    1.27
   7   1  -2   43.38    1.33
  -7   1   2   40.89    1.20
  -7   1   2   41.17    1.30
  -7   1   2   43.67    1.26
   7   1  -2   42.84    1.34
   7   1  -2   41.51    1.29
  -7   1   2   40.43    1.22
   7   1  -1  126.04    2.70
  -7   1   1  131.89    2.69
   7   1  -1  127.68    2.80
   7   1  -1  127.12    2.63
  -7   1   1  128.89    2.60
  -7   1   1  125.55    2.72
  -7   1   1  126.44    2.64
   7   1  -1  128.61    2.84
   7   1  -1  130.64    2.81
  -7   1   1  138.82    2.77
   7   1   0  123.13    2.70
  -7   1   0  127.59    2.64
   7   1   0  131.70    2.84
  -7   1   0  128.97    2.65
  -7   1   0  130.98    2.62
   7   1   0  128.15    2.84
   7   1   0  124.67    2.77
   7   1   1  102.50    2.43
  -7   1  -1  103.45    2.34
   7   1   1  102.42    2.50
   7   1   1   99.37    2.46
   7   1   1   96.55    2.39
  -7   1  -2  102.55    2.36
   7   1   2   96.74    2.36
  -7   1  -2  102.22    2.34
  -7   1  -2  101.57    2.34
   7   1   2   95.45    2.43
   7   1   2  102.48    2.47
   7   1   2  100.11    2.41
  -7   1  -3   34.06    1.12
   7   1   3   31.43    1.11
  -7   1  -3   33.23    1.13
  -7   1  -3   34.46    1.16
   7   1   3   33.41    1.20
   7   1   3   32.28    1.19
   7   1   3   31.82    1.16
  -7   1  -4   36.56    1.05
   7   1   4   36.05    1.10
  -7   1  -4   39.30    1.16
  -7   1  -4   38.24    1.14
   7   1   4   37.74    1.19
   7   1   4   38.67    1.21
   7   1   4   37.60    1.18
  -7   1  -5   29.63    0.87
  -7   1  -5   30.88    0.87
   7   1   5   30.20    0.88
   7   1   5   30.62    0.92
   7   1   5   30.55    0.90
  -7   2  11    4.19    0.31
  -7   2  11    4.14    0.29
   7   2 -11    3.48    0.27
   7   2 -11    4.14    0.31
   7   2 -10    3.24    0.29
  -7   2  10    2.97    0.28
  -7   2  10    2.81    0.29
   7   2 -10    3.09    0.31
   7   2 -10    3.50    0.34
   7   2  -9   21.66    0.86
  -7   2   9   22.20    0.89
  -7   2   9   21.50    0.82
   7   2  -9   21.57    0.93
   7   2  -9   21.52    0.87
   7   2  -9   21.62    0.82
   7   2  -9   21.60    0.94
   7   2  -8   53.32    1.51
  -7   2   8   53.22    1.50
   7   2  -8   54.35    1.62
   7   2  -8   54.23    1.57
   7   2  -8   49.96    1.42
   7   2  -7   15.15    0.73
  -7   2   7   15.19    0.69
  -7   2   7   16.39    0.77
   7   2  -7   14.95    0.79
   7   2  -7   15.78    0.77
  -7   2   6    3.27    0.32
   7   2  -6    3.41    0.34
  -7   2   6    3.11    0.31
  -7   2   6    3.13    0.31
   7   2  -6    3.38    0.37
   7   2  -6    3.40    0.36
  -7   2   5   20.58    0.83
   7   2  -5   19.27    0.81
  -7   2   5   19.84    0.82
  -7   2   5   20.08    0.81
   7   2  -5   19.91    0.86
  -7   2   4   42.51    1.28
  -7   2   4   44.65    1.31
   7   2  -4   44.32    1.28
  -7   2   4   39.99    1.24
  -7   2   4   40.19    1.33
  -7   2   4   42.15    1.26
   7   2  -4   43.05    1.26
   7   2  -4   40.65    1.31
   7   2  -3   62.30    1.67
  -7   2   3   63.80    1.63
   7   2  -3   60.76    1.59
   7   2  -3   61.70    1.69
  -7   2   3   64.33    1.61
  -7   2   3   60.03    1.68
  -7   2   3   58.46    1.58
  -7   2   3   61.82    1.73
  -7   2   3   57.34    1.62
   7   2  -3   61.64    1.54
   7   2  -3   60.39    1.68
  -7   2   3   57.29    1.58
  -7   2   3   63.28    1.56
   7   2  -2   34.18    1.16
  -7   2   2   34.97    1.13
   7   2  -2   31.30    1.15
  -7   2   2   32.45    1.06
  -7   2   2   32.83    1.09
  -7   2   2   33.82    1.20
  -7   2   2   33.69    1.12
  -7   2   2   33.07    1.07
  -7   2   2   31.57    1.07
   7   2  -2   32.31    1.16
  -7   2   2   33.37    1.09
   7   2  -1   48.87    1.47
   7   2  -1   47.12    1.34
  -7   2   1   47.32    1.30
  -7   2   1   46.47    1.34
  -7   2   1   50.82    1.42
   7   2  -1   48.73    1.50
   7   2  -1   48.49    1.42
  -7   2   1   49.35    1.42
   7   2   0   17.07    0.82
   7   2   0   18.31    0.87
  -7   2   0   18.99    0.83
  -7   2   0   18.03    0.74
   7   2   0   18.29    0.89
   7   2   0   17.95    0.82
  -7   2   0   19.21    0.84
   7   2   1   11.35    0.69
  -7   2  -1   14.18    0.72
  -7   2  -1   12.28    0.64
  -7   2  -1   12.52    0.64
   7   2   1   11.92    0.72
   7   2   1   12.46    0.70
  -7   2  -1   12.27    0.67
   7   2   2    1.77    0.28
  -7   2  -2    2.07    0.27
  -7   2  -2    2.20    0.28
   7   2   2    1.92    0.30
   7   2   2    2.02    0.27
   7   2   2    1.67    0.27
  -7   2  -3   10.57    0.57
   7   2   3   10.60    0.61
  -7   2  -3   10.26    0.58
  -7   2  -3   10.24    0.58
   7   2   3    9.55    0.59
   7   2   3    8.43    0.53
  -7   2  -4   16.58    0.64
   7   2   4   18.27    0.74
  -7   2  -4   18.57    0.72
  -7   2  -4   17.81    0.71
   7   2   4   17.74    0.74
   7   2   4   17.40    0.70
  -7   2  -5    0.66    0.12
  -7   2  -5    0.53    0.11
   7   2   5    0.69    0.13
   7   2   5    0.58    0.12
  -7   3  11    5.48    0.33
   7   3 -11    5.71    0.33
   7   3 -10    6.08    0.39
  -7   3  10    5.26    0.35
  -7   3  10    6.24    0.40
   7   3 -10    5.96    0.37
   7   3 -10    6.45    0.43
   7   3  -9   10.01    0.57
  -7   3   9   10.81    0.58
  -7   3   9   10.78    0.54
   7   3  -9   10.70    0.59
   7   3  -9   10.14    0.55
   7   3  -9   10.49    0.62
   7   3  -8   22.50    0.93
  -7   3   8   23.30    0.91
   7   3  -8   22.66    0.95
   7   3  -8   22.46    0.90
   7   3  -8   24.20    1.00
   7   3  -7   19.96    0.88
  -7   3   7   20.65    0.82
   7   3  -7   19.63    0.89
   7   3  -7   20.13    0.92
  -7   3   6   28.71    1.01
   7   3  -6   30.32    1.11
   7   3  -6   30.62    1.06
  -7   3   6   32.18    1.09
  -7   3   6   30.97    1.03
   7   3  -6   29.87    1.13
  -7   3   5   23.69    0.92
   7   3  -5   23.55    0.96
   7   3  -5   23.41    0.90
  -7   3   5   23.46    0.91
   7   3  -5   24.18    0.95
  -7   3   4   39.96    1.25
   7   3  -4   38.49    1.27
   7   3  -4   38.29    1.20
  -7   3   4   41.42    1.26
   7   3  -4   39.13    1.26
  -7   3   3  208.83    3.88
   7   3  -3  195.94    3.85
   7   3  -3  198.42    3.92
   7   3  -3  197.40    3.73
  -7   3   3  192.31    3.78
   7   3  -3  199.02    3.86
  -7   3   3  192.54    3.72
   7   3  -2   57.36    1.69
   7   3  -2   61.73    1.73
  -7   3   2   60.89    1.63
  -7   3   2   64.32    1.62
   7   3  -2   59.47    1.69
  -7   3   2   60.34    1.63
   7   3  -1   40.93    1.36
   7   3  -1   40.77    1.36
  -7   3   1   36.87    1.15
  -7   3   1   40.20    1.23
  -7   3   1   39.82    1.26
   7   3  -1   40.41    1.34
  -7   3   1   39.41    1.27
   7   3   0   36.03    1.29
   7   3   0   37.31    1.32
  -7   3   0   36.73    1.14
  -7   3   0   38.35    1.26
   7   3   0   38.52    1.33
  -7   3   0   38.07    1.26
   7   3   1   63.51    1.84
  -7   3  -1   65.84    1.77
  -7   3  -1   67.66    1.70
   7   3   1   64.61    1.85
  -7   3  -1   64.51    1.75
  -7   3  -2   38.94    1.23
  -7   3  -2   39.34    1.23
   7   3   2   37.93    1.32
   7   3   2   38.11    1.23
   7   3   3   57.07    1.60
  -7   3  -3   59.36    1.54
  -7   3  -3   58.22    1.52
   7   3   3   58.03    1.63
   7   3   3   57.95    1.53
   7   3   4    9.29    0.47
  -7   3  -4    8.41    0.41
   7   3   4    8.79    0.48
  -7   3  -4    9.30    0.47
  -7   3  -4    9.73    0.48
   7   3   4    8.93    0.50
   7   3   4    8.86    0.46
   7   4 -10    1.87    0.21
  -7   4  10    1.56    0.19
   7   4 -10    1.89    0.20
   7   4 -10    2.12    0.22
   7   4  -9    3.51    0.33
  -7   4   9    2.80    0.27
  -7   4   9    3.02    0.27
   7   4  -9    2.68    0.27
   7   4  -9    3.05    0.31
   7   4  -8   15.65    0.75
  -7   4   8   15.39    0.71
   7   4  -8   15.20    0.72
   7   4  -8   15.33    0.76
   7   4  -7   45.68    1.43
  -7   4   7   44.18    1.30
   7   4  -7   47.01    1.47
   7   4  -6   89.02    2.21
   7   4  -6   87.88    2.13
  -7   4   6   89.53    2.07
   7   4  -6   89.02    2.17
  -7   4   5   73.90    1.82
   7   4  -5   72.36    1.94
   7   4  -5   72.68    1.87
  -7   4   5   69.71    1.82
  -7   4   4    9.75    0.58
   7   4  -4    8.50    0.58
   7   4  -4    9.32    0.57
  -7   4   4    8.46    0.55
   7   4  -3   22.28    0.98
   7   4  -3   23.32    0.98
   7   4  -3   22.86    0.96
   7   4  -3   23.29    0.93
  -7   4   3   21.42    0.88
   7   4  -2   41.08    1.39
   7   4  -2   42.92    1.39
  -7   4   2   42.46    1.32
  -7   4   2   40.77    1.27
   7   4  -2   41.27    1.31
  -7   4   2   42.07    1.33
   7   4  -1   17.34    0.87
   7   4  -1   18.65    0.88
  -7   4   1   18.26    0.80
  -7   4   1   17.62    0.80
   7   4  -1   18.18    0.84
  -7   4   1   20.98    0.89
   7   4   0   18.75    0.89
  -7   4   0   19.31    0.79
  -7   4   0   20.77    0.88
   7   4   0   20.06    0.90
  -7   4   0   18.90    0.86
   7   4   1    0.39    0.16
  -7   4  -1    0.73    0.17
  -7   4  -1    0.78    0.16
   7   4   1    0.91    0.20
  -7   4  -1    0.59    0.17
   7   4   2   14.81    0.75
   7   4   2   16.45    0.79
  -7   4  -2   15.61    0.71
  -7   4  -2   16.91    0.71
   7   4   2   16.45    0.77
  -7   4  -2   15.35    0.70
   7   4   3   10.37    0.56
   7   4   3    9.49    0.54
  -7   4  -3   10.51    0.53
  -7   4  -3   10.47    0.51
   7   4   3    9.56    0.53
   7   4   4    3.60    0.27
   7   4   4    3.69    0.28
  -7   4  -4    3.72    0.27
  -7   4  -4    3.28    0.25
   7   4   4    3.32    0.27
   7   5  -9   25.24    0.86
   7   5  -9   26.66    0.83
   7   5  -9   25.28    0.80
   7   5  -8    0.02    0.09
   7   5  -8    0.02    0.09
   7   5  -8    0.02    0.08
   7   5  -7    7.53    0.52
  -7   5   7    8.23    0.48
   7   5  -7    6.49    0.47
   7   5  -6   18.89    0.83
  -7   5   6   18.48    0.77
   7   5  -5    9.93    0.61
  -7   5   5   11.39    0.62
  -7   5   4   71.38    1.79
   7   5  -4   68.87    1.84
  -7   5   4   68.22    1.73
   7   5  -3   18.97    0.90
   7   5  -3   19.51    0.87
  -7   5   3   19.38    0.84
   7   5  -2   48.06    1.51
   7   5  -2   45.47    1.42
   7   5  -2   44.44    1.42
  -7   5   2   46.06    1.36
  -7   5   2   48.07    1.43
   7   5  -1   10.64    0.66
   7   5  -1    9.68    0.60
  -7   5   1    9.97    0.57
  -7   5   1    9.90    0.58
  -7   5   1    9.57    0.59
   7   5   0   27.38    1.08
   7   5   0   27.46    1.05
  -7   5   0   27.35    0.93
  -7   5   0   26.81    1.00
   7   5   1   14.79    0.74
   7   5   1   13.00    0.68
  -7   5  -1   13.73    0.67
  -7   5  -1   12.82    0.64
   7   5   2   49.94    1.40
   7   5   2   50.14    1.38
  -7   5  -2   48.70    1.32
  -7   5  -2   49.45    1.24
   7   5   2   50.58    1.31
  -7   5  -2   48.43    1.28
  -7   5  -3    9.19    0.39
   7   5   3    9.74    0.48
  -7   5  -3   10.15    0.46
  -7   5  -3    9.96    0.43
   7   5   3    9.50    0.44
   7   6  -8   11.17    0.53
  -7   6   8   11.53    0.49
   7   6  -8   10.83    0.51
   7   6  -7   34.58    1.10
  -7   6   7   32.49    0.96
   7   6  -7   33.28    1.01
   7   6  -6    2.83    0.32
   7   6  -6    2.71    0.30
  -7   6   6    3.07    0.28
   7   6  -6    3.11    0.31
   7   6  -5   62.78    1.70
   7   6  -5   60.09    1.64
  -7   6   5   61.39    1.60
   7   6  -5   59.91    1.50
  -7   6   4    3.54    0.32
   7   6  -4    3.34    0.35
   7   6  -4    3.18    0.34
   7   6  -4    3.43    0.31
  -7   6   4    2.98    0.29
  -7   6   3    1.55    0.23
   7   6  -3    1.33    0.24
   7   6  -3    1.43    0.24
  -7   6   3    1.58    0.23
   7   6  -2    3.27    0.35
   7   6  -2    2.79    0.33
   7   6  -2    3.36    0.35
  -7   6   2    3.07    0.30
  -7   6   2    3.04    0.32
   7   6  -1    2.40    0.30
   7   6  -1    2.95    0.33
   7   6  -1    2.33    0.29
  -7   6   1    2.31    0.26
  -7   6   1    2.03    0.25
  -7   6   1    2.63    0.30
   7   6   0    5.72    0.43
   7   6   0    5.29    0.42
   7   6   0    4.89    0.37
  -7   6   0    5.15    0.35
  -7   6   0    5.15    0.38
   7   6   1    0.17    0.10
   7   6   1    0.10    0.08
   7   6   1    0.12    0.10
  -7   6  -1    0.17    0.09
  -7   6  -1    0.21    0.10
   7   6   2    0.42    0.11
   7   6   2    0.50    0.11
   7   6   2    0.43    0.12
   7   7  -7   18.10    0.65
   7   7  -6    8.58    0.46
  -7   7   6    7.70    0.38
   7   7  -5    2.11    0.25
  -7   7   5    2.12    0.23
   7   7  -5    1.94    0.21
   7   7  -4   27.18    0.94
  -7   7   4   26.84    0.89
   7   7  -4   26.42    0.85
  -7   7   4   26.27    0.83
  -7   7   3   30.50    0.91
   7   7  -3   31.37    1.04
   7   7  -3   29.75    1.01
  -7   7   3   32.95    1.00
   7   7  -3   29.66    0.94
   7   7  -3   30.19    0.90
  -7   7   3   31.55    0.97
  -7   7   2   21.52    0.76
   7   7  -2   22.08    0.83
   7   7  -2   19.93    0.79
  -7   7   2   21.93    0.78
  -7   7   2   21.40    0.72
  -7   7   2   21.17    0.78
   7   7  -1    7.94    0.46
   7   7  -1    7.44    0.44
  -7   7   1    7.00    0.36
  -7   7   1    7.06    0.39
  -7   7   1    7.52    0.41
  -7   7   1    6.92    0.42
   7   7   0    2.30    0.23
   7   7   0    2.36    0.24
  -7   7   0    2.32    0.19
  -7   7   0    2.48    0.23
   7   7   1   23.03    0.71
  -7   7  -1   22.50    0.68
  -7   7  -1   22.27    0.66
   7   8  -4    7.41    0.37
  -7   8   4    7.42    0.35
   7   8  -3   24.12    0.74
  -7   8   3   23.54    0.70
   7   8  -2   10.24    0.44
   8  -7  -6    5.41    0.28
   8  -7  -6    6.07    0.34
   8  -7  -5    7.50    0.39
  -8  -7   5    7.39    0.39
   8  -7  -5    6.33    0.36
  -8  -7   5    6.97    0.38
  -8  -7   4    1.61    0.19
   8  -7  -4    1.20    0.16
  -8  -7   4    1.68    0.18
  -8  -7   3   13.69    0.56
   8  -7  -3   13.55    0.57
   8  -7  -2   10.77    0.47
  -8  -7   2   10.13    0.45
   8  -7  -2    9.34    0.45
   8  -6  -8    5.42    0.31
  -8  -6   8    5.56    0.33
  -8  -6   8    5.61    0.32
  -8  -6   7   25.59    0.85
   8  -6  -7   27.92    0.89
  -8  -6   7   24.55    0.76
  -8  -6   7   26.32    0.87
  -8  -6   6    2.75    0.27
   8  -6  -6    2.55    0.25
  -8  -6   6    2.59    0.26
   8  -6  -6    2.67    0.28
  -8  -6   5    4.09    0.35
   8  -6  -5    3.39    0.32
  -8  -6   5    2.88    0.30
  -8  -6   5    2.95    0.27
  -8  -6   5    3.06    0.31
   8  -6  -5    2.83    0.28
  -8  -6   4    0.34    0.14
  -8  -6   4    0.13    0.09
   8  -6  -4    0.36    0.12
  -8  -6   3    5.54    0.42
  -8  -6   3    6.32    0.44
   8  -6  -3    5.47    0.43
   8  -6  -3    5.58    0.43
  -8  -6   3    5.81    0.39
   8  -6  -3    6.08    0.41
  -8  -6   2    2.85    0.29
   8  -6  -2    2.43    0.28
   8  -6  -2    2.80    0.29
   8  -6  -2    2.29    0.25
  -8  -6   2    2.28    0.25
  -8  -6   1    2.11    0.22
   8  -6  -1    2.24    0.24
   8  -6  -1    2.18    0.24
   8  -6  -1    2.13    0.23
  -8  -6   1    1.91    0.24
   8  -6   0    7.36    0.41
  -8  -6   0    8.38    0.45
  -8  -6  -1    2.10    0.18
  -8  -5   9    5.19    0.33
   8  -5  -9    6.00    0.36
  -8  -5   9    5.48    0.34
   8  -5  -8    0.50    0.14
  -8  -5   8    0.31    0.11
  -8  -5   8    0.46    0.13
   8  -5  -7   46.01    1.23
  -8  -5   7   45.15    1.28
  -8  -5   7   48.18    1.41
   8  -5  -7   48.85    1.40
  -8  -5   7   48.00    1.33
  -8  -5   6   41.94    1.32
  -8  -5   6   43.50    1.35
   8  -5  -6   42.45    1.29
   8  -5  -6   43.42    1.33
  -8  -5   6   39.93    1.21
   8  -5  -6   41.40    1.30
   8  -5  -6   42.17    1.29
  -8  -5   6   43.90    1.30
  -8  -5   5    8.60    0.58
   8  -5  -5    8.97    0.56
   8  -5  -5    9.64    0.59
   8  -5  -5    8.80    0.55
  -8  -5   5    9.58    0.59
   8  -5  -4    7.54    0.50
   8  -5  -4    7.70    0.53
   8  -5  -4    7.22    0.52
   8  -5  -4    6.89    0.49
  -8  -5   4    7.72    0.54
  -8  -5   3   15.17    0.76
   8  -5  -3   13.51    0.70
  -8  -5   3   14.09    0.68
   8  -5  -3   15.02    0.75
   8  -5  -3   13.69    0.68
  -8  -5   2   26.62    1.00
   8  -5  -2   28.09    1.02
   8  -5  -2   26.71    1.02
  -8  -5   2   27.04    1.03
   8  -5  -2   26.11    0.95
  -8  -5   2   27.88    1.04
  -8  -5   1   43.37    1.23
   8  -5  -1   42.18    1.28
   8  -5  -1   42.23    1.28
   8  -5  -1   44.02    1.33
  -8  -5   1   46.57    1.39
  -8  -5   1   42.23    1.27
   8  -5   0   15.97    0.68
   8  -5   0   16.35    0.71
  -8  -5   0   16.88    0.76
   8  -5   1   20.28    0.70
   8  -5   1   21.65    0.76
  -8  -5  -1   22.79    0.82
  -8  -5  -2    2.77    0.23
  -8  -5  -2    3.12    0.24
  -8  -4  10    3.80    0.26
   8  -4 -10    4.58    0.30
  -8  -4  10    4.06    0.29
  -8  -4   9    0.35    0.12
   8  -4  -9    0.38    0.12
   8  -4  -9    0.34    0.10
  -8  -4   9    0.28    0.11
  -8  -4   8   14.67    0.73
   8  -4  -8   15.53    0.73
  -8  -4   8   14.97    0.72
   8  -4  -8   15.23    0.66
  -8  -4   7   17.06    0.77
   8  -4  -7   17.29    0.80
  -8  -4   7   16.60    0.78
  -8  -4   7   16.23    0.79
   8  -4  -7   17.16    0.81
   8  -4  -7   15.52    0.71
   8  -4  -7   15.58    0.77
  -8  -4   6    0.78    0.18
  -8  -4   6    0.60    0.17
   8  -4  -6    0.72    0.18
  -8  -4   6    0.89    0.19
   8  -4  -6    0.88    0.21
   8  -4  -6    1.13    0.23
  -8  -4   5   42.51    1.42
   8  -4  -5   41.33    1.33
  -8  -4   5   41.10    1.38
   8  -4  -5   43.07    1.42
  -8  -4   5   41.56    1.39
   8  -4  -5   42.51    1.40
   8  -4  -4   12.16    0.65
   8  -4  -4   12.84    0.70
   8  -4  -4   12.25    0.71
  -8  -4   4   11.86    0.70
   8  -4  -4   12.53    0.71
  -8  -4   3    0.24    0.11
  -8  -4   3    0.22    0.13
   8  -4  -3    0.47    0.15
   8  -4  -3    0.35    0.15
  -8  -4   3    0.33    0.14
   8  -4  -3    0.34    0.15
  -8  -4   2   11.67    0.66
  -8  -4   2   11.74    0.66
   8  -4  -2   11.10    0.64
   8  -4  -2   12.23    0.71
  -8  -4   2   12.45    0.71
  -8  -4   2   11.28    0.67
  -8  -4   2   12.34    0.66
   8  -4  -2   10.86    0.65
  -8  -4   1   15.85    0.79
  -8  -4   1   17.09    0.75
   8  -4  -1   16.42    0.76
   8  -4  -1   14.97    0.79
  -8  -4   1   17.79    0.86
  -8  -4   1   16.51    0.79
  -8  -4   1   16.01    0.76
   8  -4  -1   16.23    0.78
  -8  -4   0   28.40    1.06
   8  -4   0   26.68    0.94
   8  -4   0   28.23    1.07
  -8  -4   0   28.52    1.09
  -8  -4   0   27.80    1.04
   8  -4   0   27.60    1.01
  -8  -4   0   26.84    0.92
  -8  -4  -1   38.27    1.18
   8  -4   1   37.96    1.21
  -8  -4  -1   38.40    1.20
   8  -4   1   37.98    1.13
   8  -4   2   15.16    0.65
  -8  -4  -2   15.96    0.65
  -8  -4  -3   27.08    0.75
   8  -3 -11   25.57    0.72
  -8  -3  10    6.17    0.34
  -8  -3  10    7.38    0.40
   8  -3 -10    7.27    0.43
  -8  -3  10    7.18    0.43
  -8  -3   9   22.69    0.88
  -8  -3   9   21.25    0.81
   8  -3  -9   22.77    0.82
   8  -3  -9   22.95    0.87
   8  -3  -8   32.47    1.15
  -8  -3   8   34.15    1.20
  -8  -3   8   33.97    1.16
   8  -3  -8   33.23    1.09
   8  -3  -8   35.12    1.18
   8  -3  -8   32.05    1.18
   8  -3  -7    7.68    0.53
  -8  -3   7    8.89    0.58
  -8  -3   7    8.11    0.56
   8  -3  -7    7.48    0.55
   8  -3  -7    8.31    0.56
   8  -3  -6   59.94    1.67
  -8  -3   6   61.35    1.68
   8  -3  -6   61.02    1.77
  -8  -3   6   62.33    1.70
   8  -3  -6   58.05    1.67
   8  -3  -6   59.48    1.76
  -8  -3   5    3.84    0.36
  -8  -3   5    3.29    0.36
  -8  -3   5    4.15    0.41
   8  -3  -5    4.31    0.43
   8  -3  -5    3.62    0.36
   8  -3  -5    3.31    0.38
  -8  -3   4  170.30    3.51
   8  -3  -4  181.00    3.55
  -8  -3   4  174.25    3.55
  -8  -3   4  177.87    3.66
   8  -3  -4  177.36    3.66
   8  -3  -4  171.05    3.48
   8  -3  -4  177.05    3.67
  -8  -3   3   26.02    0.98
  -8  -3   3   27.24    1.01
  -8  -3   3   27.76    1.02
   8  -3  -3   27.90    1.12
  -8  -3   3   26.19    0.99
   8  -3  -3   28.60    1.13
  -8  -3   2    6.08    0.47
  -8  -3   2    5.47    0.46
  -8  -3   2    5.41    0.45
   8  -3  -2    5.77    0.49
  -8  -3   1    9.17    0.59
  -8  -3   1    7.50    0.50
  -8  -3   1    8.24    0.54
  -8  -3   1    8.80    0.58
   8  -3  -1    8.63    0.60
  -8  -3   0   78.17    2.02
   8  -3   0   81.69    2.02
  -8  -3   0   77.12    1.87
  -8  -3   0   82.46    2.07
   8  -3   0   79.52    2.06
  -8  -3  -1   67.88    1.77
   8  -3   1   66.87    1.73
  -8  -3  -1   68.20    1.81
   8  -3   1   64.61    1.75
  -8  -3  -2   12.67    0.60
   8  -3   2   12.93    0.60
  -8  -3  -2   12.78    0.62
  -8  -3  -2   12.75    0.61
   8  -3   2   12.87    0.62
  -8  -3  -3   12.00    0.48
  -8  -3  -3   12.12    0.52
   8  -3   3   13.19    0.57
  -8  -3  -3   11.59    0.49
   8  -3   3   11.39    0.48
  -8  -2  11    2.50    0.22
  -8  -2  10    1.86    0.21
  -8  -2  10    1.71    0.20
  -8  -2  10    1.61    0.22
   8  -2 -10    1.53    0.21
  -8  -2   9   12.83    0.61
  -8  -2   9   12.69    0.67
  -8  -2   9   11.97    0.61
   8  -2  -9   13.12    0.67
   8  -2  -9   12.46    0.67
  -8  -2   8    0.90    0.20
  -8  -2   8    1.12    0.21
  -8  -2   8    1.47    0.24
   8  -2  -8    1.36    0.24
   8  -2  -8    1.09    0.23
   8  -2  -8    1.05    0.22
  -8  -2   7   15.59    0.78
  -8  -2   7   15.11    0.73
  -8  -2   7   15.24    0.78
   8  -2  -7   15.42    0.77
   8  -2  -7   16.33    0.82
   8  -2  -7   14.44    0.78
   8  -2  -7   15.24    0.80
  -8  -2   6    5.41    0.44
  -8  -2   6    5.10    0.40
  -8  -2   6    6.20    0.47
   8  -2  -6    5.77    0.46
   8  -2  -6    4.97    0.45
   8  -2  -6    5.92    0.48
   8  -2  -6    6.11    0.51
  -8  -2   5   12.29    0.68
  -8  -2   5   12.18    0.63
  -8  -2   5   11.37    0.67
  -8  -2   5   11.80    0.67
   8  -2  -5   11.84    0.65
   8  -2  -5   11.22    0.68
   8  -2  -5   11.18    0.67
   8  -2  -5   12.33    0.72
  -8  -2   4   60.88    1.70
  -8  -2   4   61.60    1.69
  -8  -2   4   64.92    1.78
   8  -2  -4   61.44    1.77
   8  -2  -4   63.67    1.75
   8  -2  -4   61.09    1.78
  -8  -2   3   93.12    2.19
  -8  -2   3   93.29    2.17
  -8  -2   3   92.68    2.16
   8  -2  -3   91.67    2.31
   8  -2  -3   95.84    2.27
  -8  -2   3   92.95    2.16
  -8  -2   2   84.03    2.00
  -8  -2   2   86.25    2.12
  -8  -2   2   89.85    2.17
   8  -2  -2   88.60    2.25
   8  -2  -2   84.17    2.11
   8  -2  -2   85.93    2.24
  -8  -2   1   11.93    0.67
  -8  -2   1   13.07    0.68
   8  -2  -1   11.77    0.71
   8  -2  -1   12.02    0.66
   8  -2  -1   11.69    0.71
  -8  -2   0   32.81    1.17
  -8  -2   0   30.61    1.04
   8  -2   0   30.37    1.08
  -8  -2   0   32.62    1.18
   8  -2   0   31.62    1.21
  -8  -2  -1   35.58    1.15
  -8  -2  -1   38.54    1.29
   8  -2   1   36.25    1.27
  -8  -2  -2   42.97    1.28
  -8  -2  -2   44.18    1.27
  -8  -2  -2   43.89    1.29
  -8  -2  -2   45.68    1.33
   8  -2   2   43.87    1.35
  -8  -2  -3    7.89    0.42
  -8  -2  -3    7.70    0.43
  -8  -2  -3    6.66    0.37
  -8  -2  -3    7.23    0.41
   8  -2   3    8.25    0.46
  -8  -1  11   25.23    0.77
  -8  -1  11   24.97    0.79
   8  -1 -11   27.39    0.84
  -8  -1  10   17.34    0.70
  -8  -1  10   16.31    0.72
  -8  -1  10   16.68    0.65
   8  -1 -10   16.65    0.74
   8  -1 -10   16.91    0.75
   8  -1 -10   17.38    0.69
  -8  -1   9   12.69    0.64
  -8  -1   9   13.34    0.69
  -8  -1   9   13.33    0.68
  -8  -1   9   12.61    0.63
   8  -1  -9   13.09    0.70
   8  -1  -9   12.64    0.70
   8  -1  -9   12.08    0.62
  -8  -1   8   29.95    1.03
  -8  -1   8   30.04    1.13
  -8  -1   8   29.26    1.08
  -8  -1   8   28.39    1.08
   8  -1  -8   32.19    1.18
   8  -1  -8   30.11    1.14
   8  -1  -8   31.04    1.07
  -8  -1   7    9.13    0.59
  -8  -1   7   10.78    0.64
  -8  -1   7   10.23    0.59
  -8  -1   7    9.19    0.59
   8  -1  -7   10.15    0.64
   8  -1  -7    9.44    0.61
   8  -1  -7   10.02    0.65
   8  -1  -7    9.53    0.62
  -8  -1   6    9.70    0.60
  -8  -1   6    9.97    0.60
  -8  -1   6    9.83    0.56
  -8  -1   6   11.85    0.64
   8  -1  -6    9.66    0.62
   8  -1  -6   11.06    0.65
   8  -1  -6    9.56    0.63
   8  -1  -6    8.86    0.61
  -8  -1   5   39.90    1.26
  -8  -1   5   44.69    1.38
  -8  -1   5   43.18    1.35
   8  -1  -5   41.42    1.35
   8  -1  -5   39.77    1.33
   8  -1  -5   40.58    1.37
   8  -1  -5   40.17    1.37
   8  -1  -5   42.77    1.35
  -8  -1   4   46.23    1.41
  -8  -1   4   47.74    1.41
   8  -1  -4   47.65    1.47
   8  -1  -4   46.15    1.47
   8  -1  -4   48.21    1.51
  -8  -1   3   38.80    1.24
  -8  -1   3   40.42    1.22
  -8  -1   3   39.88    1.21
   8  -1  -3   38.92    1.31
   8  -1  -3   39.30    1.32
   8  -1  -3   40.39    1.37
  -8  -1   2   23.23    0.90
  -8  -1   2   23.50    0.93
  -8  -1   2   24.10    0.96
   8  -1  -2   22.96    0.98
   8  -1  -2   23.47    0.99
   8  -1  -2   23.14    1.01
  -8  -1   1   18.03    0.83
  -8  -1   1   17.40    0.79
   8  -1  -1   16.78    0.82
   8  -1  -1   16.91    0.86
  -8  -1   0  200.04    3.85
  -8  -1   0  193.05    3.65
  -8  -1   0  186.03    3.68
   8  -1   0  190.07    3.83
   8  -1   0  190.63    3.93
  -8  -1  -1   23.63    0.90
  -8  -1  -1   22.16    0.90
   8  -1   1   22.85    0.93
  -8  -1  -2   10.91    0.60
  -8  -1  -2   10.69    0.57
  -8  -1  -2   10.59    0.58
  -8  -1  -2    9.74    0.56
   8  -1   2   10.25    0.56
  -8  -1  -2   10.43    0.58
  -8  -1  -3    5.29    0.36
  -8  -1  -3    5.39    0.37
  -8  -1  -3    6.10    0.38
   8  -1   3    5.73    0.41
  -8  -1  -4   13.49    0.50
   8  -1   4   12.98    0.52
  -8   0  11    3.36    0.27
  -8   0  11    3.35    0.26
  -8   0  11    3.01    0.24
   8   0 -11    3.54    0.29
   8   0 -11    3.26    0.26
  -8   0  10    5.05    0.38
  -8   0  10    5.06    0.38
  -8   0  10    5.32    0.37
   8   0 -10    5.56    0.42
   8   0 -10    5.89    0.43
   8   0 -10    5.68    0.41
   8   0  -9    0.06    0.08
  -8   0   9    0.04    0.07
  -8   0   9   -0.02    0.09
  -8   0   9    0.06    0.09
  -8   0   9    0.10    0.09
   8   0  -9    0.14    0.12
  -8   0   8    0.64    0.16
  -8   0   8    0.54    0.15
  -8   0   8    0.93    0.20
   8   0  -8    0.78    0.20
   8   0  -8    0.76    0.19
   8   0  -8    0.49    0.15
  -8   0   7   53.34    1.56
  -8   0   7   54.88    1.52
  -8   0   7   59.11    1.64
  -8   0   7   54.01    1.54
  -8   0   7   58.59    1.64
   8   0  -7   56.69    1.69
   8   0  -7   53.81    1.55
   8   0  -7   55.12    1.67
   8   0  -7   53.73    1.60
   8   0  -7   54.02    1.58
  -8   0   6    3.28    0.35
  -8   0   6    3.36    0.34
  -8   0   6    3.75    0.36
  -8   0   6    3.25    0.32
   8   0  -6    3.61    0.38
   8   0  -6    3.23    0.34
   8   0  -6    3.28    0.37
   8   0  -6    3.22    0.35
   8   0  -6    3.29    0.34
   8   0  -6    3.28    0.34
  -8   0   5   20.52    0.87
  -8   0   5   21.64    0.88
  -8   0   5   19.31    0.86
   8   0  -5   21.59    0.94
   8   0  -5   18.67    0.83
   8   0  -5   20.08    0.90
   8   0  -5   19.35    0.85
  -8   0   4    4.87    0.41
  -8   0   4    4.66    0.39
   8   0  -4    5.78    0.45
   8   0  -4    5.53    0.45
  -8   0   3   28.37    1.04
  -8   0   3   28.91    1.00
  -8   0   3   31.36    1.07
  -8   0   3   29.28    0.99
   8   0  -3   29.06    1.06
   8   0  -3   30.29    1.15
   8   0  -3   29.95    1.13
   8   0  -3   28.63    1.07
  -8   0   2  304.32    5.43
  -8   0   2  310.45    5.45
   8   0  -2  313.07    5.55
  -8   0   2  300.98    5.38
   8   0  -2  300.70    5.50
   8   0  -2  311.46    5.64
   8   0  -2  313.48    5.64
   8   0  -2  302.17    5.48
  -8   0   1    3.37    0.32
  -8   0   1    3.41    0.36
   8   0  -1    3.43    0.36
   8   0  -1    3.94    0.40
   8   0  -1    3.65    0.39
   8   0  -1    3.31    0.34
  -8   0   0   95.50    2.29
   8   0   0   95.49    2.26
  -8   0   0   92.02    2.12
  -8   0   0   93.25    2.17
   8   0   0   98.74    2.39
   8   0   0   99.33    2.41
   8   0   1    7.69    0.50
  -8   0  -1    7.27    0.48
  -8   0  -1    7.53    0.50
   8   0   1    6.95    0.52
   8   0   1    6.99    0.54
  -8   0  -2   41.54    1.26
   8   0   2   37.71    1.15
  -8   0  -2   39.29    1.21
  -8   0  -2   41.13    1.23
   8   0   2   39.78    1.27
   8   0   2   40.37    1.33
   8   0   2   40.97    1.31
  -8   0  -3   28.06    0.90
  -8   0  -3   28.33    0.92
  -8   0  -3   29.55    0.93
   8   0   3   27.09    0.92
  -8   0  -3   27.45    0.89
   8   0   3   28.04    0.98
  -8   0  -4    8.55    0.40
   8   0   4    8.19    0.42
  -8   1  11   27.82    0.84
  -8   1  11   25.16    0.76
  -8   1  11   27.78    0.83
  -8   1  11   27.56    0.82
   8   1 -11   28.24    0.85
   8   1 -11   28.76    0.85
  -8   1  10   14.58    0.65
  -8   1  10   13.86    0.63
  -8   1  10   14.92    0.66
   8   1 -10   14.39    0.68
   8   1 -10   14.65    0.65
   8   1 -10   13.10    0.64
  -8   1   9   14.13    0.71
  -8   1   9   13.80    0.69
  -8   1   9   14.29    0.67
   8   1  -9   14.57    0.75
   8   1  -9   13.86    0.71
   8   1  -9   14.30    0.72
  -8   1   8   28.18    1.00
  -8   1   8   29.85    1.10
  -8   1   8   28.81    1.06
   8   1  -8   28.41    1.13
   8   1  -8   29.94    1.13
   8   1  -8   30.35    1.13
  -8   1   7   11.72    0.64
  -8   1   7   11.60    0.62
  -8   1   7   11.14    0.64
   8   1  -7   10.78    0.68
   8   1  -7   11.85    0.69
   8   1  -7   11.04    0.66
   8   1  -7   10.85    0.58
  -8   1   6   11.12    0.62
  -8   1   6   10.13    0.59
  -8   1   6   10.70    0.58
   8   1  -6    9.65    0.63
   8   1  -6   10.24    0.60
   8   1  -5   38.80    1.27
  -8   1   5   38.62    1.26
  -8   1   5   39.34    1.27
  -8   1   5   37.83    1.24
  -8   1   5   42.60    1.28
   8   1  -5   37.94    1.33
   8   1  -5   39.11    1.26
  -8   1   4   41.63    1.32
  -8   1   4   41.97    1.28
  -8   1   4   41.90    1.30
   8   1  -4   42.02    1.40
   8   1  -4   42.28    1.33
   8   1  -3   46.29    1.42
  -8   1   3   46.54    1.40
   8   1  -3   47.21    1.47
  -8   1   3   45.61    1.36
  -8   1   3   47.34    1.32
   8   1  -3   44.68    1.47
   8   1  -3   44.62    1.40
   8   1  -2   17.92    0.81
   8   1  -2   17.59    0.79
  -8   1   2   17.22    0.78
  -8   1   2   16.90    0.76
   8   1  -2   17.02    0.83
  -8   1   2   17.55    0.76
  -8   1   2   16.89    0.77
   8   1  -2   16.44    0.84
   8   1  -2   17.91    0.84
   8   1  -1   23.25    0.92
  -8   1   1   23.40    0.91
  -8   1   1   25.67    0.98
   8   1  -1   24.28    1.00
  -8   1   1   23.32    0.85
  -8   1   1   23.26    0.90
   8   1  -1   23.21    0.99
   8   1  -1   23.70    0.92
   8   1   0  190.32    3.69
  -8   1   0  187.39    3.61
  -8   1   0  200.04    3.83
   8   1   0  193.64    3.85
   8   1   0  193.43    3.93
   8   1   0  192.64    3.89
  -8   1  -1   21.14    0.89
   8   1   1   22.15    0.92
  -8   1  -1   20.06    0.82
  -8   1  -1   21.46    0.86
   8   1   1   22.53    0.97
   8   1   1   19.96    0.91
  -8   1  -2   14.29    0.67
   8   1   2   12.59    0.64
  -8   1  -2   13.50    0.64
  -8   1  -2   13.30    0.63
   8   1   2   12.45    0.68
   8   1   2   13.86    0.71
  -8   1  -3    3.53    0.29
   8   1   3    3.47    0.29
  -8   1  -3    3.46    0.29
  -8   1  -3    4.09    0.32
   8   1   3    3.70    0.32
   8   1   3    3.75    0.33
  -8   1  -4   15.06    0.54
  -8   1  -4   15.87    0.55
   8   1   4   14.81    0.57
  -8   2  11    2.75    0.23
  -8   2  11    2.92    0.23
  -8   2  11    2.79    0.23
   8   2 -11    2.92    0.24
  -8   2  10    1.74    0.21
  -8   2  10    1.61    0.21
   8   2 -10    2.08    0.24
  -8   2   9   12.14    0.63
  -8   2   9   13.10    0.62
   8   2  -9   13.39    0.69
   8   2  -9   13.25    0.65
   8   2  -8    1.04    0.18
  -8   2   8    1.05    0.21
   8   2  -8    0.77    0.19
   8   2  -8    1.08    0.22
   8   2  -8    0.74    0.19
   8   2  -7   15.85    0.70
  -8   2   7   15.31    0.72
   8   2  -7   14.89    0.70
  -8   2   7   15.15    0.71
  -8   2   7   15.53    0.75
   8   2  -7   14.89    0.79
   8   2  -7   14.59    0.76
   8   2  -7   14.77    0.78
   8   2  -6    5.27    0.42
  -8   2   6    5.41    0.43
   8   2  -6    4.62    0.39
  -8   2   6    4.98    0.41
  -8   2   6    6.21    0.44
   8   2  -6    4.88    0.45
   8   2  -6    5.26    0.45
  -8   2   5   13.56    0.70
   8   2  -5   13.91    0.71
   8   2  -5   12.38    0.64
  -8   2   5   13.17    0.68
  -8   2   5   12.79    0.66
  -8   2   5   13.03    0.69
   8   2  -5   13.01    0.72
  -8   2   4   65.74    1.77
   8   2  -4   65.70    1.71
  -8   2   4   61.99    1.71
  -8   2   4   67.76    1.77
  -8   2   4   69.71    1.76
   8   2  -4   68.00    1.87
   8   2  -3   92.03    2.23
   8   2  -3   85.97    2.09
   8   2  -3   89.76    2.27
  -8   2   3   91.78    2.13
  -8   2   3   89.16    2.05
   8   2  -3   92.68    2.29
  -8   2   3   89.05    2.08
   8   2  -2   90.19    2.20
  -8   2   2   89.16    2.15
   8   2  -2   86.99    2.13
  -8   2   2   85.89    2.04
  -8   2   2   91.83    2.14
   8   2  -2   89.91    2.27
  -8   2   2   88.90    2.14
   8   2  -1   11.89    0.67
   8   2  -1   10.61    0.59
  -8   2   1   12.00    0.64
   8   2  -1   11.91    0.70
  -8   2   1   11.19    0.56
  -8   2   1   11.13    0.60
   8   2  -1   11.48    0.70
   8   2  -1   11.33    0.65
  -8   2   1   10.81    0.62
   8   2   0   33.93    1.18
  -8   2   0   35.42    1.14
   8   2   0   35.90    1.27
  -8   2   0   34.64    1.06
   8   2   0   34.96    1.28
   8   2   0   33.65    1.19
   8   2   1   36.10    1.20
  -8   2  -1   37.28    1.10
  -8   2  -1   39.64    1.26
   8   2   1   36.52    1.27
  -8   2  -1   37.93    1.17
  -8   2  -1   40.98    1.20
   8   2   1   39.84    1.35
   8   2   1   37.98    1.25
   8   2   2   39.98    1.19
  -8   2  -2   43.47    1.26
   8   2   2   42.86    1.31
  -8   2  -2   44.15    1.24
  -8   2  -2   44.03    1.23
   8   2   2   44.03    1.30
  -8   2  -3    9.27    0.46
   8   2   3    9.90    0.50
  -8   2  -3    9.30    0.47
  -8   2  -3    9.49    0.47
   8   2   3    8.90    0.48
   8   3 -10    8.38    0.41
  -8   3  10    8.69    0.43
  -8   3  10   10.14    0.49
   8   3 -10    9.16    0.44
   8   3 -10    8.91    0.48
   8   3  -9   18.08    0.72
  -8   3   9   20.07    0.79
  -8   3   9   18.55    0.72
   8   3  -9   18.44    0.76
   8   3  -9   18.76    0.80
   8   3  -8   33.29    1.11
  -8   3   8   34.52    1.14
   8   3  -8   36.42    1.20
   8   3  -8   32.94    1.18
   8   3  -7    7.65    0.48
   8   3  -7    7.13    0.49
  -8   3   7    7.29    0.48
  -8   3   7    7.26    0.50
   8   3  -7    7.85    0.55
   8   3  -7    7.80    0.56
  -8   3   6   62.04    1.66
   8   3  -6   63.55    1.70
  -8   3   6   62.27    1.68
  -8   3   6   64.62    1.66
   8   3  -6   62.10    1.79
   8   3  -6   59.82    1.68
  -8   3   5    6.97    0.49
   8   3  -5    6.72    0.49
  -8   3   5    6.20    0.47
  -8   3   5    7.29    0.50
   8   3  -5    6.75    0.51
  -8   3   4  164.10    3.35
   8   3  -4  162.09    3.32
  -8   3   4  162.91    3.30
  -8   3   4  166.64    3.33
   8   3  -4  155.14    3.34
   8   3  -3   31.50    1.19
  -8   3   3   33.51    1.17
   8   3  -3   31.77    1.14
   8   3  -3   32.38    1.21
  -8   3   3   31.44    1.10
   8   3  -3   32.72    1.19
  -8   3   3   32.47    1.10
   8   3  -2    9.44    0.61
  -8   3   2    9.25    0.58
   8   3  -2    9.50    0.63
  -8   3   2    9.19    0.54
  -8   3   2   10.61    0.60
  -8   3   2    9.55    0.56
   8   3  -2    8.86    0.60
  -8   3   2    9.21    0.57
   8   3  -1   10.10    0.63
  -8   3   1   11.09    0.63
   8   3  -1   10.47    0.59
   8   3  -1   10.57    0.66
  -8   3   1   10.18    0.53
  -8   3   1   10.15    0.57
  -8   3   1   10.43    0.60
   8   3  -1   11.04    0.67
  -8   3   1   10.43    0.61
   8   3   0   76.34    1.98
  -8   3   0   78.57    1.89
   8   3   0   74.35    2.00
  -8   3   0   71.43    1.72
   8   3   0   78.13    2.02
  -8   3   0   77.45    1.94
   8   3   1   57.26    1.60
  -8   3  -1   60.91    1.50
  -8   3  -1   59.03    1.50
   8   3   1   59.30    1.67
   8   3   2   16.73    0.70
  -8   3  -2   17.00    0.70
   8   3   2   16.19    0.72
  -8   3  -2   16.64    0.66
  -8   3  -2   16.73    0.65
   8   3   2   15.88    0.72
   8   3   3   15.01    0.57
  -8   3  -3   14.98    0.56
   8   3   3   16.13    0.63
  -8   3  -3   16.51    0.59
  -8   3  -3   15.54    0.57
   8   3   3   16.01    0.64
  -8   4  10    4.52    0.29
   8   4 -10    4.25    0.28
   8   4  -9    0.27    0.11
  -8   4   9    0.20    0.09
  -8   4   9    0.35    0.10
   8   4  -9    0.25    0.09
   8   4  -9    0.30    0.11
   8   4  -8   15.38    0.70
  -8   4   8   16.48    0.71
   8   4  -8   14.78    0.64
   8   4  -8   15.09    0.72
   8   4  -7   15.18    0.66
   8   4  -7   15.57    0.74
  -8   4   7   15.39    0.69
   8   4  -7   16.17    0.74
   8   4  -7   17.02    0.80
  -8   4   6    0.79    0.18
   8   4  -6    0.75    0.18
   8   4  -6    0.69    0.16
  -8   4   6    0.65    0.16
   8   4  -6    0.33    0.13
  -8   4   6    0.38    0.13
  -8   4   5   42.38    1.32
   8   4  -5   43.10    1.38
   8   4  -5   43.77    1.31
  -8   4   5   46.02    1.38
  -8   4   5   45.05    1.36
  -8   4   4   14.50    0.72
   8   4  -4   13.12    0.71
   8   4  -4   13.53    0.67
  -8   4   4   13.92    0.71
  -8   4   4   13.02    0.68
  -8   4   3    0.80    0.19
   8   4  -3    0.68    0.19
   8   4  -3    0.91    0.18
  -8   4   3    0.62    0.16
   8   4  -3    0.45    0.15
  -8   4   3    0.69    0.17
  -8   4   2    9.84    0.60
   8   4  -2   10.84    0.64
   8   4  -2   10.39    0.64
   8   4  -2    9.98    0.57
  -8   4   2   11.30    0.59
  -8   4   2   10.72    0.60
  -8   4   2   11.01    0.59
   8   4  -2   10.83    0.63
  -8   4   2   11.48    0.63
   8   4  -1   16.35    0.82
  -8   4   1   19.03    0.82
   8   4  -1   17.10    0.83
  -8   4   1   17.16    0.69
  -8   4   1   18.34    0.77
  -8   4   1   18.12    0.80
   8   4  -1   17.49    0.81
  -8   4   1   18.32    0.81
   8   4   0   31.12    1.13
  -8   4   0   33.30    1.08
   8   4   0   30.22    1.11
  -8   4   0   32.57    1.09
  -8   4   0   30.35    0.94
   8   4   0   32.62    1.12
  -8   4   0   30.92    1.07
   8   4   1   40.19    1.24
  -8   4  -1   40.14    1.14
   8   4   1   38.55    1.23
  -8   4  -1   40.24    1.11
   8   4   1   40.18    1.22
   8   4   2   12.28    0.57
  -8   4  -2   13.52    0.57
   8   4   2   12.69    0.59
  -8   4  -2   13.76    0.54
   8   4   2   12.89    0.58
   8   5  -9    4.78    0.31
  -8   5   9    3.91    0.27
  -8   5   9    4.86    0.28
   8   5  -9    4.71    0.30
   8   5  -8    1.21    0.19
  -8   5   8    1.21    0.18
   8   5  -8    1.41    0.19
   8   5  -8    1.33    0.20
   8   5  -7   49.40    1.23
   8   5  -7   48.21    1.36
  -8   5   7   47.57    1.27
   8   5  -7   47.58    1.36
   8   5  -6   44.49    1.35
   8   5  -6   43.78    1.28
  -8   5   6   46.26    1.31
  -8   5   6   44.37    1.25
  -8   5   5    7.65    0.47
   8   5  -5    8.14    0.53
   8   5  -5    6.79    0.46
  -8   5   5    7.18    0.48
  -8   5   5    7.54    0.49
  -8   5   4    4.62    0.38
   8   5  -4    5.14    0.43
   8   5  -4    4.84    0.40
  -8   5   4    4.63    0.39
  -8   5   4    4.91    0.37
  -8   5   3   13.59    0.68
   8   5  -3   13.86    0.72
   8   5  -3   13.59    0.67
  -8   5   3   13.78    0.67
  -8   5   3   13.76    0.66
   8   5  -2   28.20    1.08
  -8   5   2   29.33    1.04
   8   5  -2   28.79    1.07
   8   5  -2   28.29    1.00
  -8   5   2   29.54    0.97
  -8   5   2   29.43    1.01
  -8   5   2   29.13    0.97
  -8   5   2   28.68    1.01
   8   5  -1   44.79    1.38
   8   5  -1   45.36    1.37
   8   5  -1   43.73    1.32
   8   5  -1   44.24    1.27
  -8   5   1   43.12    1.22
  -8   5   1   46.96    1.30
  -8   5   1   45.20    1.31
   8   5   0   12.52    0.64
  -8   5   0   13.38    0.61
   8   5   0   12.38    0.63
   8   5   0   11.78    0.61
   8   5   0   12.83    0.59
  -8   5   0   12.17    0.59
  -8   5  -1   22.70    0.74
   8   5   1   21.80    0.78
   8   5   2    2.93    0.24
  -8   5  -2    2.44    0.21
   8   5   2    2.84    0.23
   8   6  -8    6.05    0.34
  -8   6   8    6.87    0.34
  -8   6   7   27.17    0.79
  -8   6   7   28.55    0.86
   8   6  -7   27.07    0.83
   8   6  -7   26.07    0.81
  -8   6   6    2.47    0.25
  -8   6   6    2.57    0.24
   8   6  -6    2.51    0.26
   8   6  -5    3.33    0.30
  -8   6   5    3.61    0.31
  -8   6   5    3.30    0.30
  -8   6   4    0.43    0.12
   8   6  -4    0.34    0.12
  -8   6   4    0.33    0.11
  -8   6   4    0.54    0.14
  -8   6   4    0.35    0.10
  -8   6   3    5.86    0.39
   8   6  -3    5.98    0.43
   8   6  -3    5.01    0.38
  -8   6   3    6.00    0.39
  -8   6   3    5.73    0.38
  -8   6   2    3.02    0.29
   8   6  -2    3.18    0.31
   8   6  -2    3.28    0.30
  -8   6   2    2.88    0.25
  -8   6   2    3.21    0.29
  -8   6   2    2.94    0.26
  -8   6   2    2.92    0.28
  -8   6   1    2.22    0.24
   8   6  -1    2.02    0.24
   8   6  -1    2.38    0.26
   8   6  -1    2.01    0.23
  -8   6   1    1.95    0.20
  -8   6   1    2.36    0.23
  -8   6   1    2.12    0.23
   8   6   0    7.52    0.42
   8   6   0    7.59    0.43
   8   6   0    7.64    0.40
  -8   6   0    7.94    0.40
   8   7  -6    6.52    0.30
   8   7  -6    7.39    0.37
   8   7  -5    8.08    0.41
   8   7  -5    7.63    0.39
  -8   7   5    7.83    0.38
  -8   7   5    7.58    0.37
   8   7  -4    1.65    0.20
   8   7  -4    1.74    0.19
  -8   7   4    1.62    0.18
  -8   7   4    1.70    0.19
  -8   7   3   12.97    0.48
   8   7  -3   13.15    0.55
   8   7  -3   13.14    0.53
  -8   7   3   12.32    0.48
  -8   7   3   13.05    0.51
  -8   7   3   12.82    0.49
  -8   7   2    9.67    0.41
   8   7  -2   10.14    0.46
   8   7  -2    9.57    0.43
  -8   7   2    8.98    0.40
  -8   7   2    9.73    0.42
  -9  -6   6    7.39    0.36
   9  -6  -6    7.58    0.37
  -9  -6   6    6.98    0.38
  -9  -6   5    1.15    0.16
   9  -6  -5    1.17    0.17
  -9  -6   5    0.81    0.13
  -9  -6   4   27.57    0.86
   9  -6  -4   28.03    0.88
  -9  -6   4   25.76    0.75
   9  -6  -4   28.55    0.82
  -9  -6   3   17.38    0.64
   9  -6  -3   17.76    0.65
   9  -6  -3   16.04    0.58
   9  -6  -2    4.00    0.26
  -9  -5   8   19.37    0.67
   9  -5  -8   18.60    0.63
  -9  -5   8   19.06    0.67
  -9  -5   7   10.41    0.46
   9  -5  -7   10.64    0.46
  -9  -5   7   10.68    0.50
  -9  -5   7   10.91    0.53
   9  -5  -7   11.16    0.51
  -9  -5   7   11.44    0.55
  -9  -5   6   13.81    0.63
   9  -5  -6   13.48    0.61
  -9  -5   6   13.53    0.61
   9  -5  -6   14.46    0.61
  -9  -5   6   12.73    0.62
   9  -5  -6   13.54    0.63
   9  -5  -6   13.90    0.61
  -9  -5   6   14.09    0.62
  -9  -5   5    4.48    0.37
  -9  -5   5    3.97    0.31
  -9  -5   5    4.56    0.36
   9  -5  -5    4.12    0.35
   9  -5  -5    3.62    0.32
  -9  -5   5    3.91    0.34
  -9  -5   4    6.64    0.45
  -9  -5   4    6.20    0.40
   9  -5  -4    6.71    0.45
   9  -5  -4    6.24    0.41
  -9  -5   4    6.75    0.46
  -9  -5   3    1.55    0.22
   9  -5  -3    1.72    0.23
   9  -5  -3    1.14    0.18
  -9  -5   3    1.63    0.23
  -9  -5   2   21.36    0.74
   9  -5  -2   20.89    0.78
   9  -5  -2   22.85    0.76
   9  -5  -2   20.98    0.80
  -9  -5   2   22.23    0.80
  -9  -5   2   21.55    0.78
  -9  -5   1    4.09    0.27
   9  -5  -1    4.35    0.29
   9  -5  -1    4.48    0.33
  -9  -5   1    4.93    0.35
  -9  -5   0    2.52    0.23
  -9  -4   9    1.15    0.16
   9  -4  -9    1.21    0.16
  -9  -4   9    0.92    0.15
   9  -4  -8    2.27    0.24
  -9  -4   8    2.10    0.24
  -9  -4   7    2.64    0.28
   9  -4  -7    2.48    0.26
  -9  -4   7    2.75    0.27
   9  -4  -7    2.80    0.30
  -9  -4   7    2.52    0.26
  -9  -4   6    7.48    0.50
   9  -4  -6    8.30    0.48
  -9  -4   6    7.26    0.49
   9  -4  -6    7.89    0.52
  -9  -4   5   32.94    1.17
  -9  -4   5   35.58    1.19
   9  -4  -5   33.07    1.16
  -9  -4   4    7.89    0.53
   9  -4  -4    8.47    0.55
  -9  -4   4    7.61    0.52
   9  -4  -4    7.15    0.50
  -9  -4   3   29.43    1.06
   9  -4  -3   29.80    1.10
  -9  -4   3   31.26    1.10
  -9  -4   3   31.27    1.10
   9  -4  -3   30.20    1.08
  -9  -4   2   15.41    0.70
  -9  -4   2   14.93    0.67
   9  -4  -2   14.74    0.73
  -9  -4   2   15.42    0.74
  -9  -4   2   15.17    0.70
   9  -4  -2   14.80    0.70
  -9  -4   1   11.04    0.57
   9  -4  -1   10.93    0.60
  -9  -4   1   11.73    0.61
   9  -4  -1   10.21    0.54
  -9  -4   1   10.94    0.53
  -9  -4   0   19.98    0.75
   9  -4   0   20.74    0.78
  -9  -4   0   21.39    0.80
   9  -4   0   19.79    0.71
   9  -4   1   53.03    1.28
  -9  -4  -1   55.64    1.29
   9  -3 -10   17.22    0.57
  -9  -3   9   26.28    0.88
   9  -3  -9   25.95    0.83
  -9  -3   9   25.50    0.88
   9  -3  -9   26.21    0.86
  -9  -3   8   12.64    0.58
   9  -3  -8   11.80    0.57
  -9  -3   8   12.32    0.61
  -9  -3   8   12.78    0.63
   9  -3  -8   11.89    0.60
   9  -3  -8   12.32    0.64
  -9  -3   7   14.04    0.69
  -9  -3   7   13.41    0.66
  -9  -3   7   14.20    0.71
   9  -3  -7   15.45    0.75
   9  -3  -7   13.44    0.67
  -9  -3   7   14.14    0.66
  -9  -3   6   25.76    0.91
  -9  -3   6   24.73    0.99
   9  -3  -6   23.19    0.98
  -9  -3   6   25.85    0.98
   9  -3  -6   24.53    0.95
  -9  -3   5   10.71    0.62
   9  -3  -5   10.80    0.66
  -9  -3   5   11.28    0.65
   9  -3  -5   11.13    0.61
   9  -3  -5   10.99    0.66
  -9  -3   4   41.99    1.29
   9  -3  -4   44.44    1.43
  -9  -3   4   42.92    1.40
   9  -3  -4   41.34    1.27
   9  -3  -4   41.99    1.40
  -9  -3   3    0.76    0.17
  -9  -3   3    0.80    0.20
   9  -3  -3    1.00    0.22
  -9  -3   3    0.93    0.18
   9  -3  -3    0.83    0.20
  -9  -3   2    4.11    0.38
  -9  -3   2    5.39    0.41
   9  -3  -2    4.24    0.40
  -9  -3   2    4.10    0.38
  -9  -3   2    4.97    0.40
   9  -3  -2    4.33    0.41
  -9  -3   1    6.90    0.47
   9  -3  -1    6.89    0.50
  -9  -3   1    5.93    0.41
  -9  -3   1    6.82    0.47
   9  -3  -1    6.28    0.47
  -9  -3   0    5.79    0.41
   9  -3   0    6.01    0.44
  -9  -3   0    5.89    0.42
   9  -3   0    5.47    0.41
  -9  -3  -1   27.07    0.87
   9  -3   1   24.57    0.83
  -9  -2  10   19.20    0.66
   9  -2 -10   19.70    0.65
   9  -2 -10   20.21    0.69
   9  -2  -9    1.13    0.18
  -9  -2   9    1.42    0.22
  -9  -2   9    1.44    0.20
   9  -2  -9    1.35    0.20
   9  -2  -9    1.40    0.22
  -9  -2   8    6.90    0.47
  -9  -2   8    6.96    0.48
   9  -2  -8    6.06    0.44
   9  -2  -8    5.94    0.45
   9  -2  -8    6.15    0.47
  -9  -2   7    9.05    0.55
  -9  -2   7   10.50    0.61
   9  -2  -7   10.00    0.58
  -9  -2   7    9.36    0.54
   9  -2  -7   10.16    0.61
   9  -2  -7    9.28    0.59
   9  -2  -7   10.30    0.63
  -9  -2   6   31.04    1.12
  -9  -2   6   30.29    1.05
  -9  -2   6   32.47    1.15
  -9  -2   6   31.40    1.12
   9  -2  -6   30.54    1.07
   9  -2  -6   30.87    1.15
   9  -2  -6   29.44    1.12
   9  -2  -6   31.33    1.18
  -9  -2   5   11.81    0.66
  -9  -2   5   12.50    0.67
  -9  -2   5   12.39    0.68
   9  -2  -5   11.98    0.69
   9  -2  -5   11.60    0.67
   9  -2  -5   11.58    0.70
  -9  -2   4   41.31    1.31
  -9  -2   4   41.11    1.29
  -9  -2   4   44.69    1.40
   9  -2  -4   41.66    1.39
   9  -2  -4   42.40    1.36
   9  -2  -4   41.78    1.42
  -9  -2   3    8.44    0.52
  -9  -2   3    8.81    0.53
  -9  -2   3    9.04    0.58
   9  -2  -3    9.55    0.62
   9  -2  -3    8.14    0.55
  -9  -2   3    7.91    0.51
  -9  -2   2    7.98    0.53
  -9  -2   2   10.02    0.59
   9  -2  -2    9.28    0.60
   9  -2  -2    8.18    0.53
  -9  -2   2    8.98    0.56
  -9  -2   1   28.43    1.04
   9  -2  -1   28.99    1.10
  -9  -2   1   29.56    1.01
   9  -2  -1   28.80    1.00
  -9  -2   1   29.65    1.07
   9  -2  -1   29.16    1.12
  -9  -2   0   11.92    0.63
   9  -2   0   13.33    0.69
  -9  -2   0   12.36    0.64
   9  -2   0   12.37    0.67
   9  -2   1  100.89    2.22
  -9  -2  -1   97.78    2.16
   9  -2   1  100.04    2.21
  -9  -2  -2    3.71    0.27
   9  -2   2    3.84    0.29
  -9  -2  -2    4.09    0.28
   9  -2   2    4.10    0.30
  -9  -1  10   27.89    0.90
  -9  -1  10   29.06    0.84
   9  -1 -10   28.81    0.92
   9  -1 -10   29.15    0.93
  -9  -1   9   11.43    0.59
  -9  -1   9   10.57    0.55
  -9  -1   9   10.69    0.55
   9  -1  -9   10.40    0.58
  -9  -1   8   45.85    1.37
  -9  -1   8   43.51    1.28
  -9  -1   8   45.22    1.37
   9  -1  -8   45.72    1.40
   9  -1  -8   47.04    1.41
  -9  -1   7   10.06    0.60
  -9  -1   7   10.92    0.61
  -9  -1   7    9.42    0.53
  -9  -1   7    8.98    0.58
  -9  -1   7   10.11    0.57
   9  -1  -7    9.76    0.61
   9  -1  -7   10.36    0.61
   9  -1  -7    9.82    0.63
   9  -1  -7   10.91    0.65
  -9  -1   6    0.55    0.17
  -9  -1   6    0.59    0.16
  -9  -1   6    0.81    0.18
  -9  -1   6    0.57    0.17
   9  -1  -6    0.47    0.16
   9  -1  -6    0.71    0.18
   9  -1  -6    0.65    0.19
   9  -1  -6    0.47    0.16
  -9  -1   5   36.41    1.23
  -9  -1   5   36.81    1.25
  -9  -1   5   34.69    1.19
   9  -1  -5   33.51    1.19
   9  -1  -5   35.08    1.23
   9  -1  -5   34.88    1.26
   9  -1  -5   34.44    1.26
  -9  -1   4    5.33    0.43
  -9  -1   4    5.48    0.46
  -9  -1   4    5.21    0.42
   9  -1  -4    5.54    0.45
   9  -1  -4    5.19    0.45
   9  -1  -4    4.61    0.43
   9  -1  -4    5.39    0.47
  -9  -1   3  134.92    2.88
  -9  -1   3  137.17    2.86
  -9  -1   3  143.64    3.02
   9  -1  -3  141.32    3.03
   9  -1  -3  137.54    3.03
   9  -1  -3  139.19    3.09
  -9  -1   2   15.16    0.69
  -9  -1   2   15.42    0.74
  -9  -1   2   16.04    0.77
   9  -1  -2   15.37    0.78
   9  -1  -2   15.96    0.79
   9  -1  -2   16.32    0.83
  -9  -1   1   11.19    0.63
  -9  -1   1   12.15    0.62
   9  -1  -1   12.12    0.68
   9  -1  -1   11.70    0.66
   9  -1  -1   11.68    0.69
  -9  -1   0    7.59    0.50
   9  -1   0    7.95    0.53
   9  -1   0    8.26    0.52
   9  -1   0    8.25    0.56
   9  -1   1    3.65    0.33
  -9  -1  -1    3.46    0.32
   9  -1   1    3.12    0.29
  -9  -1  -2    7.58    0.40
  -9  -1  -2    7.05    0.36
   9  -1   2    7.25    0.41
  -9  -1  -2    7.48    0.40
  -9   0  10   23.96    0.76
  -9   0  10   26.41    0.86
  -9   0  10   25.38    0.83
  -9   0  10   25.56    0.79
   9   0 -10   27.35    0.89
   9   0 -10   25.32    0.80
  -9   0   9    1.62    0.20
  -9   0   9    1.67    0.23
  -9   0   9    1.72    0.23
   9   0  -9    1.74    0.25
   9   0  -9    1.78    0.25
   9   0  -9    1.78    0.23
  -9   0   8    0.28    0.13
  -9   0   8    0.48    0.15
  -9   0   8    0.28    0.11
  -9   0   8    0.35    0.14
   9   0  -8    0.30    0.14
   9   0  -8    0.54    0.17
   9   0  -8    0.38    0.14
   9   0  -8    0.44    0.14
  -9   0   7    3.35    0.35
  -9   0   7    3.46    0.35
  -9   0   7    3.94    0.34
  -9   0   7    3.65    0.34
  -9   0   7    3.33    0.35
   9   0  -7    3.25    0.37
   9   0  -7    3.77    0.39
   9   0  -7    3.55    0.36
   9   0  -7    3.22    0.33
  -9   0   6    3.36    0.35
  -9   0   6    2.88    0.32
  -9   0   6    3.11    0.33
  -9   0   6    2.91    0.33
  -9   0   6    3.54    0.35
   9   0  -6    3.60    0.38
   9   0  -6    2.82    0.35
   9   0  -6    2.85    0.34
   9   0  -6    3.03    0.32
   9   0  -6    2.76    0.32
  -9   0   5   35.26    1.21
  -9   0   5   34.57    1.12
  -9   0   5   36.16    1.21
   9   0  -5   36.24    1.28
   9   0  -5   35.07    1.25
   9   0  -5   37.01    1.25
  -9   0   4    3.50    0.35
  -9   0   4    3.35    0.35
  -9   0   4    2.84    0.31
   9   0  -4    3.10    0.34
   9   0  -4    2.95    0.36
   9   0  -4    2.93    0.35
   9   0  -4    3.84    0.38
  -9   0   3   20.06    0.86
  -9   0   3   20.30    0.82
   9   0  -3   18.97    0.84
   9   0  -3   19.45    0.92
   9   0  -3   19.30    0.90
   9   0  -3   19.49    0.86
   9   0  -2    1.07    0.20
  -9   0   2    1.08    0.20
  -9   0   2    0.98    0.20
  -9   0   2    0.89    0.19
   9   0  -2    1.01    0.21
   9   0  -2    1.58    0.27
   9   0  -2    1.08    0.22
  -9   0   1    0.49    0.13
  -9   0   1    0.61    0.16
  -9   0   1    0.71    0.16
   9   0  -1    0.35    0.14
   9   0  -1    0.31    0.14
   9   0  -1    0.42    0.16
  -9   0   0    7.99    0.51
   9   0   0    6.47    0.44
   9   0   0    7.00    0.48
   9   0   0    7.52    0.51
   9   0   0    7.04    0.51
  -9   0  -1   16.91    0.66
   9   0   1   15.38    0.70
   9   0   1   16.92    0.76
  -9   0  -2   22.81    0.75
  -9   0  -2   21.77    0.69
   9   0   2   21.86    0.74
  -9   0  -2   22.12    0.74
   9   0   2   23.50    0.81
  -9   1  10   28.57    0.85
  -9   1  10   29.40    0.91
  -9   1  10   29.98    0.90
  -9   1  10   28.90    0.84
   9   1 -10   30.00    0.95
   9   1 -10   30.97    0.92
   9   1 -10   30.63    0.92
  -9   1   9   10.10    0.50
  -9   1   9   10.76    0.57
  -9   1   9   10.15    0.54
  -9   1   9   10.12    0.54
   9   1  -9   10.39    0.59
   9   1  -9   10.33    0.57
   9   1  -9   10.42    0.56
  -9   1   8   40.93    1.25
  -9   1   8   46.24    1.36
  -9   1   8   43.92    1.29
  -9   1   8   45.52    1.35
   9   1  -8   46.31    1.44
   9   1  -8   45.53    1.40
   9   1  -8   42.97    1.33
  -9   1   7    9.71    0.58
  -9   1   7   10.66    0.59
  -9   1   7   11.20    0.63
  -9   1   7   10.42    0.57
  -9   1   7   10.26    0.61
   9   1  -7   10.84    0.65
   9   1  -7   10.79    0.62
   9   1  -7   10.60    0.57
   9   1  -6    0.53    0.16
  -9   1   6    0.33    0.13
  -9   1   6    0.38    0.14
  -9   1   6    0.15    0.11
   9   1  -6    0.08    0.10
   9   1  -6    0.11    0.11
  -9   1   5   37.56    1.26
  -9   1   5   38.15    1.25
  -9   1   5   39.09    1.24
   9   1  -5   37.69    1.33
   9   1  -5   37.29    1.24
   9   1  -5   37.57    1.26
  -9   1   4    5.12    0.43
  -9   1   4    4.42    0.39
  -9   1   4    4.80    0.39
  -9   1   4    4.65    0.40
   9   1  -4    4.97    0.46
   9   1  -4    4.09    0.39
   9   1  -4    4.72    0.41
  -9   1   3  133.48    2.89
  -9   1   3  137.98    2.87
   9   1  -3  139.70    3.07
   9   1  -3  137.08    2.96
   9   1  -3  136.11    2.93
  -9   1   2   16.27    0.75
  -9   1   2   15.06    0.72
   9   1  -2   16.14    0.80
  -9   1   2   14.93    0.68
   9   1  -2   16.35    0.80
   9   1  -2   15.72    0.74
  -9   1   1   13.94    0.65
  -9   1   1   12.72    0.67
   9   1  -1   12.99    0.69
   9   1  -1   13.23    0.71
   9   1  -1   13.55    0.63
  -9   1   0    8.16    0.51
   9   1   0    7.92    0.51
   9   1   0    8.91    0.57
   9   1   0    7.65    0.52
  -9   1  -1    3.00    0.29
   9   1   1    3.05    0.29
   9   1   1    3.11    0.31
   9   1   1    3.60    0.33
  -9   1  -2    6.34    0.37
   9   1   2    6.19    0.35
  -9   1  -2    6.15    0.33
  -9   1  -2    6.56    0.35
   9   1   2    6.44    0.39
   9   1   2    6.82    0.40
  -9   2  10   19.78    0.67
  -9   2  10   19.91    0.70
  -9   2  10   20.35    0.70
  -9   2  10   20.04    0.65
   9   2 -10   20.71    0.72
   9   2 -10   22.14    0.74
  -9   2   9    1.49    0.21
  -9   2   9    1.36    0.20
  -9   2   9    1.41    0.20
   9   2  -9    1.39    0.22
   9   2  -9    1.21    0.19
   9   2  -9    1.40    0.22
  -9   2   8    5.26    0.38
  -9   2   8    4.98    0.37
  -9   2   8    6.33    0.44
   9   2  -8    5.14    0.44
   9   2  -8    4.80    0.40
   9   2  -8    5.34    0.43
  -9   2   7   11.30    0.61
  -9   2   7   11.83    0.61
   9   2  -7   12.74    0.70
   9   2  -7   11.19    0.64
   9   2  -7   12.29    0.67
   9   2  -7   11.67    0.59
   9   2  -6   26.84    1.00
  -9   2   6   26.45    1.00
  -9   2   6   23.54    0.94
  -9   2   6   25.83    0.99
   9   2  -6   27.04    1.08
  -9   2   6   26.70    0.97
   9   2  -6   24.55    1.01
   9   2  -5   14.31    0.72
  -9   2   5   16.70    0.78
  -9   2   5   13.13    0.69
  -9   2   5   15.39    0.73
  -9   2   5   13.39    0.69
   9   2  -5   14.92    0.77
   9   2  -4   39.47    1.29
  -9   2   4   39.55    1.29
  -9   2   4   37.94    1.24
  -9   2   4   39.18    1.20
  -9   2   4   37.59    1.24
   9   2  -4   38.49    1.33
   9   2  -3    6.06    0.46
  -9   2   3    5.69    0.45
  -9   2   3    5.81    0.44
  -9   2   3    5.66    0.44
   9   2  -3    5.36    0.47
   9   2  -2   10.25    0.60
  -9   2   2    9.61    0.57
  -9   2   2   10.10    0.57
   9   2  -2    9.73    0.62
  -9   2   2    9.26    0.52
  -9   2   2    9.78    0.56
   9   2  -2   10.24    0.64
   9   2  -2    9.70    0.56
   9   2  -1   22.51    0.88
  -9   2   1   20.76    0.83
  -9   2   1   23.39    0.89
   9   2  -1   22.07    0.94
   9   2  -1   22.23    0.95
   9   2  -1   22.16    0.88
   9   2  -1   21.77    0.81
   9   2   0   14.14    0.64
  -9   2   0   14.48    0.61
  -9   2   0   15.33    0.69
   9   2   0   14.68    0.71
   9   2   0   15.40    0.74
   9   2   0   14.16    0.67
  -9   2  -1  101.31    2.12
   9   2   1   96.17    2.12
   9   2   1   97.95    2.18
   9   2   1   97.18    2.09
  -9   2  -2    2.51    0.22
   9   2   2    2.08    0.21
   9   2   2    1.91    0.19
  -9   3  10   15.20    0.54
   9   3 -10   16.07    0.59
  -9   3   9   25.42    0.85
  -9   3   9   25.52    0.84
  -9   3   9   25.29    0.82
   9   3  -9   26.44    0.86
   9   3  -8   12.36    0.56
  -9   3   8   12.99    0.57
  -9   3   8   14.75    0.66
   9   3  -8   13.50    0.65
  -9   3   7   13.72    0.63
   9   3  -7   13.23    0.61
  -9   3   7   14.03    0.65
   9   3  -7   12.43    0.67
  -9   3   7   12.46    0.58
   9   3  -7   12.43    0.63
   9   3  -7   13.93    0.70
   9   3  -7   12.57    0.60
   9   3  -6   28.64    1.01
  -9   3   6   28.80    1.02
   9   3  -6   27.88    0.97
  -9   3   6   27.78    1.00
  -9   3   6   27.91    1.03
  -9   3   6   27.41    0.98
   9   3  -6   28.21    1.08
   9   3  -6   28.19    1.02
   9   3  -5    9.91    0.59
  -9   3   5   10.83    0.61
   9   3  -5   10.15    0.57
  -9   3   5   10.42    0.59
  -9   3   5   11.02    0.60
   9   3  -5   10.47    0.61
   9   3  -4   40.44    1.29
  -9   3   4   41.34    1.30
   9   3  -4   37.34    1.20
  -9   3   4   40.10    1.25
  -9   3   4   42.14    1.29
  -9   3   4   39.31    1.19
   9   3  -4   37.51    1.28
   9   3  -3    0.80    0.18
   9   3  -3    0.64    0.16
  -9   3   3    0.79    0.17
  -9   3   3    0.92    0.19
   9   3  -3    0.76    0.18
  -9   3   3    1.03    0.19
   9   3  -2    5.21    0.40
   9   3  -2    5.97    0.45
  -9   3   2    6.26    0.45
  -9   3   2    5.17    0.40
   9   3  -2    5.38    0.41
   9   3  -2    5.19    0.44
  -9   3   2    5.51    0.38
  -9   3   2    5.71    0.41
   9   3  -2    5.86    0.46
   9   3  -1    8.48    0.53
  -9   3   1    7.93    0.48
  -9   3   1    8.26    0.50
   9   3  -1    8.31    0.50
   9   3  -1    7.81    0.53
  -9   3   1    7.96    0.45
   9   3  -1    8.26    0.53
   9   3  -1    7.85    0.45
   9   3   0    5.64    0.40
  -9   3   0    6.05    0.38
  -9   3   0    6.23    0.41
   9   3   0    5.52    0.41
   9   3   1   23.67    0.77
  -9   3  -1   25.01    0.81
   9   3   1   23.37    0.82
   9   3   1   24.24    0.84
   9   3   2    8.05    0.39
   9   4  -9    0.55    0.12
  -9   4   9    0.55    0.11
  -9   4   9    0.58    0.12
  -9   4   9    0.62    0.11
   9   4  -8    2.39    0.24
  -9   4   8    1.95    0.21
  -9   4   8    1.94    0.23
   9   4  -8    1.76    0.21
   9   4  -8    1.86    0.24
   9   4  -7    2.92    0.26
   9   4  -7    3.16    0.29
  -9   4   7    2.48    0.26
  -9   4   7    2.80    0.26
   9   4  -7    2.89    0.29
   9   4  -7    3.16    0.32
   9   4  -6    8.36    0.49
  -9   4   6    8.51    0.49
   9   4  -6    7.34    0.47
  -9   4   6    8.05    0.49
  -9   4   6    8.54    0.51
  -9   4   6    8.29    0.48
   9   4  -6    8.54    0.53
  -9   4   5   31.04    1.05
   9   4  -5   32.93    1.09
   9   4  -5   30.38    1.04
  -9   4   5   31.61    1.05
  -9   4   5   31.14    1.03
   9   4  -5   31.84    1.11
  -9   4   4    6.61    0.46
   9   4  -4    6.97    0.47
   9   4  -4    6.97    0.47
  -9   4   4    6.66    0.45
  -9   4   4    6.75    0.46
  -9   4   4    6.46    0.42
  -9   4   3   26.42    0.97
   9   4  -3   27.10    0.96
   9   4  -3   25.75    0.95
  -9   4   3   25.84    0.90
  -9   4   3   25.82    0.93
   9   4  -3   26.19    0.95
  -9   4   3   25.60    0.90
   9   4  -2   17.44    0.71
   9   4  -2   17.30    0.78
   9   4  -2   16.84    0.73
  -9   4   2   16.83    0.66
  -9   4   2   16.42    0.69
   9   4  -2   15.78    0.71
  -9   4   2   17.46    0.73
   9   4  -1    9.10    0.45
   9   4  -1    9.15    0.52
  -9   4   1    9.20    0.50
   9   4  -1    8.83    0.50
   9   4  -1    8.54    0.52
  -9   4   1    8.98    0.45
   9   4  -1    8.99    0.51
   9   4   0   20.93    0.76
  -9   4   0   21.31    0.71
  -9   4   0   20.58    0.73
   9   4   0   20.60    0.75
   9   4   0   20.95    0.78
   9   4   0   20.78    0.75
   9   4   1   49.09    1.16
  -9   4  -1   51.40    1.16
   9   4   1   49.22    1.20
   9   4   1   50.20    1.17
   9   5  -8   20.02    0.65
  -9   5   8   21.09    0.67
   9   5  -8   20.40    0.68
   9   5  -7    8.94    0.41
   9   5  -7    9.19    0.47
  -9   5   7    9.37    0.45
   9   5  -7    8.80    0.41
   9   5  -7    9.45    0.49
   9   5  -6   15.23    0.61
   9   5  -6   14.92    0.63
  -9   5   6   14.97    0.62
  -9   5   6   13.64    0.58
  -9   5   6   14.40    0.62
   9   5  -6   13.40    0.64
  -9   5   5    5.11    0.35
   9   5  -5    5.51    0.38
   9   5  -5    4.35    0.35
   9   5  -5    4.82    0.33
  -9   5   5    5.47    0.38
  -9   5   5    5.21    0.36
   9   5  -5    5.45    0.38
  -9   5   4    5.21    0.37
   9   5  -4    5.95    0.41
   9   5  -4    5.53    0.35
  -9   5   4    5.50    0.38
  -9   5   4    5.68    0.39
  -9   5   4    5.53    0.35
   9   5  -4    5.55    0.39
   9   5  -3    0.74    0.15
  -9   5   3    0.70    0.15
   9   5  -3    0.50    0.13
   9   5  -3    0.72    0.14
  -9   5   3    0.68    0.14
  -9   5   3    0.63    0.14
  -9   5   3    0.71    0.14
   9   5  -2   24.57    0.78
  -9   5   2   23.96    0.82
   9   5  -2   24.71    0.84
   9   5  -2   21.97    0.71
  -9   5   2   21.45    0.69
  -9   5   2   21.59    0.74
  -9   5   2   23.37    0.79
  -9   5   1    4.60    0.31
   9   5  -1    3.77    0.30
  -9   5   1    3.91    0.25
  -9   5   0    3.28    0.23
  -9   5   0    3.03    0.23
   9   5   0    2.90    0.24
   9   6  -6    6.58    0.33
   9   6  -6    7.51    0.38
  -9   6   6    7.26    0.36
  -9   6   6    6.84    0.35
  -9   6   6    6.67    0.33
   9   6  -6    7.24    0.37
   9   6  -5    1.55    0.18
   9   6  -5    1.58    0.19
   9   6  -5    1.29    0.15
  -9   6   5    1.30    0.16
  -9   6   5    1.38    0.16
   9   6  -5    1.65    0.19
  -9   6   4   26.10    0.77
   9   6  -4   27.25    0.84
   9   6  -4   25.98    0.75
  -9   6   4   26.91    0.79
  -9   6   4   27.22    0.81
   9   6  -3   18.16    0.62
  -9   6   3   18.61    0.62
   9   6  -3   19.55    0.67
  -9   6   3   16.72    0.56
  -9   6   3   17.49    0.60
  -9   6   3   17.47    0.58
   9   6  -2    4.12    0.25
  -9   6   2    4.42    0.28
   9   6  -2    4.03    0.28
  10  -5  -6    1.11    0.14
 -10  -5   6    0.83    0.13
 -10  -5   5    3.39    0.26
  10  -5  -5    3.30    0.26
  10  -5  -5    3.06    0.25
 -10  -5   4    4.58    0.29
  10  -5  -4    5.54    0.33
  10  -5  -4    5.01    0.32
  10  -5  -3    9.43    0.41
 -10  -4   8   19.15    0.65
 -10  -4   7   27.88    0.84
  10  -4  -7   27.65    0.86
 -10  -4   7   25.82    0.77
 -10  -4   6   24.61    0.84
  10  -4  -6   25.40    0.86
  10  -4  -6   24.22    0.84
 -10  -4   6   23.72    0.81
 -10  -4   5    1.43    0.20
  10  -4  -5    1.83    0.23
 -10  -4   4   15.74    0.65
  10  -4  -4   15.43    0.65
 -10  -4   3   18.53    0.66
 -10  -4   3   17.27    0.67
  10  -4  -3   18.83    0.70
 -10  -4   3   17.33    0.67
  10  -4  -2    2.70    0.23
  10  -4  -2    3.00    0.25
 -10  -4   2    3.23    0.24
  10  -4  -1   17.42    0.61
 -10  -4   1   16.72    0.60
 -10  -3   9    4.59    0.30
 -10  -3   8    0.71    0.13
 -10  -3   8    0.78    0.13
  10  -3  -8    0.60    0.12
  10  -3  -8    0.94    0.16
 -10  -3   7   14.51    0.63
 -10  -3   7   13.65    0.62
  10  -3  -7   14.59    0.65
  10  -3  -7   14.54    0.60
 -10  -3   7   14.25    0.60
 -10  -3   6   11.78    0.60
 -10  -3   6   11.43    0.57
  10  -3  -6   12.68    0.63
  10  -3  -6   12.48    0.57
 -10  -3   6   12.34    0.60
  10  -3  -5   17.53    0.76
 -10  -3   5   17.11    0.75
  10  -3  -5   17.58    0.78
 -10  -3   4    4.02    0.35
  10  -3  -4    3.58    0.34
 -10  -3   4    3.66    0.33
  10  -3  -4    3.67    0.35
 -10  -3   3    5.83    0.37
 -10  -3   3    6.18    0.40
  10  -3  -3    6.31    0.45
 -10  -3   3    5.95    0.44
 -10  -3   3    6.50    0.43
  10  -3  -3    6.38    0.44
 -10  -3   2   12.33    0.56
  10  -3  -2   13.04    0.62
 -10  -3   2   13.24    0.63
 -10  -3   2   13.43    0.57
 -10  -3   2   13.52    0.57
  10  -3  -2   12.95    0.61
 -10  -3   1    0.69    0.13
  10  -3  -1    0.54    0.13
 -10  -3   1    0.52    0.12
 -10  -3   1    0.38    0.13
  10  -3  -1    0.58    0.13
 -10  -3   0    4.79    0.29
  10  -3   0    5.04    0.31
 -10  -2   9   24.86    0.78
 -10  -2   9   24.71    0.79
  10  -2  -9   25.20    0.80
 -10  -2   8   15.31    0.63
 -10  -2   8   15.32    0.62
 -10  -2   8   16.53    0.68
  10  -2  -8   15.19    0.60
  10  -2  -8   15.91    0.67
  10  -2  -8   16.90    0.70
 -10  -2   7   33.10    0.98
 -10  -2   7   32.85    1.07
  10  -2  -7   35.46    1.11
 -10  -2   7   34.04    1.04
  10  -2  -7   33.58    1.09
  10  -2  -7   37.30    1.16
 -10  -2   6   10.65    0.58
 -10  -2   6   11.34    0.59
  10  -2  -6   11.17    0.61
  10  -2  -6   11.03    0.60
  10  -2  -6   10.88    0.61
 -10  -2   5   38.63    1.17
 -10  -2   5   38.54    1.23
  10  -2  -5   40.25    1.26
  10  -2  -5   41.84    1.25
  10  -2  -5   38.33    1.27
 -10  -2   4   28.02    0.95
  10  -2  -4   30.99    1.08
  10  -2  -4   29.12    1.01
  10  -2  -4   32.63    1.13
 -10  -2   3   12.93    0.59
 -10  -2   3   12.89    0.64
  10  -2  -3   13.39    0.67
  10  -2  -3   13.25    0.62
 -10  -2   3   13.03    0.59
  10  -2  -3   14.65    0.72
 -10  -2   2   36.72    1.11
 -10  -2   2   37.91    1.06
  10  -2  -2   38.89    1.19
 -10  -2   2   38.80    1.12
  10  -2  -2   38.97    1.10
 -10  -2   2   41.01    1.15
 -10  -2   1    6.04    0.38
  10  -2  -1    6.20    0.41
 -10  -2   1    6.25    0.39
  10  -2  -1    5.83    0.41
 -10  -2   0   52.96    1.27
  10  -2   0   54.89    1.30
  10  -2   0   53.68    1.32
 -10  -1  10    1.44    0.16
 -10  -1   9    4.81    0.33
 -10  -1   9    4.38    0.32
  10  -1  -9    4.86    0.34
 -10  -1   8    6.89    0.42
 -10  -1   8    6.68    0.43
  10  -1  -8    6.80    0.43
  10  -1  -8    6.38    0.44
  10  -1  -8    6.50    0.43
 -10  -1   7    2.65    0.29
 -10  -1   7    2.05    0.24
 -10  -1   7    2.24    0.27
 -10  -1   7    2.39    0.26
  10  -1  -7    2.73    0.29
  10  -1  -7    2.53    0.27
  10  -1  -7    2.50    0.30
  10  -1  -7    2.43    0.29
 -10  -1   6    9.68    0.56
 -10  -1   6   10.41    0.58
 -10  -1   6   10.81    0.58
  10  -1  -6   10.48    0.58
  10  -1  -6   10.25    0.57
  10  -1  -6   11.37    0.63
  10  -1  -6    9.89    0.60
 -10  -1   5    4.74    0.39
 -10  -1   5    5.07    0.39
 -10  -1   5    5.67    0.43
  10  -1  -5    4.86    0.39
  10  -1  -5    6.17    0.44
  10  -1  -5    5.41    0.44
  10  -1  -5    5.05    0.43
 -10  -1   4    3.54    0.33
  10  -1  -4    4.63    0.37
  10  -1  -4    3.93    0.36
  10  -1  -4    4.06    0.38
  10  -1  -4    4.06    0.39
 -10  -1   3    0.22    0.09
 -10  -1   3    0.10    0.09
 -10  -1   3    0.21    0.11
  10  -1  -3    0.20    0.10
  10  -1  -3    0.45    0.15
 -10  -1   3    0.27    0.10
  10  -1  -3    0.25    0.13
 -10  -1   2    1.31    0.20
 -10  -1   2    1.32    0.20
  10  -1  -2    0.79    0.17
  10  -1  -2    1.16    0.20
 -10  -1   2    1.13    0.18
 -10  -1   1    0.65    0.14
 -10  -1   1    0.46    0.11
  10  -1  -1    0.72    0.15
  10  -1  -1    0.56    0.13
 -10  -1   1    0.52    0.14
  10  -1  -1    0.53    0.14
 -10  -1   0    7.24    0.41
  10  -1   0    7.32    0.41
 -10  -1   0    6.07    0.38
  10  -1   0    7.29    0.38
 -10  -1   0    7.69    0.42
  10  -1   0    7.81    0.44
  10   0 -10   16.57    0.60
  10   0 -10   16.03    0.58
 -10   0   9   20.98    0.75
 -10   0   9   19.80    0.68
 -10   0   9   21.85    0.75
  10   0  -9   21.91    0.79
  10   0  -9   21.69    0.79
 -10   0   8    9.27    0.50
 -10   0   8    8.08    0.42
 -10   0   8    8.54    0.49
  10   0  -8    9.03    0.53
  10   0  -8    8.74    0.53
  10   0  -8    9.46    0.49
 -10   0   7   60.42    1.59
 -10   0   7   59.94    1.53
 -10   0   7   59.19    1.58
 -10   0   7   62.80    1.56
  10   0  -7   62.61    1.66
  10   0  -7   62.13    1.67
  10   0  -7   60.84    1.58
 -10   0   6   31.93    1.10
 -10   0   6   30.57    0.98
 -10   0   6   34.21    1.11
 -10   0   6   31.97    1.07
  10   0  -6   33.14    1.14
  10   0  -6   34.51    1.13
 -10   0   5    2.95    0.32
 -10   0   5    3.60    0.35
 -10   0   5    2.78    0.29
  10   0  -5    2.90    0.33
  10   0  -5    3.20    0.34
 -10   0   4   56.39    1.55
  10   0  -4   58.72    1.60
  10   0  -4   59.72    1.67
  10   0  -4   56.75    1.60
 -10   0   3   29.54    0.99
 -10   0   3   29.88    0.96
 -10   0   3   30.96    1.07
  10   0  -3   30.85    1.11
  10   0  -3   27.77    1.05
 -10   0   2   46.98    1.26
 -10   0   2   53.09    1.38
 -10   0   2   51.17    1.37
  10   0  -2   51.85    1.47
  10   0  -2   51.22    1.47
 -10   0   1   18.14    0.72
 -10   0   1   16.96    0.63
  10   0  -1   17.84    0.75
  10   0  -1   18.30    0.77
 -10   0   0    8.58    0.45
  10   0   0    8.58    0.45
 -10   0   0    9.19    0.47
  10   0   0    7.78    0.45
 -10   0  -1   20.11    0.64
  10   0   1   22.35    0.69
 -10   1  10    1.74    0.18
  10   1 -10    1.73    0.18
 -10   1   9    4.05    0.31
 -10   1   9    3.99    0.28
 -10   1   9    4.21    0.31
  10   1  -9    4.85    0.35
  10   1  -9    4.26    0.32
  10   1  -9    4.24    0.30
 -10   1   8    6.47    0.41
 -10   1   8    6.99    0.43
 -10   1   8    6.26    0.37
 -10   1   8    7.25    0.44
  10   1  -8    6.86    0.45
  10   1  -8    6.62    0.41
 -10   1   7    2.24    0.27
 -10   1   7    2.53    0.27
 -10   1   7    2.99    0.29
 -10   1   7    2.17    0.27
  10   1  -7    2.05    0.27
  10   1  -7    2.18    0.28
  10   1  -7    2.69    0.28
 -10   1   6   10.39    0.58
 -10   1   6   10.39    0.53
 -10   1   6   11.22    0.59
  10   1  -6   10.26    0.61
  10   1  -6   11.13    0.63
  10   1  -6   10.64    0.56
  10   1  -6   11.04    0.58
 -10   1   5    5.58    0.42
 -10   1   5    4.58    0.36
  10   1  -5    4.84    0.43
  10   1  -5    5.56    0.45
  10   1  -5    4.36    0.36
 -10   1   4    3.65    0.35
  10   1  -4    4.11    0.40
  10   1  -4    3.54    0.34
  10   1  -4    3.89    0.35
  10   1  -3    0.18    0.11
 -10   1   3    0.25    0.11
  10   1  -3    0.16    0.12
  10   1  -3    0.16    0.10
 -10   1   2    1.19    0.18
 -10   1   2    1.03    0.18
 -10   1   2    1.19    0.20
  10   1  -2    1.36    0.22
 -10   1   1    0.57    0.13
 -10   1   1    0.40    0.11
  10   1  -1    0.54    0.14
  10   1  -1    0.68    0.15
 -10   1   0    7.15    0.40
  10   1   0    7.25    0.42
  10   1   0    6.77    0.40
 -10   2   9   22.77    0.71
 -10   2   9   22.92    0.74
  10   2  -9   24.28    0.80
  10   2  -9   23.37    0.73
  10   2  -9   24.25    0.77
 -10   2   8   17.14    0.64
 -10   2   8   16.41    0.66
 -10   2   8   16.31    0.61
 -10   2   8   16.71    0.67
  10   2  -8   16.36    0.70
  10   2  -8   17.61    0.70
  10   2  -8   16.30    0.67
 -10   2   7   32.21    1.03
 -10   2   7   33.27    1.03
 -10   2   7   33.02    1.04
 -10   2   7   32.92    1.04
  10   2  -7   34.26    1.13
  10   2  -7   34.10    1.09
  10   2  -7   35.10    1.08
  10   2  -7   31.19    0.98
 -10   2   6   10.46    0.57
 -10   2   6   10.33    0.55
 -10   2   6   10.22    0.53
 -10   2   6   10.60    0.55
  10   2  -6   10.48    0.60
  10   2  -6    9.52    0.57
  10   2  -6   10.88    0.58
  10   2  -6   10.77    0.56
 -10   2   5   44.34    1.29
 -10   2   5   40.55    1.22
 -10   2   5   40.67    1.18
  10   2  -5   42.45    1.32
 -10   2   4   28.35    0.96
  10   2  -4   30.38    1.08
  10   2  -4   27.58    0.98
 -10   2   3   16.93    0.72
 -10   2   3   16.23    0.67
  10   2  -3   17.41    0.78
  10   2  -3   16.14    0.70
 -10   2   2   39.51    1.12
 -10   2   2   39.40    1.11
  10   2  -2   41.05    1.25
  10   2  -2   39.41    1.10
 -10   2   1    8.51    0.42
 -10   2   1    9.29    0.46
  10   2  -1    9.04    0.51
 -10   2   0   61.26    1.36
  10   2   0   57.73    1.41
 -10   3   9    5.26    0.30
  10   3  -9    4.99    0.31
 -10   3   8    0.71    0.13
 -10   3   8    0.65    0.13
 -10   3   8    0.58    0.11
 -10   3   8    0.75    0.14
  10   3  -8    0.77    0.15
  10   3  -8    0.58    0.13
 -10   3   7   14.55    0.60
 -10   3   7   14.69    0.61
 -10   3   7   14.82    0.62
 -10   3   7   13.38    0.60
  10   3  -7   14.74    0.65
  10   3  -7   14.06    0.59
  10   3  -7   14.76    0.65
  10   3  -7   14.33    0.58
 -10   3   6   11.49    0.57
 -10   3   6   12.33    0.58
 -10   3   6   12.19    0.57
  10   3  -6   11.99    0.61
  10   3  -6   11.78    0.57
  10   3  -6   11.65    0.59
  10   3  -6   12.20    0.57
 -10   3   5   17.49    0.73
 -10   3   5   17.05    0.70
 -10   3   5   16.18    0.65
  10   3  -5   17.19    0.76
 -10   3   5   16.44    0.69
  10   3  -5   17.86    0.74
 -10   3   4    4.07    0.34
 -10   3   4    2.97    0.28
  10   3  -4    3.98    0.35
  10   3  -4    3.67    0.32
 -10   3   3    6.04    0.40
 -10   3   3    5.62    0.36
  10   3  -3    6.19    0.42
  10   3  -3    6.92    0.42
 -10   3   2   15.04    0.61
 -10   3   2   13.48    0.55
  10   3  -2   14.52    0.65
  10   3  -2   13.39    0.55
 -10   3   1    0.41    0.10
 -10   3   1    0.48    0.11
  10   3  -1    0.31    0.10
 -10   3   0    3.90    0.25
  10   3   0    4.35    0.28
 -10   4   8   17.47    0.60
 -10   4   8   19.59    0.62
 -10   4   7   30.05    0.85
 -10   4   7   29.99    0.86
  10   4  -7   29.27    0.86
  10   4  -7   27.93    0.79
 -10   4   6   22.33    0.74
  10   4  -6   21.96    0.71
 -10   4   6   24.16    0.78
 -10   4   6   22.19    0.74
  10   4  -6   22.78    0.79
  10   4  -6   23.38    0.82
  10   4  -6   22.89    0.75
 -10   4   5    1.32    0.19
  10   4  -5    0.97    0.15
 -10   4   5    1.18    0.17
 -10   4   5    1.08    0.15
 -10   4   5    1.18    0.18
  10   4  -5    1.01    0.17
 -10   4   4   16.53    0.66
  10   4  -4   16.11    0.61
 -10   4   4   16.30    0.62
  10   4  -4   16.44    0.68
  10   4  -4   16.66    0.65
  10   4  -3   20.13    0.67
 -10   4   3   19.81    0.65
 -10   4   3   19.57    0.68
  10   4  -3   20.81    0.71
  10   4  -3   21.34    0.71
 -10   4   2    5.69    0.34
  10   4  -2    5.31    0.31
  10   4  -2    5.13    0.32
  10   4  -2    5.24    0.29
 -10   5   6    0.90    0.13
  10   5  -6    0.75    0.12
  10   5  -6    0.90    0.14
 -10   5   5    3.41    0.24
 -10   5   5    3.36    0.24
 -10   5   5    3.84    0.26
  10   5  -5    3.47    0.27
 -10   5   4    5.57    0.32
 -10   5   4    4.86    0.28
  10   5  -4    5.57    0.31
 -10   5   3    9.81    0.42
  10   5  -3    9.62    0.39
  11  -4  -5    6.41    0.31
  11  -4  -4   33.33    0.81
  11  -3  -7    8.71    0.41
 -11  -3   6   12.38    0.51
  11  -3  -6   13.36    0.53
 -11  -3   6   13.74    0.52
 -11  -3   5    6.26    0.35
  11  -3  -5    6.44    0.36
 -11  -3   5    6.39    0.36
  11  -3  -5    6.41    0.37
  11  -3  -4    4.30    0.29
 -11  -3   4    4.23    0.28
  11  -3  -4    3.95    0.29
 -11  -2   8    1.18    0.15
 -11  -2   7   19.45    0.67
 -11  -2   7   18.17    0.62
  11  -2  -7   17.11    0.61
 -11  -2   7   17.32    0.60
  11  -2  -7   19.45    0.68
 -11  -2   6   38.01    1.06
 -11  -2   6   36.89    0.98
  11  -2  -6   39.95    1.05
 -11  -2   6   37.02    1.03
  11  -2  -6   38.75    1.02
  11  -2  -6   39.35    1.09
 -11  -2   5   24.84    0.81
  11  -2  -5   23.66    0.78
 -11  -2   5   23.21    0.79
  11  -2  -5   23.37    0.75
  11  -2  -5   24.70    0.83
 -11  -2   4    7.53    0.40
  11  -2  -4    7.46    0.41
 -11  -2   4    7.93    0.42
  11  -2  -4    7.58    0.38
  11  -2  -4    7.88    0.44
  11  -2  -3   26.27    0.77
 -11  -2   3   24.74    0.72
  11  -2  -3   26.07    0.80
 -11  -2   2    0.79    0.13
 -11  -1   8    7.77    0.39
  11  -1  -8    7.23    0.39
  11  -1  -8    7.25    0.37
 -11  -1   7    0.46    0.11
 -11  -1   7    0.50    0.11
  11  -1  -7    0.66    0.12
  11  -1  -7    0.54    0.13
  11  -1  -7    0.58    0.12
 -11  -1   6   35.74    0.98
  11  -1  -6   34.35    0.95
 -11  -1   6   38.84    1.06
  11  -1  -6   36.99    1.07
  11  -1  -6   36.99    1.06
 -11  -1   5    7.00    0.40
 -11  -1   5    6.82    0.41
  11  -1  -5    7.02    0.39
  11  -1  -5    7.24    0.43
  11  -1  -5    7.65    0.45
 -11  -1   4    2.33    0.22
 -11  -1   4    2.60    0.25
  11  -1  -4    2.32    0.22
  11  -1  -4    2.18    0.23
  11  -1  -4    2.48    0.26
 -11  -1   3   15.54    0.56
  11  -1  -3   17.02    0.60
 -11  -1   3   17.95    0.63
  11  -1  -3   16.63    0.62
  11  -1  -3   16.74    0.66
  11  -1  -2    1.16    0.16
 -11   0   8    7.91    0.40
  11   0  -8    8.18    0.41
  11   0  -8    8.61    0.44
 -11   0   7   31.05    0.92
 -11   0   7   29.87    0.89
 -11   0   7   31.49    0.89
  11   0  -7   30.24    0.92
  11   0  -7   29.06    0.86
 -11   0   6   10.64    0.52
 -11   0   6    9.80    0.47
 -11   0   6   11.84    0.54
  11   0  -6   10.89    0.52
  11   0  -6   11.04    0.51
 -11   0   5   15.78    0.64
 -11   0   5   16.94    0.67
  11   0  -5   17.27    0.66
  11   0  -5   16.34    0.69
  11   0  -5   16.35    0.66
 -11   0   4   23.74    0.78
 -11   0   4   24.49    0.82
  11   0  -4   23.85    0.78
  11   0  -4   25.75    0.88
  11   0  -4   26.06    0.85
 -11   0   3    1.72    0.18
 -11   0   3    1.84    0.20
  11   0  -3    2.11    0.20
  11   0  -3    2.00    0.22
  11   0  -3    1.98    0.22
 -11   0   2    5.77    0.31
  11   0  -2    6.42    0.36
 -11   0   2    6.30    0.34
  11   0  -2    5.99    0.35
 -11   1   8    8.11    0.39
  11   1  -8    7.91    0.41
  11   1  -8    7.72    0.40
 -11   1   7    0.19    0.09
 -11   1   7    0.20    0.09
 -11   1   7    0.21    0.09
  11   1  -7    0.21    0.10
  11   1  -7    0.30    0.11
 -11   1   6   35.06    1.03
 -11   1   6   34.15    0.95
 -11   1   6   36.87    1.03
  11   1  -6   36.38    1.06
  11   1  -6   36.14    1.08
 -11   1   5    7.89    0.44
 -11   1   5    8.39    0.46
  11   1  -5    7.63    0.45
  11   1  -5    8.05    0.47
 -11   1   4    2.01    0.21
 -11   1   4    1.92    0.22
  11   1  -4    2.06    0.23
  11   1  -4    1.47    0.20
 -11   1   3   16.05    0.58
 -11   1   3   16.85    0.61
  11   1  -3   16.18    0.61
  11   1  -2    1.99    0.21
 -11   1   2    1.84    0.18
 -11   2   8    1.22    0.15
  11   2  -8    1.16    0.16
 -11   2   7   17.03    0.60
 -11   2   7   16.87    0.59
  11   2  -7   17.92    0.65
  11   2  -7   17.10    0.62
 -11   2   6   40.34    1.07
 -11   2   6   40.17    1.07
 -11   2   6   37.52    0.98
  11   2  -6   41.01    1.10
  11   2  -6   38.90    0.99
 -11   2   5   21.25    0.75
  11   2  -5   21.52    0.77
  11   2  -5   21.42    0.75
  11   2  -5   19.96    0.65
 -11   2   4    9.25    0.45
 -11   2   4    8.37    0.44
  11   2  -4    9.79    0.49
  11   2  -4    9.53    0.48
 -11   2   3   24.15    0.72
  11   2  -3   24.62    0.77
  11   2  -3   24.12    0.78
  11   2  -2    0.93    0.14
 -11   3   6   12.20    0.48
  11   3  -6   13.41    0.53
 -11   3   5    5.62    0.33
  11   3  -5    5.82    0.35
  11   3  -5    5.08    0.31
  11   3  -5    5.49    0.32
  11   3  -4    4.13    0.29
  11   3  -4    3.80    0.26
  11   4  -5    5.97    0.29
   0   0   0    0.00    0.00
;
_shelx_hkl_checksum              13195
loop_
_space_group_symop_operation_xyz
'x, y, z'
'-x, y+1/2, -z'
loop_
_atom_site_label
_atom_site_type_symbol
_atom_site_fract_x
_atom_site_fract_y
_atom_site_fract_z
_atom_site_U_iso_or_equiv
_atom_site_adp_type
_atom_site_occupancy
_atom_site_site_symmetry_order
_atom_site_calc_flag
_atom_site_refinement_flags_posn
_atom_site_refinement_flags_adp
_atom_site_refinement_flags_occupancy
_atom_site_disorder_assembly
_atom_site_disorder_group
S1 S 0.39524(4) 0.42031(6) 0.49071(4) 0.03209(14) Uani 1 1 d . . . . .
O1 O 0.15979(13) 0.16069(14) 0.10767(13) 0.0305(3) Uani 1 1 d . . . . .
H1 H 0.0864 0.2210 0.0636 0.046 Uiso 1 1 calc R U . . .
O2 O 0.10419(13) 0.83888(15) 0.04506(15) 0.0330(3) Uani 1 1 d . . . . .
H2 H 0.1181 0.9351 0.0631 0.050 Uiso 1 1 calc R U . . .
C1 C 0.24522(18) 0.4167(2) 0.54807(17) 0.0269(3) Uani 1 1 d . . . . .
C2 C 0.1084(2) 0.5015(2) 0.4733(2) 0.0342(4) Uani 1 1 d . . . . .
H2A H 0.0895 0.5585 0.3857 0.041 Uiso 1 1 calc R U . . .
C3 C -0.0001(2) 0.5010(3) 0.5292(2) 0.0373(4) Uani 1 1 d . . . . .
H3 H -0.0928 0.5553 0.4775 0.045 Uiso 1 1 calc R U . . .
C4 C 0.0291(2) 0.4198(3) 0.6618(2) 0.0353(4) Uani 1 1 d . . . . .
H4 H -0.0436 0.4203 0.6994 0.042 Uiso 1 1 calc R U . . .
C5 C 0.1668(2) 0.3380(2) 0.7381(2) 0.0359(4) Uani 1 1 d . . . . .
H5 H 0.1874 0.2849 0.8280 0.043 Uiso 1 1 calc R U . . .
C6 C 0.2740(2) 0.3351(2) 0.6809(2) 0.0322(4) Uani 1 1 d . . . . .
H6 H 0.3656 0.2783 0.7315 0.039 Uiso 1 1 calc R U . . .
C7 C 0.29799(19) 0.37256(18) 0.28795(18) 0.0243(3) Uani 1 1 d . . . . .
H7 H 0.2119 0.4472 0.2373 0.029 Uiso 1 1 calc R U . . .
C8 C 0.23549(19) 0.2018(2) 0.26490(19) 0.0278(3) Uani 1 1 d . . . . .
H8A H 0.3198 0.1277 0.3176 0.033 Uiso 1 1 calc R U . . .
H8B H 0.1632 0.1918 0.3079 0.033 Uiso 1 1 calc R U . . .
C9 C 0.41688(17) 0.40066(19) 0.22961(17) 0.0232(3) Uani 1 1 d . . . . .
C10 C 0.5557(2) 0.3160(2) 0.29650(19) 0.0287(4) Uani 1 1 d . . . . .
H10 H 0.5719 0.2430 0.3734 0.034 Uiso 1 1 calc R U . . .
C11 C 0.6697(2) 0.3393(2) 0.2497(2) 0.0320(4) Uani 1 1 d . . . . .
H11 H 0.7620 0.2830 0.2957 0.038 Uiso 1 1 calc R U . . .
C12 C 0.64578(19) 0.4469(2) 0.1343(2) 0.0319(4) Uani 1 1 d . . . . .
H12 H 0.7221 0.4638 0.1030 0.038 Uiso 1 1 calc R U . . .
C13 C 0.5069(2) 0.5291(2) 0.06571(19) 0.0283(4) Uani 1 1 d . . . . .
H13 H 0.4905 0.5995 -0.0132 0.034 Uiso 1 1 calc R U . . .
C14 C 0.39120(18) 0.50887(19) 0.11214(17) 0.0236(3) Uani 1 1 d . . . . .
C15 C 0.24473(18) 0.6063(2) 0.03620(18) 0.0245(3) Uani 1 1 d . . . . .
H15A H 0.1576 0.5397 0.0235 0.029 Uiso 1 1 calc R U . . .
H15B H 0.2308 0.6383 -0.0636 0.029 Uiso 1 1 calc R U . . .
C16 C 0.24677(18) 0.7548(2) 0.12585(18) 0.0263(3) Uani 1 1 d . . . . .
H16A H 0.2587 0.7245 0.2254 0.032 Uiso 1 1 calc R U . . .
H16B H 0.3326 0.8233 0.1383 0.032 Uiso 1 1 calc R U . . .
loop_
_atom_site_aniso_label
_atom_site_aniso_U_11
_atom_site_aniso_U_22
_atom_site_aniso_U_33
_atom_site_aniso_U_23
_atom_site_aniso_U_13
_atom_site_aniso_U_12
S1 0.0266(2) 0.0413(2) 0.0264(2) -0.00737(18) 0.00998(15) -0.00648(18)
O1 0.0262(6) 0.0232(6) 0.0327(6) -0.0058(5) 0.0046(5) 0.0005(5)
O2 0.0230(6) 0.0214(6) 0.0453(7) -0.0047(6) 0.0067(5) 0.0017(5)
C1 0.0296(7) 0.0256(7) 0.0235(6) -0.0055(7) 0.0099(6) -0.0034(8)
C2 0.0372(9) 0.0355(10) 0.0277(8) 0.0029(8) 0.0125(7) 0.0060(8)
C3 0.0343(9) 0.0393(10) 0.0354(10) -0.0024(8) 0.0130(8) 0.0082(8)
C4 0.0382(9) 0.0364(9) 0.0368(8) -0.0091(9) 0.0217(7) -0.0023(9)
C5 0.0467(10) 0.0338(9) 0.0291(8) 0.0009(8) 0.0186(8) 0.0009(9)
C6 0.0326(9) 0.0314(9) 0.0278(8) 0.0010(7) 0.0090(7) 0.0025(7)
C7 0.0247(7) 0.0225(9) 0.0228(7) 0.0000(5) 0.0080(6) -0.0009(5)
C8 0.0286(8) 0.0214(8) 0.0296(8) 0.0011(6) 0.0096(6) -0.0019(6)
C9 0.0228(7) 0.0190(7) 0.0253(7) -0.0034(6) 0.0084(6) -0.0021(6)
C10 0.0294(8) 0.0248(9) 0.0292(8) -0.0002(7) 0.0107(7) 0.0034(7)
C11 0.0246(8) 0.0313(9) 0.0361(9) -0.0061(8) 0.0099(7) 0.0045(7)
C12 0.0287(8) 0.0329(10) 0.0384(9) -0.0099(7) 0.0186(7) -0.0037(7)
C13 0.0320(8) 0.0252(8) 0.0293(8) -0.0029(7) 0.0151(7) -0.0020(7)
C14 0.0252(8) 0.0192(7) 0.0237(8) -0.0044(6) 0.0086(6) -0.0016(6)
C15 0.0246(8) 0.0228(8) 0.0238(7) 0.0005(6) 0.0086(6) -0.0003(6)
C16 0.0237(7) 0.0220(8) 0.0281(8) -0.0003(6) 0.0070(6) 0.0014(6)
loop_
_atom_type_symbol
_atom_type_description
_atom_type_scat_dispersion_real
_atom_type_scat_dispersion_imag
_atom_type_scat_source
C C 0.0181 0.0091 'International Tables Vol C Tables 4.2.6.8 and 6.1.1.4'
H H 0.0000 0.0000 'International Tables Vol C Tables 4.2.6.8 and 6.1.1.4'
O O 0.0492 0.0322 'International Tables Vol C Tables 4.2.6.8 and 6.1.1.4'
S S 0.3331 0.5567 'International Tables Vol C Tables 4.2.6.8 and 6.1.1.4'
loop_
_geom_angle_atom_site_label_1
_geom_angle_atom_site_label_2
_geom_angle_atom_site_label_3
_geom_angle
_geom_angle_site_symmetry_1
_geom_angle_site_symmetry_3
_geom_angle_publ_flag
C1 S1 C7 104.33(7) . . ?
C8 O1 H1 109.5 . . ?
C16 O2 H2 109.5 . . ?
C2 C1 C6 119.58(15) . . ?
C2 C1 S1 122.93(13) . . ?
C6 C1 S1 117.28(13) . . ?
C1 C2 C3 119.94(17) . . ?
C1 C2 H2A 120.0 . . ?
C3 C2 H2A 120.0 . . ?
C4 C3 C2 120.34(17) . . ?
C4 C3 H3 119.8 . . ?
C2 C3 H3 119.8 . . ?
C3 C4 C5 119.75(16) . . ?
C3 C4 H4 120.1 . . ?
C5 C4 H4 120.1 . . ?
C6 C5 C4 120.16(17) . . ?
C6 C5 H5 119.9 . . ?
C4 C5 H5 119.9 . . ?
C5 C6 C1 120.19(16) . . ?
C5 C6 H6 119.9 . . ?
C1 C6 H6 119.9 . . ?
C9 C7 C8 113.94(13) . . ?
C9 C7 S1 105.78(10) . . ?
C8 C7 S1 110.01(11) . . ?
C9 C7 H7 109.0 . . ?
C8 C7 H7 109.0 . . ?
S1 C7 H7 109.0 . . ?
O1 C8 C7 111.31(13) . . ?
O1 C8 H8A 109.4 . . ?
C7 C8 H8A 109.4 . . ?
O1 C8 H8B 109.4 . . ?
C7 C8 H8B 109.4 . . ?
H8A C8 H8B 108.0 . . ?
C10 C9 C14 119.70(14) . . ?
C10 C9 C7 118.42(14) . . ?
C14 C9 C7 121.87(14) . . ?
C11 C10 C9 120.86(16) . . ?
C11 C10 H10 119.6 . . ?
C9 C10 H10 119.6 . . ?
C12 C11 C10 119.84(15) . . ?
C12 C11 H11 120.1 . . ?
C10 C11 H11 120.1 . . ?
C11 C12 C13 119.47(15) . . ?
C11 C12 H12 120.3 . . ?
C13 C12 H12 120.3 . . ?
C12 C13 C14 121.68(16) . . ?
C12 C13 H13 119.2 . . ?
C14 C13 H13 119.2 . . ?
C13 C14 C9 118.43(14) . . ?
C13 C14 C15 119.02(15) . . ?
C9 C14 C15 122.53(14) . . ?
C14 C15 C16 112.54(12) . . ?
C14 C15 H15A 109.1 . . ?
C16 C15 H15A 109.1 . . ?
C14 C15 H15B 109.1 . . ?
C16 C15 H15B 109.1 . . ?
H15A C15 H15B 107.8 . . ?
O2 C16 C15 108.39(12) . . ?
O2 C16 H16A 110.0 . . ?
C15 C16 H16A 110.0 . . ?
O2 C16 H16B 110.0 . . ?
C15 C16 H16B 110.0 . . ?
H16A C16 H16B 108.4 . . ?
loop_
_geom_bond_atom_site_label_1
_geom_bond_atom_site_label_2
_geom_bond_distance
_geom_bond_site_symmetry_2
_geom_bond_publ_flag
S1 C1 1.7785(16) . ?
S1 C7 1.8361(16) . ?
O1 C8 1.432(2) . ?
O1 H1 0.8200 . ?
O2 C16 1.4331(19) . ?
O2 H2 0.8200 . ?
C1 C2 1.389(2) . ?
C1 C6 1.391(2) . ?
C2 C3 1.387(3) . ?
C2 H2A 0.9300 . ?
C3 C4 1.386(3) . ?
C3 H3 0.9300 . ?
C4 C5 1.384(3) . ?
C4 H4 0.9300 . ?
C5 C6 1.385(3) . ?
C5 H5 0.9300 . ?
C6 H6 0.9300 . ?
C7 C9 1.517(2) . ?
C7 C8 1.524(2) . ?
C7 H7 0.9800 . ?
C8 H8A 0.9700 . ?
C8 H8B 0.9700 . ?
C9 C10 1.397(2) . ?
C9 C14 1.401(2) . ?
C10 C11 1.387(3) . ?
C10 H10 0.9300 . ?
C11 C12 1.385(3) . ?
C11 H11 0.9300 . ?
C12 C13 1.388(3) . ?
C12 H12 0.9300 . ?
C13 C14 1.397(2) . ?
C13 H13 0.9300 . ?
C14 C15 1.512(2) . ?
C15 C16 1.517(2) . ?
C15 H15A 0.9700 . ?
C15 H15B 0.9700 . ?
C16 H16A 0.9700 . ?
C16 H16B 0.9700 . ?
loop_
_geom_hbond_atom_site_label_D
_geom_hbond_atom_site_label_H
_geom_hbond_atom_site_label_A
_geom_hbond_distance_DH
_geom_hbond_distance_HA
_geom_hbond_distance_DA
_geom_hbond_angle_DHA
_geom_hbond_site_symmetry_A
O1 H1 O2 0.82 1.94 2.7541(17) 172.5 2_545
O2 H2 O1 0.82 1.93 2.7520(18) 177.6 1_565
loop_
_geom_torsion_atom_site_label_1
_geom_torsion_atom_site_label_2
_geom_torsion_atom_site_label_3
_geom_torsion_atom_site_label_4
_geom_torsion
_geom_torsion_site_symmetry_1
_geom_torsion_site_symmetry_2
_geom_torsion_site_symmetry_3
_geom_torsion_site_symmetry_4
_geom_torsion_publ_flag
C7 S1 C1 C2 -51.27(17) . . . . ?
C7 S1 C1 C6 133.98(14) . . . . ?
C6 C1 C2 C3 -1.6(3) . . . . ?
S1 C1 C2 C3 -176.22(15) . . . . ?
C1 C2 C3 C4 1.7(3) . . . . ?
C2 C3 C4 C5 -0.4(3) . . . . ?
C3 C4 C5 C6 -1.1(3) . . . . ?
C4 C5 C6 C1 1.2(3) . . . . ?
C2 C1 C6 C5 0.1(3) . . . . ?
S1 C1 C6 C5 175.04(14) . . . . ?
C1 S1 C7 C9 171.13(11) . . . . ?
C1 S1 C7 C8 -65.38(13) . . . . ?
C9 C7 C8 O1 -61.03(17) . . . . ?
S1 C7 C8 O1 -179.61(11) . . . . ?
C8 C7 C9 C10 -63.40(18) . . . . ?
S1 C7 C9 C10 57.57(16) . . . . ?
C8 C7 C9 C14 116.91(16) . . . . ?
S1 C7 C9 C14 -122.12(13) . . . . ?
C14 C9 C10 C11 1.0(2) . . . . ?
C7 C9 C10 C11 -178.71(15) . . . . ?
C9 C10 C11 C12 -0.6(3) . . . . ?
C10 C11 C12 C13 -0.6(3) . . . . ?
C11 C12 C13 C14 1.4(3) . . . . ?
C12 C13 C14 C9 -0.9(2) . . . . ?
C12 C13 C14 C15 177.96(15) . . . . ?
C10 C9 C14 C13 -0.2(2) . . . . ?
C7 C9 C14 C13 179.44(14) . . . . ?
C10 C9 C14 C15 -179.09(14) . . . . ?
C7 C9 C14 C15 0.6(2) . . . . ?
C13 C14 C15 C16 -97.29(17) . . . . ?
C9 C14 C15 C16 81.55(19) . . . . ?
C14 C15 C16 O2 179.84(13) . . . . ?
