#------------------------------------------------------------------------------
#$Date: 2020-03-31 02:35:21 +0300 (Tue, 31 Mar 2020) $
#$Revision: 249840 $
#$URL: file:///home/coder/svn-repositories/cod/cif/4/03/81/4038141.cif $
#------------------------------------------------------------------------------
#
# This file is available in the Crystallography Open Database (COD),
# http://www.crystallography.net/
#
# All data on this site have been placed in the public domain by the
# contributors.
#
data_4038141
loop_
_publ_author_name
'Li, Zhenmin'
'Xie, Jianwei'
'Lu, Ping'
'Wang, Yanguang'
_publ_section_title
;
 Synthesis of 8-Alkoxy-5H-isochromeno[3,4-c]isoquinolines and
 1-Alkoxy-4-arylisoquinolin-3-ols through Rh(III)-Catalyzed C-H
 Functionalization of Benzimidates with 4-Diazoisochroman-3-imines and
 4-Diazoisoquinolin-3-ones.
;
_journal_name_full               'The Journal of organic chemistry'
_journal_paper_doi               10.1021/acs.joc.0c00283
_journal_year                    2020
_chemical_formula_moiety         'C18 H14 Cl N O2'
_chemical_formula_sum            'C18 H14 Cl N O2'
_chemical_formula_weight         311.75
_space_group_crystal_system      triclinic
_space_group_IT_number           2
_space_group_name_Hall           '-P 1'
_space_group_name_H-M_alt        'P -1'
_atom_sites_solution_hydrogens   geom
_audit_creation_date             2018-11-16
_audit_creation_method
;
Olex2 1.2
(compiled 2018.05.29 svn.r3508 for OlexSys, GUI svn.r5506)
;
_cell_angle_alpha                99.418(2)
_cell_angle_beta                 99.192(2)
_cell_angle_gamma                116.633(2)
_cell_formula_units_Z            2
_cell_length_a                   8.2025(4)
_cell_length_b                   8.5700(4)
_cell_length_c                   12.1558(6)
_cell_measurement_reflns_used    4986
_cell_measurement_temperature    170(2)
_cell_measurement_theta_max      31.49
_cell_measurement_theta_min      2.76
_cell_volume                     726.73(6)
_computing_cell_refinement       'SAINT V8.38A (?, 2016)'
_computing_data_reduction        'SAINT V8.38A (?, 2016)'
_computing_molecular_graphics    'Olex2 (Dolomanov et al., 2009)'
_computing_publication_material  'Olex2 (Dolomanov et al., 2009)'
_computing_structure_refinement  'ShelXL (Sheldrick, 2015)'
_computing_structure_solution    'SHELXT 2014/5 (Sheldrick, 2014)'
_diffrn_ambient_temperature      169.98
_diffrn_measured_fraction_theta_full 0.998
_diffrn_measured_fraction_theta_max 0.996
_diffrn_measurement_device_type  'Bruker APEX-II CCD'
_diffrn_measurement_method       '\f and \w scans'
_diffrn_radiation_type           MoK\a
_diffrn_radiation_wavelength     0.71073
_diffrn_reflns_av_R_equivalents  0.0359
_diffrn_reflns_av_unetI/netI     0.0504
_diffrn_reflns_Laue_measured_fraction_full 0.998
_diffrn_reflns_Laue_measured_fraction_max 0.996
_diffrn_reflns_limit_h_max       11
_diffrn_reflns_limit_h_min       -12
_diffrn_reflns_limit_k_max       12
_diffrn_reflns_limit_k_min       -12
_diffrn_reflns_limit_l_max       17
_diffrn_reflns_limit_l_min       -17
_diffrn_reflns_number            11362
_diffrn_reflns_point_group_measured_fraction_full 0.998
_diffrn_reflns_point_group_measured_fraction_max 0.996
_diffrn_reflns_theta_full        25.242
_diffrn_reflns_theta_max         31.549
_diffrn_reflns_theta_min         2.759
_diffrn_standards_number         0
_exptl_absorpt_coefficient_mu    0.269
_exptl_absorpt_correction_T_max  0.7462
_exptl_absorpt_correction_T_min  0.6776
_exptl_absorpt_correction_type   multi-scan
_exptl_absorpt_process_details
;
SADABS-2016/2 (Bruker,2016/2) was used for absorption correction.
wR2(int) was 0.1194 before and 0.0555 after correction.
The Ratio of minimum to maximum transmission is 0.9081.
The \l/2 correction factor is Not present.
;
_exptl_crystal_colour            'light yellow'
_exptl_crystal_colour_modifier   light
_exptl_crystal_colour_primary    yellow
_exptl_crystal_density_diffrn    1.425
_exptl_crystal_description       needle
_exptl_crystal_F_000             324
_exptl_crystal_size_max          0.39
_exptl_crystal_size_mid          0.21
_exptl_crystal_size_min          0.1
_refine_diff_density_max         0.455
_refine_diff_density_min         -0.256
_refine_diff_density_rms         0.059
_refine_ls_extinction_method     none
_refine_ls_goodness_of_fit_ref   1.047
_refine_ls_hydrogen_treatment    constr
_refine_ls_matrix_type           full
_refine_ls_number_parameters     200
_refine_ls_number_reflns         4828
_refine_ls_number_restraints     0
_refine_ls_restrained_S_all      1.047
_refine_ls_R_factor_all          0.0692
_refine_ls_R_factor_gt           0.0477
_refine_ls_shift/su_max          0.000
_refine_ls_shift/su_mean         0.000
_refine_ls_structure_factor_coef Fsqd
_refine_ls_weighting_details
'w=1/[\s^2^(Fo^2^)+(0.0441P)^2^+0.2484P] where P=(Fo^2^+2Fc^2^)/3'
_refine_ls_weighting_scheme      calc
_refine_ls_wR_factor_gt          0.1060
_refine_ls_wR_factor_ref         0.1214
_reflns_Friedel_coverage         0.000
_reflns_number_gt                3694
_reflns_number_total             4828
_reflns_threshold_expression     'I > 2\s(I)'
_cod_data_source_file            jo0c00283_si_002.cif
_cod_data_source_block           181115_lzm7334_11_0m_a
_cod_database_code               4038141
_shelx_shelxl_version_number     2016/6
_shelx_space_group_comment
;
The symmetry employed for this shelxl refinement is uniquely defined
by the following loop, which should always be used as a source of
symmetry information in preference to the above space-group names.
They are only intended as comments.
;
_shelx_estimated_absorpt_t_max   0.974
_shelx_estimated_absorpt_t_min   0.902
_olex2_refinement_description
;
1. Fixed Uiso
 At 1.2 times of:
  All C(H) groups, All C(H,H) groups
 At 1.5 times of:
  All C(H,H,H) groups
2.a Secondary CH2 refined with riding coordinates:
 C12(H12A,H12B), C17(H17A,H17B)
2.b Aromatic/amide H refined with riding coordinates:
 C1(H1), C2(H2), C3(H3), C13(H13), C14(H14), C15(H15), C16(H16)
2.c Idealised Me refined as rotating group:
 C18(H18A,H18B,H18C)
;
_shelx_res_file
;
TITL 181115_lzm7334_11_0m_a.res in P-1
    181115_lzm7334_11_0m_a.res
    created by SHELXL-2016/6 at 14:56:06 on 16-Nov-2018
REM Old TITL 181115_lzm7334_11_0m in P-1
REM SHELXT solution in P-1
REM R1 0.123, Rweak 0.005, Alpha 0.032, Orientation as input
REM Formula found by SHELXT: C18 Cl N O2
CELL 0.71073 8.2025 8.57 12.1558 99.418 99.192 116.633
ZERR 2 0.0004 0.0004 0.0006 0.002 0.002 0.002
LATT 1
SFAC C H Cl N O
UNIT 36 28 2 2 4

L.S. 5
PLAN  20
SIZE 0.39 0.21 0.1
TEMP -103.17
BOND $H
LIST 6
htab
fmap 2
acta
REM <olex2.extras>
REM <HklSrc "%.\\181115_lzm7334_11_0m_a.hkl">
REM </olex2.extras>

WGHT    0.044100    0.248400
FVAR       0.71733
CL1   3    0.857818    0.803659    0.857041    11.00000    0.02786    0.02438 =
         0.02852    0.00282    0.00291    0.00149
O1    5    0.209016    0.171673    0.758356    11.00000    0.02356    0.02197 =
         0.02441    0.00394    0.00781    0.00015
O2    5    0.396905    0.106012    0.430902    11.00000    0.02477    0.02013 =
         0.02363    0.00212    0.00573    0.00541
N1    4    0.310697    0.139929    0.599874    11.00000    0.02062    0.01978 =
         0.02384    0.00486    0.00427    0.00518
C1    1    0.713864    0.442236    0.502862    11.00000    0.02519    0.02529 =
         0.02734    0.00867    0.00984    0.01156
AFIX  43
H1    2    0.692672    0.362912    0.431231    11.00000   -1.20000
AFIX   0
C2    1    0.869852    0.611072    0.540081    11.00000    0.02595    0.02746 =
         0.03452    0.01233    0.01470    0.00960
AFIX  43
H2    2    0.952538    0.651863    0.492123    11.00000   -1.20000
AFIX   0
C3    1    0.907172    0.723254    0.648749    11.00000    0.02242    0.02090 =
         0.03603    0.00971    0.00843    0.00445
AFIX  43
H3    2    1.018717    0.837837    0.676256    11.00000   -1.20000
AFIX   0
C4    1    0.782981    0.668212    0.715819    11.00000    0.02169    0.01894 =
         0.02563    0.00609    0.00413    0.00489
C5    1    0.610002    0.501971    0.677508    11.00000    0.01916    0.01915 =
         0.02383    0.00698    0.00441    0.00586
C6    1    0.584787    0.386139    0.570779    11.00000    0.01979    0.01990 =
         0.02306    0.00628    0.00483    0.00694
C7    1    0.423998    0.207678    0.535615    11.00000    0.02209    0.01833 =
         0.02292    0.00440    0.00443    0.00789
C8    1    0.336392    0.254403    0.699423    11.00000    0.01973    0.01996 =
         0.02378    0.00645    0.00534    0.00456
C9    1    0.465528    0.437676    0.737835    11.00000    0.02109    0.01953 =
         0.02184    0.00572    0.00465    0.00571
C10   1    0.414376    0.546326    0.817972    11.00000    0.02105    0.02166 =
         0.02017    0.00133    0.00221    0.00512
C11   1    0.304249    0.458483    0.888531    11.00000    0.02054    0.02674 =
         0.02230    0.00297    0.00270    0.00440
C12   1    0.265412    0.268144    0.879117    11.00000    0.02731    0.02524 =
         0.02153    0.00518    0.00690    0.00290
AFIX  23
H12A  2    0.380416    0.268523    0.919559    11.00000   -1.20000
H12B  2    0.163443    0.206943    0.916060    11.00000   -1.20000
AFIX   0
C13   1    0.442307    0.718938    0.814131    11.00000    0.03030    0.02487 =
         0.02618    0.00380    0.00436    0.01021
AFIX  43
H13   2    0.512235    0.778973    0.764645    11.00000   -1.20000
AFIX   0
C14   1    0.368228    0.802452    0.882317    11.00000    0.03859    0.02918 =
         0.03417    0.00078    0.00437    0.01675
AFIX  43
H14   2    0.388384    0.919704    0.879472    11.00000   -1.20000
AFIX   0
C15   1    0.264725    0.716025    0.954793    11.00000    0.03441    0.04124 =
         0.03476   -0.00080    0.00887    0.01884
AFIX  43
H15   2    0.217377    0.775349    1.002822    11.00000   -1.20000
AFIX   0
C16   1    0.230987    0.543210    0.956658    11.00000    0.02565    0.03607 =
         0.02825    0.00201    0.00805    0.00838
AFIX  43
H16   2    0.157645    0.482533    1.004591    11.00000   -1.20000
AFIX   0
C17   1    0.233458   -0.074012    0.393510    11.00000    0.02396    0.02007 =
         0.02879    0.00181    0.00372    0.00560
AFIX  23
H17A  2    0.116474   -0.066369    0.393131    11.00000   -1.20000
H17B  2    0.244612   -0.146813    0.446707    11.00000   -1.20000
AFIX   0
C18   1    0.226734   -0.160569    0.273365    11.00000    0.03681    0.02799 =
         0.02918    0.00088    0.00309    0.01325
AFIX 137
H18A  2    0.123656   -0.286140    0.248048    11.00000   -1.50000
H18B  2    0.347125   -0.158739    0.273656    11.00000   -1.50000
H18C  2    0.205048   -0.093136    0.220230    11.00000   -1.50000
AFIX   0
HKLF 4




REM  181115_lzm7334_11_0m_a.res in P-1
REM R1 =  0.0477 for    3694 Fo > 4sig(Fo)  and  0.0692 for all    4828 data
REM    200 parameters refined using      0 restraints

END

WGHT      0.0441      0.2484

REM Instructions for potential hydrogen bonds
EQIV $1 x+1, y+1, z
HTAB C3 O1_$1
EQIV $2 -x+1, -y+1, -z+2
HTAB C12 Cl1_$2
EQIV $3 -x, -y, -z+1
HTAB C17 O1_$3

REM Highest difference peak  0.455,  deepest hole -0.256,  1-sigma level  0.059
Q1    1   0.9306  0.7652  0.8856  11.00000  0.05    0.46
Q2    1   0.5026  0.2990  0.5518  11.00000  0.05    0.34
Q3    1   0.8860  0.6512  0.5959  11.00000  0.05    0.33
Q4    1   0.6032  0.4347  0.6276  11.00000  0.05    0.31
Q5    1   0.4719  0.5079  0.7931  11.00000  0.05    0.28
Q6    1   0.6806  0.5977  0.6839  11.00000  0.05    0.27
Q7    1   0.4451  0.7646  0.8688  11.00000  0.05    0.26
Q8    1   0.4934  0.7070  0.9414  11.00000  0.05    0.26
Q9    1   0.6616  0.4124  0.5397  11.00000  0.05    0.26
Q10   1   0.3349  0.2009  0.6567  11.00000  0.05    0.26
Q11   1   0.2498 -0.1093  0.3275  11.00000  0.05    0.26
Q12   1   0.3031  0.5176  0.9472  11.00000  0.05    0.25
Q13   1   0.4363  0.1537  0.4987  11.00000  0.05    0.25
Q14   1   0.7926  0.5349  0.5287  11.00000  0.05    0.24
Q15   1   0.3659  0.1730  0.5719  11.00000  0.05    0.24
Q16   1   0.9216  0.7413  0.8231  11.00000  0.05    0.23
Q17   1   0.8128  0.7189  0.7817  11.00000  0.05    0.23
Q18   1   0.4045  0.3345  0.7204  11.00000  0.05    0.23
Q19   1   0.5016  0.2836  0.9547  11.00000  0.05    0.23
Q20   1   0.8337  0.6910  0.6793  11.00000  0.05    0.23
;
_shelx_res_checksum              98419
_shelx_hkl_file
;
  -1   0   0 1132.79   32.50
   1   0   0 1071.79   32.00
  -2   0   0 1742.73   42.90
  -3   0   0   92.89    2.90
  -3   0   0  100.09    4.20
  -3   0   0   92.39    4.20
   3   0   0   95.09    4.10
  -4   0   0   91.09    4.70
  -4   0   0   93.19    4.60
  -4   0   0   93.69    3.00
   4   0   0   90.09    4.40
  -5   0   0   38.90    1.80
  -5   0   0   43.60    3.20
  -5   0   0   38.50    3.10
  -6   0   0   83.29    3.10
  -6   0   0   77.69    5.00
  -7   0   0   63.09    4.80
  -7   0   0   68.99    2.80
  -8   0   0    6.20    0.90
  -8   0   0    8.20    2.10
  -9   0   0    6.10    1.90
 -10   0   0    2.40    1.40
  -9   1   0    1.40    1.00
  -8   1   0    6.10    1.80
  -7   1   0    1.80    0.90
  -6   1   0    5.60    0.60
  -6   1   0    8.20    1.90
   5  -1   0  102.49    6.40
  -5   1   0   81.19    5.60
  -5   1   0   90.49    3.00
  -5   1   0   92.49    4.90
  -4   1   0   13.70    1.60
  -4   1   0   13.90    1.60
  -4   1   0   16.80    0.90
   3  -1   0   69.39    3.30
   3  -1   0   74.09    2.20
  -3   1   0   77.29    3.50
  -3   1   0   70.39    3.40
  -3   1   0   70.99    2.20
   2  -1   0  318.77    9.10
   2  -1   0  345.67    8.10
  -2   1   0  275.27    9.40
  -2   1   0  335.47    9.10
  -2   1   0  340.97    8.20
   1  -1   0 2682.83   73.79
  -1   1   0 2564.64   73.59
   0  -1   0  392.46   11.20
   0   1   0  411.06   11.20
  -1  -1   0  222.08    6.10
  -1  -1   0  222.88    6.50
   1   1   0  216.48    6.00
  -2  -1   0  774.32   20.60
  -2  -1   0  777.22   20.10
   2   1   0  778.22   20.00
  -3  -1   0  141.09    5.40
  -3  -1   0  134.49    5.70
   3   1   0  136.39    5.20
  -4  -1   0    2.20    0.70
  -4  -1   0    2.50    1.00
  -4  -1   0    3.20    0.60
  -5  -1   0  234.28    9.00
  -5  -1   0  222.78    6.80
  -6  -1   0  101.69    3.90
  -6  -1   0  110.09    6.00
  -7  -1   0   21.00    2.70
  -7  -1   0   20.30    1.50
  -8  -1   0    0.30    0.90
  -8  -1   0    1.20    0.50
 -11   2   0    0.40    1.20
 -10   2   0   45.80    5.50
  -9   2   0   59.19    5.30
  -8   2   0   79.29    5.80
  -7   2   0    2.90    1.00
  -6   2   0   50.49    3.80
  -6   2   0   58.99    4.10
   5  -2   0   -0.30    0.40
   5  -2   0   -0.20    0.10
  -5   2   0    0.30    0.20
  -5   2   0    0.40    0.50
  -5   2   0   -0.40    0.30
   4  -2   0    1.10    0.30
   4  -2   0    1.50    0.60
  -4   2   0   -0.10    0.20
  -4   2   0    0.80    0.30
  -4   2   0    0.80    0.50
  -4   2   0    0.50    0.40
   3  -2   0  596.14   15.00
   3  -2   0  593.44   16.30
  -3   2   0  596.94   17.00
  -3   2   0  601.44   16.00
  -3   2   0  585.94   16.40
   2  -2   0   83.89    3.60
   2  -2   0   69.59    2.90
   2  -2   0   73.89    2.80
  -2   2   0   82.69    2.70
  -2   2   0   80.59    3.80
   1  -2   0    1.50    0.70
   1  -2   0    2.00    0.30
  -1   2   0    1.70    0.30
  -1   2   0    1.90    0.80
   0  -2   0 1042.10   25.70
   0   2   0 1052.69   28.20
  -1  -2   0  730.23   18.20
  -1  -2   0  720.03   19.10
  -1  -2   0  726.03   21.60
  -2  -2   0  344.17   13.20
  -2  -2   0  350.96   10.00
  -2  -2   0  359.26   10.90
  -3  -2   0    1.30    0.50
  -4  -2   0  131.79    4.90
  -4  -2   0  144.19    6.00
  -4  -2   0  146.59    6.70
  -5  -2   0   41.60    3.20
  -5  -2   0   39.00    2.20
  -6  -2   0    0.30    0.40
  -7  -2   0    0.70    0.70
  -7  -2   0    1.70    1.20
  -8  -2   0   68.99    5.40
  -9  -2   0   -0.60    0.80
  -9  -2   0   -1.30    1.90
 -11   3   0   53.69    5.60
 -10   3   0   22.30    4.10
  -9   3   0    6.20    2.00
  -8   3   0    2.90    1.10
  -7   3   0    1.00    0.50
   6  -3   0   36.20    1.90
   6  -3   0   38.50    3.10
  -6   3   0   37.00    3.50
  -6   3   0   34.10    3.10
  -6   3   0   37.80    3.00
   5  -3   0   73.29    2.60
   5  -3   0   72.09    4.10
  -5   3   0   74.99    4.70
  -5   3   0   65.69    4.00
  -5   3   0   68.99    3.90
   4  -3   0  155.48    6.00
   4  -3   0  151.68    4.90
  -4   3   0  152.18    6.70
  -4   3   0  150.28    5.70
  -4   3   0  152.58    6.10
   3  -3   0   60.29    2.90
   3  -3   0   62.59    3.60
   3  -3   0   63.09    2.80
  -3   3   0   61.29    3.00
  -3   3   0   60.79    3.60
  -3   3   0   61.69    2.60
   2  -3   0   13.40    1.00
   2  -3   0   14.50    1.60
  -2   3   0   12.80    1.00
  -2   3   0   12.70    1.60
   1  -3   0   85.29    4.60
   1  -3   0   89.59    2.60
  -1   3   0   90.89    2.70
  -1   3   0   86.89    4.90
   0  -3   0 1736.53   45.90
   0  -3   0 1728.43   41.70
   0   3   0 1651.13   45.50
  -1  -3   0  468.55   12.10
  -1  -3   0  459.55   13.20
  -1  -3   0  488.15   17.10
  -2  -3   0  349.17   14.50
  -2  -3   0  346.07   11.00
  -2  -3   0  340.37    9.90
  -3  -3   0   -0.40    0.50
  -3  -3   0    0.50    0.40
  -3  -3   0    1.20    0.50
  -4  -3   0   32.40    2.60
  -4  -3   0   37.50    4.80
  -5  -3   0    8.60    2.90
  -5  -3   0   14.00    2.30
  -5  -3   0    9.70    1.50
  -6  -3   0    8.90    1.90
  -6  -3   0    5.90    3.00
  -7  -3   0   61.49    4.80
  -7  -3   0   64.79    7.90
  -8  -3   0    1.80    1.10
  -8  -3   0    2.10    1.90
 -11   4   0   20.80    4.00
 -10   4   0   18.60    3.60
  -9   4   0   25.90    3.40
  -8   4   0    1.20    0.80
   7  -4   0   36.40    1.70
  -7   4   0   32.10    3.60
  -7   4   0   36.50    3.40
   6  -4   0  174.38    7.60
   6  -4   0  176.88    5.50
  -6   4   0  177.58    7.30
  -6   4   0  201.38   13.50
  -6   4   0  175.38    7.90
   5  -4   0   -0.40    0.20
   5  -4   0    1.30    0.50
  -5   4   0    0.00    1.00
  -5   4   0    0.10    0.40
  -5   4   0    0.60    0.40
   4  -4   0   61.09    3.40
   4  -4   0   64.99    3.20
   4  -4   0   67.29    4.30
  -4   4   0   66.49    3.00
  -4   4   0   62.99    4.30
  -4   4   0   61.79    3.40
   3  -4   0    0.90    0.40
  -3   4   0    2.80    1.20
  -3   4   0    1.80    0.60
  -3   4   0    2.20    0.40
   2  -4   0  186.98    5.60
   2  -4   0  192.38    8.00
  -2   4   0  191.58    5.70
  -2   4   0  186.78    8.50
   1  -4   0  142.29    6.90
  -1   4   0  125.09    7.10
   0  -4   0   21.10    1.40
   0  -4   0   22.00    2.90
   0   4   0   19.90    2.70
  -1  -4   0   35.30    2.30
  -1  -4   0   44.90    4.60
  -2  -4   0  158.38    6.70
  -2  -4   0  169.18    5.50
  -2  -4   0  173.68   10.40
  -3  -4   0   15.40    3.80
  -3  -4   0   19.30    2.20
  -3  -4   0   18.30    1.60
  -4  -4   0   44.00    3.00
  -4  -4   0   48.00    5.80
  -5  -4   0   75.59    4.50
  -5  -4   0   74.89    8.00
  -6  -4   0   77.19    5.10
  -6  -4   0   88.89    9.60
  -7  -4   0   24.70    6.30
  -7  -4   0   27.40    3.20
 -11   5   0   10.10    2.80
 -10   5   0   38.30    4.50
  -9   5   0    6.70    2.00
   8  -5   0    3.20    0.60
  -8   5   0    0.70    0.80
   7  -5   0   92.49    3.60
  -7   5   0   89.29    5.00
  -7   5   0  101.09    6.00
   6  -5   0   47.30    2.60
   6  -5   0   48.10    3.50
  -6   5   0   44.80    3.00
  -6   5   0   46.60    3.60
   5  -5   0   17.40    1.60
   5  -5   0   15.60    1.70
   5  -5   0   15.10    2.70
  -5   5   0   12.30    1.30
  -5   5   0   14.00    1.70
  -5   5   0   20.20    3.50
   4  -5   0   16.60    1.70
   4  -5   0   14.40    1.50
  -4   5   0   16.70    1.60
  -4   5   0   16.50    1.10
  -4   5   0   23.30    3.80
   3  -5   0   56.29    2.70
   3  -5   0   61.79    4.30
  -3   5   0   61.49    2.90
  -3   5   0   55.29    4.50
   2  -5   0    2.50    1.10
  -2   5   0    1.70    0.40
  -2   5   0    3.20    1.50
   1  -5   0    1.10    0.80
   1  -5   0   -0.10    0.10
  -1   5   0    0.20    0.50
   0  -5   0   17.70    1.40
   0  -5   0   21.80    4.00
   0   5   0   21.90    3.00
  -1  -5   0  216.18   12.10
  -1  -5   0  208.08    7.60
  -2  -5   0   12.60    2.10
  -2  -5   0   22.50    5.00
  -3  -5   0  182.28   12.50
  -3  -5   0  188.28    6.50
  -4  -5   0  147.79    6.10
  -4  -5   0  150.48   11.90
  -5  -5   0    0.50    1.40
  -5  -5   0    1.10    0.60
  -6  -5   0   53.89    4.10
  -6  -5   0   50.19    9.70
  -7  -5   0   18.30    3.00
  -7  -5   0   12.10    5.60
 -11   6   0   25.70    4.60
 -10   6   0   32.80    4.20
   9  -6   0   18.70    1.30
  -9   6   0   16.50    3.10
   8  -6   0   27.50    1.80
  -8   6   0   24.90    3.10
   7  -6   0   27.30    2.00
  -7   6   0   24.50    2.30
  -7   6   0   30.10    3.10
   6  -6   0    4.20    1.10
  -6   6   0    4.90    1.10
  -6   6   0    3.30    1.20
   5  -6   0   41.10    3.90
   5  -6   0   45.50    3.10
  -5   6   0   41.00    3.00
  -5   6   0   34.40    4.80
   4  -6   0  126.19    7.00
  -4   6   0  124.49    5.20
  -4   6   0  116.09    7.60
   3  -6   0   22.40    2.90
  -3   6   0   29.00    1.80
  -3   6   0   24.20    3.50
   2  -6   0   63.59    5.10
  -2   6   0   57.59    5.50
   1  -6   0  118.09    7.80
  -1   6   0  123.09    8.30
   0  -6   0    1.70    1.20
   0  -6   0    1.80    0.60
   0   6   0   -0.30    0.80
  -1  -6   0    1.20    0.50
  -1  -6   0    0.40    0.90
  -2  -6   0  214.88   13.60
  -2  -6   0  183.58    8.00
  -3  -6   0   23.90    5.20
  -4  -6   0   24.60    1.90
  -4  -6   0   31.60    7.10
  -5  -6   0   30.60    6.50
  -5  -6   0   36.80    2.80
  -6  -6   0   23.10    2.70
  -6  -6   0   25.40    7.00
 -11   7   0   13.80    3.20
 -10   7   0    4.20    1.80
   9  -7   0    0.90    0.50
  -9   7   0    1.00    1.00
   8  -7   0   21.00    1.90
  -8   7   0   15.10    2.30
  -8   7   0   16.20    2.90
   7  -7   0   20.10    2.00
  -7   7   0   22.30    1.90
  -7   7   0   18.00    2.30
   6  -7   0   15.50    3.30
   6  -7   0   24.50    2.40
  -6   7   0   22.90    2.40
  -6   7   0   20.10    1.50
   5  -7   0   94.69    5.30
  -5   7   0   98.09    4.90
   4  -7   0   23.00    3.10
  -4   7   0   22.40    1.90
   3  -7   0   15.30    3.30
   2  -7   0   29.30    3.80
   1  -7   0    5.30    2.00
   0  -7   0    1.40    1.40
   0  -7   0    1.40    0.50
  -1  -7   0   15.00    3.90
  -1  -7   0   13.50    2.00
  -2  -7   0   64.29    7.50
  -3  -7   0   15.20    4.90
  -4  -7   0  134.89   12.50
  -5  -7   0   20.00    6.40
 -11   8   0    0.20    1.40
  10  -8   0    1.90    0.70
 -10   8   0    3.10    1.40
   9  -8   0    0.60    0.80
  -9   8   0    2.60    1.30
   8  -8   0   23.60    2.30
  -8   8   0   20.30    2.00
  -8   8   0   20.70    2.70
  -7   8   0    1.90    0.80
  -7   8   0    2.20    0.70
   6  -8   0   -0.70    0.50
   6  -8   0    0.50    0.50
  -6   8   0   -0.20    0.50
   5  -8   0    3.40    1.50
   5  -8   0    2.90    1.40
  -5   8   0    8.40    1.60
   4  -8   0   10.00    2.40
  -4   8   0    7.00    1.20
   3  -8   0   32.50    4.00
   2  -8   0   32.00    4.30
   1  -8   0   20.40    4.40
   0  -8   0   42.60    5.70
   0  -8   0   43.80    2.70
  -1  -8   0    6.20    3.00
  -1  -8   0    2.80    1.30
  -2  -8   0    0.80    1.80
  -3  -8   0  104.89   11.10
  -4  -8   0   29.90    6.60
  11  -9   0   -0.20    0.80
 -11   9   0   -2.60    1.00
  10  -9   0   -0.30    0.70
 -10   9   0   -0.40    1.10
   9  -9   0    2.70    1.10
  -9   9   0    5.90    1.80
  -9   9   0    6.10    1.60
   8  -9   0   32.90    3.10
  -8   9   0   28.30    3.10
   7  -9   0    6.00    1.80
   7  -9   0    6.20    1.80
  -7   9   0    9.10    2.00
   6  -9   0   19.50    3.00
   6  -9   0   16.90    3.70
  -6   9   0   16.80    2.20
   5  -9   0    1.00    0.70
   5  -9   0    0.90    1.20
  -5   9   0    0.90    0.70
   4  -9   0   90.39    7.10
   3  -9   0   17.80    4.00
   2  -9   0   32.20    4.60
   1  -9   0    9.30    3.30
   0  -9   0    6.90    2.80
  -1  -9   0    4.20    2.70
  -2  -9   0   40.60    7.50
  10 -10   0   -0.80    0.90
 -10  10   0    3.60    1.70
   9 -10   0    7.90    1.90
  -9  10   0    9.10    2.60
   8 -10   0    8.80    2.20
  -8  10   0   14.90    3.00
   7 -10   0   11.50    2.60
   7 -10   0   13.90    3.50
  -7  10   0   11.80    2.90
   6 -10   0   -1.10    0.90
   6 -10   0   -0.50    0.80
  -6  10   0    3.10    1.00
   5 -10   0   86.59    7.40
   5 -10   0  101.59    7.00
   4 -10   0  211.18   11.10
   4 -10   0  218.48   12.40
   3 -10   0   11.10    3.30
   2 -10   0   -1.30    1.20
   1 -10   0    6.80    2.80
   0 -10   0    5.90    2.90
  -1 -10   0    1.20    2.10
   9 -11   0    1.10    1.30
  -9  11   0    2.70    1.80
   8 -11   0   22.70    5.00
   8 -11   0   19.30    3.70
  -8  11   0   18.30    3.10
   7 -11   0    1.80    1.20
   7 -11   0    2.00    1.70
  -7  11   0   -0.30    1.20
   6 -11   0   16.00    4.00
   6 -11   0   19.10    3.60
   5 -11   0    6.10    2.20
   5 -11   0   11.10    3.20
   4 -11   0    5.30    1.90
   4 -11   0    1.30    1.30
   3 -11   0    1.30    1.90
   2 -11   0   -0.30    1.80
   1 -11   0   -0.40    1.90
   8 -12   0   -3.10    1.20
   8 -12   0    0.50    1.40
   7 -12   0   52.19    5.30
   7 -12   0   54.79    6.40
   6 -12   0    0.30    1.00
   6 -12   0    0.50    1.70
   5 -12   0    6.20    2.70
   5 -12   0    4.90    2.20
   4 -12   0    0.70    1.20
   3 -12   0    8.70    2.70
   3 -12   0    3.30    2.30
   3 -12   1    0.50    1.80
   3 -12   1    9.90    2.90
   4 -12   1    2.60    1.70
   4 -12   1   -2.10    1.00
   5 -12   1   19.50    4.10
   5 -12   1   22.50    4.00
   6 -12   1   48.00    5.00
   6 -12   1   40.70    5.30
  -7  12  -1   34.20    3.30
   7 -12   1   36.20    5.30
   7 -12   1   44.00    4.60
  -8  12  -1   -1.70    1.60
   8 -12   1   -0.40    1.20
   0 -11   1   83.09    8.60
   0 -11   1   93.99    8.00
   1 -11   1   -0.30    1.60
   1 -11   1    1.10    1.20
   2 -11   1   22.00    4.70
   2 -11   1   31.40    5.10
   3 -11   1   -0.10    1.40
   3 -11   1    3.80    1.90
   4 -11   1   10.00    3.00
   4 -11   1   23.00    7.20
   5 -11   1   -0.10    1.30
   5 -11   1    0.80    1.30
  -6  11  -1    7.20    1.60
   6 -11   1   10.40    2.50
   6 -11   1    7.90    2.30
  -7  11  -1   14.80    2.60
   7 -11   1    8.60    2.00
   7 -11   1    6.90    2.40
  -8  11  -1   -2.40    1.50
   8 -11   1   -1.10    0.90
  -9  11  -1    3.10    1.80
   9 -11   1   -2.50    1.00
  -1 -10   1   97.69    9.60
   0 -10   1   -0.40    1.60
   1 -10   1    6.40    2.70
   2 -10   1   25.70    4.80
   3 -10   1   11.80    3.20
   3 -10   1   16.20    3.50
   4 -10   1   41.30    4.90
   4 -10   1   38.40    4.20
  -5  10  -1    3.60    1.10
   5 -10   1    2.20    1.60
   5 -10   1    7.00    2.10
  -6  10  -1   40.30    3.30
   6 -10   1   42.20    4.20
   6 -10   1   42.20    5.00
  -7  10  -1   13.40    2.50
   7 -10   1   10.40    2.90
   7 -10   1   15.00    2.90
  -8  10  -1    4.10    1.70
   8 -10   1    6.40    1.80
  -9  10  -1    0.50    1.40
   9 -10   1    1.40    1.20
 -10  10  -1   13.00    3.30
  10 -10   1   12.90    2.10
  -3  -9   1   26.60    7.20
  -2  -9   1   70.39    8.50
  -1  -9   1    5.80    2.50
   0  -9   1   16.30    4.20
   1  -9   1    6.70    2.40
   2  -9   1    5.30    2.20
   3  -9   1    8.90    2.70
   3  -9   1   11.70    2.80
  -4   9  -1    2.60    0.70
   4  -9   1    2.30    1.30
   4  -9   1    1.10    1.20
  -5   9  -1   36.30    2.80
   5  -9   1   39.30    3.80
   5  -9   1   33.50    4.00
  -6   9  -1    3.90    1.30
   6  -9   1    5.80    2.00
   6  -9   1    7.40    1.90
  -7   9  -1   47.80    4.10
   7  -9   1   50.19    4.00
  -8   9  -1   -0.20    0.80
   8  -9   1    2.90    1.00
  -9   9  -1   -0.40    1.20
  -9   9  -1    0.10    1.40
   9  -9   1   -0.10    0.70
 -10   9  -1   -0.60    1.30
  10  -9   1    1.00    0.80
 -11   9  -1   -0.40    1.20
  11  -9   1    0.80    0.90
  -4  -8   1   47.00    9.00
  -3  -8   1   22.80    5.80
  -2  -8   1    5.80    2.80
  -1  -8   1    2.70    1.80
  -1  -8   1    1.10    1.00
   0  -8   1  146.39    5.60
   0  -8   1  171.68   11.00
   1  -8   1    0.50    0.90
   2  -8   1   24.70    3.70
   3  -8   1   -0.70    0.80
  -4   8  -1   63.59    3.50
   4  -8   1   62.79    5.40
   4  -8   1   64.49    4.70
  -5   8  -1   64.99    4.00
   5  -8   1   60.99    4.50
   5  -8   1   67.59    5.50
  -6   8  -1   -0.50    0.50
   6  -8   1    0.00    0.90
   6  -8   1   -0.80    0.50
  -7   8  -1    1.50    0.70
  -7   8  -1   -0.60    0.80
   7  -8   1    2.60    1.10
  -8   8  -1    3.10    1.40
  -8   8  -1    7.00    1.60
   8  -8   1    7.20    1.60
  -9   8  -1    1.00    1.20
   9  -8   1    0.90    0.80
 -10   8  -1    5.70    2.10
  10  -8   1    4.90    1.10
 -11   8  -1    7.80    2.30
  -5  -7   1   69.39   13.90
  -4  -7   1    3.70    2.70
  -3  -7   1    8.50    3.40
  -2  -7   1    7.80    3.20
  -2  -7   1    9.70    1.90
  -1  -7   1  203.78   12.80
  -1  -7   1  197.38    7.70
   0  -7   1    8.90    2.70
   0  -7   1   14.60    1.40
  -1   7  -1   68.89    6.90
   1  -7   1   69.09    5.90
  -2   7  -1   14.40    3.50
   2  -7   1   10.60    2.80
  -3   7  -1   14.70    3.70
  -3   7  -1   14.40    1.40
   3  -7   1   14.90    2.90
  -4   7  -1   10.40    1.70
   4  -7   1    9.80    1.50
   4  -7   1   12.40    2.20
   4  -7   1    5.70    1.80
  -5   7  -1    0.20    0.60
   5  -7   1    2.00    1.30
   5  -7   1    1.70    0.70
   5  -7   1    1.70    0.70
  -6   7  -1  229.18    7.50
  -6   7  -1  237.88    9.60
   6  -7   1  224.08    9.10
   6  -7   1  240.38    9.10
  -7   7  -1   29.10    2.30
  -7   7  -1   23.80    2.80
   7  -7   1   27.10    2.30
  -8   7  -1   42.50    3.40
  -8   7  -1   42.30    4.10
   8  -7   1   49.10    3.00
  -9   7  -1   11.30    2.60
   9  -7   1   13.00    1.40
 -10   7  -1    3.20    1.60
  10  -7   1    4.90    0.90
 -11   7  -1    0.70    1.50
  -6  -6   1   16.10    2.50
  -6  -6   1   15.70    5.40
  -5  -6   1   25.40    2.40
  -5  -6   1   24.10    6.30
  -4  -6   1   14.80    4.30
  -4  -6   1   11.80    1.80
  -3  -6   1   33.10    6.50
  -3  -6   1   30.00    1.90
  -2  -6   1   64.59    4.20
  -1  -6   1   13.20    1.50
  -1  -6   1   18.40    4.20
   0   6  -1   90.09    6.70
   0  -6   1   87.59    3.80
   0  -6   1   91.99    7.00
  -1   6  -1   48.70    4.90
   1  -6   1   49.10    4.50
  -2   6  -1    0.50    0.30
  -2   6  -1   -0.50    0.50
   2  -6   1    0.00    0.20
   2  -6   1   -0.30    0.50
  -3   6  -1   15.30    3.30
  -3   6  -1   11.60    1.30
   3  -6   1    7.00    1.70
   3  -6   1   11.30    1.10
   3  -6   1   10.30    1.90
  -4   6  -1  107.09    4.90
  -4   6  -1   91.69    6.50
   4  -6   1  111.99    6.30
   4  -6   1  104.49    4.60
   4  -6   1  106.39    5.40
  -5   6  -1   49.80    4.60
  -5   6  -1   45.50    2.40
  -5   6  -1   46.50    3.30
   5  -6   1   48.70    3.20
   5  -6   1   49.20    4.20
   5  -6   1   49.10    3.30
  -6   6  -1  170.48    7.60
  -6   6  -1  149.59    6.10
   6  -6   1  159.18    7.30
   6  -6   1  154.68    6.30
  -7   6  -1    0.70    0.50
   7  -6   1   -0.30    0.30
  -8   6  -1   22.80    3.00
   8  -6   1   24.10    1.70
  -9   6  -1   13.70    3.20
   9  -6   1   12.10    1.10
 -10   6  -1    1.80    1.40
 -11   6  -1    4.00    2.40
  -7  -5   1   -0.80    2.30
  -7  -5   1    0.80    1.00
  -6  -5   1   27.80    2.90
  -6  -5   1   27.00    6.30
  -5  -5   1    0.50    0.60
  -5  -5   1    0.20    1.40
  -4  -5   1  130.59    5.60
  -4  -5   1  130.29   10.70
  -3  -5   1    6.50    1.10
  -3  -5   1    6.50    2.50
  -2  -5   1   44.60    3.20
  -2  -5   1   48.10    5.40
  -2  -5   1   49.30    2.30
  -1  -5   1    5.10    1.10
  -1  -5   1    3.00    1.60
   0   5  -1   27.40    3.30
   0  -5   1   29.90    1.90
   0  -5   1   28.80    3.50
  -1   5  -1   74.39    5.60
   1  -5   1   84.19    5.40
  -2   5  -1   89.89    6.10
   2  -5   1  108.59    5.80
   2  -5   1  105.29    3.60
  -3   5  -1  128.69    5.00
  -3   5  -1  112.29    6.60
   3  -5   1  130.89    5.60
   3  -5   1  126.49    6.30
   3  -5   1  121.69    4.70
  -4   5  -1    7.50    1.40
  -4   5  -1    8.10    0.90
  -4   5  -1   11.10    2.40
   4  -5   1    9.00    1.20
   4  -5   1    7.70    1.40
   4  -5   1    8.80    1.80
  -5   5  -1   96.59    5.00
  -5   5  -1   88.79    5.80
  -5   5  -1   98.29    4.20
   5  -5   1   92.59    4.80
   5  -5   1   94.19    4.30
  -6   5  -1   47.00    3.70
  -6   5  -1   43.60    3.10
   6  -5   1   45.10    2.60
   6  -5   1   54.09    4.10
  -7   5  -1   17.50    2.70
  -7   5  -1   19.70    2.30
   7  -5   1   22.30    1.60
  -8   5  -1    0.60    0.70
   8  -5   1    0.70    0.40
  -9   5  -1   26.10    3.40
 -10   5  -1   -2.20    0.90
 -11   5  -1   11.70    3.20
  -8  -4   1    0.80    2.20
  -8  -4   1   -1.30    1.10
  -8  -4   1   -1.90    1.20
  -7  -4   1    0.90    0.90
  -7  -4   1    1.40    1.60
  -6  -4   1   78.79    5.10
  -6  -4   1   74.09    8.40
  -5  -4   1   41.10    5.80
  -5  -4   1   40.00    3.10
  -4  -4   1  156.48    6.50
  -3  -4   1   25.00    2.50
  -3  -4   1   28.60    2.00
  -3  -4   1   23.10    4.50
  -2  -4   1   33.60    2.60
  -2  -4   1   32.20    3.90
  -2  -4   1   30.90    1.80
  -1  -4   1  129.49    7.90
  -1  -4   1  137.69    5.30
  -1  -4   1  137.29    4.20
   0   4  -1  770.72   24.90
   0  -4   1  861.71   25.40
   0  -4   1  842.62   21.10
  -1   4  -1  130.59    6.80
  -1   4  -1  135.09    4.10
   1  -4   1  136.99    4.00
   1  -4   1  128.09    6.30
  -2   4  -1  991.20   27.50
  -2   4  -1  969.20   24.70
   2  -4   1  942.01   26.50
   2  -4   1  972.90   24.50
  -3   4  -1    8.00    1.10
  -3   4  -1    8.70    0.80
  -3   4  -1   12.30    2.20
   3  -4   1   10.20    1.20
   3  -4   1   11.40    1.20
   3  -4   1    6.30    1.30
  -4   4  -1   31.10    2.90
  -4   4  -1   32.70    2.00
  -4   4  -1   31.90    2.40
   4  -4   1   33.90    2.40
   4  -4   1   31.20    2.10
  -5   4  -1  151.18    6.70
  -5   4  -1  153.68    8.40
  -5   4  -1  152.78    6.10
   5  -4   1  156.58    6.60
   5  -4   1  157.08    5.30
  -6   4  -1    1.20    0.80
  -6   4  -1    1.20    0.90
   6  -4   1    3.00    0.60
  -7   4  -1    9.00    2.00
   7  -4   1   10.70    0.90
  -8   4  -1  114.09    7.00
   8  -4   1  107.69    3.70
  -9   4  -1   13.80    3.10
 -10   4  -1   67.19    6.00
 -11   4  -1   18.30    3.90
  -8  -3   1   36.10    3.80
  -8  -3   1   38.40   10.50
  -7  -3   1    2.60    1.20
  -7  -3   1   -0.40    1.00
  -6  -3   1    0.50    0.60
  -6  -3   1    0.20    0.40
  -6  -3   1    0.60    1.10
  -5  -3   1   16.10    1.50
  -5  -3   1   19.20    2.10
  -5  -3   1   25.90    5.50
  -4  -3   1    7.60    2.10
  -4  -3   1    7.40    2.40
  -3  -3   1  241.08    9.00
  -3  -3   1  229.68   11.50
  -3  -3   1  247.98    8.10
  -2  -3   1    5.80    1.20
  -2  -3   1    5.30    1.70
  -2  -3   1    5.10    0.90
  -1  -3   1  176.08    5.90
  -1  -3   1  166.68    8.10
  -1  -3   1  167.08    5.00
   0   3  -1  472.65   14.90
   0   3  -1  453.25   12.10
   0  -3   1  466.35   11.70
   0  -3   1  442.96   12.10
   0  -3   1  475.35   14.90
  -1   3  -1  499.55   15.80
  -1   3  -1  452.15   12.10
   1  -3   1  468.75   13.80
   1  -3   1  447.66   11.90
  -2   3  -1   75.19    3.80
  -2   3  -1   67.99    2.90
   2  -3   1   66.69    2.90
   2  -3   1   64.09    3.00
   2  -3   1   72.19    3.50
  -3   3  -1  736.93   20.00
  -3   3  -1  736.63   20.80
  -3   3  -1  741.23   19.20
   3  -3   1  742.33   19.30
   3  -3   1  748.33   19.90
  -4   3  -1  106.79    4.90
  -4   3  -1  109.49    4.10
  -4   3  -1  105.09    5.40
  -4   3  -1  107.99    4.50
   4  -3   1  107.79    3.80
   4  -3   1  103.49    4.80
  -5   3  -1   72.79    4.30
  -5   3  -1   68.89    5.60
  -5   3  -1   67.59    3.80
  -5   3  -1   65.09    3.00
   5  -3   1   64.79    4.50
   5  -3   1   65.59    2.60
  -6   3  -1  121.19    4.40
  -6   3  -1  114.19    5.90
  -6   3  -1  116.89    6.20
   6  -3   1  117.09    3.90
  -7   3  -1   11.70    1.10
  -7   3  -1   11.20    2.20
   7  -3   1   13.30    1.00
  -8   3  -1    1.60    1.10
  -9   3  -1    2.00    1.50
 -10   3  -1    4.60    1.80
 -11   3  -1    1.30    1.30
  -9  -2   1   38.40    4.20
  -8  -2   1   -0.70    0.50
  -8  -2   1   -0.80    0.80
  -7  -2   1    7.50    1.10
  -7  -2   1    3.80    1.40
  -6  -2   1  112.39    4.40
  -6  -2   1  122.29    6.90
  -5  -2   1    0.50    0.60
  -5  -2   1    0.80    0.30
  -4  -2   1    4.60    1.20
  -4  -2   1    4.40    1.00
  -3  -2   1   36.20    2.70
  -3  -2   1   31.60    2.20
   2   2  -1  659.23   18.00
  -2  -2   1  652.83   17.20
  -2  -2   1  649.74   18.00
   1   2  -1   15.20    1.20
  -1  -2   1   13.80    1.20
  -1  -2   1   17.50    1.90
   0   2  -1  853.11   21.10
   0   2  -1  871.71   22.90
   0  -2   1  853.81   22.80
   0  -2   1  822.12   21.00
   0  -2   1  871.41   21.10
  -1   2  -1  126.89    4.40
  -1   2  -1  117.39    3.70
   1  -2   1  107.89    4.00
   1  -2   1  121.09    4.20
   1  -2   1  112.99    3.60
   2  -2   1 9999.00  261.07
  -3   2  -1   27.80    1.50
  -3   2  -1   25.30    1.70
  -3   2  -1   25.20    1.90
   3  -2   1   26.10    1.90
   3  -2   1   23.00    1.50
  -4   2  -1  361.16   10.00
  -4   2  -1  378.76   11.50
  -4   2  -1  347.07   11.60
   4  -2   1  382.46    9.70
   4  -2   1  355.56   11.50
  -5   2  -1   68.09    4.20
  -5   2  -1   69.19    4.10
   5  -2   1   68.19    2.50
  -6   2  -1   20.20    2.40
  -6   2  -1   23.10    3.00
  -6   2  -1   20.20    1.40
  -7   2  -1    1.60    1.00
  -7   2  -1    1.90    0.50
  -8   2  -1   33.80    3.80
  -9   2  -1   44.50    4.50
 -10   2  -1    3.70    2.20
 -11   2  -1    1.90    1.40
 -10  -1   1    1.60    1.60
  -9  -1   1   11.50    3.10
  -8  -1   1    7.00    0.80
  -8  -1   1    7.50    1.90
  -7  -1   1   66.19    2.90
  -7  -1   1   78.59    5.30
  -6  -1   1   -0.10    0.50
  -6  -1   1   -0.30    0.20
  -5  -1   1    6.20    1.30
  -5  -1   1    5.20    0.60
  -4  -1   1  527.35   16.40
  -4  -1   1  532.15   15.70
   3   1  -1   39.60    2.70
  -3  -1   1   40.20    2.70
  -3  -1   1   42.80    2.50
   2   1  -1   71.79    3.30
  -2  -1   1   72.69    3.30
  -2  -1   1   68.19    2.90
  -1  -1   1 1129.39   28.10
   0   1  -1   14.30    0.90
   0   1  -1   16.30    0.80
   0  -1   1   15.60    0.90
   0  -1   1   17.60    0.80
  -1   1  -1   14.10    0.80
  -1   1  -1   14.80    1.00
   1  -1   1   13.30    0.80
   1  -1   1   14.50    0.90
  -3   1  -1  810.82   19.90
  -3   1  -1  811.02   21.40
  -3   1  -1  809.82   21.50
   3  -1   1  755.12   21.30
   3  -1   1  809.42   19.80
  -4   1  -1  447.96   14.10
  -4   1  -1  476.05   14.30
  -4   1  -1  458.75   12.10
   4  -1   1  471.05   12.10
   4  -1   1  474.25   14.10
  -5   1  -1  160.98    7.00
  -5   1  -1  157.88    4.90
  -5   1  -1  155.88    7.00
   5  -1   1  153.18    6.70
  -6   1  -1   29.10    1.70
  -6   1  -1   31.20    3.00
  -7   1  -1   74.89    3.10
  -7   1  -1   74.09    5.20
  -8   1  -1   66.79    5.30
  -8   1  -1   61.19    2.80
  -9   1  -1    3.00    1.60
 -10   1  -1    5.70    2.10
 -10   0   1   18.00    3.40
  -9   0   1    3.20    1.70
  -8   0   1   45.20    4.30
  -7   0   1   67.69    4.90
  -6   0   1   60.99    2.20
  -6   0   1   58.79    4.20
  -5   0   1  149.29    4.20
  -5   0   1  147.19    6.60
  -5   0   1  137.99    6.70
   4   0  -1    0.30    0.40
  -4   0   1    0.00    0.30
  -4   0   1    0.30    0.10
  -4   0   1    0.00    0.20
   3   0  -1   15.10    1.50
  -3   0   1   13.60    1.40
  -3   0   1   13.60    0.60
  -3   0   1   12.30    1.30
   2   0  -1  673.33   18.30
  -2   0   1  696.03   18.10
  -2   0   1  724.63   18.50
   1   0  -1  242.28    5.90
   1   0  -1  229.58    6.60
  -1   0   1  237.28    6.60
  -1   0   1  245.68    5.90
  -1   0  -1  175.78    5.00
  -1   0  -1  170.98    4.50
   1   0   1  165.68    4.90
   1   0   1  159.08    4.50
  -2   0  -1 2405.36   58.79
  -3   0  -1  295.97    9.40
  -3   0  -1  311.27    8.10
  -3   0  -1  286.27    9.50
   3   0   1  291.57    9.30
  -4   0  -1  114.89    3.80
  -4   0  -1  109.69    5.20
  -4   0  -1  117.39    5.50
   4   0   1  106.79    5.00
  -5   0  -1   30.60    2.80
  -5   0  -1   31.40    1.70
  -5   0  -1   33.40    2.80
   5   0   1   29.20    2.60
  -6   0  -1   14.80    1.20
  -6   0  -1   16.00    2.60
  -7   0  -1   82.09    3.50
  -7   0  -1   90.99    5.90
  -8   0  -1   -0.40    0.50
  -9   0  -1   11.80    2.60
  -9   0  -1   15.30    1.70
 -10   0  -1   34.50    4.40
 -10   1   1    4.00    2.20
  -9   1   1   20.80    3.60
  -8   1   1    1.60    0.90
  -7   1   1    0.40    0.60
  -6   1   1   28.90    2.80
  -5   1   1    2.40    0.90
  -5   1   1    3.80    1.00
   4  -1  -1    2.20    0.80
  -4   1   1    0.70    0.50
  -4   1   1    2.50    0.80
   3  -1  -1    6.60    1.10
  -3   1   1    7.80    1.20
  -3   1   1    4.40    0.80
   2  -1  -1   96.19    3.50
  -2   1   1  103.99    3.90
  -2   1   1   87.29    3.90
  -2   1   1  103.49    3.60
   1  -1  -1    4.60    0.40
   1  -1  -1    3.50    0.70
  -1   1   1    3.80    0.70
  -1   1   1    4.60    0.40
   0  -1  -1  195.68    5.30
   0   1   1  202.38    5.30
   0   1   1  199.28    7.00
  -1  -1  -1    8.00    0.70
   1   1   1    8.20    0.70
  -2  -1  -1  532.15   13.80
  -2  -1  -1  532.65   14.40
   2   1   1  528.55   14.40
  -3  -1  -1  150.18    4.90
  -3  -1  -1  155.38    5.90
  -3  -1  -1  164.68    6.40
   3   1   1  150.78    5.70
  -4  -1  -1  126.59    5.70
  -4  -1  -1  135.39    4.60
  -4  -1  -1  136.59    6.30
   4   1   1  133.39    5.70
  -5  -1  -1    0.60    0.50
   5   1   1    1.00    0.60
  -6  -1  -1  100.69    4.10
  -6  -1  -1  113.19    8.00
  -7  -1  -1   15.70    2.90
  -7  -1  -1   17.50    1.50
  -8  -1  -1   28.50    3.40
  -8  -1  -1   20.00    1.80
  -9  -1  -1   16.70    3.40
 -11   2   1   15.90    3.40
 -10   2   1   28.90    4.70
  -9   2   1  237.18   11.60
  -8   2   1  205.48    9.90
  -7   2   1  201.68    9.20
  -6   2   1    0.30    0.60
  -6   2   1    0.30    0.30
  -6   2   1    1.10    0.80
  -5   2   1   69.69    4.00
  -5   2   1   75.19    4.30
  -5   2   1   70.49    4.50
   4  -2  -1  178.88    6.60
  -4   2   1  176.28    6.50
  -4   2   1  175.78    6.70
  -4   2   1  183.18    7.40
   3  -2  -1  156.88    6.20
   3  -2  -1  168.58    5.60
   3  -2  -1  166.98    4.70
  -3   2   1  164.68    5.60
  -3   2   1  153.18    5.70
  -3   2   1  163.18    6.40
   2  -2  -1    0.20    0.30
   2  -2  -1    0.40    0.20
  -2   2   1    0.90    0.40
  -2   2   1    0.60    0.30
  -2   2   1    0.70    0.50
   1  -2  -1   63.29    3.50
  -1   2   1   58.99    3.60
   0  -2  -1   20.50    2.30
   0   2   1   22.40    2.30
   0   2   1   23.60    0.90
  -1  -2  -1    4.30    0.50
  -1  -2  -1    3.90    1.10
   1   2   1    5.50    0.60
  -2  -2  -1  334.97    9.80
  -2  -2  -1  340.77   10.50
   2   2   1  331.27    9.60
  -3  -2  -1  117.49    4.50
  -3  -2  -1  122.59    5.00
  -3  -2  -1  124.39    5.70
   3   2   1  123.39    4.90
  -4  -2  -1  182.08    6.20
  -4  -2  -1  176.78    7.90
  -4  -2  -1  188.48    7.30
  -5  -2  -1   16.50    1.50
  -5  -2  -1   16.50    2.10
  -6  -2  -1   82.99    3.80
  -6  -2  -1   90.99    5.50
  -7  -2  -1   49.30    4.40
  -8  -2  -1   14.90    3.20
  -8  -2  -1   17.30    6.30
  -9  -2  -1    7.20    3.70
 -11   3   1   14.10    3.30
 -10   3   1   -0.80    1.00
  -9   3   1  102.69    7.10
  -8   3   1  105.09    6.60
  -7   3   1   51.09    4.10
  -6   3   1   -0.50    0.60
  -6   3   1    0.20    0.50
   5  -3  -1   85.69    2.80
  -5   3   1   84.59    4.60
  -5   3   1   83.99    5.10
  -5   3   1   83.19    4.30
   4  -3  -1  319.37    9.80
   4  -3  -1  321.57   11.30
   4  -3  -1  322.07    9.90
  -4   3   1  323.97    9.90
  -4   3   1  328.77   10.40
  -4   3   1  327.67   11.60
   3  -3  -1  155.68    6.40
   3  -3  -1  148.19    5.40
  -3   3   1  155.58    5.00
  -3   3   1  154.78    5.50
  -3   3   1  145.59    6.60
   2  -3  -1   86.29    4.70
   2  -3  -1   93.59    2.90
  -2   3   1   94.99    5.10
  -2   3   1   90.19    3.30
   1  -3  -1   26.70    2.60
  -1   3   1   25.90    1.00
  -1   3   1   23.70    2.60
   0  -3  -1   38.20    3.70
   0   3   1   29.10    3.10
  -1  -3  -1  178.38    6.20
  -1  -3  -1  177.88    5.30
  -1  -3  -1  177.28    9.40
  -2  -3  -1  203.58   10.90
  -2  -3  -1  205.38    7.60
  -2  -3  -1  204.08    6.60
  -3  -3  -1   77.09    4.50
  -3  -3  -1   83.59    7.00
  -3  -3  -1   80.39    3.90
  -4  -3  -1    2.80    1.60
  -4  -3  -1    2.70    0.70
  -4  -3  -1    4.20    1.10
  -5  -3  -1  176.58   12.20
  -5  -3  -1  171.58    7.60
  -6  -3  -1   31.30    3.20
  -6  -3  -1   43.00    6.00
  -7  -3  -1    5.10    1.50
  -7  -3  -1    5.10    2.80
  -8  -3  -1   12.80    4.90
  -8  -3  -1   16.10    3.20
 -11   4   1   10.10    2.70
 -10   4   1   16.10    3.30
  -9   4   1   32.30    3.80
  -8   4   1   16.90    2.70
  -7   4   1  111.89    6.00
  -7   4   1  128.89    6.80
   6  -4  -1   54.19    2.30
  -6   4   1   55.39    3.90
  -6   4   1   53.99    5.20
  -6   4   1   55.59    3.60
   5  -4  -1    2.40    0.60
  -5   4   1    2.30    0.70
  -5   4   1    2.40    1.00
  -5   4   1    3.00    1.60
   4  -4  -1  234.28    7.10
   4  -4  -1  220.48    9.00
  -4   4   1  227.08    7.10
  -4   4   1  226.18    9.70
  -4   4   1  217.28    7.80
   3  -4  -1   10.10    0.80
   3  -4  -1   10.00    2.00
  -3   4   1   12.30    0.80
  -3   4   1   10.00    1.10
  -3   4   1    8.60    1.80
   2  -4  -1   19.80    2.40
  -2   4   1   22.80    1.30
   1  -4  -1  108.09    6.50
  -1   4   1  109.29    6.80
   0  -4  -1  338.47   14.20
   0  -4  -1  318.67    9.40
   0   4   1  312.57   13.30
  -1  -4  -1  197.98   11.00
  -1  -4  -1  190.28    6.90
  -2  -4  -1   25.30    4.80
  -2  -4  -1   32.00    1.90
  -2  -4  -1   32.20    2.60
  -3  -4  -1    2.70    0.80
  -3  -4  -1    1.00    1.40
  -3  -4  -1    2.40    1.20
  -4  -4  -1   87.29    4.60
  -4  -4  -1   81.89    8.10
  -5  -4  -1    8.50    3.30
  -5  -4  -1    7.00    1.60
  -6  -4  -1   11.40    4.50
  -6  -4  -1   13.70    2.60
  -7  -4  -1   80.39    5.70
  -7  -4  -1   77.59   10.00
 -11   5   1   -0.30    1.30
 -10   5   1   -0.70    0.90
  -9   5   1   -1.10    0.70
  -8   5   1  181.48    9.10
   7  -5  -1    1.10    0.40
  -7   5   1    0.30    0.70
  -7   5   1    1.20    0.90
   6  -5  -1   30.50    2.10
  -6   5   1   27.00    2.30
  -6   5   1   30.20    2.80
   5  -5  -1   93.89    4.30
   5  -5  -1   86.79    5.60
  -5   5   1   91.39    4.70
  -5   5   1   89.39    3.90
  -5   5   1   91.09    6.20
   4  -5  -1    0.60    0.70
  -4   5   1    1.00    0.40
  -4   5   1    0.30    0.40
   3  -5  -1   24.20    2.80
  -3   5   1   25.70    1.70
  -3   5   1   26.70    3.30
   2  -5  -1   11.10    2.20
  -2   5   1    9.50    2.20
  -2   5   1   12.60    0.80
   1  -5  -1   70.19    5.70
   1  -5  -1   67.49    2.70
  -1   5   1   66.59    5.70
   0  -5  -1   14.20    3.40
   0  -5  -1   13.10    1.30
   0   5   1   12.30    2.80
  -1  -5  -1    2.10    0.80
  -1  -5  -1    0.50    1.10
  -2  -5  -1   37.50    3.00
  -2  -5  -1   38.50    2.20
  -3  -5  -1    4.50    0.90
  -3  -5  -1    5.10    2.50
  -4  -5  -1   79.39    8.80
  -4  -5  -1   84.69    4.30
  -5  -5  -1    5.30    1.40
  -5  -5  -1    3.70    2.60
  -6  -5  -1  215.08    9.30
  -6  -5  -1  218.28   20.50
 -11   6   1    4.60    2.10
 -10   6   1   21.00    3.70
  -9   6   1   21.70    3.60
   8  -6  -1    0.30    0.40
  -8   6   1   -0.80    0.50
   7  -6  -1    7.50    1.30
  -7   6   1    7.70    1.50
  -7   6   1    5.60    1.70
   6  -6  -1  130.59    5.70
  -6   6   1  146.99    6.70
  -6   6   1  130.89    5.40
   5  -6  -1   70.59    4.10
   5  -6  -1   66.79    5.10
  -5   6   1   67.09    3.60
  -5   6   1   62.29    3.80
   4  -6  -1   99.49    6.50
  -4   6   1   99.69    7.20
  -4   6   1  109.49    4.60
   3  -6  -1   14.30    2.90
  -3   6   1   11.20    2.70
  -3   6   1   13.60    1.10
   2  -6  -1   35.90    4.10
  -2   6   1   32.90    4.40
   1  -6  -1   45.50    4.90
   1  -6  -1   47.30    2.30
  -1   6   1   49.70    5.40
   0  -6  -1    2.60    1.80
   0  -6  -1    1.20    0.50
  -1  -6  -1  129.19    5.90
  -1  -6  -1  133.49   10.30
  -2  -6  -1    3.60    1.80
  -2  -6  -1    7.00    1.60
  -3  -6  -1   19.00    5.80
  -4  -6  -1   10.10    1.30
  -4  -6  -1   12.40    4.60
  -5  -6  -1   39.80    2.90
  -5  -6  -1   52.59   10.20
  -6  -6  -1   18.90    2.50
  -6  -6  -1   11.80    4.50
 -11   7   1    6.80    2.20
 -10   7   1    2.50    1.20
   9  -7  -1    0.20    0.40
  -9   7   1   -0.50    0.50
   8  -7  -1    3.00    0.80
  -8   7   1    0.60    0.60
  -8   7   1   -0.50    0.70
   7  -7  -1    9.60    1.70
  -7   7   1   10.30    1.30
  -7   7   1    6.10    1.70
   6  -7  -1  113.59    7.40
   6  -7  -1  109.19    5.60
  -6   7   1   95.39    3.90
  -6   7   1  111.49    5.60
   5  -7  -1    1.80    1.40
  -5   7   1    1.60    0.70
   4  -7  -1  314.27   15.30
  -4   7   1  316.77    9.80
   3  -7  -1    0.10    0.60
   2  -7  -1   59.69    6.60
   1  -7  -1   87.39    7.40
   1  -7  -1   73.69    3.60
   0  -7  -1   12.50    1.50
   0  -7  -1   15.20    4.30
  -1  -7  -1    0.80    1.50
  -2  -7  -1    2.90    2.10
  -3  -7  -1   -1.00    1.40
  -4  -7  -1    0.90    2.00
  -5  -7  -1   60.89   11.20
 -11   8   1    4.00    1.40
  10  -8  -1    1.40    0.70
 -10   8   1   -2.00    0.90
   9  -8  -1   11.80    1.80
  -9   8   1   13.00    2.80
   8  -8  -1   -0.20    0.60
  -8   8   1   -0.90    0.70
   7  -8  -1   54.09    4.70
   7  -8  -1   67.59    6.00
  -7   8   1   59.79    5.10
   6  -8  -1   63.59    4.50
   6  -8  -1   53.49    5.30
  -6   8   1   62.59    4.00
   5  -8  -1   96.09    7.30
  -5   8   1  125.69    5.40
   4  -8  -1    0.70    0.80
  -4   8   1   -0.30    0.40
   3  -8  -1   45.20    5.10
   2  -8  -1  322.97   15.80
   1  -8  -1   16.10    4.20
   0  -8  -1    3.50    2.20
   0  -8  -1    2.30    0.80
  -1  -8  -1   14.60    4.40
  -1  -8  -1   13.30    2.00
  -2  -8  -1   23.60    5.90
  -3  -8  -1   28.10    8.70
 -11   9   1   15.40    3.20
  10  -9  -1    3.80    1.30
 -10   9   1    5.30    1.80
   9  -9  -1    2.20    0.90
  -9   9   1    3.10    1.20
  -9   9   1    2.90    1.30
   8  -9  -1    3.50    1.40
  -8   9   1    1.40    1.40
   7  -9  -1    1.40    0.90
   7  -9  -1    1.10    1.00
  -7   9   1    4.10    2.10
   6  -9  -1   66.69    5.00
   6  -9  -1   61.49    5.90
  -6   9   1   57.59    3.90
   5  -9  -1    0.80    1.20
  -5   9   1   -0.40    0.50
   4  -9  -1   69.19    6.60
   3  -9  -1   10.80    3.30
   2  -9  -1   25.50    5.20
   1  -9  -1    0.60    1.50
   0  -9  -1   33.40    7.00
   0  -9  -1   36.10    2.40
  -1  -9  -1   33.70    6.90
  -2  -9  -1    0.30    2.00
  10 -10  -1   15.10    2.40
 -10  10   1   15.10    3.10
   9 -10  -1   -0.70    0.80
  -9  10   1   -0.30    1.00
   8 -10  -1    5.30    1.50
   8 -10  -1    2.40    1.80
  -8  10   1    2.30    1.40
   7 -10  -1    8.90    2.60
   7 -10  -1    5.90    1.60
  -7  10   1    7.10    1.80
   6 -10  -1    1.40    1.10
   6 -10  -1    3.80    2.10
  -6  10   1    2.90    1.10
   5 -10  -1  130.99    9.60
   5 -10  -1  134.79    8.30
   4 -10  -1    2.20    2.10
   3 -10  -1   11.50    3.30
   2 -10  -1    7.60    2.90
   1 -10  -1   36.20    6.50
   0 -10  -1    0.70    2.10
  -1 -10  -1   -2.80    2.10
   9 -11  -1   -0.40    1.40
  -9  11   1   -0.80    1.50
   8 -11  -1    4.00    2.00
   8 -11  -1    2.10    1.30
  -8  11   1    3.90    1.80
   7 -11  -1   13.50    2.80
   7 -11  -1   10.30    3.10
   6 -11  -1   11.70    3.90
   6 -11  -1   17.90    3.60
   5 -11  -1   22.80    4.90
   5 -11  -1   27.70    6.40
   4 -11  -1   11.10    2.90
   2 -11  -1   24.70    5.30
   1 -11  -1   16.70    4.90
   8 -12  -1    2.40    2.20
   8 -12  -1    2.70    1.60
   7 -12  -1    1.00    1.80
   7 -12  -1    0.80    1.10
   6 -12  -1    0.00    1.70
   6 -12  -1    0.70    1.80
   5 -12  -1   -0.80    1.70
   5 -12  -1   -1.20    1.40
   4 -12  -1    3.60    1.90
   4 -12  -1    4.70    2.40
   3 -12   2    6.30    2.50
   4 -12   2   31.40    5.10
   4 -12   2   23.90    4.70
   5 -12   2    5.10    2.20
   5 -12   2    3.40    2.10
   6 -12   2   43.20    6.10
   6 -12   2   39.00    4.50
  -7  12  -2    1.30    1.50
   7 -12   2    1.00    1.20
   7 -12   2   -0.40    1.40
  -8  12  -2    3.80    2.40
   8 -12   2    2.00    1.70
   0 -11   2   -1.80    1.40
   1 -11   2   35.20    5.20
   1 -11   2   24.80    4.80
   2 -11   2   35.30    4.90
   2 -11   2   31.20    5.00
   3 -11   2    1.20    1.30
   3 -11   2    3.70    1.60
   4 -11   2    1.10    1.10
   4 -11   2    3.90    2.10
   5 -11   2   34.40    4.10
   5 -11   2   29.20    4.20
  -6  11  -2    7.10    1.80
   6 -11   2   11.00    3.30
   6 -11   2    7.40    1.90
  -7  11  -2    6.60    1.90
   7 -11   2   10.10    2.50
   7 -11   2    4.70    1.80
  -8  11  -2    0.10    1.20
   8 -11   2   -0.50    1.00
  -9  11  -2   22.90    4.10
   9 -11   2   27.90    3.20
  -1 -10   2    0.90    1.50
  -1 -10   2    0.80    2.20
   0 -10   2    4.40    2.40
   0 -10   2    5.20    1.70
   1 -10   2    3.90    2.00
   1 -10   2    0.90    1.40
   2 -10   2   26.60    4.30
   2 -10   2   29.30    4.90
   3 -10   2   11.60    3.00
   3 -10   2    5.30    2.00
   4 -10   2    0.40    1.30
   4 -10   2    3.20    1.30
  -5  10  -2    3.80    1.20
   5 -10   2    4.50    1.60
   5 -10   2    3.40    1.60
  -6  10  -2   22.20    2.60
   6 -10   2   15.90    3.50
   6 -10   2   29.60    3.40
  -7  10  -2    4.60    1.80
   7 -10   2    6.20    1.70
  -8  10  -2    0.80    1.20
   8 -10   2    1.20    1.20
  -9  10  -2    0.40    1.50
   9 -10   2    2.70    1.30
 -10  10  -2   -0.50    1.50
  10 -10   2   -0.50    0.80
  -3  -9   2   63.69    8.20
  -3  -9   2   73.99    6.40
  -2  -9   2    2.50    2.10
  -1  -9   2    7.30    1.40
  -1  -9   2    2.60    2.20
   0  -9   2   12.10    3.40
   1  -9   2   27.80    4.80
   1  -9   2   20.60    3.50
   2  -9   2    1.40    1.00
   2  -9   2    0.10    0.80
   3  -9   2   11.80    3.00
   3  -9   2   13.00    2.90
  -4   9  -2   17.70    1.80
   4  -9   2   13.10    3.00
   4  -9   2   21.40    3.50
  -5   9  -2   -0.50    0.60
   5  -9   2   -0.40    0.50
   5  -9   2   -1.50    0.60
  -6   9  -2    1.90    1.00
   6  -9   2    1.80    1.30
   6  -9   2    0.80    0.90
  -7   9  -2    2.70    1.00
   7  -9   2    0.40    0.60
  -8   9  -2   19.70    1.90
  -8   9  -2   20.30    3.50
   8  -9   2   21.60    2.50
  -9   9  -2    0.70    2.00
  -9   9  -2    1.00    0.90
   9  -9   2    0.70    1.00
  10  -9   2   11.30    1.70
 -11   9  -2    8.70    2.60
  -4  -8   2   36.70    8.60
  -4  -8   2   21.00    5.40
  -3  -8   2   15.10    4.50
  -2  -8   2   42.80    6.10
  -1  -8   2   36.40    2.80
  -1  -8   2   42.20    5.60
   0  -8   2    0.40    0.50
   0  -8   2    0.10    1.80
   1  -8   2    0.10    1.20
   2  -8   2  108.79    6.60
   2  -8   2   96.89    6.90
   3  -8   2    1.30    0.90
   3  -8   2    2.70    1.20
  -4   8  -2   10.90    1.80
   4  -8   2    8.30    1.90
   4  -8   2    8.40    1.30
   4  -8   2   10.40    2.60
  -5   8  -2   -0.30    0.40
   5  -8   2   -0.80    0.70
   5  -8   2    0.20    0.50
  -6   8  -2   11.00    2.20
   6  -8   2    9.20    2.00
  -7   8  -2    1.40    1.20
  -7   8  -2    1.50    0.70
   7  -8   2    1.30    0.70
  -8   8  -2    1.50    1.10
  -8   8  -2    1.30    0.90
   8  -8   2    2.00    0.70
  -9   8  -2   35.10    4.20
   9  -8   2   35.10    4.00
 -10   8  -2    7.80    2.70
  10  -8   2    5.10    1.10
 -11   8  -2   -1.70    1.70
  11  -8   2    2.30    0.90
  -5  -7   2    2.80    1.50
  -5  -7   2    1.10    2.70
  -5  -7   2   -0.60    0.60
  -4  -7   2   36.90    7.60
  -3  -7   2   53.79    6.80
  -2  -7   2   41.60    5.60
  -2  -7   2   35.70    3.10
  -1  -7   2   58.39    3.40
  -1  -7   2   52.99    5.90
   0   7  -2   25.50    4.70
   0  -7   2   25.10    1.80
   0  -7   2   25.50    3.60
  -1   7  -2    9.20    2.70
   1  -7   2    6.20    1.90
  -2   7  -2    9.60    2.60
   2  -7   2    5.50    1.80
   2  -7   2    5.60    0.70
  -3   7  -2   21.80    1.90
  -3   7  -2   17.10    3.30
   3  -7   2   22.00    2.60
   3  -7   2   19.00    2.70
   3  -7   2   20.50    1.60
  -4   7  -2   24.60    2.30
  -4   7  -2   26.30    3.50
   4  -7   2   26.80    3.10
   4  -7   2   26.50    2.10
   4  -7   2   26.80    2.70
  -5   7  -2    3.10    1.00
   5  -7   2    1.30    0.70
   5  -7   2    0.70    0.70
   5  -7   2    0.70    0.80
  -6   7  -2   46.00    2.70
  -6   7  -2   43.20    3.60
   6  -7   2   47.40    3.40
  -7   7  -2   11.60    2.40
  -7   7  -2   15.00    1.80
   7  -7   2   17.00    1.80
  -8   7  -2  132.69    7.80
   8  -7   2  123.39    5.40
  -9   7  -2   52.69    5.10
   9  -7   2   45.30    2.80
 -10   7  -2    0.00    1.00
  10  -7   2   -0.60    0.50
 -11   7  -2   25.80    4.60
  -6  -6   2    1.40    2.20
  -6  -6   2   -0.10    1.00
  -5  -6   2   49.50    7.00
  -5  -6   2   47.50    3.40
  -4  -6   2  100.99    9.60
  -4  -6   2   99.89    4.60
  -3  -6   2    9.20    3.30
  -3  -6   2   10.40    1.10
  -2  -6   2   56.29    3.80
  -2  -6   2   59.79    3.00
  -2  -6   2   67.19    6.70
  -1  -6   2   42.30    4.80
  -1  -6   2   46.50    2.90
   0   6  -2    3.30    1.20
   0  -6   2    4.50    0.90
   0  -6   2    3.80    1.50
  -1   6  -2   28.40    3.50
   1  -6   2   27.30    3.10
  -2   6  -2   61.29    2.90
  -2   6  -2   55.59    5.00
   2  -6   2   55.29    3.90
   2  -6   2   66.49    4.60
  -3   6  -2   31.80    3.60
  -3   6  -2   33.80    2.40
   3  -6   2   37.20    3.00
   3  -6   2   33.40    3.10
   3  -6   2   33.50    2.20
  -4   6  -2   70.09    6.10
  -4   6  -2   76.69    4.20
   4  -6   2   77.89    4.40
   4  -6   2   71.29    4.80
   4  -6   2   68.89    3.80
  -5   6  -2   20.80    2.30
  -5   6  -2   23.60    3.10
  -5   6  -2   23.90    1.80
   5  -6   2   22.30    2.20
   5  -6   2   26.10    2.30
  -6   6  -2   56.29    4.20
  -6   6  -2   48.10    3.20
   6  -6   2   56.79    3.40
  -7   6  -2   39.20    3.70
  -7   6  -2   35.60    3.00
   7  -6   2   36.70    2.40
  -8   6  -2   12.20    2.60
   8  -6   2   14.70    1.40
  -9   6  -2   -1.70    0.70
   9  -6   2    0.00    0.40
 -10   6  -2   24.60    4.60
  10  -6   2   24.10    1.60
 -11   6  -2    3.60    1.70
  -7  -5   2    4.30    1.60
  -7  -5   2    7.00    1.90
  -6  -5   2  100.89    5.80
  -6  -5   2  110.09   10.90
  -5  -5   2   18.40    2.20
  -5  -5   2   18.20    4.80
  -4  -5   2    4.70    1.10
  -4  -5   2    2.50    1.40
  -3  -5   2    0.60    0.30
  -3  -5   2    0.00    0.60
  -3  -5   2    0.10    1.20
  -2  -5   2  135.39    4.90
  -2  -5   2  136.29    6.20
  -2  -5   2  148.59    9.50
  -1  -5   2  151.38    8.80
  -1  -5   2  149.79    5.00
  -1  -5   2  143.39    4.60
  -1  -5   2  148.29    5.80
   0   5  -2   -0.10    0.60
   0  -5   2    1.20    0.70
   0  -5   2    0.80    0.30
   0  -5   2   -0.20    0.20
  -1   5  -2  632.24   21.60
   1  -5   2  682.93   17.20
   1  -5   2  692.83   20.60
  -2   5  -2   34.70    3.40
  -2   5  -2   36.80    2.20
   2  -5   2   35.20    2.90
   2  -5   2   32.60    1.90
   2  -5   2   30.40    2.50
  -3   5  -2   33.20    3.20
  -3   5  -2   35.20    2.40
   3  -5   2   37.10    2.70
   3  -5   2   33.40    2.80
   3  -5   2   32.80    2.20
  -4   5  -2   47.90    3.80
  -4   5  -2   40.80    3.00
  -4   5  -2   42.40    2.30
   4  -5   2   44.00    2.80
   4  -5   2   45.10    2.90
   4  -5   2   40.90    3.40
  -5   5  -2   67.89    4.90
  -5   5  -2   73.49    3.70
  -5   5  -2   71.49    4.40
   5  -5   2   67.19    3.50
   5  -5   2   70.29    4.10
  -6   5  -2   10.30    1.70
  -6   5  -2    9.90    2.10
   6  -5   2   11.40    1.20
  -7   5  -2   13.60    2.20
  -7   5  -2   15.90    2.90
   7  -5   2   13.00    1.30
  -8   5  -2    7.00    1.90
   8  -5   2    6.00    1.00
  -9   5  -2    5.80    2.20
   9  -5   2    7.70    0.90
 -10   5  -2   -0.10    1.00
 -11   5  -2   -1.00    1.10
  -8  -4   2    3.10    2.10
  -8  -4   2    5.50    1.70
  -8  -4   2    2.40    1.40
  -7  -4   2   81.29    9.00
  -7  -4   2   73.39    4.80
  -7  -4   2   74.79    5.30
  -6  -4   2    3.80    1.20
  -6  -4   2    1.50    1.80
  -5  -4   2    8.70    2.90
  -5  -4   2    8.60    1.80
  -4  -4   2  282.87   14.40
  -4  -4   2  249.38    9.30
  -3  -4   2   56.39    5.50
  -3  -4   2   48.70    3.50
  -3  -4   2   49.20    2.90
  -2  -4   2   33.20    2.50
  -2  -4   2   29.50    1.90
  -2  -4   2   32.00    3.70
   1   4  -2    6.80    1.20
  -1  -4   2   10.70    2.40
  -1  -4   2    8.10    1.00
   0   4  -2  775.82   20.50
   0   4  -2  755.32   23.50
   0  -4   2  800.72   20.20
   0  -4   2  805.82   23.50
   0  -4   2  821.32   20.40
  -1   4  -2  229.18    6.30
  -1   4  -2  219.38    9.00
  -1   4  -2  229.48    7.00
   1  -4   2  229.88    8.40
   1  -4   2  225.88    6.70
  -2   4  -2  291.97    8.90
  -2   4  -2  282.47   10.00
   2  -4   2  283.97    9.30
   2  -4   2  280.97    9.50
   2  -4   2  279.87    8.50
  -3   4  -2   16.10    1.60
  -3   4  -2   20.00    2.10
   3  -4   2   18.90    1.60
   3  -4   2   21.40    2.10
   3  -4   2   19.90    1.70
  -4   4  -2 1302.07   34.80
  -4   4  -2 1279.67   35.60
  -4   4  -2 1325.87   33.60
   4  -4   2 1332.27   33.60
   4  -4   2 1331.87   34.60
  -5   4  -2    8.70    1.40
  -5   4  -2    9.50    1.80
  -5   4  -2    9.90    2.20
  -5   4  -2   12.60    1.40
   5  -4   2   11.00    2.00
   5  -4   2   12.30    1.20
  -6   4  -2   44.90    3.30
  -6   4  -2   58.09    4.10
  -6   4  -2   46.90    2.80
   6  -4   2   46.00    2.40
  -7   4  -2   12.80    2.60
  -7   4  -2   12.70    1.40
   7  -4   2   12.60    1.10
  -8   4  -2   19.90    3.70
   8  -4   2   21.50    1.50
  -9   4  -2    5.30    2.30
 -10   4  -2   14.20    4.60
 -11   4  -2   32.50    5.40
  -9  -3   2    6.10    3.90
  -8  -3   2    2.20    1.80
  -8  -3   2   -0.20    0.90
  -8  -3   2    0.50    0.90
  -7  -3   2   12.40    4.00
  -7  -3   2   13.10    2.60
  -7  -3   2   12.00    1.60
  -6  -3   2   -0.40    0.40
  -6  -3   2    0.50    0.80
  -5  -3   2  188.68    8.00
  -4  -3   2   33.80    3.10
  -4  -3   2   42.30    2.90
  -4  -3   2   39.20    4.50
  -3  -3   2   59.59    5.00
  -3  -3   2   59.59    3.20
  -3  -3   2   59.99    3.80
   2   3  -2  602.74   17.60
  -2  -3   2  625.04   17.70
  -2  -3   2  615.64   16.70
  -2  -3   2  648.84   20.50
   1   3  -2   63.99    3.00
  -1  -3   2   58.39    2.90
  -1  -3   2   57.39    4.00
   0   3  -2   27.10    1.50
   0   3  -2   24.90    2.20
   0  -3   2   24.80    1.50
   0  -3   2   26.50    1.40
  -1   3  -2  457.85   12.50
  -1   3  -2  453.65   13.40
  -1   3  -2  479.65   11.70
   1  -3   2  450.75   12.20
   1  -3   2  432.46   12.90
  -2   3  -2  476.35   13.50
  -2   3  -2  460.75   13.10
  -2   3  -2  462.05   13.00
   2  -3   2  456.65   12.80
   2  -3   2  439.66   12.80
   2  -3   2  460.35   13.20
  -3   3  -2    6.60    1.40
  -3   3  -2    5.10    0.90
  -3   3  -2    5.00    1.00
   3  -3   2    5.60    0.90
   3  -3   2    4.20    0.90
  -4   3  -2  258.47    9.50
  -4   3  -2  251.17    7.90
  -4   3  -2  245.98    9.00
   4  -3   2  252.87    7.50
   4  -3   2  251.67    8.90
  -5   3  -2   84.49    3.60
  -5   3  -2   78.59    4.70
  -5   3  -2   79.49    4.40
   5  -3   2   84.19    4.70
   5  -3   2   82.79    3.20
  -6   3  -2  249.68    8.00
  -6   3  -2  246.38   10.20
  -6   3  -2  248.18    9.80
   6  -3   2  253.87    7.40
  -7   3  -2   28.30    3.10
  -7   3  -2   24.60    1.80
   7  -3   2   24.00    1.60
  -8   3  -2   19.10    1.70
  -8   3  -2   16.70    3.00
  -9   3  -2    9.50    1.30
  -9   3  -2    5.60    1.90
 -10   3  -2   30.40    5.00
 -11   3  -2    5.10    1.90
  -9  -2   2   33.20    3.90
  -8  -2   2    9.60    1.00
  -8  -2   2   12.00    2.60
  -8  -2   2    9.60    1.50
  -7  -2   2    0.20    0.50
  -7  -2   2    0.80    1.00
  -6  -2   2   94.09    6.00
  -6  -2   2   86.09    3.50
  -5  -2   2   38.40    3.10
   4   2  -2    7.10    1.50
  -4  -2   2   11.50    1.40
  -4  -2   2   13.10    2.30
   3   2  -2  134.19    5.80
  -3  -2   2  138.89    5.90
  -3  -2   2  128.29    5.20
   2   2  -2  252.27    8.30
  -2  -2   2  246.58    8.20
   1   2  -2    8.90    0.90
  -1  -2   2    8.70    1.20
  -1  -2   2    8.90    1.00
   0   2  -2 1635.64   44.30
   0  -2   2 1976.80   44.80
   0  -2   2 2021.70   44.70
   0  -2   2 1664.03   44.20
   1  -2   2 3315.87   80.09
  -2   2  -2 3173.68   80.89
  -2   2  -2 3397.36   80.99
   2  -2   2 3393.36   80.79
  -3   2  -2    8.60    1.40
  -3   2  -2    8.80    0.90
   3  -2   2   10.30    1.20
   3  -2   2    9.00    0.80
  -4   2  -2   41.10    2.90
  -4   2  -2   36.80    2.00
   4  -2   2   36.70    1.80
   4  -2   2   33.90    2.60
  -5   2  -2  209.18    8.50
  -5   2  -2  209.08    6.50
  -5   2  -2  181.58    9.10
   5  -2   2  203.18    8.20
   5  -2   2  210.58    6.20
  -6   2  -2   70.29    4.70
  -6   2  -2   64.99    3.00
   6  -2   2   67.19    2.90
  -7   2  -2    3.30    0.80
  -7   2  -2    1.30    1.10
  -8   2  -2   43.60    2.50
  -8   2  -2   42.40    4.20
  -9   2  -2   19.00    1.50
  -9   2  -2   15.40    3.10
 -10   2  -2   -0.30    1.10
 -10  -1   2    2.40    1.40
  -9  -1   2   -0.60    1.00
  -8  -1   2    0.10    0.50
  -7  -1   2   49.70    4.30
  -7  -1   2   56.59    2.60
  -7  -1   2   55.69    2.20
  -6  -1   2    1.80    0.40
  -6  -1   2    1.00    0.70
  -5  -1   2    0.50    0.60
  -5  -1   2    0.50    0.70
  -5  -1   2    1.10    0.30
   4   1  -2  144.59    6.50
  -4  -1   2  146.39    6.60
  -4  -1   2  156.28    6.20
   3   1  -2  165.28    6.50
  -3  -1   2  165.78    6.00
  -3  -1   2  170.38    6.50
   2   1  -2  494.85   14.00
  -2  -1   2  493.25   13.90
  -2  -1   2  505.85   13.00
   1   1  -2    7.50    0.80
   1   1  -2    7.00    0.70
  -1  -1   2    7.80    0.70
  -1  -1   2    9.00    0.90
   0   1  -2  703.53   17.80
   0  -1   2  700.13   17.70
   0  -1   2  719.73   18.10
  -1   1  -2 4810.92  128.69
   1  -1   2 4607.34  127.29
  -2   1  -2  139.89    5.20
  -2   1  -2  151.08    4.40
   2  -1   2  148.19    4.40
   2  -1   2  137.69    5.10
  -3   1  -2   67.89    3.50
  -3   1  -2   68.79    2.60
   3  -1   2   66.29    2.50
   3  -1   2   66.89    3.50
  -4   1  -2  317.17   10.90
  -4   1  -2  331.57    9.20
   4  -1   2  329.77    9.10
   4  -1   2  326.47   10.80
  -5   1  -2   56.29    2.60
  -5   1  -2   57.09    3.90
  -5   1  -2   59.49    4.00
   5  -1   2   51.29    3.60
  -6   1  -2   71.79    3.20
  -6   1  -2   72.49    4.80
  -7   1  -2   14.90    1.40
  -7   1  -2   12.20    2.40
  -8   1  -2    0.70    0.90
  -8   1  -2   -0.40    0.60
  -9   1  -2    1.80    0.90
  -9   1  -2    3.50    1.50
 -10   1  -2   26.00    4.50
 -10   0   2    4.80    1.90
  -9   0   2   -1.10    0.90
  -8   0   2    7.30    2.10
  -7   0   2  386.86   14.50
  -6   0   2  233.88    9.60
   5   0  -2  557.84   17.10
  -5   0   2  544.15   16.70
  -5   0   2  526.15   17.00
   4   0  -2   19.90    2.00
  -4   0   2   17.10    1.80
  -4   0   2   16.80    1.70
   3   0  -2  174.88    6.30
  -3   0   2  163.58    6.00
  -3   0   2  163.78    6.20
   2   0  -2  542.75   13.40
   2   0  -2  558.64   14.80
  -2   0   2  532.65   15.40
  -2   0   2  543.85   13.30
  -1   0   2 1229.18   29.90
  -1   0   2 1204.38   30.00
   0   0  -2   39.40    2.10
   0   0  -2   37.70    1.80
   0   0   2   38.90    1.50
   0   0   2   39.90    1.80
   0   0   2   39.50    2.10
  -1   0  -2  968.30   24.20
  -1   0  -2  914.41   23.50
   1   0   2  984.40   24.20
  -2   0  -2  900.71   23.00
  -2   0  -2  934.51   24.10
   2   0   2  908.11   23.90
   2   0   2  949.71   23.10
  -3   0  -2  228.28    7.90
  -3   0  -2  225.88    6.60
   3   0   2  219.48    7.70
  -4   0  -2   49.00    2.30
  -4   0  -2   51.79    4.00
  -4   0  -2   44.60    3.10
   4   0   2   44.40    3.00
  -5   0  -2  121.49    4.40
  -5   0  -2  118.19    6.00
   5   0   2  115.99    5.80
  -6   0  -2   20.00    1.60
  -7   0  -2    8.60    2.00
  -7   0  -2    8.20    1.30
  -8   0  -2   -0.50    0.80
  -9   0  -2   56.09    5.40
 -10   0  -2   -1.20    1.30
 -11   1   2   15.50    3.80
 -10   1   2   68.49    8.50
  -9   1   2   30.80    3.60
  -8   1   2   41.40    4.10
  -7   1   2   68.99    5.00
  -6   1   2  290.97   11.10
   5  -1  -2    1.30    0.70
  -5   1   2    0.50    0.50
  -5   1   2   -0.90    0.40
   4  -1  -2   10.70    1.40
  -4   1   2   11.30    1.40
  -4   1   2   12.70    1.40
  -4   1   2   11.30    1.50
   3  -1  -2 1137.39   27.80
  -3   1   2 1037.10   27.60
  -3   1   2 1027.30   28.00
   2  -1  -2  221.18    5.40
   2  -1  -2  205.48    6.90
   2  -1  -2  180.98    6.90
  -2   1   2  211.38    6.40
  -2   1   2  220.38    7.00
   1  -1  -2   62.79    2.10
   1  -1  -2   66.19    3.20
  -1   1   2   65.19    3.30
   0  -1  -2 1308.37   32.20
   0   1   2 1297.87   34.40
   0   1   2 1314.87   32.20
  -1  -1  -2  124.99    4.40
  -1  -1  -2  123.29    4.00
  -1  -1  -2  132.79    6.30
   1   1   2  129.89    4.30
  -2  -1  -2  876.41   22.60
  -2  -1  -2  846.32   21.80
   2   1   2  855.11   22.40
  -3  -1  -2   78.89    3.90
  -3  -1  -2   82.09    3.20
   3   1   2   72.49    3.70
  -4  -1  -2   20.30    2.20
  -4  -1  -2   19.80    1.40
  -4  -1  -2   20.80    2.10
   4   1   2   17.80    1.80
  -5  -1  -2   17.80    2.10
  -5  -1  -2   15.40    1.30
   5   1   2   14.90    1.90
  -6  -1  -2   -0.20    0.30
  -6  -1  -2    0.90    0.70
  -7  -1  -2   29.00    2.20
  -7  -1  -2   36.00    3.70
  -8  -1  -2   58.49    5.20
  -9  -1  -2    1.00    1.60
 -11   2   2    1.70    1.20
 -10   2   2    5.10    2.00
  -9   2   2   -1.10    0.70
  -8   2   2   59.49    4.90
  -7   2   2   59.49    4.50
   6  -2  -2   -0.10    0.40
  -6   2   2   -0.60    0.40
  -6   2   2    0.50    0.60
  -6   2   2    0.20    0.40
   5  -2  -2  877.81   24.90
  -5   2   2  888.91   24.90
  -5   2   2  913.01   26.00
  -5   2   2  898.01   25.10
   4  -2  -2  106.19    4.70
  -4   2   2  106.99    4.70
  -4   2   2  120.79    5.60
  -4   2   2  110.19    4.90
   3  -2  -2  146.19    5.10
   3  -2  -2  138.99    5.80
  -3   2   2  138.49    5.20
  -3   2   2  146.19    6.10
  -3   2   2  142.89    5.10
   2  -2  -2  312.97    8.90
   2  -2  -2  319.07   10.40
  -2   2   2  306.37   10.50
  -2   2   2  340.27    8.90
  -1   2   2   25.90    2.50
   0  -2  -2   26.80    2.90
   0   2   2   27.30    2.80
   0   2   2   28.50    1.40
  -1  -2  -2    0.00    0.70
   1   2   2   -0.10    0.20
  -2  -2  -2  247.18    7.70
  -2  -2  -2  249.88    8.00
   2   2   2  252.57    7.80
  -3  -2  -2   44.70    3.70
  -3  -2  -2   40.00    2.30
  -3  -2  -2   45.70    2.90
   3   2   2   46.10    2.70
  -4  -2  -2    0.80    0.30
  -4  -2  -2   -0.30    0.30
   4   2   2   -0.50    0.30
  -5  -2  -2   48.00    3.70
  -5  -2  -2   45.90    2.70
   5   2   2   46.20    3.40
  -6  -2  -2   38.00    3.50
  -7  -2  -2    4.60    2.50
  -7  -2  -2    8.70    2.10
  -8  -2  -2    5.80    1.90
  -8  -2  -2    9.70    3.60
 -11   3   2    2.50    1.50
 -10   3   2   13.60    3.20
  -9   3   2   14.80    2.80
  -8   3   2    6.70    1.70
  -7   3   2    2.40    1.10
   6  -3  -2  623.24   18.40
  -6   3   2  605.34   18.80
  -6   3   2  582.54   19.60
  -6   3   2  598.24   19.90
   5  -3  -2   29.30    2.30
   5  -3  -2   29.40    1.40
  -5   3   2   26.30    2.40
  -5   3   2   29.70    3.10
  -5   3   2   27.50    2.20
   4  -3  -2   43.20    2.50
   4  -3  -2   43.20    3.30
  -4   3   2   41.40    2.70
  -4   3   2   39.60    3.30
  -4   3   2   45.10    2.60
   3  -3  -2   56.99    3.70
   3  -3  -2   56.29    2.60
  -3   3   2   50.99    2.70
  -3   3   2   50.59    2.40
  -3   3   2   55.39    3.90
   2  -3  -2  156.88    4.80
  -2   3   2  151.38    7.40
   1  -3  -2   10.10    2.20
  -1   3   2    7.30    1.80
   0  -3  -2  143.99    8.10
   0   3   2  135.59    7.50
   0   3   2  135.79    4.00
  -1  -3  -2   24.10    1.50
  -1  -3  -2   25.40    3.40
   1   3   2   22.50    1.30
  -2  -3  -2  157.88    9.80
  -2  -3  -2  156.38    5.60
   2   3   2  153.18    5.40
  -3  -3  -2   24.30    1.90
  -3  -3  -2   27.00    3.90
  -3  -3  -2   24.40    2.40
  -3  -3  -2   22.30    2.00
   3   3   2   27.10    2.00
  -4  -3  -2  203.98   12.80
  -4  -3  -2  201.08    8.10
  -5  -3  -2   17.30    2.20
  -5  -3  -2   13.20    3.80
  -6  -3  -2    5.60    1.50
  -6  -3  -2    2.70    2.60
  -7  -3  -2   25.80    6.50
  -7  -3  -2   30.90    3.50
  -8  -3  -2    6.90    2.50
  -8  -3  -2   10.50    3.90
 -11   4   2    0.10    1.20
 -10   4   2    2.10    1.40
  -9   4   2    9.40    2.40
  -8   4   2    9.80    2.40
  -7   4   2    6.90    1.70
  -7   4   2    7.00    1.40
   6  -4  -2    0.40    0.20
   6  -4  -2    0.40    0.60
  -6   4   2   -0.40    0.60
  -6   4   2    0.40    0.60
  -6   4   2    0.90    0.60
   5  -4  -2    0.40    0.40
   5  -4  -2    1.60    0.50
   5  -4  -2    0.30    0.40
  -5   4   2    0.50    0.90
  -5   4   2    1.30    0.60
  -5   4   2    0.40    0.40
   4  -4  -2  189.78    6.30
   4  -4  -2  172.88    8.00
  -4   4   2  187.98    6.80
  -4   4   2  182.28    8.70
  -4   4   2  190.98    6.20
   3  -4  -2   44.30    2.10
   3  -4  -2   51.39    3.90
  -3   4   2   46.80    4.00
  -3   4   2   46.60    2.50
   2  -4  -2   10.70    2.30
   2  -4  -2   15.10    1.00
  -2   4   2   11.90    2.60
  -2   4   2   16.80    1.10
   1  -4  -2   73.79    5.60
  -1   4   2   71.09    5.60
   0  -4  -2  132.99    8.60
   0   4   2  131.39    8.00
  -1  -4  -2   57.29    2.40
  -1  -4  -2   55.89    5.80
  -2  -4  -2  103.49    8.50
  -2  -4  -2  109.09    4.30
  -3  -4  -2  139.49    5.70
  -3  -4  -2  133.69   10.40
  -4  -4  -2   17.40    2.00
  -4  -4  -2   19.90    5.30
  -5  -4  -2   25.50    2.60
  -5  -4  -2   19.90    5.40
  -6  -4  -2   -2.40    1.10
  -6  -4  -2    1.40    0.80
  -7  -4  -2   -2.30    1.70
 -12   5   2    0.70    1.30
 -11   5   2    0.90    1.00
 -10   5   2   18.20    3.50
  -9   5   2    5.20    1.70
  -8   5   2    5.40    1.80
   7  -5  -2    0.60    0.30
  -7   5   2    1.30    0.80
  -7   5   2    0.40    0.60
   6  -5  -2   -0.20    0.50
   6  -5  -2    0.10    0.30
   6  -5  -2    0.10    0.30
  -6   5   2   -0.20    0.40
  -6   5   2   -0.40    0.40
   5  -5  -2   75.59    3.50
   5  -5  -2   77.29    5.30
  -5   5   2   70.29    5.50
  -5   5   2   71.99    3.50
  -5   5   2   81.39    4.30
   4  -5  -2  457.75   12.40
   4  -5  -2  443.16   16.00
  -4   5   2  457.05   17.30
  -4   5   2  454.65   13.40
   3  -5  -2  255.77    7.00
  -3   5   2  224.68   13.20
  -3   5   2  257.87    7.80
   2  -5  -2  124.79    7.70
  -2   5   2  121.09    9.40
  -2   5   2  135.79    4.00
   1  -5  -2   71.19    6.20
  -1   5   2   77.89    6.40
   0   5   2   -0.90    0.50
  -1  -5  -2   75.09    4.10
  -1  -5  -2   85.09    7.80
  -2  -5  -2   32.00    2.70
  -2  -5  -2   25.20    5.20
  -2  -5  -2   27.40    2.10
  -3  -5  -2    3.10    0.80
  -3  -5  -2    2.80    1.90
  -4  -5  -2   23.50    5.40
  -4  -5  -2   27.20    2.30
  -5  -5  -2    1.80    2.40
  -5  -5  -2    5.90    1.50
  -6  -5  -2    1.20    2.30
 -12   6   2    1.80    1.40
 -11   6   2    8.10    2.20
 -10   6   2    6.90    2.30
  -9   6   2   34.00    3.70
   8  -6  -2   21.30    1.60
  -8   6   2   28.20    3.20
   7  -6  -2   17.30    1.70
  -7   6   2   15.50    1.90
  -7   6   2   21.20    3.70
   6  -6  -2   19.80    3.60
   6  -6  -2   22.50    2.00
  -6   6   2   22.70    2.40
  -6   6   2   15.90    1.60
   5  -6  -2    9.90    2.10
  -5   6   2   15.00    1.70
   4  -6  -2  135.09    7.90
  -4   6   2  128.29    5.20
   3  -6  -2   17.20    3.60
  -3   6   2   15.10    3.60
  -3   6   2   17.90    1.30
   2  -6  -2  234.68   12.10
  -2   6   2  252.77   16.70
   1  -6  -2   -0.90    0.90
   1  -6  -2    0.30    0.30
   0  -6  -2  340.77   17.30
   0  -6  -2  321.87   10.50
  -1  -6  -2  110.79    5.80
  -1  -6  -2  136.89   10.70
  -2  -6  -2    7.60    3.20
  -3  -6  -2   61.89    8.00
  -4  -6  -2   15.60    1.50
  -4  -6  -2   14.10    4.60
  -5  -6  -2   34.30    7.20
  -5  -6  -2   36.50    2.80
 -11   7   2    0.50    1.20
 -10   7   2    7.00    2.40
   9  -7  -2   23.60    1.70
  -9   7   2   25.50    3.20
   8  -7  -2   20.70    1.80
  -8   7   2   21.30    2.60
  -8   7   2   14.70    2.30
   7  -7  -2    0.80    0.50
  -7   7   2    1.20    1.20
  -7   7   2    2.50    0.70
   6  -7  -2   97.89    5.30
   6  -7  -2   89.89    6.70
  -6   7   2   88.89    5.00
   5  -7  -2   37.40    4.30
  -5   7   2   33.00    2.50
   4  -7  -2  178.18    9.90
  -4   7   2  166.98    6.10
   3  -7  -2   71.09    6.20
   2  -7  -2  308.57   15.20
   1  -7  -2   46.70    5.50
   1  -7  -2   41.70    2.40
   0  -7  -2   68.89    3.80
   0  -7  -2   79.29    8.10
  -1  -7  -2   30.40    5.90
  -1  -7  -2   38.70    3.10
  -2  -7  -2   33.20    7.50
  -3  -7  -2   42.10    8.50
  -4  -7  -2   -2.10    2.20
 -11   8   2    3.00    1.60
  10  -8  -2   -0.20    0.50
 -10   8   2   -1.70    0.70
   9  -8  -2    5.20    1.30
  -9   8   2    7.50    2.00
   8  -8  -2   22.90    2.40
  -8   8   2   24.70    2.80
  -8   8   2   20.20    2.00
   7  -8  -2   12.00    3.20
   6  -8  -2    5.20    2.00
  -6   8   2    4.40    1.20
   5  -8  -2   16.20    3.60
  -5   8   2   20.80    1.90
   4  -8  -2    4.10    1.90
  -4   8   2    4.40    0.90
   3  -8  -2  368.16   17.10
   2  -8  -2    0.40    1.30
   1  -8  -2   17.30    1.50
   1  -8  -2   18.10    4.30
   0  -8  -2   15.50    4.50
   0  -8  -2   21.70    2.00
  -1  -8  -2   32.00    7.10
  -2  -8  -2    5.40    3.00
  -3  -8  -2    0.80    2.20
 -11   9   2   -2.30    1.00
  10  -9  -2    3.90    1.20
 -10   9   2    5.80    1.80
   9  -9  -2    0.10    0.80
  -9   9   2   -0.10    0.90
   8  -9  -2    2.90    1.90
   8  -9  -2    5.30    1.60
  -8   9   2    5.50    1.70
   7  -9  -2   -1.30    0.70
   7  -9  -2   -0.10    0.90
  -7   9   2    1.60    0.80
   6  -9  -2   15.20    3.60
  -6   9   2   17.20    2.10
   5  -9  -2   29.60    4.20
  -5   9   2   21.00    1.80
   4  -9  -2   18.00    3.60
   3  -9  -2    6.30    2.60
   2  -9  -2    0.30    1.30
   1  -9  -2   18.00    4.70
   0  -9  -2   42.30    2.90
   0  -9  -2   58.49    7.50
  -1  -9  -2    0.20    2.30
  -2  -9  -2   33.20    7.50
  10 -10  -2   -1.60    0.80
 -10  10   2    2.00    1.40
   9 -10  -2    1.50    1.10
  -9  10   2    1.30    1.60
   8 -10  -2   10.00    2.30
   8 -10  -2    6.40    2.40
  -8  10   2    8.50    2.00
   7 -10  -2    1.50    1.50
   7 -10  -2    1.80    1.00
  -7  10   2    2.00    1.10
   6 -10  -2   18.50    3.30
   6 -10  -2   21.10    4.40
  -6  10   2   19.10    2.00
   5 -10  -2   29.50    5.60
   4 -10  -2    4.00    2.30
   3 -10  -2   23.00    5.40
   2 -10  -2   54.99    7.20
   0 -10  -2   15.60    4.80
   9 -11  -2    1.30    1.50
  -9  11   2    0.50    1.60
   8 -11  -2   -1.60    1.20
   8 -11  -2   -0.30    1.30
  -8  11   2    2.80    1.30
   7 -11  -2    3.30    1.80
   7 -11  -2   -0.40    1.30
  -7  11   2   -1.60    1.10
   6 -11  -2    1.40    2.00
   6 -11  -2    1.20    1.50
   5 -11  -2    4.60    2.50
   4 -11  -2    0.70    1.80
   3 -11  -2   30.70    6.30
   2 -11  -2    5.10    2.50
   7 -12  -2    1.00    1.40
   7 -12  -2   -0.20    1.30
   6 -12  -2    0.70    1.60
   6 -12  -2    0.20    1.10
   5 -12  -2    2.30    1.90
   5 -12  -2   -0.70    2.20
   2 -12   3   -2.30    1.50
   2 -12   3    1.40    1.50
   3 -12   3    1.10    1.70
   3 -12   3    4.30    1.70
   4 -12   3   22.60    4.20
   4 -12   3   18.60    3.60
   5 -12   3   15.50    3.60
   5 -12   3   18.00    3.70
   6 -12   3    4.50    1.90
   6 -12   3    0.90    1.20
  -7  12  -3   -3.70    1.40
  -8  12  -3    4.20    1.90
   8 -12   3    4.40    1.80
   0 -11   3   20.80    4.10
   0 -11   3    9.70    3.60
   1 -11   3    0.90    1.40
   1 -11   3    0.70    1.50
   2 -11   3    7.60    2.50
   2 -11   3    5.10    2.00
   3 -11   3    3.80    1.90
   3 -11   3    8.10    2.20
   4 -11   3    7.40    2.40
   4 -11   3    7.70    2.10
   5 -11   3   -1.60    0.60
   5 -11   3   -0.80    1.10
  -6  11  -3   14.50    2.40
   6 -11   3    7.60    2.10
   6 -11   3    8.50    2.50
  -7  11  -3   13.50    2.80
   7 -11   3   19.80    3.40
  -8  11  -3    6.50    2.30
   8 -11   3    5.30    1.80
  -9  11  -3    1.10    1.80
   9 -11   3   -2.10    1.00
  -2 -10   3   10.90    3.00
  -2 -10   3    4.40    2.80
  -1 -10   3   13.10    3.60
  -1 -10   3   24.90    4.20
   0 -10   3   20.40    4.50
   0 -10   3   31.80    7.40
   1 -10   3   37.70    6.10
   1 -10   3   43.60    4.80
   2 -10   3   11.60    2.60
   2 -10   3   10.80    2.60
   3 -10   3    1.40    0.90
   3 -10   3   -0.20    1.20
   4 -10   3   19.40    3.70
   4 -10   3   22.40    4.10
  -5  10  -3    2.00    1.00
   5 -10   3   -0.30    1.10
   5 -10   3   -0.80    0.50
  -6  10  -3   13.60    2.80
   6 -10   3   14.20    3.50
   6 -10   3   13.40    2.80
  -7  10  -3    3.90    1.60
   7 -10   3    6.10    1.80
  -8  10  -3    6.50    2.10
   8 -10   3    6.40    1.90
  -9  10  -3    2.40    1.50
   9 -10   3    0.00    0.90
  10 -10   3    1.40    1.00
  -3  -9   3   13.20    4.30
  -3  -9   3   18.10    4.10
  -2  -9   3   12.00    3.40
  -2  -9   3   15.60    3.30
  -1  -9   3   21.50    2.30
  -1  -9   3   15.60    3.20
  -1  -9   3   18.30    4.60
   0  -9   3   56.09    5.70
   0  -9   3   55.39    5.20
   1  -9   3   60.69    5.40
   1  -9   3   65.29    5.90
   2  -9   3   37.10    4.20
   2  -9   3   36.50    4.00
   3  -9   3    2.50    1.00
   3  -9   3    4.40    1.70
  -4   9  -3    2.40    1.20
   4  -9   3    3.60    1.50
   4  -9   3    2.00    0.80
   4  -9   3    3.10    1.50
  -5   9  -3    3.10    1.20
   5  -9   3    0.30    0.80
   5  -9   3    2.80    1.20
   5  -9   3    0.90    0.90
  -6   9  -3    2.20    1.50
   6  -9   3    5.10    1.80
  -7   9  -3    9.30    2.10
   7  -9   3   10.20    2.10
  -8   9  -3    1.50    1.00
  -8   9  -3   -0.40    1.00
   8  -9   3    1.50    0.80
  -9   9  -3   11.70    2.80
   9  -9   3    8.70    1.80
 -10   9  -3    3.60    1.80
  10  -9   3    4.70    1.40
  -4  -8   3    5.00    2.70
  -4  -8   3    4.90    2.10
  -3  -8   3    3.80    1.90
  -3  -8   3    3.20    1.40
  -2  -8   3   66.79    7.30
  -2  -8   3   67.79    5.70
  -1  -8   3    0.10    0.70
  -1  -8   3    1.70    0.80
  -1  -8   3    0.50    1.50
   0  -8   3   87.39    6.90
   0  -8   3   86.59    6.20
   1  -8   3   22.80    3.60
   1  -8   3   23.00    3.20
  -2   8  -3    3.50    1.70
   2  -8   3    2.20    0.50
   2  -8   3    0.90    1.10
   2  -8   3    0.60    0.70
  -3   8  -3    0.30    0.30
   3  -8   3    0.00    0.70
   3  -8   3   -0.80    0.50
   3  -8   3   -0.20    0.40
  -4   8  -3   25.70    2.50
   4  -8   3   19.50    1.90
   4  -8   3   15.30    3.00
   4  -8   3   14.90    2.40
  -5   8  -3    0.20    0.60
   5  -8   3   -0.90    0.50
   5  -8   3    0.40    0.70
   5  -8   3   -0.50    0.60
  -6   8  -3   23.60    3.80
   6  -8   3   23.20    2.50
  -7   8  -3   26.90    2.30
  -7   8  -3   33.00    3.50
   7  -8   3   30.20    2.80
  -8   8  -3    1.90    1.30
  -8   8  -3    2.60    1.30
   8  -8   3    4.10    1.10
  -9   8  -3    0.50    1.10
   9  -8   3   -0.10    0.70
 -10   8  -3    1.00    1.20
  10  -8   3    0.20    0.60
 -11   8  -3    4.40    2.40
  11  -8   3    2.40    1.00
  -5  -7   3   10.00    2.40
  -5  -7   3    8.40    1.60
  -5  -7   3   10.30    3.60
  -4  -7   3   18.70    4.30
  -4  -7   3   20.40    1.80
  -4  -7   3   15.00    2.80
  -3  -7   3    1.90    0.90
  -3  -7   3    4.30    2.00
  -3  -7   3    3.80    0.70
  -3  -7   3    4.10    1.60
  -2  -7   3    0.30    0.80
  -2  -7   3    1.20    0.80
  -2  -7   3   -0.30    2.40
  -1  -7   3   25.60    4.00
  -1  -7   3   23.30    2.10
  -1  -7   3   29.50    4.00
   0   7  -3   38.40    4.30
   0  -7   3   36.80    3.60
   0  -7   3   37.60    2.30
   0  -7   3   36.10    4.00
   1  -7   3   92.39    5.60
   1  -7   3   80.99    5.70
   1  -7   3   83.49    3.10
  -2   7  -3    6.60    2.00
   2  -7   3    5.40    2.30
   2  -7   3    5.10    0.90
   2  -7   3    5.10    1.60
  -3   7  -3  277.27   13.30
  -3   7  -3  300.37   10.00
   3  -7   3  291.77    9.40
   3  -7   3  281.27   11.30
   3  -7   3  293.97   11.20
  -4   7  -3    2.50    1.10
  -4   7  -3    5.50    1.30
   4  -7   3    4.50    1.00
   4  -7   3    1.80    1.00
   4  -7   3    5.20    1.70
  -5   7  -3    2.90    1.20
  -5   7  -3    3.00    0.70
   5  -7   3    3.10    1.10
  -6   7  -3    3.50    1.40
  -6   7  -3    5.50    1.20
   6  -7   3    2.60    1.20
  -7   7  -3   26.40    3.20
   7  -7   3   18.60    2.00
  -8   7  -3   31.50    3.90
   8  -7   3   30.90    2.50
  -9   7  -3   -0.10    1.30
   9  -7   3    3.50    1.00
 -10   7  -3   14.10    3.90
  10  -7   3   13.40    1.80
 -11   7  -3    0.10    1.50
  -6  -6   3   14.10    4.30
  -6  -6   3   19.90    3.30
  -6  -6   3   17.60    2.60
  -5  -6   3   37.30    3.00
  -5  -6   3   26.60    6.20
  -5  -6   3   39.90    3.80
  -4  -6   3   10.60    3.60
  -4  -6   3   13.00    1.90
  -4  -6   3   12.00    2.60
  -3  -6   3   76.79    3.70
  -3  -6   3   72.69    7.60
  -2  -6   3   41.00    3.20
  -2  -6   3   43.90    2.70
  -2  -6   3   47.10    2.50
  -2  -6   3   57.49    5.70
  -1  -6   3   11.30    1.80
  -1  -6   3   11.70    1.20
  -1  -6   3    6.50    2.30
  -1  -6   3    9.70    0.90
   0   6  -3    2.70    1.10
   0  -6   3    4.40    1.20
   0  -6   3    7.30    1.80
   0  -6   3    4.60    0.80
   0  -6   3    7.10    1.10
  -1   6  -3    3.90    0.60
  -1   6  -3    2.60    1.30
   1  -6   3    3.00    1.20
   1  -6   3    3.60    1.00
  -2   6  -3  415.26   16.10
  -2   6  -3  434.06   12.90
   2  -6   3  453.65   14.60
   2  -6   3  448.16   14.60
   2  -6   3  422.46   12.40
  -3   6  -3   10.00    1.70
  -3   6  -3   13.20    2.80
   3  -6   3    8.20    1.80
   3  -6   3    7.60    1.60
   3  -6   3    9.30    1.20
  -4   6  -3   14.00    2.60
  -4   6  -3    9.60    1.80
   4  -6   3    9.10    2.00
   4  -6   3   14.50    1.60
   4  -6   3   10.90    1.90
  -5   6  -3    3.50    0.90
  -5   6  -3    4.20    1.50
  -5   6  -3    5.30    1.50
   5  -6   3    6.00    1.30
   5  -6   3    3.20    0.90
  -6   6  -3  198.18    9.30
  -6   6  -3  189.48    7.50
   6  -6   3  194.88    7.40
  -7   6  -3    4.80    1.20
  -7   6  -3    3.40    1.20
   7  -6   3    2.80    0.90
  -8   6  -3   41.10    4.30
   8  -6   3   39.80    2.50
  -9   6  -3    6.60    2.10
   9  -6   3    3.70    0.90
 -10   6  -3    0.40    1.70
  10  -6   3    2.30    0.80
 -11   6  -3    1.40    1.20
  -7  -5   3    9.80    2.10
  -7  -5   3   12.40    2.30
  -7  -5   3   10.20    3.70
  -6  -5   3   -1.90    1.40
  -6  -5   3    0.80    0.70
  -6  -5   3   -0.50    0.70
  -5  -5   3    4.70    2.40
  -5  -5   3    4.20    1.40
  -5  -5   3    5.70    1.30
  -4  -5   3   57.79    3.60
  -4  -5   3   55.29    7.70
  -3  -5   3    2.90    0.80
  -3  -5   3    3.70    1.20
  -3  -5   3    5.00    2.00
  -2  -5   3  256.57    9.40
  -2  -5   3  267.87    8.40
  -2  -5   3  263.57   12.80
   1   5  -3   18.50    1.70
  -1  -5   3   14.00    2.80
  -1  -5   3   13.90    1.40
  -1  -5   3   16.50    1.60
   0   5  -3  459.75   15.70
   0   5  -3  475.35   12.80
   0  -5   3  458.55   15.20
   0  -5   3  451.85   12.60
   0  -5   3  416.76   12.90
   0  -5   3  453.05   14.60
  -1   5  -3  229.98    9.80
  -1   5  -3  232.98    6.70
   1  -5   3  228.38    7.20
   1  -5   3  229.88    8.70
   1  -5   3  214.38    8.50
  -2   5  -3    7.60    1.40
  -2   5  -3    6.70    1.70
  -2   5  -3    5.90    0.60
   2  -5   3    5.10    1.00
   2  -5   3    6.20    1.30
   2  -5   3    6.90    1.50
  -3   5  -3  656.93   20.20
  -3   5  -3  670.33   19.10
   3  -5   3  664.13   18.60
   3  -5   3  671.93   19.60
   3  -5   3  657.73   19.00
  -4   5  -3  156.48    6.80
  -4   5  -3  154.68    7.40
   4  -5   3  161.78    6.60
   4  -5   3  151.98    6.20
  -5   5  -3   16.80    1.70
  -5   5  -3   20.30    2.40
  -5   5  -3   20.00    3.30
   5  -5   3   16.30    1.60
   5  -5   3   17.60    2.00
  -6   5  -3   24.20    2.20
  -6   5  -3   24.20    3.10
  -6   5  -3   27.50    3.00
   6  -5   3   26.10    2.00
  -7   5  -3   31.80    3.50
   7  -5   3   33.70    2.10
  -8   5  -3   52.89    4.90
   8  -5   3   46.50    2.60
  -9   5  -3    1.20    0.70
   9  -5   3    0.80    0.40
 -10   5  -3    2.00    1.50
 -11   5  -3    7.10    2.80
  -8  -4   3   12.60    2.80
  -7  -4   3   28.20    2.90
  -7  -4   3   23.50    3.80
  -7  -4   3   25.70    6.10
  -6  -4   3    0.30    0.50
  -6  -4   3   -0.50    0.70
  -6  -4   3    2.50    1.90
  -5  -4   3   -0.10    0.90
  -5  -4   3   -0.30    0.50
  -5  -4   3    1.90    0.90
  -4  -4   3    3.60    1.80
  -4  -4   3    3.10    1.00
   3   4  -3   46.30    3.40
  -3  -4   3   43.70    2.80
  -3  -4   3   46.40    3.40
  -3  -4   3   43.80    4.60
   2   4  -3    3.40    1.00
  -2  -4   3    2.50    0.90
  -2  -4   3    1.60    1.20
   1   4  -3  397.56   11.50
  -1  -4   3  361.46   11.30
  -1  -4   3  394.56   12.40
  -1  -4   3  356.36   13.40
   0   4  -3  137.39    6.40
   0   4  -3  147.19    5.10
   0  -4   3  138.19    6.00
   0  -4   3  140.09    5.50
   0  -4   3  153.08    6.10
   0  -4   3  145.59    5.90
  -1   4  -3  114.59    4.50
  -1   4  -3  112.59    3.90
  -1   4  -3  107.99    5.50
   1  -4   3  116.59    5.00
   1  -4   3  105.99    4.20
   1  -4   3  113.89    4.70
  -2   4  -3  590.54   17.20
  -2   4  -3  603.94   16.70
   2  -4   3  588.04   16.70
   2  -4   3  572.34   16.70
   2  -4   3  594.34   16.30
  -3   4  -3 1008.70   26.50
  -3   4  -3  990.40   26.70
  -3   4  -3 1000.00   27.20
   3  -4   3  974.30   26.00
   3  -4   3  963.20   26.30
  -4   4  -3  792.52   23.20
  -4   4  -3  820.82   22.30
  -4   4  -3  788.72   23.50
   4  -4   3  828.42   21.70
   4  -4   3  828.42   22.90
  -5   4  -3   51.49    3.00
  -5   4  -3   51.29    4.00
  -5   4  -3   51.29    3.80
   5  -4   3   50.59    2.70
   5  -4   3   51.79    3.70
  -6   4  -3    9.50    2.20
  -6   4  -3    9.90    1.90
  -6   4  -3   13.70    1.50
   6  -4   3   10.20    1.10
  -7   4  -3    6.20    1.70
  -7   4  -3    6.20    1.20
  -8   4  -3    1.30    1.00
  -8   4  -3    3.50    1.10
   8  -4   3    1.00    0.50
  -9   4  -3    6.50    1.40
  -9   4  -3    6.60    2.40
 -10   4  -3   58.89    5.90
 -11   4  -3    5.60    1.60
  -9  -3   3   12.70    4.20
  -8  -3   3   18.00    1.90
  -8  -3   3   22.50    5.20
  -8  -3   3   16.80    3.20
  -7  -3   3   21.50    2.80
  -7  -3   3   20.90    2.10
  -6  -3   3    5.60    1.30
  -6  -3   3    5.10    1.50
  -5  -3   3    0.90    0.60
  -5  -3   3    1.00    0.50
   4   3  -3   30.80    2.90
  -4  -3   3   32.00    3.00
  -4  -3   3   28.10    2.40
   3   3  -3   44.00    3.20
  -3  -3   3   40.60    2.70
  -3  -3   3   47.40    3.30
  -3  -3   3   45.80    4.00
   2   3  -3   55.99    3.20
  -2  -3   3   52.99    3.10
  -2  -3   3   48.70    3.00
  -2  -3   3   54.79    4.00
   1   3  -3   27.90    2.00
  -1  -3   3   26.00    1.80
  -1  -3   3   25.50    2.00
  -1  -3   3   31.60    2.60
   0   3  -3  145.09    5.40
   0   3  -3  127.09    4.60
   0  -3   3  138.09    5.00
   0  -3   3  125.39    5.10
  -1   3  -3    5.90    1.00
  -1   3  -3    5.00    1.10
  -1   3  -3    6.70    1.10
   1  -3   3    5.10    1.00
   1  -3   3    4.90    0.70
   1  -3   3    5.50    1.00
  -2   3  -3  413.76   12.00
  -2   3  -3  400.86   12.20
  -2   3  -3  410.16   11.90
   2  -3   3  409.76   11.90
   2  -3   3  390.16   11.60
  -3   3  -3  487.85   14.30
  -3   3  -3  462.35   13.40
  -3   3  -3  459.15   14.20
   3  -3   3  469.65   13.10
   3  -3   3  470.35   13.90
  -4   3  -3  308.17   10.80
  -4   3  -3  307.37    9.50
   4  -3   3  307.97   10.50
   4  -3   3  303.47    9.00
  -5   3  -3    9.30    2.00
  -5   3  -3   10.80    1.20
   5  -3   3    7.20    1.50
   5  -3   3    8.00    0.90
  -6   3  -3   16.90    3.70
  -6   3  -3   17.00    1.60
   6  -3   3   16.40    1.30
  -7   3  -3    9.10    2.10
  -7   3  -3   11.10    1.30
   7  -3   3   11.90    1.20
  -8   3  -3   85.49    6.40
  -8   3  -3   87.49    4.20
  -9   3  -3    1.40    0.90
  -9   3  -3    2.30    1.30
 -10   3  -3   11.90    2.80
  -9  -2   3    4.10    1.70
  -8  -2   3   45.90    4.40
  -7  -2   3    1.40    0.40
  -7  -2   3    0.30    0.40
  -7  -2   3    0.20    0.70
  -6  -2   3    7.30    0.80
  -6  -2   3    6.90    1.20
   5   2  -3  587.54   18.90
  -5  -2   3  573.54   18.00
  -5  -2   3  593.14   16.40
   4   2  -3  453.85   15.30
  -4  -2   3  491.05   14.70
  -4  -2   3  484.75   13.60
  -4  -2   3  467.65   15.30
   3   2  -3   82.39    4.40
  -3  -2   3   79.99    3.60
  -3  -2   3   77.59    4.20
   2   2  -3   39.70    2.60
  -2  -2   3   36.50    2.10
  -2  -2   3   38.00    2.40
   1   2  -3   83.69    3.70
  -1  -2   3   98.29    3.80
  -1  -2   3   87.09    3.60
  -1  -2   3   91.59    3.60
   0   2  -3  654.73   17.90
   0   2  -3  691.13   17.10
   0  -2   3  696.13   18.10
   0  -2   3  708.23   16.70
   0  -2   3  649.64   17.80
  -1   2  -3  711.33   17.90
  -1   2  -3  706.33   18.90
  -1   2  -3  696.53   18.30
   1  -2   3  698.73   18.60
   1  -2   3  682.93   18.10
  -2   2  -3  108.89    4.00
   2  -2   3  106.69    3.80
   2  -2   3  109.79    4.50
  -3   2  -3  601.94   16.00
  -3   2  -3  584.34   17.30
   3  -2   3  593.84   17.10
   3  -2   3  612.74   15.70
  -4   2  -3    0.20    0.40
  -4   2  -3    0.20    0.20
   4  -2   3   -0.40    0.40
   4  -2   3    0.00    0.20
  -5   2  -3  132.99    6.60
  -5   2  -3  132.89    5.00
   5  -2   3  135.69    4.70
   5  -2   3  131.99    6.40
  -6   2  -3    5.50    1.10
  -6   2  -3    3.10    1.70
   6  -2   3    5.20    0.90
  -7   2  -3   50.09    2.90
  -7   2  -3   50.89    4.50
  -8   2  -3    4.50    1.00
  -8   2  -3    3.10    1.40
  -9   2  -3    9.00    2.50
  -9   2  -3    8.80    1.40
 -10   2  -3    4.30    2.40
 -10  -1   3   -2.40    0.90
  -9  -1   3   26.30    3.50
  -8  -1   3   62.89    5.10
  -7  -1   3   35.40    3.50
  -6  -1   3   10.50    2.00
  -6  -1   3   10.20    0.80
  -6  -1   3   10.40    0.90
   5   1  -3   44.60    3.60
  -5  -1   3   46.90    2.20
  -5  -1   3   46.70    3.70
  -5  -1   3   46.80    3.40
   4   1  -3  109.69    5.50
  -4  -1   3  110.39    5.40
  -4  -1   3  104.29    5.00
  -4  -1   3  103.79    4.10
   3   1  -3  311.47   10.30
  -3  -1   3  310.37   10.20
  -3  -1   3  302.67    8.70
   2   1  -3  340.97   10.20
  -2  -1   3  328.27    9.00
  -2  -1   3  320.87   10.00
   1   1  -3 1052.39   26.60
   1   1  -3 1129.59   27.20
  -1  -1   3 1037.00   26.60
  -1  -1   3 1030.20   27.70
  -1  -1   3 1087.99   25.90
   0   1  -3  291.27    7.70
   0   1  -3  275.87    7.90
   0  -1   3  284.17    7.80
   0  -1   3  285.47    8.50
  -1   1  -3  231.88    7.40
  -1   1  -3  219.78    7.00
   1  -1   3  228.98    7.20
   1  -1   3  225.18    6.50
  -2   1  -3 1089.99   29.20
  -2   1  -3 1153.28   28.00
   2  -1   3 1104.49   29.00
   2  -1   3 1138.19   27.90
  -3   1  -3  222.48    8.10
  -3   1  -3  218.18    6.70
   3  -1   3  220.68    6.60
  -4   1  -3   21.70    1.50
  -4   1  -3   22.80    2.30
   4  -1   3   23.40    1.60
   4  -1   3   19.90    2.10
  -5   1  -3   -0.50    0.30
  -5   1  -3   -0.10    0.30
   5  -1   3   -0.50    0.40
   5  -1   3    0.70    0.40
  -6   1  -3    5.70    1.70
  -6   1  -3    4.70    0.90
  -7   1  -3   41.10    2.60
  -7   1  -3   37.10    3.90
  -8   1  -3   27.30    3.50
  -8   1  -3   29.00    2.20
  -9   1  -3   23.70    4.50
 -10   1  -3    0.70    1.10
 -10   0   3   13.00    2.80
  -9   0   3   28.40    3.60
  -8   0   3    2.00    1.10
  -7   0   3  323.87   12.70
   6   0  -3    8.70    2.50
  -6   0   3   10.00    2.20
   5   0  -3    7.80    1.70
  -5   0   3    6.40    1.40
  -5   0   3    6.60    1.60
   4   0  -3   22.30    2.10
  -4   0   3   17.00    1.90
  -4   0   3   20.60    1.90
   3   0  -3 1444.16   37.40
  -3   0   3 1438.56   37.30
  -3   0   3 1525.95   37.20
  -3   0   3 1404.46   34.90
   2   0  -3   14.80    0.90
  -2   0   3   14.90    0.80
  -2   0   3   14.70    1.30
  -2   0   3   15.60    1.30
   1   0  -3    1.80    0.50
   1   0  -3    2.40    0.60
   1   0  -3    1.20    0.30
  -1   0   3    1.40    0.30
  -1   0   3    1.00    0.40
   0   0  -3  562.84   13.90
   0   0  -3  525.55   14.90
   0   0  -3  555.74   15.60
   0   0   3  530.35   13.80
   0   0   3  533.45   14.60
   0   0   3  551.64   15.30
  -1   0  -3  127.99    4.10
  -1   0  -3  132.99    4.80
   1   0   3  122.09    4.00
   1   0   3  120.69    4.70
  -2   0  -3  277.57    8.40
  -2   0  -3  305.87    9.60
   2   0   3  304.47    9.30
   2   0   3  310.27    8.60
  -3   0  -3  139.29    5.90
  -3   0  -3  132.29    4.60
   3   0   3  135.69    4.80
   3   0   3  131.69    5.50
  -4   0  -3  671.83   17.90
  -4   0  -3  672.53   20.00
   4   0   3  677.13   19.70
  -5   0  -3   20.60    2.40
  -5   0  -3   19.50    1.60
   5   0   3   21.40    2.20
  -6   0  -3    5.00    1.40
  -7   0  -3  156.28    8.60
  -7   0  -3  156.58    6.10
  -8   0  -3    1.50    1.00
  -9   0  -3    1.30    1.40
 -11   1   3   -0.40    1.40
 -10   1   3    7.30    2.40
  -9   1   3   27.10    3.50
  -8   1   3  246.18   11.30
   7  -1  -3   50.59    4.20
  -7   1   3   48.60    4.10
   6  -1  -3   56.29    4.10
  -6   1   3   52.19    4.10
  -6   1   3   56.99    4.00
   5  -1  -3   16.20    2.00
  -5   1   3   20.20    2.10
  -5   1   3   19.70    2.20
  -5   1   3   20.00    2.20
   4  -1  -3  559.74   16.20
  -4   1   3  537.15   16.00
  -4   1   3  535.45   16.30
   3  -1  -3   56.09    3.10
   3  -1  -3   58.09    1.80
   3  -1  -3   59.59    3.20
  -3   1   3   57.49    3.00
  -3   1   3   56.49    3.30
   2  -1  -3  139.69    4.00
   2  -1  -3  137.09    5.00
   2  -1  -3  142.49    5.30
  -2   1   3  143.79    5.60
  -2   1   3  147.59    5.00
  -2   1   3  141.09    4.10
   1  -1  -3  125.69    5.50
   1  -1  -3  135.19    4.10
  -1   1   3  140.59    4.20
  -1   1   3  130.99    5.80
   0  -1  -3  310.57    8.10
   0   1   3  284.97   10.30
   0   1   3  277.57    8.10
   0   1   3  287.17    8.60
  -1  -1  -3  117.09    4.10
  -1  -1  -3  121.89    6.50
  -1  -1  -3  124.39    4.60
   1   1   3  120.89    4.60
  -2  -1  -3  209.98    6.60
  -2  -1  -3  216.08    7.40
   2   1   3  215.48    7.20
  -3  -1  -3  298.37   10.10
  -3  -1  -3  290.17    8.80
   3   1   3  294.57    9.80
  -4  -1  -3   25.30    2.50
  -4  -1  -3   28.30    1.90
   4   1   3   25.10    2.30
  -5  -1  -3   82.09    3.70
  -5  -1  -3   79.29    5.00
  -6  -1  -3  151.28    7.90
  -6  -1  -3  143.89    5.70
  -7  -1  -3   22.30    3.70
  -8  -1  -3    0.60    0.90
  -9  -1  -3   18.40    6.00
  -9  -1  -3   18.50    3.60
 -11   2   3   -1.30    1.30
 -10   2   3   95.39    7.10
  -9   2   3    7.20    2.20
  -8   2   3   11.00    2.40
   7  -2  -3   11.50    2.30
  -7   2   3   11.60    2.40
   6  -2  -3   44.90    3.50
  -6   2   3   46.50    3.50
  -6   2   3   41.40    3.40
  -6   2   3   44.50    3.80
   5  -2  -3    5.00    1.20
  -5   2   3    5.50    1.40
  -5   2   3    5.50    1.40
  -5   2   3    5.60    1.30
   4  -2  -3   70.19    4.10
   4  -2  -3   70.09    2.20
   4  -2  -3   70.89    3.70
  -4   2   3   72.79    4.30
  -4   2   3   75.09    3.70
  -4   2   3   70.39    3.70
   3  -2  -3  411.76   11.10
   3  -2  -3  440.66   13.50
   3  -2  -3  438.46   12.50
  -3   2   3  449.86   14.00
  -3   2   3  424.86   12.30
   2  -2  -3   27.30    2.40
   2  -2  -3   28.70    1.80
   2  -2  -3   29.10    1.50
  -2   2   3   29.80    2.70
   1  -2  -3   26.20    1.50
   1  -2  -3   23.70    2.60
  -1   2   3   24.90    2.70
   0  -2  -3   18.30    2.60
   0  -2  -3   18.90    1.40
   0   2   3   21.00    2.50
   0   2   3   19.70    1.40
  -1  -2  -3  135.79    8.00
  -1  -2  -3  136.09    5.00
  -1  -2  -3  137.29    4.80
   1   2   3  133.19    4.80
  -2  -2  -3  273.17    9.00
  -2  -2  -3  279.07   12.90
  -2  -2  -3  269.47    8.40
   2   2   3  281.67    8.80
  -3  -2  -3   12.70    3.30
  -3  -2  -3   10.90    1.70
  -3  -2  -3    9.70    1.10
   3   2   3    6.80    1.20
  -4  -2  -3   22.50    4.70
  -4  -2  -3   26.60    2.50
  -4  -2  -3   24.30    1.90
  -5  -2  -3  106.59    9.40
  -5  -2  -3  110.39    6.10
  -6  -2  -3   -0.10    0.60
  -6  -2  -3   -0.60    0.60
  -7  -2  -3   25.10    3.20
  -7  -2  -3   36.60    7.90
  -8  -2  -3   14.90    3.10
  -8  -2  -3   17.80    5.80
 -11   3   3   10.80    3.00
 -10   3   3   -0.20    1.00
  -9   3   3    2.50    1.40
  -8   3   3   60.69    4.90
   7  -3  -3   23.70    2.70
  -7   3   3   23.00    2.70
   6  -3  -3   10.60    2.00
  -6   3   3    9.50    1.90
  -6   3   3   12.80    2.70
  -6   3   3   10.50    2.00
   5  -3  -3   42.30    2.90
   5  -3  -3   45.60    1.70
  -5   3   3   43.40    3.70
  -5   3   3   47.00    3.20
  -5   3   3   41.30    2.90
   4  -3  -3   17.70    2.10
   4  -3  -3   20.00    1.70
  -4   3   3   19.70    2.40
  -4   3   3   18.90    1.80
  -4   3   3   21.20    1.70
   3  -3  -3    0.40    0.50
   3  -3  -3    0.30    0.30
  -3   3   3    1.20    0.80
   2  -3  -3  892.61   22.40
   2  -3  -3  866.81   25.60
  -2   3   3  851.91   26.50
   1  -3  -3  236.88   10.80
  -1   3   3  232.48   10.80
  -1   3   3  248.18    7.20
   0  -3  -3  231.38   11.30
   0   3   3  212.38   10.40
   0   3   3  230.68    6.70
  -1  -3  -3   63.29    3.00
  -1  -3  -3   63.59    5.90
  -1  -3  -3   63.99    3.20
  -2  -3  -3    3.60    1.90
  -2  -3  -3    7.10    1.30
  -2  -3  -3    5.80    1.10
   2   3   3    6.70    1.10
  -3  -3  -3    7.30    1.50
  -3  -3  -3    4.90    1.00
   3   3   3    7.30    1.40
  -4  -3  -3   88.39    5.00
  -4  -3  -3  101.39    9.00
  -5  -3  -3   18.10    4.90
  -5  -3  -3   12.00    2.20
  -6  -3  -3   66.89    5.00
  -6  -3  -3   50.19    7.50
  -7  -3  -3   20.20    3.50
  -7  -3  -3   10.70    3.50
 -11   4   3    5.30    1.90
 -10   4   3    7.90    2.40
  -9   4   3   26.80    3.30
  -8   4   3    0.80    0.80
   7  -4  -3    3.10    1.20
  -7   4   3    2.40    1.30
  -7   4   3    1.30    0.70
   6  -4  -3   23.70    1.50
   6  -4  -3   25.30    2.30
  -6   4   3   21.90    2.10
  -6   4   3   22.00    2.40
   5  -4  -3   16.50    2.30
   5  -4  -3   18.40    1.70
  -5   4   3   10.90    2.20
  -5   4   3   18.30    1.90
  -5   4   3   15.50    1.60
   4  -4  -3    0.60    0.40
   4  -4  -3   -0.30    0.30
  -4   4   3    0.20    0.40
  -4   4   3    0.70    0.80
  -4   4   3    0.90    0.50
   3  -4  -3  157.98    5.30
   3  -4  -3  152.18    7.80
  -3   4   3  160.68    8.70
  -3   4   3  150.38    5.50
   2  -4  -3  187.48    9.30
  -2   4   3  178.58    9.70
   1  -4  -3   87.69    6.70
  -1   4   3  102.79    3.50
  -1   4   3   97.09    7.00
   0  -4  -3  169.08   10.40
   0   4   3  174.48    5.10
   0   4   3  174.48    9.80
  -1  -4  -3   10.30    3.10
  -1  -4  -3   13.90    1.30
   1   4   3   14.60    1.10
  -2  -4  -3  418.46   12.40
   2   4   3  416.86   11.90
  -3  -4  -3   95.39    8.90
  -3  -4  -3   80.79    4.20
  -4  -4  -3   -1.50    1.10
  -4  -4  -3    0.00    0.50
  -5  -4  -3   98.09    5.70
  -5  -4  -3  105.69   10.70
  -6  -4  -3   29.90    3.20
  -6  -4  -3   19.30    7.80
  -7  -4  -3   85.19   11.30
  -7  -4  -3   97.59    6.40
 -12   5   3    1.30    1.60
 -11   5   3    6.60    2.20
 -10   5   3    5.20    1.90
  -9   5   3   -1.00    0.60
  -8   5   3    0.50    0.90
   7  -5  -3    0.70    0.40
   7  -5  -3   -0.10    0.50
  -7   5   3    1.10    0.60
  -7   5   3    0.40    0.60
   6  -5  -3  128.19    7.60
   6  -5  -3  134.09    5.90
  -6   5   3  147.39    6.80
  -6   5   3  138.69    5.90
   5  -5  -3    4.60    1.00
   5  -5  -3    2.80    1.30
  -5   5   3    1.50    0.70
  -5   5   3    2.20    0.80
  -5   5   3    3.00    1.30
   4  -5  -3  126.39    4.70
   4  -5  -3  120.79    7.20
  -4   5   3  118.19    7.80
  -4   5   3  130.89    5.30
   3  -5  -3   57.19    4.90
   3  -5  -3   58.29    2.70
  -3   5   3   62.79    2.90
  -3   5   3   57.19    5.50
   2  -5  -3   54.99    5.20
  -2   5   3   62.09    2.40
  -2   5   3   57.79    5.70
   1  -5  -3   12.50    3.30
  -1   5   3    9.80    2.60
   0  -5  -3  219.78   12.90
  -1  -5  -3   99.99    9.00
  -2  -5  -3   32.10    6.70
  -2  -5  -3   32.30    2.00
  -3  -5  -3    0.40    1.50
  -3  -5  -3    1.30    0.50
  -4  -5  -3   89.39    9.90
  -4  -5  -3   89.49    4.80
  -5  -5  -3   28.70    2.80
  -5  -5  -3   27.50    6.80
  -6  -5  -3    2.90    2.90
  -6  -5  -3    5.10    1.50
 -12   6   3   11.30    3.40
 -11   6   3   -1.50    1.10
 -10   6   3    3.30    1.50
  -9   6   3    1.90    1.00
   8  -6  -3    0.20    0.40
  -8   6   3    0.60    0.60
   7  -6  -3    1.60    1.20
   7  -6  -3    1.70    0.60
  -7   6   3    1.30    0.70
  -7   6   3    1.10    0.80
   6  -6  -3   27.90    3.50
   6  -6  -3   31.50    2.30
  -6   6   3   27.50    2.10
  -6   6   3   31.40    2.80
   5  -6  -3  145.19    5.40
  -5   6   3  149.69    6.30
   4  -6  -3  154.58    5.10
   4  -6  -3  152.38    8.80
  -4   6   3  154.68    5.90
   3  -6  -3  177.28   10.00
  -3   6   3  178.18    5.80
   2  -6  -3   13.10    3.30
   1  -6  -3  431.26   19.60
   0  -6  -3    0.60    0.50
   0  -6  -3    1.80    1.60
  -1  -6  -3    6.40    2.80
  -1  -6  -3    6.80    1.30
  -2  -6  -3   15.20    4.60
  -3  -6  -3   96.59   10.40
  -4  -6  -3   -2.30    1.50
  -4  -6  -3    0.30    0.60
  -5  -6  -3   20.30    5.90
  -5  -6  -3   20.10    2.10
 -11   7   3    3.00    1.60
 -10   7   3   14.20    3.20
   9  -7  -3    1.80    0.70
  -9   7   3    1.80    1.10
   8  -7  -3    1.60    0.70
  -8   7   3    1.50    0.90
  -8   7   3   -1.00    0.80
   7  -7  -3    3.20    1.00
  -7   7   3    3.50    1.50
   6  -7  -3   46.80    4.90
  -6   7   3   60.99    3.90
   5  -7  -3    1.20    1.20
  -5   7   3    0.90    0.70
   4  -7  -3  145.99    9.30
  -4   7   3  149.19    5.50
   3  -7  -3   49.40    5.50
   2  -7  -3   18.70    4.00
   2  -7  -3   23.80    1.60
   1  -7  -3   18.00    1.70
   1  -7  -3   10.50    3.40
   0  -7  -3    0.70    0.70
   0  -7  -3    2.10    1.40
  -1  -7  -3  100.39   10.00
  -2  -7  -3   65.29    8.40
  -3  -7  -3    8.40    5.40
  -4  -7  -3    9.10    4.30
 -11   8   3    1.20    1.20
 -10   8   3   10.20    2.60
   9  -8  -3   55.79    3.50
  -9   8   3   70.09    5.40
   8  -8  -3   -1.20    0.70
   8  -8  -3   -1.00    0.70
  -8   8   3   -0.30    0.60
   7  -8  -3   33.80    3.10
   7  -8  -3   27.70    4.10
   6  -8  -3   15.00    3.60
  -6   8   3   16.20    1.90
   5  -8  -3    8.00    2.50
  -5   8   3    6.50    1.30
   4  -8  -3  141.79    9.80
  -4   8   3  137.99    4.80
   3  -8  -3  114.29    9.10
   2  -8  -3   -1.10    0.80
   1  -8  -3    4.90    1.10
   1  -8  -3    5.90    3.30
   0  -8  -3   47.60    6.70
  -1  -8  -3    3.70    2.50
  -2  -8  -3    8.60    3.90
  -3  -8  -3   15.90    5.40
 -11   9   3    0.70    1.30
  10  -9  -3    8.00    1.60
 -10   9   3   14.50    3.00
   9  -9  -3   14.10    2.40
  -9   9   3   16.50    3.10
   8  -9  -3   14.60    3.90
   8  -9  -3   13.40    2.40
  -8   9   3   14.30    2.50
   7  -9  -3    0.40    1.20
   7  -9  -3    2.30    1.00
  -7   9   3    1.80    0.80
   6  -9  -3    2.60    1.60
  -6   9   3    0.50    0.70
   5  -9  -3   20.20    4.00
  -5   9   3   18.90    1.60
   4  -9  -3    1.10    1.40
   3  -9  -3   -0.50    1.50
   2  -9  -3    0.80    1.30
   1  -9  -3    4.50    2.80
   0  -9  -3    0.80    2.00
  -1  -9  -3    4.20    2.70
  10 -10  -3   32.50    3.10
 -10  10   3   35.00    4.30
   9 -10  -3    2.00    1.20
  -9  10   3    1.40    1.20
   8 -10  -3    1.10    1.30
   8 -10  -3    0.50    1.20
  -8  10   3    1.90    1.20
   7 -10  -3   13.80    2.70
   7 -10  -3   15.60    3.90
  -7  10   3   16.20    2.50
   6 -10  -3    8.90    2.90
  -6  10   3    6.00    1.20
   5 -10  -3    0.70    1.20
   4 -10  -3   12.60    3.50
   3 -10  -3    6.70    2.90
   2 -10  -3    2.50    4.00
   1 -10  -3   38.30    7.30
   0 -10  -3    6.10    3.60
   9 -11  -3    3.00    1.40
   9 -11  -3    1.90    1.40
  -9  11   3   -0.20    1.60
   8 -11  -3   29.70    5.70
   8 -11  -3   22.10    3.70
  -8  11   3   26.10    3.10
   7 -11  -3    5.20    2.10
   7 -11  -3    4.60    1.90
  -7  11   3    5.90    1.60
   6 -11  -3   10.00    3.40
   5 -11  -3    3.00    1.70
   4 -11  -3    4.90    2.20
   3 -11  -3   -2.80    1.90
   2 -11  -3    2.70    2.40
   2 -12   4   52.19    5.70
   2 -12   4   45.90    5.40
   3 -12   4   -0.30    1.40
   3 -12   4    3.10    1.60
   4 -12   4    2.90    1.50
   4 -12   4    3.20    1.60
   5 -12   4   -1.90    1.10
   5 -12   4   -2.10    1.30
   6 -12   4    6.50    2.10
  -7  12  -4    5.00    2.80
   7 -12   4    3.70    1.70
  -8  12  -4    5.00    2.70
   8 -12   4    5.20    1.80
   0 -11   4    4.70    2.00
   0 -11   4    8.00    2.70
   1 -11   4    4.10    1.80
   1 -11   4    8.50    2.60
   2 -11   4   12.00    2.80
   2 -11   4   10.60    2.80
   3 -11   4    3.40    1.70
   3 -11   4    1.30    1.30
   4 -11   4   34.70    4.10
   4 -11   4   49.70    7.90
   5 -11   4    0.30    0.80
   5 -11   4   -1.80    0.90
  -6  11  -4    3.40    2.00
   6 -11   4    0.60    1.00
  -7  11  -4   10.80    2.60
   7 -11   4   12.80    2.70
  -8  11  -4   -3.50    1.40
   8 -11   4   -0.70    1.20
  -9  11  -4   -0.50    1.60
   9 -11   4    0.60    1.50
  -2 -10   4    8.10    2.70
  -2 -10   4    4.40    2.70
  -1 -10   4   18.90    4.00
   0 -10   4   15.90    3.60
   1 -10   4   -0.20    0.70
   1 -10   4   -1.30    0.90
   2 -10   4   11.60    2.50
   2 -10   4   11.80    2.90
   3 -10   4   22.20    3.50
   3 -10   4   33.00    3.80
   4 -10   4    1.10    0.90
   4 -10   4    0.90    0.80
   4 -10   4   -1.30    0.70
  -5  10  -4    0.10    1.10
   5 -10   4    1.50    0.90
   5 -10   4    1.90    1.00
   5 -10   4    1.40    1.50
  -6  10  -4    8.60    2.10
   6 -10   4    7.00    2.00
   7 -10   4   -1.40    0.60
  -8  10  -4    3.60    1.60
   8 -10   4    2.90    1.30
  -9  10  -4    4.70    2.20
   9 -10   4    9.50    2.00
 -10  10  -4   -1.60    1.50
  10 -10   4    3.10    1.40
  -3  -9   4   37.90    4.40
  -3  -9   4   26.50    5.80
  -2  -9   4    9.30    2.50
  -2  -9   4    9.80    3.10
  -1  -9   4    2.80    1.20
  -1  -9   4    1.40    1.80
   0  -9   4    6.70    1.90
   0  -9   4    5.90    2.50
   1  -9   4    0.60    1.30
   1  -9   4    0.10    0.90
   2  -9   4   39.30    4.00
   2  -9   4   41.90    4.20
   3  -9   4    7.50    2.20
   3  -9   4    7.20    1.20
   3  -9   4    9.30    2.70
  -4   9  -4    0.00    0.80
   4  -9   4   -1.70    0.70
   4  -9   4   -0.50    0.90
   4  -9   4    0.70    0.70
  -5   9  -4   59.39    4.50
   5  -9   4   57.89    4.60
   5  -9   4   58.89    5.00
   5  -9   4   62.59    4.00
  -6   9  -4    7.30    2.10
   6  -9   4    8.60    2.10
  -7   9  -4    7.10    1.20
  -7   9  -4    3.50    1.60
   7  -9   4    6.30    1.50
  -8   9  -4    5.70    2.00
   8  -9   4    3.30    1.40
  -9   9  -4   -1.10    1.00
   9  -9   4    3.30    1.00
 -10   9  -4    3.70    2.00
  10  -9   4    3.90    1.20
  -4  -8   4   34.40    4.10
  -4  -8   4   39.30    5.70
  -3  -8   4    9.30    3.30
  -3  -8   4   12.40    2.80
  -2  -8   4    3.50    1.40
  -2  -8   4    4.20    1.80
  -1  -8   4   27.40    3.40
  -1  -8   4   22.40    2.30
  -1  -8   4   24.70    3.60
   0  -8   4    2.10    1.30
   0  -8   4    1.50    1.00
  -1   8  -4   13.50    3.20
   1  -8   4   17.60    3.10
   1  -8   4   13.50    2.50
  -2   8  -4    0.60    1.30
   2  -8   4    1.40    0.50
   2  -8   4    0.60    0.80
  -3   8  -4    9.60    1.80
  -3   8  -4   10.00    2.70
   3  -8   4   11.00    2.20
   3  -8   4    9.40    1.50
   3  -8   4    9.30    2.20
  -4   8  -4  216.88    8.90
   4  -8   4  216.08    9.80
   4  -8   4  190.68    8.80
   4  -8   4  225.88    9.60
  -5   8  -4   22.10    2.70
   5  -8   4   22.90    2.70
   5  -8   4   21.40    2.70
  -6   8  -4   10.80    2.40
  -6   8  -4   10.80    1.40
   6  -8   4    7.70    1.80
  -7   8  -4   29.20    2.50
  -7   8  -4   34.40    3.70
   7  -8   4   33.40    3.00
  -8   8  -4   32.60    4.10
   8  -8   4   38.10    3.00
  -9   8  -4   32.90    4.20
   9  -8   4   33.50    2.70
 -10   8  -4    3.50    1.90
  10  -8   4    2.40    1.00
 -11   8  -4    5.20    2.50
  11  -8   4    5.30    1.30
  -5  -7   4    4.50    3.70
  -5  -7   4   10.80    2.50
  -5  -7   4   14.30    2.20
  -4  -7   4    0.80    0.70
  -4  -7   4    0.80    1.90
  -4  -7   4    1.30    1.10
  -3  -7   4   -0.70    0.60
  -3  -7   4   -0.60    0.40
  -3  -7   4    0.80    0.90
  -3  -7   4   -1.60    1.10
  -2  -7   4    5.00    0.90
  -2  -7   4    5.60    1.80
  -2  -7   4    4.40    1.80
  -2  -7   4    5.20    1.10
  -2  -7   4    5.10    1.40
  -1  -7   4   16.50    3.10
  -1  -7   4   16.90    1.80
  -1  -7   4   16.60    1.30
  -1  -7   4   14.70    3.40
  -1  -7   4   13.50    1.30
   0  -7   4   70.09    3.20
   0  -7   4   72.19    5.30
   0  -7   4   82.49    5.40
  -1   7  -4   15.20    1.30
  -1   7  -4   23.10    4.10
   1  -7   4   17.50    2.30
   1  -7   4   20.60    1.60
   1  -7   4   22.30    2.60
  -2   7  -4  166.78    9.50
   2  -7   4  171.38    7.90
   2  -7   4  177.38    6.30
   2  -7   4  177.08    8.20
  -3   7  -4   28.40    3.60
  -3   7  -4   36.10    2.90
   3  -7   4   34.70    3.20
   3  -7   4   33.00    2.40
  -4   7  -4    5.80    1.60
  -4   7  -4    5.10    1.60
   4  -7   4    4.10    1.50
  -5   7  -4   90.29    4.00
  -5   7  -4   93.29    5.60
   5  -7   4   95.49    6.10
   5  -7   4   88.49    6.00
  -6   7  -4  126.79    7.00
  -6   7  -4  127.19    5.60
  -7   7  -4   35.30    3.80
  -7   7  -4   31.20    2.80
   7  -7   4   33.20    3.20
  -8   7  -4    5.90    2.00
   8  -7   4   12.70    1.50
  -9   7  -4   -0.80    1.00
   9  -7   4    0.20    0.60
 -10   7  -4   36.90    5.90
  10  -7   4   38.40    2.60
 -11   7  -4    2.00    2.10
  11  -7   4    1.80    1.00
  -6  -6   4   38.10    3.60
  -6  -6   4   36.20    3.30
  -6  -6   4   44.50    8.40
  -5  -6   4   29.90    6.20
  -5  -6   4   34.80    3.00
  -5  -6   4   32.90    3.50
  -4  -6   4    1.60    0.80
  -4  -6   4    2.30    1.30
  -4  -6   4   -1.20    1.00
  -3  -6   4   24.00    4.50
  -3  -6   4   28.50    2.20
  -3  -6   4   28.10    3.10
  -2  -6   4   16.20    1.90
  -2  -6   4   21.40    4.00
  -2  -6   4   16.60    2.60
  -2  -6   4   16.10    1.90
  -2  -6   4   17.20    1.60
   1   6  -4   58.79    3.50
  -1  -6   4   53.79    4.60
  -1  -6   4   57.99    3.40
  -1  -6   4   60.99    4.30
  -1  -6   4   56.19    3.20
   0   6  -4    7.90    1.90
   0   6  -4   11.80    1.30
   0  -6   4   12.80    2.40
   0  -6   4   12.40    1.30
   0  -6   4    8.10    1.60
  -1   6  -4  169.38    5.60
  -1   6  -4  160.48    8.30
   1  -6   4  164.68    7.10
   1  -6   4  159.28    7.40
   1  -6   4  160.68    6.00
  -2   6  -4   -0.20    0.70
  -2   6  -4    1.20    0.70
   2  -6   4    1.10    0.50
   2  -6   4    0.30    0.50
   2  -6   4   -0.10    0.40
  -3   6  -4   11.20    2.40
  -3   6  -4   13.60    1.80
   3  -6   4    9.80    1.60
   3  -6   4   12.20    2.10
   3  -6   4   13.60    1.80
  -4   6  -4  215.08    8.70
  -4   6  -4  187.28    9.00
   4  -6   4  207.08    8.10
  -5   6  -4  461.65   15.30
  -5   6  -4  414.46   15.70
   5  -6   4  445.56   13.80
   5  -6   4  407.86   14.60
  -6   6  -4  249.68   10.60
  -6   6  -4  213.68    9.70
   6  -6   4  231.68    8.40
  -7   6  -4   18.50    3.50
   7  -6   4   20.10    1.80
  -8   6  -4   12.70    3.00
   8  -6   4   16.80    1.70
  -9   6  -4    0.90    1.50
   9  -6   4   -0.80    0.50
 -10   6  -4    6.00    2.40
 -11   6  -4    5.80    2.50
  -7  -5   4   24.00    6.30
  -7  -5   4   32.50    3.40
  -7  -5   4   31.60    3.10
  -6  -5   4    4.10    2.60
  -6  -5   4    9.10    2.00
  -6  -5   4    9.70    1.90
  -5  -5   4   23.60    5.00
  -5  -5   4   26.30    2.70
  -5  -5   4   27.50    2.90
  -4  -5   4  148.29    7.30
  -4  -5   4  150.58   10.30
  -4  -5   4  152.98    6.60
   3   5  -4  101.79    5.50
  -3  -5   4  100.39    7.50
  -3  -5   4   97.99    5.50
  -3  -5   4   98.29    5.60
  -3  -5   4   94.69    4.60
   2   5  -4   27.20    2.50
  -2  -5   4   25.90    3.30
  -2  -5   4   22.10    2.40
  -2  -5   4   24.60    2.30
   1   5  -4   15.00    1.60
  -1  -5   4   12.00    2.10
  -1  -5   4   11.80    1.40
  -1  -5   4   14.20    1.50
  -1  -5   4   13.60    2.50
   0   5  -4   12.10    1.30
   0   5  -4   14.90    1.90
   0  -5   4   13.10    1.70
   0  -5   4   12.10    1.40
   0  -5   4   10.80    1.80
  -1   5  -4    0.40    0.50
  -1   5  -4    0.40    0.30
   1  -5   4    0.20    0.40
   1  -5   4    0.50    0.40
  -2   5  -4    0.70    0.60
  -2   5  -4    0.50    0.60
  -2   5  -4    0.40    0.30
   2  -5   4    0.30    0.40
   2  -5   4    0.40    0.50
   2  -5   4    0.90    0.40
  -3   5  -4  209.78    8.10
  -3   5  -4  198.58    8.30
   3  -5   4  199.78    7.60
   3  -5   4  197.98    7.50
  -4   5  -4   20.90    2.30
  -4   5  -4   21.10    2.40
  -4   5  -4   24.60    2.40
   4  -5   4   23.10    2.10
  -5   5  -4   50.29    4.00
  -5   5  -4   52.89    4.00
  -5   5  -4   44.80    3.80
   5  -5   4   50.09    3.70
   5  -5   4   50.79    3.00
  -6   5  -4  181.08    7.70
  -6   5  -4  181.08    7.50
  -6   5  -4  181.18    8.90
   6  -5   4  181.88    6.60
  -7   5  -4    3.20    1.00
  -7   5  -4    3.40    1.40
  -8   5  -4   -0.80    0.70
  -8   5  -4   -1.70    0.70
   8  -5   4    1.10    0.60
  -9   5  -4   15.60    3.20
   9  -5   4   15.40    1.60
 -10   5  -4   18.90    3.70
 -11   5  -4    2.30    1.50
  -8  -4   4    1.30    0.90
  -8  -4   4    2.30    2.40
  -8  -4   4   -1.40    0.90
  -7  -4   4   19.10    3.30
  -7  -4   4   15.50    4.50
  -7  -4   4   15.90    2.30
  -6  -4   4   63.89    4.00
  -6  -4   4   64.39    7.00
  -6  -4   4   59.59    4.50
  -5  -4   4   21.50    4.40
  -5  -4   4   29.90    2.80
  -5  -4   4   28.50    2.60
   4   4  -4   91.59    5.60
  -4  -4   4   95.49    4.90
  -4  -4   4   96.19    7.30
  -4  -4   4   96.69    5.10
   3   4  -4  372.46   12.70
  -3  -4   4  359.36   12.40
  -3  -4   4  352.96   14.80
  -3  -4   4  358.56   12.10
   2   4  -4  225.88    8.40
  -2  -4   4  225.08    8.50
  -2  -4   4  223.68    8.30
  -2  -4   4  234.88   10.10
   1   4  -4  104.49    4.70
  -1  -4   4  107.09    4.70
  -1  -4   4  121.09    5.30
  -1  -4   4   97.09    4.40
   0   4  -4    4.20    1.10
   0   4  -4    5.00    1.00
   0  -4   4    4.90    1.10
   0  -4   4    3.50    0.90
  -1   4  -4  202.08    7.30
  -1   4  -4  203.08    6.40
  -1   4  -4  199.28    7.40
   1  -4   4  194.38    7.30
   1  -4   4  202.68    6.60
   1  -4   4  201.28    7.10
  -2   4  -4  211.98    8.00
  -2   4  -4  219.18    7.70
  -2   4  -4  210.48    7.80
   2  -4   4  210.38    7.50
   2  -4   4  211.38    7.60
  -3   4  -4 1042.90   28.30
  -3   4  -4 1033.10   27.60
  -3   4  -4 1037.10   27.90
   3  -4   4 1016.40   27.60
   3  -4   4  994.50   26.90
  -4   4  -4  240.08    9.50
  -4   4  -4  235.28    9.40
  -4   4  -4  247.58    8.70
   4  -4   4  251.77    8.10
  -5   4  -4  146.39    7.20
  -5   4  -4  144.69    6.00
  -5   4  -4  135.89    7.10
   5  -4   4  145.59    7.00
   5  -4   4  144.19    5.40
  -6   4  -4   12.00    1.70
  -6   4  -4   10.90    2.30
   6  -4   4   12.30    1.30
  -7   4  -4   55.59    3.50
  -7   4  -4   62.79    5.20
   7  -4   4   63.59    3.10
  -8   4  -4    0.80    0.90
  -8   4  -4   -0.70    0.80
   8  -4   4   -0.10    0.40
  -9   4  -4   15.20    3.50
  -9   4  -4   16.30    2.10
 -10   4  -4    9.60    2.80
  -9  -3   4    0.80    2.30
  -9  -3   4    6.20    3.20
  -8  -3   4    2.50    1.60
  -8  -3   4    1.60    1.00
  -7  -3   4   91.09    6.00
  -7  -3   4   73.39    3.40
  -7  -3   4   82.29    4.10
  -6  -3   4  156.38    6.30
  -6  -3   4  145.49    7.50
   5   3  -4   56.09    4.40
  -5  -3   4   54.49    3.30
  -5  -3   4   56.49    3.90
   4   3  -4   19.50    3.10
  -4  -3   4   18.50    1.80
  -4  -3   4   18.40    2.40
  -4  -3   4   16.80    1.90
   3   3  -4   20.30    2.20
  -3  -3   4   19.80    2.50
  -3  -3   4   23.90    2.00
  -3  -3   4   23.50    2.20
   2   3  -4   94.49    4.60
  -2  -3   4   98.59    5.10
  -2  -3   4   91.59    4.50
  -2  -3   4   94.09    4.30
   1   3  -4    2.60    0.70
  -1  -3   4    1.80    0.70
  -1  -3   4    3.40    0.90
  -1  -3   4    1.60    0.60
   0   3  -4   38.00    2.00
   0   3  -4   37.30    2.20
   0   3  -4   37.60    2.50
   0  -3   4   37.60    1.70
   0  -3   4   38.90    2.40
   0  -3   4   39.10    2.50
  -1   3  -4  123.09    5.10
  -1   3  -4  132.39    4.50
  -1   3  -4  122.19    5.20
   1  -3   4  129.99    5.00
   1  -3   4  126.79    5.10
  -2   3  -4   -0.60    0.20
  -2   3  -4   -0.20    0.30
  -2   3  -4    0.00    0.30
   2  -3   4    0.10    0.20
   2  -3   4    0.80    0.50
  -3   3  -4  114.49    5.50
  -3   3  -4  112.89    4.70
   3  -3   4  116.99    5.30
   3  -3   4  120.09    4.50
  -4   3  -4  276.07    9.00
  -4   3  -4  273.07   10.30
   4  -3   4  278.37    8.50
  -5   3  -4   10.40    2.00
  -5   3  -4   12.00    1.40
   5  -3   4   10.00    2.20
   5  -3   4   12.50    1.20
  -6   3  -4   81.69    4.10
  -6   3  -4   95.69    6.00
   6  -3   4   89.99    3.90
  -7   3  -4    0.90    1.00
   7  -3   4    0.50    0.40
  -8   3  -4   11.10    2.80
  -8   3  -4    7.70    1.40
  -9   3  -4    6.20    1.40
  -9   3  -4    7.00    2.40
 -10   3  -4   17.70    3.80
  -9  -2   4   15.90    3.40
  -8  -2   4   49.90    4.60
  -7  -2   4   46.20    2.20
  -7  -2   4   51.79    4.40
  -7  -2   4   51.69    2.50
   6   2  -4    0.50    0.70
  -6  -2   4    0.30    0.30
   5   2  -4  773.42   24.50
  -5  -2   4  810.72   21.30
  -5  -2   4  809.52   23.40
   4   2  -4   15.10    2.00
  -4  -2   4   18.80    2.80
  -4  -2   4   11.30    1.20
   3   2  -4   60.49    3.80
  -3  -2   4   62.89    3.70
  -3  -2   4   62.99    3.00
   2   2  -4   57.19    3.30
  -2  -2   4   57.19    3.20
  -2  -2   4   59.59    2.80
   1   2  -4  124.49    4.90
   1   2  -4  117.89    4.60
  -1  -2   4  128.59    4.60
  -1  -2   4  120.49    4.70
   0   2  -4   27.30    1.80
   0  -2   4   25.00    1.60
   0  -2   4   25.40    2.00
  -1   2  -4   28.70    1.90
   1  -2   4   33.00    1.90
   1  -2   4   30.00    2.20
  -2   2  -4    3.90    0.80
  -2   2  -4    3.60    1.00
   2  -2   4    3.90    1.00
   2  -2   4    4.60    0.90
  -3   2  -4  203.18    7.80
  -3   2  -4  191.98    6.60
   3  -2   4  195.78    7.50
   3  -2   4  203.78    6.40
  -4   2  -4   41.30    3.30
  -4   2  -4   37.20    2.30
   4  -2   4   42.70    2.30
  -5   2  -4    2.60    0.60
  -5   2  -4    1.70    0.90
   5  -2   4    1.10    0.60
  -6   2  -4  125.79    7.20
  -6   2  -4  122.89    5.20
   6  -2   4  124.99    4.90
  -7   2  -4   22.20    2.00
  -7   2  -4   21.40    3.90
  -8   2  -4   10.90    1.80
  -8   2  -4   15.40    3.20
  -9   2  -4   30.70    5.10
 -10   2  -4   11.60    3.00
 -10  -1   4   28.50    4.70
  -9  -1   4    1.50    1.50
  -8  -1   4    0.20    0.70
  -7  -1   4   15.20    2.60
   6   1  -4  547.65   18.50
  -6  -1   4  534.75   19.40
   5   1  -4    2.70    1.00
  -5  -1   4    3.70    0.60
  -5  -1   4    1.50    0.70
   4   1  -4  666.73   19.40
  -4  -1   4  612.94   19.10
  -4  -1   4  627.14   16.40
   3   1  -4   23.10    2.10
  -3  -1   4   22.20    1.30
  -3  -1   4   20.80    2.00
   2   1  -4  326.07    9.50
   2   1  -4  336.57   10.50
  -2  -1   4  331.67    9.20
  -2  -1   4  342.57    9.40
  -2  -1   4  342.27   10.40
   1   1  -4  283.87    8.50
   1   1  -4  263.67    7.80
  -1  -1   4  271.37    7.40
  -1  -1   4  266.47    7.70
   0   1  -4  495.65   13.40
   0   1  -4  497.95   13.80
   0  -1   4  492.15   13.20
   0  -1   4  525.65   14.40
  -1   1  -4  103.49    4.70
  -1   1  -4  109.89    3.90
   1  -1   4  105.39    4.50
   1  -1   4  108.29    3.80
  -2   1  -4  568.44   16.50
  -2   1  -4  560.54   15.10
   2  -1   4  554.24   14.90
   2  -1   4  569.94   16.20
  -3   1  -4  387.46   12.50
  -3   1  -4  379.66   10.90
   3  -1   4  369.76   12.10
   3  -1   4  381.06   10.80
  -4   1  -4    7.50    1.30
  -4   1  -4    5.40    1.50
   4  -1   4    5.70    1.00
   4  -1   4    5.60    1.30
  -5   1  -4   56.79    4.30
  -5   1  -4   55.09    3.00
   5  -1   4   60.89    3.10
  -6   1  -4   53.29    4.40
  -6   1  -4   43.70    2.70
  -7   1  -4   27.60    2.30
  -7   1  -4   28.60    3.50
  -8   1  -4   43.70    4.60
  -9   1  -4    7.70    2.60
 -10   0   4   -0.20    1.00
  -9   0   4    6.00    1.90
  -8   0   4   36.30    3.80
   7   0  -4   30.40    3.40
  -7   0   4   23.60    2.80
  -6   0   4   -0.90    0.50
  -6   0   4    0.70    0.50
   5   0  -4  266.77   10.50
  -5   0   4  285.07   10.40
  -5   0   4  276.57   10.50
  -5   0   4  278.57   10.20
   4   0  -4  310.07   10.90
  -4   0   4  323.97   10.60
  -4   0   4  305.47   10.60
   3   0  -4   55.69    2.20
   3   0  -4   62.29    3.50
  -3   0   4   56.39    2.00
  -3   0   4   62.19    3.20
   2   0  -4   57.29    2.20
   2   0  -4   57.79    2.60
  -2   0   4   59.19    2.90
  -2   0   4   52.99    2.90
   1   0  -4  382.66   11.20
   1   0  -4  413.16   11.70
  -1   0   4  412.66   12.10
  -1   0   4  402.16   10.60
   0   0  -4   81.39    4.40
   0   0  -4   79.49    3.70
   0   0  -4   76.89    2.90
   0   0   4   76.79    2.90
   0   0   4   76.79    3.60
  -1   0  -4   49.80    3.60
  -1   0  -4   47.20    2.90
   1   0   4   47.40    2.70
   1   0   4   48.10    2.20
  -2   0  -4   31.80    1.90
  -2   0  -4   35.50    2.60
   2   0   4   32.60    1.90
   2   0   4   32.70    2.30
  -3   0  -4   61.69    2.90
  -3   0  -4   64.69    3.90
   3   0   4   65.79    3.10
   3   0   4   60.19    3.60
  -4   0  -4  326.47   11.70
  -4   0  -4  316.67    9.80
   4   0   4  333.47   11.50
  -5   0  -4    0.60    0.40
  -5   0  -4   -0.30    0.50
  -6   0  -4   37.00    3.70
  -6   0  -4   31.70    2.40
  -7   0  -4   54.29    4.90
  -8   0  -4    2.60    1.20
  -9   0  -4   58.29    5.60
 -11   1   4    0.00    1.30
 -10   1   4    6.20    3.40
  -9   1   4    5.80    1.80
  -8   1   4  107.39    6.80
   7  -1  -4   44.20    4.00
  -7   1   4   47.10    4.00
   6  -1  -4  157.18    7.50
  -6   1   4  153.78    7.20
  -6   1   4  147.39    7.50
   5  -1  -4  136.49    6.40
  -5   1   4  123.49    6.10
  -5   1   4  122.29    6.20
  -5   1   4  125.59    6.00
   4  -1  -4  312.77   10.70
  -4   1   4  313.67   11.00
  -4   1   4  331.37   10.80
   3  -1  -4   59.69    3.30
   3  -1  -4   64.39    3.40
   3  -1  -4   61.69    2.20
  -3   1   4   63.19    3.60
  -3   1   4   61.39    2.20
  -3   1   4   57.69    3.20
   2  -1  -4    5.40    0.80
   2  -1  -4    4.60    1.00
   2  -1  -4    4.10    0.80
  -2   1   4    5.40    1.20
  -2   1   4    5.50    0.60
   1  -1  -4  364.26   12.00
   1  -1  -4  349.57    9.50
  -1   1   4  335.07    9.50
  -1   1   4  345.67   12.10
   0  -1  -4  125.79    6.70
   0  -1  -4  127.79    4.40
   0   1   4  126.09    4.40
   0   1   4  131.19    6.50
   0   1   4  132.89    5.00
  -1  -1  -4   80.29    3.90
  -1  -1  -4   82.29    5.60
  -1  -1  -4   78.99    3.30
   1   1   4   80.29    3.70
   1   1   4   84.99    3.50
  -2  -1  -4  156.78    8.70
  -2  -1  -4  161.18    6.30
  -2  -1  -4  160.18    5.50
   2   1   4  150.98    6.00
  -3  -1  -4   73.89    4.20
  -3  -1  -4   71.69    3.30
   3   1   4   66.79    3.80
  -4  -1  -4   33.80    3.00
  -4  -1  -4   32.30    2.20
   4   1   4   26.20    2.50
  -5  -1  -4   22.00    2.30
  -5  -1  -4   24.60    2.80
  -6  -1  -4    4.20    1.40
  -7  -1  -4    7.20    2.10
  -8  -1  -4   34.50    4.20
  -8  -1  -4   52.99    7.60
 -11   2   4    0.00    0.90
 -10   2   4   37.70    4.30
  -9   2   4   28.60    3.60
   8  -2  -4  103.99    6.60
  -8   2   4  115.09    7.00
   7  -2  -4    0.70    0.70
  -7   2   4    0.50    0.70
   6  -2  -4   22.80    2.50
  -6   2   4   20.00    2.20
  -6   2   4   19.10    2.20
  -6   2   4   17.60    2.50
   5  -2  -4   26.50    2.50
  -5   2   4   27.50    2.50
  -5   2   4   25.50    2.70
  -5   2   4   25.30    2.40
   4  -2  -4    5.90    0.50
   4  -2  -4    4.40    1.20
   4  -2  -4    5.20    1.10
  -4   2   4    4.00    1.00
  -4   2   4    2.90    1.00
   3  -2  -4  225.28    6.30
   3  -2  -4  217.08    7.50
   3  -2  -4  210.88    8.30
  -3   2   4  222.88    7.40
  -3   2   4  225.88    9.00
   2  -2  -4  109.59    5.60
   2  -2  -4  119.49    4.60
   2  -2  -4  115.09    3.90
  -2   2   4  113.99    6.30
   1  -2  -4   43.70    3.80
   1  -2  -4   38.70    2.00
  -1   2   4   40.00    2.40
  -1   2   4   43.30    3.80
   0  -2  -4  183.28    9.50
   0  -2  -4  198.28    6.30
   0   2   4  195.08    9.20
   0   2   4  182.68    6.30
  -1  -2  -4   47.10    4.70
  -1  -2  -4   45.20    2.70
  -1  -2  -4   41.00    2.30
   1   2   4   43.80    2.50
  -2  -2  -4   53.09    5.40
  -2  -2  -4   49.60    2.80
  -2  -2  -4   57.29    3.30
   2   2   4   54.99    3.10
  -3  -2  -4    8.10    2.30
  -3  -2  -4    8.60    1.30
  -3  -2  -4   15.00    2.40
   3   2   4   10.40    1.90
  -4  -2  -4  165.88    7.50
  -4  -2  -4  163.58   11.30
   4   2   4  158.98    7.00
  -5  -2  -4    1.10    1.10
  -5  -2  -4   -0.20    0.40
  -6  -2  -4   12.30    4.30
  -6  -2  -4   16.10    3.20
  -7  -2  -4   26.70    4.20
  -7  -2  -4   30.10    9.30
  -8  -2  -4    4.40    3.00
  -8  -2  -4    7.40    2.40
 -11   3   4    9.30    2.60
 -10   3   4    1.20    1.00
  -9   3   4    7.20    2.10
   8  -3  -4    0.50    0.70
  -8   3   4    0.20    0.40
   7  -3  -4   49.99    3.90
  -7   3   4   48.90    4.00
   6  -3  -4    4.80    1.30
  -6   3   4    6.20    1.60
  -6   3   4    6.70    1.60
  -6   3   4    5.00    1.50
   5  -3  -4   26.90    2.90
   5  -3  -4   31.70    1.40
   5  -3  -4   32.00    2.60
  -5   3   4   32.00    2.50
  -5   3   4   28.00    3.80
  -5   3   4   29.90    2.60
   4  -3  -4  828.92   22.90
   4  -3  -4  713.13   19.00
   4  -3  -4  738.73   20.80
  -4   3   4  754.62   20.60
  -4   3   4  725.33   23.20
   3  -3  -4   59.99    2.70
   3  -3  -4   66.29    4.50
   3  -3  -4   62.79    3.20
  -3   3   4   55.89    4.50
   2  -3  -4 1217.48   30.30
   2  -3  -4 1202.08   34.30
  -2   3   4 1156.98   35.00
   1  -3  -4   26.10    1.80
   1  -3  -4   28.00    3.50
  -1   3   4   23.20    3.20
  -1   3   4   26.60    1.80
   0  -3  -4   28.90    3.80
   0  -3  -4   25.60    1.90
   0   3   4   23.10    3.20
   0   3   4   26.20    1.80
  -1  -3  -4    4.00    1.00
  -1  -3  -4    2.90    1.30
  -1  -3  -4    4.70    1.00
   1   3   4    6.90    0.90
  -2  -3  -4  211.48   12.70
  -2  -3  -4  206.28    7.50
  -2  -3  -4  221.08    8.00
   2   3   4  223.08    7.60
  -3  -3  -4    0.70    0.80
   3   3   4   -0.30    0.40
  -4  -3  -4   41.00    3.40
  -4  -3  -4   44.40    6.00
   4   3   4   38.20    2.90
  -5  -3  -4    2.30    1.30
  -6  -3  -4   28.60    3.40
  -6  -3  -4   41.90    8.60
  -7  -3  -4   26.40    3.50
  -7  -3  -4   27.00    6.50
 -11   4   4    2.30    1.40
 -10   4   4   19.70    3.60
  -9   4   4   -0.70    0.40
   8  -4  -4   14.80    2.50
  -8   4   4   25.20    3.00
   7  -4  -4   42.20    3.50
  -7   4   4   44.60    3.80
   6  -4  -4   19.50    2.60
   6  -4  -4   21.50    1.20
   6  -4  -4   22.00    2.20
  -6   4   4   18.30    2.20
  -6   4   4   25.00    2.50
   5  -4  -4   -0.60    0.30
   5  -4  -4    0.30    0.30
  -5   4   4    0.60    0.40
  -5   4   4   -0.30    0.40
  -5   4   4   -0.50    0.60
   4  -4  -4   34.00    3.40
   4  -4  -4   39.60    2.50
   3  -4  -4  589.64   15.80
   3  -4  -4  548.05   19.10
  -3   4   4  546.05   20.50
   2  -4  -4  138.89    8.10
  -2   4   4  123.09    8.20
   1  -4  -4   23.70    4.50
  -1   4   4   26.10    4.80
  -1   4   4   24.80    1.70
   0  -4  -4  104.29    8.30
   0  -4  -4  108.29    4.80
   0   4   4  109.69    4.10
   0   4   4  101.19    7.60
  -1  -4  -4  315.77   16.60
   1   4   4  325.27    9.60
  -2  -4  -4    2.70    1.70
  -2  -4  -4    5.30    1.20
   2   4   4    2.50    0.70
  -3  -4  -4   -0.40    1.50
  -3  -4  -4    0.20    0.60
   3   4   4    1.30    0.60
  -4  -4  -4   40.10    3.20
  -4  -4  -4   31.00    6.10
  -5  -4  -4   26.10    6.60
  -5  -4  -4   26.20    3.40
  -6  -4  -4    4.60    1.90
  -6  -4  -4    6.60    3.40
 -12   5   4    0.20    1.20
 -11   5   4    3.60    1.80
 -10   5   4   27.50    4.50
  -9   5   4   20.70    3.50
   8  -5  -4  116.19    7.00
  -8   5   4  126.69    7.20
   7  -5  -4    0.50    0.30
   7  -5  -4    0.00    0.30
   7  -5  -4    0.30    0.40
  -7   5   4    0.60    0.70
  -7   5   4   -0.30    0.40
   6  -5  -4    0.90    0.70
   6  -5  -4   -0.20    0.40
  -6   5   4   -0.40    0.50
  -6   5   4    0.40    0.40
   5  -5  -4   16.40    1.60
  -5   5   4   16.20    1.80
   4  -5  -4   34.20    3.80
   4  -5  -4   36.20    2.30
  -4   5   4   33.80    4.30
  -4   5   4   35.90    2.50
   3  -5  -4   28.10    3.60
   3  -5  -4   28.80    1.90
  -3   5   4   29.80    4.20
   2  -5  -4   43.20    4.80
  -2   5   4   36.20    4.60
   1  -5  -4  327.37   16.10
  -1   5   4  338.87    9.30
   0  -5  -4    9.10    2.80
  -1  -5  -4   19.20    5.10
   1   5   4   15.10    1.10
  -2  -5  -4   47.50    8.40
  -3  -5  -4   53.69    3.30
  -3  -5  -4   57.89    7.60
  -4  -5  -4   23.50    2.40
  -4  -5  -4   25.90    6.50
  -5  -5  -4    3.00    1.40
  -5  -5  -4    4.60    3.30
  -6  -5  -4   21.70    7.00
  -6  -5  -4   20.30    3.00
 -12   6   4    2.70    1.80
 -11   6   4    9.20    2.50
 -10   6   4    0.50    0.60
  -9   6   4    4.70    1.60
   8  -6  -4    9.60    1.00
   8  -6  -4   10.80    1.20
   8  -6  -4    8.90    1.80
  -8   6   4   11.90    2.60
   7  -6  -4  168.58    9.70
   7  -6  -4  178.98    7.50
  -7   6   4  168.78    7.30
  -7   6   4  192.98    8.50
   6  -6  -4   29.90    2.30
   6  -6  -4   23.20    3.30
  -6   6   4   26.20    2.60
   5  -6  -4   14.20    3.00
   5  -6  -4   16.00    1.50
  -5   6   4   15.80    1.80
   4  -6  -4  204.08   11.40
   4  -6  -4  222.98    7.20
  -4   6   4  218.38    7.60
   3  -6  -4  109.99    9.20
   3  -6  -4  127.99    4.80
  -3   6   4  131.69    4.70
   2  -6  -4  819.32   29.30
   1  -6  -4  724.83   28.20
   0  -6  -4    0.60    1.10
  -2  -6  -4    1.90    1.50
  -3  -6  -4    1.70    1.80
  -4  -6  -4    4.80    2.70
  -5  -6  -4   18.20    6.50
 -11   7   4    2.20    1.00
 -10   7   4    6.50    2.10
   9  -7  -4   21.30    1.70
   9  -7  -4   19.60    1.50
  -9   7   4   18.70    3.40
   8  -7  -4    2.60    1.60
   8  -7  -4    1.90    0.90
  -8   7   4    3.60    1.30
  -8   7   4    2.10    1.10
   7  -7  -4   22.90    2.10
   7  -7  -4   23.60    4.40
  -7   7   4   24.60    2.70
   6  -7  -4   17.10    3.50
   6  -7  -4   21.70    1.80
  -6   7   4   20.20    2.20
   5  -7  -4   10.00    2.70
   5  -7  -4    8.50    1.00
  -5   7   4   11.10    1.80
   4  -7  -4   12.20    3.00
   4  -7  -4   11.40    1.10
  -4   7   4   14.00    1.30
   3  -7  -4   32.40    4.60
   3  -7  -4   29.90    1.90
   2  -7  -4    2.60    1.60
   1  -7  -4    3.50    2.10
   0  -7  -4   22.00    5.70
   0  -7  -4   15.90    1.90
  -1  -7  -4    2.70    2.50
  -2  -7  -4    2.60    1.90
  -3  -7  -4   21.70    5.70
  -4  -7  -4    0.20    2.00
 -10   8   4   64.19    5.70
   9  -8  -4   49.30    3.00
   9  -8  -4   51.89    3.40
  -9   8   4   48.30    4.50
   8  -8  -4   24.90    2.70
   8  -8  -4   24.60    4.80
  -8   8   4   20.20    3.10
   7  -8  -4    2.00    1.60
  -7   8   4    2.40    1.00
   6  -8  -4    0.00    1.10
  -6   8   4    0.00    0.60
   5  -8  -4   13.70    3.40
  -5   8   4   14.50    1.60
   4  -8  -4    6.50    2.20
  -4   8   4   11.40    1.00
   3  -8  -4   39.80    5.40
   2  -8  -4   23.00    1.80
   2  -8  -4   25.20    5.70
   1  -8  -4   13.20    1.70
   1  -8  -4   15.70    4.60
   0  -8  -4   -0.30    0.80
   0  -8  -4   -0.50    1.40
  -1  -8  -4   18.40    5.70
  -2  -8  -4   27.60    7.20
 -11   9   4    4.50    1.90
  10  -9  -4    2.80    1.10
 -10   9   4    5.40    2.10
   9  -9  -4    1.50    1.10
  -9   9   4    3.10    1.30
   8  -9  -4    8.10    1.90
   8  -9  -4    5.80    2.60
  -8   9   4   11.10    2.30
   7  -9  -4    1.90    1.70
  -7   9   4    0.40    1.00
   6  -9  -4   52.39    6.10
  -6   9   4   57.09    3.60
   5  -9  -4   20.70    4.70
   4  -9  -4    4.40    2.30
   3  -9  -4   16.60    4.60
   2  -9  -4   56.79    7.10
   1  -9  -4   22.50    5.70
   1  -9  -4   24.10    2.10
   0  -9  -4    4.70    2.20
  -1  -9  -4    1.00    2.40
  10 -10  -4   -1.20    1.20
 -10  10   4   -1.30    1.40
   9 -10  -4    0.80    1.20
   9 -10  -4   -2.30    1.20
  -9  10   4    0.00    1.20
   8 -10  -4   11.10    3.60
   8 -10  -4   14.80    2.90
  -8  10   4   15.20    2.50
   7 -10  -4   -0.10    1.50
  -7  10   4    2.50    1.10
   6 -10  -4   14.10    4.30
  -6  10   4   16.70    1.80
   5 -10  -4   -1.90    1.30
   4 -10  -4   15.80    4.30
   3 -10  -4   11.60    3.50
   2 -10  -4   -1.00    1.70
   1 -10  -4    6.50    3.40
   9 -11  -4    5.10    2.40
   9 -11  -4    6.30    2.40
  -9  11   4    4.70    1.90
   8 -11  -4   -1.60    1.40
   8 -11  -4    2.00    1.70
  -8  11   4   -2.90    1.30
   7 -11  -4   -1.20    1.40
   6 -11  -4   -0.40    1.70
   5 -11  -4    2.20    1.90
   4 -11  -4    6.00    2.70
   3 -11  -4    3.90    2.70
   2 -12   5    6.50    2.40
   2 -12   5   12.80    3.00
   3 -12   5   11.30    2.90
   3 -12   5   17.70    3.70
   4 -12   5   -1.00    1.60
   4 -12   5    2.80    1.60
   5 -12   5   -1.60    1.40
   6 -12   5    1.70    1.60
  -7  12  -5    6.30    2.10
   7 -12   5    1.50    1.30
   0 -11   5    4.70    2.10
   0 -11   5    2.90    1.70
   1 -11   5    1.90    1.50
   1 -11   5    0.30    1.00
   2 -11   5   44.40    4.80
   2 -11   5   40.50    4.50
   3 -11   5   11.80    3.00
   3 -11   5   15.30    3.10
   4 -11   5    2.90    2.70
   4 -11   5    5.60    2.00
   5 -11   5    3.50    1.70
  -6  11  -5    0.10    1.30
   6 -11   5    2.70    1.40
  -7  11  -5   12.20    2.80
   7 -11   5    5.00    2.40
  -8  11  -5   10.20    2.70
   8 -11   5   12.20    4.00
  -9  11  -5    8.40    3.10
   9 -11   5    5.60    2.10
  -2 -10   5    4.70    1.90
  -2 -10   5    5.60    2.50
  -1 -10   5   21.70    3.80
  -1 -10   5   14.90    3.40
   0 -10   5    5.70    2.10
   1 -10   5   41.20    4.20
   1 -10   5   46.40    4.80
   2 -10   5    1.40    1.40
   2 -10   5    1.60    1.20
   3 -10   5   -0.20    0.60
   3 -10   5    0.10    0.80
   4 -10   5    2.60    1.30
   4 -10   5    1.60    1.00
   4 -10   5   -0.50    0.80
  -5  10  -5   -1.80    0.70
   5 -10   5    0.60    1.00
  -6  10  -5   30.80    3.60
   6 -10   5   32.70    3.50
  -7  10  -5    4.70    1.90
   7 -10   5   10.10    2.40
  -8  10  -5    6.90    2.40
   8 -10   5    5.00    1.80
  -9  10  -5   -0.30    2.80
   9 -10   5    3.00    1.10
  -3  -9   5    5.80    2.30
  -3  -9   5    6.70    2.20
  -2  -9   5    8.40    2.20
  -2  -9   5    6.10    2.60
  -1  -9   5   17.50    3.40
  -1  -9   5    6.60    2.30
   0  -9   5   12.90    2.70
   0  -9   5   20.20    3.70
   1  -9   5    2.20    1.20
   1  -9   5   -0.20    1.00
   2  -9   5   14.00    2.70
   2  -9   5   11.80    1.40
   2  -9   5   11.90    2.30
   3  -9   5   10.20    2.20
   3  -9   5    6.10    1.70
   3  -9   5   11.30    1.50
  -4   9  -5  110.49    6.10
   4  -9   5   92.29    7.00
   4  -9   5  104.59    5.30
   4  -9   5  114.89    6.80
  -5   9  -5   10.60    2.50
   5  -9   5   10.30    2.60
  -6   9  -5    6.30    1.70
   6  -9   5   11.10    2.30
  -7   9  -5   13.80    2.90
  -7   9  -5   16.70    1.90
   7  -9   5   18.30    2.80
  -8   9  -5   20.70    4.20
  -8   9  -5    8.70    2.20
   8  -9   5   15.20    2.60
  -9   9  -5    1.60    1.60
   9  -9   5    0.30    0.80
 -10   9  -5   -0.90    1.30
  10  -9   5    0.30    0.90
  -4  -8   5   42.00    6.00
  -4  -8   5   31.40    2.20
  -4  -8   5   36.10    4.00
  -3  -8   5   11.70    1.30
  -3  -8   5   13.60    1.80
  -3  -8   5   15.20    3.10
  -3  -8   5   13.40    3.80
  -2  -8   5   12.00    1.40
  -2  -8   5   18.40    3.10
  -2  -8   5   17.70    4.70
  -1  -8   5    7.70    0.90
  -1  -8   5   11.30    2.80
  -1  -8   5    7.60    2.10
  -1  -8   5    9.90    1.40
   0  -8   5    1.80    1.00
   0  -8   5    3.10    1.30
   0  -8   5    1.30    0.60
   1  -8   5   11.70    2.30
   1  -8   5   11.30    1.30
   1  -8   5   13.00    2.70
   2  -8   5    5.50    1.10
   2  -8   5    3.80    1.30
   2  -8   5    6.30    1.70
  -3   8  -5   52.79    3.70
  -3   8  -5   53.59    5.40
   3  -8   5   46.20    3.10
   3  -8   5   50.49    4.00
   3  -8   5   53.49    4.30
  -4   8  -5   10.30    2.00
  -4   8  -5   10.00    2.70
   4  -8   5    8.30    1.60
   4  -8   5    9.20    2.00
  -5   8  -5    7.30    1.20
  -5   8  -5    6.40    1.80
   5  -8   5    5.00    1.50
  -6   8  -5   77.79    4.10
  -6   8  -5   96.49    6.20
   6  -8   5   89.09    5.20
  -7   8  -5   67.29    4.10
  -7   8  -5   70.99    5.80
   7  -8   5   70.29    4.50
  -8   8  -5    8.00    2.30
   8  -8   5   10.10    1.90
  -9   8  -5   50.99    5.60
   9  -8   5   49.40    3.40
 -10   8  -5    1.20    1.50
  10  -8   5   -0.10    0.90
  -5  -7   5    2.40    1.00
  -5  -7   5    7.60    2.60
  -5  -7   5    1.80    1.20
  -4  -7   5   20.60    2.90
  -4  -7   5   26.30    3.20
  -4  -7   5   24.20    4.90
  -4  -7   5   22.00    2.20
  -3  -7   5   61.59    3.50
  -3  -7   5   52.79    3.60
  -3  -7   5   67.09    6.50
  -3  -7   5   69.19    5.20
  -2  -7   5   28.50    3.80
  -2  -7   5   29.30    2.50
  -2  -7   5   34.10    2.30
  -2  -7   5   25.10    2.70
  -2  -7   5   31.60    3.30
   1   7  -5    0.30    0.60
  -1  -7   5    1.70    1.20
  -1  -7   5    2.20    1.10
  -1  -7   5    0.60    0.70
  -1  -7   5    1.30    0.70
   0   7  -5   47.90    2.90
   0  -7   5   45.20    2.80
   0  -7   5   45.90    3.80
   0  -7   5   43.20    3.80
  -1   7  -5   41.00    4.00
  -1   7  -5   43.40    2.50
   1  -7   5   44.30    2.80
   1  -7   5   44.10    3.30
   1  -7   5   46.50    3.90
  -2   7  -5   10.60    1.10
  -2   7  -5   11.10    2.40
   2  -7   5    9.50    1.50
   2  -7   5    9.20    1.70
   2  -7   5   12.30    1.70
  -3   7  -5    4.60    1.50
  -3   7  -5    4.80    1.50
  -3   7  -5    6.50    1.00
   3  -7   5    4.50    1.10
   3  -7   5    4.30    1.30
   3  -7   5    6.30    1.70
  -4   7  -5   25.90    2.90
  -4   7  -5   25.30    3.20
   4  -7   5   25.20    2.30
   4  -7   5   25.80    2.70
  -5   7  -5   13.60    2.50
   5  -7   5   15.50    2.30
  -6   7  -5   -0.80    0.70
  -6   7  -5    3.20    0.80
   6  -7   5    0.90    0.50
  -7   7  -5    1.90    0.90
   7  -7   5    0.50    0.70
  -8   7  -5  125.89    8.10
   8  -7   5   97.09    5.00
  -9   7  -5    5.10    2.10
   9  -7   5    5.70    1.20
 -10   7  -5    1.20    1.40
  10  -7   5    0.50    0.60
  -6  -6   5    4.30    2.30
  -6  -6   5    9.80    2.20
  -5  -6   5   56.69    4.40
  -5  -6   5   49.40    6.00
  -5  -6   5   68.79    7.30
  -4  -6   5   58.09    3.80
  -4  -6   5   54.89    4.40
  -4  -6   5   55.29    6.20
  -3  -6   5    7.10    2.60
  -3  -6   5    6.90    1.40
  -3  -6   5   10.20    2.10
   2   6  -5   37.30    3.00
  -2  -6   5   31.40    2.70
  -2  -6   5   34.60    3.70
  -2  -6   5   36.30    3.00
  -2  -6   5   34.80    3.20
   1   6  -5   10.50    1.80
  -1  -6   5    8.50    2.00
  -1  -6   5   12.30    1.90
  -1  -6   5    8.10    1.50
  -1  -6   5   10.20    2.50
   0   6  -5  185.98    6.80
   0   6  -5  187.28    8.30
   0  -6   5  182.18    7.50
   0  -6   5  176.58    8.00
   0  -6   5  180.18    6.90
  -1   6  -5   14.20    1.40
  -1   6  -5   15.10    2.20
   1  -6   5   16.60    1.70
   1  -6   5   12.90    2.10
   1  -6   5   15.40    1.70
  -2   6  -5    6.20    1.10
  -2   6  -5    6.80    1.60
  -2   6  -5    4.10    1.40
   2  -6   5    4.20    1.30
   2  -6   5    6.50    1.30
   2  -6   5    4.60    1.10
  -3   6  -5  117.59    6.10
  -3   6  -5  109.49    6.10
   3  -6   5  105.99    5.50
   3  -6   5  110.99    5.30
  -4   6  -5    0.20    0.50
   4  -6   5   -0.30    0.50
   4  -6   5    0.80    0.50
  -5   6  -5  256.97   11.20
  -5   6  -5  261.07   11.00
   5  -6   5  268.57    9.60
  -6   6  -5   53.29    4.60
   6  -6   5   48.00    3.20
  -7   6  -5    7.00    2.30
   7  -6   5    9.90    1.90
  -8   6  -5    3.30    1.70
   8  -6   5    3.80    1.00
  -9   6  -5    3.20    1.70
   9  -6   5    7.00    1.40
 -10   6  -5    2.30    1.30
  10  -6   5    0.10    0.70
  -7  -5   5   10.00    1.90
  -7  -5   5   10.00    2.40
  -7  -5   5   13.90    4.30
  -6  -5   5    2.80    1.30
  -6  -5   5    0.50    1.80
  -6  -5   5    1.00    0.90
  -5  -5   5   53.79    4.00
  -5  -5   5   55.49    7.30
  -5  -5   5   52.79    4.60
   4   5  -5  189.18    8.80
  -4  -5   5  184.48   10.90
  -4  -5   5  180.78    7.60
  -4  -5   5  180.78    8.10
   3   5  -5    0.60    0.60
  -3  -5   5    0.80    0.80
  -3  -5   5    0.90    0.70
   2   5  -5  523.35   16.30
  -2  -5   5  506.15   16.40
  -2  -5   5  524.65   17.80
   1   5  -5   59.49    3.60
  -1  -5   5   66.79    3.90
  -1  -5   5   63.79    3.60
  -1  -5   5   77.69    4.20
  -1  -5   5   68.89    4.20
   0   5  -5   19.60    1.80
   0  -5   5   16.00    1.80
   0  -5   5   20.80    1.80
   0  -5   5   18.10    2.00
  -1   5  -5    0.50    0.30
  -1   5  -5    0.70    0.60
   1  -5   5    0.90    0.50
   1  -5   5    0.70    0.50
  -2   5  -5   -0.40    0.30
  -2   5  -5    1.00    0.60
  -2   5  -5   -0.40    0.40
   2  -5   5    0.90    0.50
   2  -5   5    0.00    0.40
  -3   5  -5   38.70    3.00
  -3   5  -5   35.20    3.00
  -3   5  -5   36.90    2.90
   3  -5   5   35.30    2.70
   3  -5   5   34.40    2.70
  -4   5  -5    1.10    0.60
  -4   5  -5    2.00    1.10
  -4   5  -5    0.90    0.70
   4  -5   5    2.10    0.80
   4  -5   5    1.00    0.60
  -5   5  -5    4.40    1.10
  -5   5  -5    3.30    1.20
  -5   5  -5    2.40    1.20
   5  -5   5    6.00    1.10
  -6   5  -5    7.20    1.50
  -6   5  -5    6.70    2.00
   6  -5   5    6.60    1.30
  -7   5  -5    2.20    1.30
   7  -5   5    5.10    1.10
  -8   5  -5   20.10    3.60
   8  -5   5   26.30    2.10
  -9   5  -5   -1.70    1.10
   9  -5   5    1.20    1.00
 -10   5  -5    0.10    1.20
  -8  -4   5    5.10    2.70
  -8  -4   5    6.50    1.30
  -8  -4   5    5.10    1.70
  -7  -4   5   48.50    6.40
  -7  -4   5   50.19    3.30
  -7  -4   5   53.59    4.60
  -6  -4   5   13.40    2.30
  -6  -4   5   13.40    3.50
  -6  -4   5   13.30    2.60
   5   4  -5  103.99    6.50
  -5  -4   5  102.69    5.80
  -5  -4   5  111.99    5.50
  -5  -4   5  111.99    8.30
  -4  -4   5   16.50    3.40
  -4  -4   5   12.60    2.00
  -4  -4   5   14.90    1.90
   3   4  -5 1215.88   33.70
  -3  -4   5 1199.78   33.40
  -3  -4   5 1226.68   32.80
  -3  -4   5 1242.98   35.70
   2   4  -5   -0.50    0.30
  -2  -4   5    1.00    0.60
  -2  -4   5   -0.10    0.40
  -2  -4   5    0.40    0.50
   1   4  -5   16.70    1.80
  -1  -4   5   18.10    1.90
  -1  -4   5   17.80    1.90
  -1  -4   5   15.30    1.60
  -1  -4   5   21.90    1.70
   0   4  -5  139.49    5.50
   0   4  -5  137.69    5.10
   0  -4   5  130.99    5.70
   0  -4   5  142.49    4.50
   0  -4   5  131.69    5.80
  -1   4  -5   70.39    3.40
  -1   4  -5   70.79    4.00
  -1   4  -5   69.49    4.00
  -1   4  -5   74.89    3.60
   1  -4   5   75.19    4.00
   1  -4   5   70.49    3.80
  -2   4  -5    0.30    0.40
  -2   4  -5    0.50    0.50
  -2   4  -5   -0.60    0.40
   2  -4   5   -0.10    0.20
   2  -4   5    0.50    0.50
  -3   4  -5    0.40    0.40
   3  -4   5   -0.50    0.20
  -4   4  -5   32.80    2.90
  -4   4  -5   35.40    3.30
  -4   4  -5   30.90    2.50
   4  -4   5   35.90    2.40
   4  -4   5   30.20    2.80
  -5   4  -5    7.60    1.60
  -5   4  -5    7.40    1.40
  -5   4  -5    7.00    1.90
   5  -4   5    6.10    1.10
  -6   4  -5   12.60    1.90
  -6   4  -5   16.70    3.10
   6  -4   5   14.90    1.50
  -7   4  -5    2.30    0.90
  -7   4  -5    2.30    1.40
   7  -4   5    2.30    0.70
  -8   4  -5   66.59    5.80
   8  -4   5   67.89    3.60
  -9   4  -5   -1.80    1.10
 -10   4  -5    0.60    1.60
  -9  -3   5    4.40    3.80
  -8  -3   5   12.60    2.80
  -7  -3   5    7.00    1.90
  -7  -3   5    7.70    1.40
   6   3  -5    0.20    0.60
  -6  -3   5    0.50    0.50
  -6  -3   5   -0.40    0.40
   5   3  -5    3.50    1.30
  -5  -3   5    7.40    1.70
  -5  -3   5    6.10    1.30
   4   3  -5  823.02   24.30
  -4  -3   5  791.52   22.10
   3   3  -5    1.80    0.80
  -3  -3   5    0.60    0.60
  -3  -3   5    1.10    0.60
  -3  -3   5    1.00    0.80
   2   3  -5  329.27   11.10
  -2  -3   5  326.37   10.80
  -2  -3   5  324.07   10.30
  -2  -3   5  332.07   10.80
   1   3  -5  150.88    6.00
   1   3  -5  149.29    6.00
  -1  -3   5  153.18    5.80
   0   3  -5  359.46   10.90
   0   3  -5  360.56   11.30
   0  -3   5  361.56   11.00
   0  -3   5  361.96   11.60
  -1   3  -5    4.40    0.90
  -1   3  -5    4.90    0.80
  -1   3  -5    6.60    1.50
   1  -3   5    4.90    1.00
   1  -3   5    2.90    0.90
  -2   3  -5  211.78    8.40
  -2   3  -5  218.58    7.50
   2  -3   5  212.68    7.20
   2  -3   5  208.58    7.90
  -3   3  -5   99.19    5.30
  -3   3  -5   93.99    4.40
   3  -3   5   96.09    4.90
   3  -3   5   96.79    4.10
  -4   3  -5   -0.10    0.40
  -4   3  -5    0.40    0.50
   4  -3   5    0.50    0.40
   4  -3   5    0.30    0.40
  -5   3  -5    7.70    1.80
   5  -3   5   10.70    1.20
  -6   3  -5    0.80    0.80
  -6   3  -5   -0.10    0.50
   6  -3   5   -0.10    0.30
  -7   3  -5   20.80    2.10
  -7   3  -5   14.30    2.80
   7  -3   5   28.20    2.10
  -8   3  -5    9.20    2.40
  -9   3  -5    5.10    2.00
 -10   3  -5   15.90    3.20
  -9  -2   5    0.70    1.00
  -8  -2   5   18.90    3.30
   7   2  -5   17.60    2.90
  -7  -2   5   23.70    3.00
   6   2  -5  143.39    7.90
  -6  -2   5  142.99    5.10
  -6  -2   5  146.29    7.40
   5   2  -5    5.60    2.00
  -5  -2   5    6.10    1.10
  -5  -2   5    7.90    1.80
   4   2  -5    6.60    1.60
  -4  -2   5    9.70    1.10
  -4  -2   5   10.20    1.80
   3   2  -5  180.48    7.40
  -3  -2   5  176.18    6.00
  -3  -2   5  170.68    7.10
   2   2  -5 1528.55   40.10
   2   2  -5 1640.04   41.30
  -2  -2   5 1599.04   39.00
  -2  -2   5 1589.44   40.80
  -2  -2   5 1603.94   39.90
   1   2  -5  371.66   11.30
   1   2  -5  386.36   11.80
  -1  -2   5  404.66   11.20
   0   2  -5   57.49    2.90
   0  -2   5   60.39    2.80
   0  -2   5   60.39    3.40
  -1   2  -5   95.29    4.00
  -1   2  -5   92.99    4.60
   1  -2   5   93.19    4.50
   1  -2   5   91.69    3.80
  -2   2  -5  111.99    5.40
  -2   2  -5  105.49    4.40
   2  -2   5  117.29    4.30
   2  -2   5  110.59    5.20
  -3   2  -5   21.90    1.80
  -3   2  -5   26.70    2.50
   3  -2   5   22.80    2.20
   3  -2   5   25.40    1.80
  -4   2  -5   16.90    1.70
  -4   2  -5   19.10    2.30
   4  -2   5   19.50    1.60
   4  -2   5   22.60    2.30
  -5   2  -5  165.18    8.20
  -5   2  -5  159.68    6.50
   5  -2   5  169.08    6.10
  -6   2  -5    4.70    1.00
  -6   2  -5    5.10    1.80
   6  -2   5    6.20    1.20
  -7   2  -5    2.10    1.30
  -8   2  -5   28.80    3.80
  -9   2  -5    2.70    2.00
 -10   2  -5   -2.40    1.20
 -10  -1   5    3.90    2.00
  -9  -1   5    0.40    0.80
  -8  -1   5    1.10    1.00
   7   1  -5   22.80    3.90
  -7  -1   5   21.70    2.70
   6   1  -5    1.20    0.90
  -6  -1   5   -0.30    0.70
  -6  -1   5   -0.30    0.30
   5   1  -5    0.40    0.50
  -5  -1   5   -0.20    0.40
  -5  -1   5    0.50    0.20
   4   1  -5  129.89    6.30
  -4  -1   5  123.09    4.10
  -4  -1   5  128.19    5.60
  -4  -1   5  127.19    6.10
   3   1  -5  544.65   16.40
   3   1  -5  515.95   14.50
  -3  -1   5  539.05   14.10
  -3  -1   5  551.14   16.10
   2   1  -5  802.42   22.00
   2   1  -5  772.92   20.60
  -2  -1   5  817.22   20.60
  -2  -1   5  780.72   20.30
  -2  -1   5  806.82   21.80
   1   1  -5    0.60    0.30
   1   1  -5    0.80    0.30
   1   1  -5    0.50    0.40
  -1  -1   5    0.30    0.30
  -1  -1   5    0.30    0.20
   0   1  -5   74.99    3.20
   0   1  -5   76.79    3.80
   0  -1   5   74.49    3.90
  -1   1  -5  198.28    7.50
  -1   1  -5  198.58    6.40
   1  -1   5  194.48    6.30
   1  -1   5  194.28    7.30
  -2   1  -5   67.19    4.00
  -2   1  -5   68.79    3.10
   2  -1   5   67.99    3.10
   2  -1   5   62.99    3.70
  -3   1  -5  280.17   10.50
  -3   1  -5  278.17    8.90
   3  -1   5  300.07    8.90
   3  -1   5  283.57   10.10
  -4   1  -5  322.37   10.20
  -4   1  -5  326.27   12.20
   4  -1   5  333.87   11.80
   4  -1   5  339.07   10.30
  -5   1  -5  160.28    6.20
  -5   1  -5  165.78    8.50
   5  -1   5  158.48    6.20
  -6   1  -5    3.50    1.50
  -7   1  -5    8.20    2.40
  -8   1  -5    8.90    2.60
  -9   1  -5   12.40    3.00
 -10   0   5    2.30    1.40
  -9   0   5    7.00    2.10
   8   0  -5    0.00    1.00
  -8   0   5    1.30    0.70
   7   0  -5    1.40    1.00
  -7   0   5    1.50    0.90
   6   0  -5   -0.50    0.40
  -6   0   5    0.90    0.90
  -6   0   5    0.30    0.70
   5   0  -5   60.49    4.20
  -5   0   5   54.79    3.80
  -5   0   5   60.19    4.10
   4   0  -5   36.10    3.00
   4   0  -5   36.40    1.80
  -4   0   5   31.30    2.70
  -4   0   5   37.10    2.70
  -4   0   5   33.70    1.50
   3   0  -5   14.70    1.30
  -3   0   5   18.00    1.70
  -3   0   5   13.60    1.50
  -3   0   5   14.20    0.90
   2   0  -5  143.99    6.00
   2   0  -5  161.48    5.00
  -2   0   5  160.18    6.10
  -2   0   5  159.68    4.90
   1   0  -5  239.98    9.30
   1   0  -5  246.18    7.20
  -1   0   5  242.38    8.70
  -1   0   5  248.98    7.20
   0   0  -5  120.39    4.40
   0   0  -5  122.19    6.10
   0   0   5  134.49    4.50
   0   0   5  126.99    5.40
  -1   0  -5   44.30    3.70
  -1   0  -5   44.70    2.30
  -1   0  -5   41.30    2.90
   1   0   5   45.50    2.30
   1   0   5   44.50    2.90
  -2   0  -5  767.22   21.70
  -2   0  -5  731.83   19.90
   2   0   5  729.03   21.10
   2   0   5  780.72   20.10
  -3   0  -5   19.80    1.60
  -3   0  -5   22.20    2.30
   3   0   5   18.50    2.00
   3   0   5   20.40    1.70
  -4   0  -5    8.50    2.00
  -4   0  -5    7.20    1.10
   4   0   5   11.10    2.10
  -5   0  -5    3.00    0.90
  -6   0  -5   72.99    5.50
  -7   0  -5    2.60    1.60
  -8   0  -5    7.00    2.00
  -9   0  -5   20.50    4.10
 -11   1   5    3.30    1.80
  -9   1   5    2.70    1.10
   8  -1  -5   26.30    4.30
  -8   1   5   17.00    2.90
   7  -1  -5    0.70    0.70
  -7   1   5    1.10    0.90
   6  -1  -5  131.99    7.00
  -6   1   5  147.99    7.10
  -6   1   5  132.89    7.00
   5  -1  -5    0.30    0.50
  -5   1   5    0.10    0.60
  -5   1   5    0.00    0.50
   4  -1  -5    0.20    0.20
   4  -1  -5    1.10    0.60
  -4   1   5    0.50    0.50
  -4   1   5    1.00    0.30
  -4   1   5    0.80    0.50
   3  -1  -5  164.38    6.50
   3  -1  -5  148.79    4.80
   3  -1  -5  149.49    6.20
  -3   1   5  166.28    6.90
  -3   1   5  170.38    6.30
  -3   1   5  155.78    4.80
   2  -1  -5  468.25   14.20
   2  -1  -5  464.55   12.20
   2  -1  -5  447.36   13.40
  -2   1   5  449.95   12.30
  -2   1   5  460.05   15.00
   1  -1  -5   61.39    4.30
   1  -1  -5   65.19    2.80
  -1   1   5   66.39    2.80
  -1   1   5   66.49    4.50
  -1   1   5   67.59    3.60
   0  -1  -5 1345.07   34.60
   0  -1  -5 1408.76   39.20
   0   1   5 1384.16   34.80
   0   1   5 1412.96   35.90
   0   1   5 1365.36   38.30
  -1  -1  -5  149.49    5.30
  -1  -1  -5  149.88    6.20
  -1  -1  -5  154.18    8.70
   1   1   5  158.28    6.10
   1   1   5  151.88    5.60
  -2  -1  -5   12.00    2.10
  -2  -1  -5   15.60    3.40
  -2  -1  -5   12.30    1.20
   2   1   5   11.60    1.40
  -3  -1  -5   17.20    1.60
  -3  -1  -5   11.60    2.70
  -3  -1  -5   18.10    2.10
   3   1   5   14.70    1.80
  -4  -1  -5  118.09    6.40
  -4  -1  -5  132.09    9.70
   4   1   5  120.69    6.10
  -5  -1  -5    9.70    3.60
  -5  -1  -5   10.40    2.30
  -6  -1  -5    3.70    2.00
  -6  -1  -5    4.80    1.80
  -7  -1  -5   13.40    2.80
  -7  -1  -5    6.00    3.20
  -8  -1  -5    2.60    2.60
  -8  -1  -5    3.90    1.80
 -11   2   5   16.20    3.40
 -10   2   5    5.90    1.80
   9  -2  -5    2.40    0.90
  -9   2   5    0.10    0.70
   8  -2  -5  129.69    7.60
  -8   2   5  129.89    7.50
   7  -2  -5    6.20    1.70
  -7   2   5    9.60    2.00
   6  -2  -5    0.30    0.60
  -6   2   5    1.10    0.90
  -6   2   5    0.50    0.80
  -6   2   5    0.10    0.40
   5  -2  -5    1.80    0.80
   5  -2  -5    1.10    0.30
  -5   2   5    0.30    0.80
   4  -2  -5   28.50    2.60
   4  -2  -5   27.30    2.40
   4  -2  -5   29.80    1.50
  -4   2   5   30.10    2.40
  -4   2   5   25.50    2.80
   3  -2  -5    0.40    0.40
   3  -2  -5    0.80    0.30
   3  -2  -5    0.40    0.50
  -3   2   5    0.90    0.70
   2  -2  -5  689.53   18.10
   2  -2  -5  695.03   21.30
   2  -2  -5  701.93   19.10
  -2   2   5  686.53   22.20
   1  -2  -5 1687.23   46.90
   1  -2  -5 1662.03   42.00
  -1   2   5 1697.33   43.10
  -1   2   5 1727.93   47.10
   0  -2  -5  421.96   17.10
   0  -2  -5  453.45   12.50
   0   2   5  436.66   16.40
   0   2   5  441.46   13.00
  -1  -2  -5   12.00    2.90
  -1  -2  -5   15.90    1.70
  -1  -2  -5   14.50    1.60
   1   2   5   14.80    1.60
  -2  -2  -5  269.57    9.00
  -2  -2  -5  287.67   10.20
  -2  -2  -5  279.27   14.40
   2   2   5  287.27    9.60
  -3  -2  -5  276.57   14.90
  -3  -2  -5  278.87   10.30
   3   2   5  254.77    9.60
  -4  -2  -5   -0.40    1.00
  -4  -2  -5   -0.50    0.60
   4   2   5   -0.20    0.60
  -5  -2  -5   49.99    6.70
  -5  -2  -5   48.10    4.10
  -6  -2  -5   33.00    7.00
  -6  -2  -5   27.30    3.40
  -7  -2  -5    0.50    0.80
  -7  -2  -5    0.60    1.60
  -8  -2  -5    1.20    2.20
 -11   3   5    6.30    2.40
 -10   3   5    3.70    1.40
   9  -3  -5    2.70    1.40
  -9   3   5    3.20    1.60
   8  -3  -5    5.30    1.70
  -8   3   5    9.60    2.30
   7  -3  -5   17.50    4.70
  -7   3   5   18.10    2.40
   6  -3  -5   58.89    4.10
  -6   3   5   63.69    4.30
  -6   3   5   63.19    4.10
  -6   3   5   61.99    5.10
   5  -3  -5   42.90    3.20
   5  -3  -5   49.99    2.10
   5  -3  -5   44.20    3.70
  -5   3   5   50.09    3.30
  -5   3   5   48.50    4.30
   4  -3  -5    1.90    0.50
   4  -3  -5    2.20    1.00
   4  -3  -5    1.80    0.70
  -4   3   5    1.70    1.10
   3  -3  -5   95.49    3.70
   3  -3  -5   85.99    5.50
   3  -3  -5   90.19    4.30
  -3   3   5   87.09    6.20
   2  -3  -5  107.49    4.10
   2  -3  -5  104.19    6.60
  -2   3   5   91.59    6.70
   1  -3  -5   25.90    1.90
   1  -3  -5   30.20    3.80
  -1   3   5   28.00    3.70
  -1   3   5   30.00    2.20
   0  -3  -5   39.30    2.50
   0   3   5   39.60    2.50
   0   3   5   43.90    4.60
  -1  -3  -5  477.65   20.50
  -1  -3  -5  493.35   14.60
  -1  -3  -5  465.65   14.00
   1   3   5  482.75   14.00
  -2  -3  -5    8.80    1.70
  -2  -3  -5    4.20    2.20
   2   3   5    9.40    1.60
  -3  -3  -5    1.40    1.50
  -3  -3  -5    3.80    1.30
   3   3   5    1.40    0.60
  -4  -3  -5   98.59    9.70
  -4  -3  -5   95.99    5.60
   4   3   5   92.89    6.10
  -5  -3  -5   20.50    2.70
  -5  -3  -5   21.90    5.80
  -6  -3  -5    7.40    2.10
  -6  -3  -5    4.40    3.00
  -7  -3  -5    0.50    1.20
  -7  -3  -5    0.50    1.90
 -11   4   5    7.50    2.30
   9  -4  -5    1.40    1.10
  -9   4   5    1.40    1.00
   8  -4  -5    0.50    0.50
  -8   4   5    0.60    0.70
   7  -4  -5    0.40    0.50
  -7   4   5   -0.20    0.40
   6  -4  -5   23.60    2.40
   6  -4  -5   22.80    1.40
   6  -4  -5   19.80    2.80
  -6   4   5   23.80    2.20
  -6   4   5   24.80    2.50
   5  -4  -5   64.99    2.80
   5  -4  -5   50.69    4.40
   5  -4  -5   63.09    3.80
  -5   4   5   60.49    5.30
   4  -4  -5   93.59    6.20
   4  -4  -5  113.99    4.90
   4  -4  -5  100.99    4.00
  -4   4   5   88.19    6.80
   3  -4  -5    0.70    0.70
   3  -4  -5    0.60    0.50
   3  -4  -5   -0.20    0.30
  -3   4   5    1.10    1.00
   2  -4  -5   90.79    6.70
   2  -4  -5   86.39    4.00
  -2   4   5   97.09    7.40
  -2   4   5   93.19    4.30
   1  -4  -5   51.79    5.60
   1  -4  -5   44.50    2.80
  -1   4   5   43.50    5.00
  -1   4   5   48.70    2.70
   0  -4  -5  891.01   31.60
   0   4   5  851.71   22.90
  -1  -4  -5  283.37   16.10
   1   4   5  301.67    9.40
  -2  -4  -5   57.89    7.10
  -2  -4  -5   51.79    3.30
   2   4   5   51.69    3.10
  -3  -4  -5    0.50    1.10
  -3  -4  -5    1.20    0.70
   3   4   5   -0.70    0.50
  -4  -4  -5   18.90    2.40
  -4  -4  -5   23.20    6.30
   4   4   5   18.40    2.20
  -5  -4  -5    0.30    1.90
  -5  -4  -5    0.90    1.10
  -6  -4  -5   -2.70    1.20
  -6  -4  -5    2.30    2.40
 -11   5   5   13.60    3.10
 -10   5   5    2.70    1.50
   9  -5  -5    2.00    1.10
  -9   5   5    1.70    1.20
   8  -5  -5   11.90    2.20
  -8   5   5   10.40    2.50
   7  -5  -5   28.60    1.60
   7  -5  -5   29.90    3.60
   7  -5  -5   28.20    2.80
  -7   5   5   27.40    2.70
  -7   5   5   33.00    3.20
   6  -5  -5   18.70    1.40
   6  -5  -5   18.70    2.10
   6  -5  -5   13.80    2.70
  -6   5   5   15.60    2.00
   5  -5  -5    0.20    0.30
   5  -5  -5    0.20    0.70
   5  -5  -5    0.80    0.50
  -5   5   5   -0.30    0.30
   4  -5  -5   20.10    3.80
   4  -5  -5   16.00    1.60
   3  -5  -5    2.80    1.40
   3  -5  -5    0.70    0.60
   2  -5  -5  124.59    8.80
  -2   5   5  139.59    5.30
   1  -5  -5  258.97   15.10
  -1   5   5  257.47    8.00
   0  -5  -5   83.49    8.20
   0   5   5   80.99    3.40
  -1  -5  -5  116.29   10.30
   1   5   5  115.59    4.40
  -2  -5  -5   40.00    7.90
   2   5   5   38.50    2.40
  -3  -5  -5    8.20    3.40
  -3  -5  -5    9.80    1.60
  -4  -5  -5   24.40    6.40
  -4  -5  -5   22.40    2.40
  -5  -5  -5    4.40    3.00
 -11   6   5    4.40    1.70
 -10   6   5   14.70    3.30
   9  -6  -5    0.70    0.90
  -9   6   5    0.70    1.10
   8  -6  -5   64.39    4.60
   8  -6  -5   66.39    2.80
   8  -6  -5   66.09    3.40
  -8   6   5   64.29    4.90
   7  -6  -5   89.29    6.90
   7  -6  -5   84.99    3.70
   7  -6  -5   90.99    5.00
  -7   6   5   90.59    5.50
   6  -6  -5   32.90    2.70
   6  -6  -5   31.70    3.90
   6  -6  -5   31.20    2.20
  -6   6   5   35.90    3.00
   5  -6  -5    5.10    1.80
   5  -6  -5    4.70    1.00
  -5   6   5    3.00    1.00
   4  -6  -5   -0.20    0.70
   4  -6  -5    0.00    0.40
  -4   6   5   -0.30    0.30
   3  -6  -5    0.00    0.40
   3  -6  -5    2.50    1.20
  -3   6   5   -0.20    0.50
  -3   6   5    0.50    0.40
   2  -6  -5   85.89    7.70
   1  -6  -5   13.00    3.50
   0  -6  -5   33.70    6.90
  -1  -6  -5   32.30    6.90
  -2  -6  -5    2.80    2.00
  -3  -6  -5    5.00    3.00
  -4  -6  -5   14.20    5.20
 -11   7   5   13.00    3.20
 -10   7   5    1.60    1.30
   9  -7  -5   -0.40    0.50
   9  -7  -5    1.10    0.60
  -9   7   5    1.10    1.20
   8  -7  -5   19.30    2.30
   8  -7  -5   18.40    2.10
   8  -7  -5   15.60    3.50
   8  -7  -5   20.60    1.60
  -8   7   5   17.20    2.90
   7  -7  -5   11.30    2.70
   7  -7  -5   19.50    2.10
  -7   7   5   17.20    2.70
   6  -7  -5    0.70    0.50
   6  -7  -5   -0.20    0.80
  -6   7   5    1.80    0.70
   5  -7  -5    0.50    0.30
   5  -7  -5   -0.40    0.70
   4  -7  -5  146.09   10.00
   4  -7  -5  141.69    5.50
  -4   7   5  145.69    5.60
   3  -7  -5   11.50    3.60
   3  -7  -5   11.60    1.30
  -3   7   5   12.90    1.10
   2  -7  -5    2.50    2.30
   1  -7  -5    4.40    2.40
   0  -7  -5   98.69    9.90
  -1  -7  -5   17.10    5.50
  -2  -7  -5   -3.10    1.70
  -3  -7  -5    9.30    4.00
  10  -8  -5   74.09    3.40
 -10   8   5   84.29    6.40
   9  -8  -5    4.40    1.20
  -9   8   5    3.80    1.30
   8  -8  -5    9.30    2.90
   8  -8  -5   13.00    2.30
  -8   8   5    6.50    1.70
   7  -8  -5    4.10    2.10
   7  -8  -5    3.00    0.90
  -7   8   5    5.60    1.50
   6  -8  -5   12.30    1.30
   6  -8  -5   13.40    3.60
  -6   8   5   14.30    2.20
   5  -8  -5    0.30    1.20
  -5   8   5   -0.10    0.50
   4  -8  -5    5.40    2.50
  -4   8   5    7.90    1.00
  -4   8   5    7.00    1.20
   3  -8  -5    1.90    1.50
   3  -8  -5    1.40    0.60
   2  -8  -5   26.30    6.10
   1  -8  -5   44.40    3.20
   1  -8  -5   52.49    7.20
   0  -8  -5    4.00    2.20
  -1  -8  -5   73.29    9.30
  -2  -8  -5   22.10    6.30
  10  -9  -5   -1.60    1.20
 -10   9   5    4.50    2.00
   9  -9  -5    9.50    2.80
   9  -9  -5   11.50    2.10
  -9   9   5   17.00    3.10
   8  -9  -5    4.80    1.60
   8  -9  -5    1.30    2.00
  -8   9   5    1.00    1.20
   7  -9  -5   23.40    4.30
   6  -9  -5    2.00    1.80
  -6   9   5   -0.20    0.70
   5  -9  -5    8.10    3.00
  -5   9   5    6.30    1.30
   4  -9  -5    0.40    1.10
   3  -9  -5    5.90    2.50
   2  -9  -5   16.80    1.70
   2  -9  -5   13.90    4.10
   1  -9  -5    0.10    1.80
   0  -9  -5   56.99    7.60
  10 -10  -5    1.30    1.40
 -10  10   5    5.80    2.20
   9 -10  -5    1.70    1.60
   9 -10  -5    0.10    1.20
  -9  10   5   -0.90    1.10
   8 -10  -5    2.60    1.60
   8 -10  -5   -1.40    1.10
  -8  10   5    0.10    1.00
   7 -10  -5    1.00    1.70
   6 -10  -5    0.10    1.20
   5 -10  -5   -0.20    1.90
   4 -10  -5   34.50    6.40
   3 -10  -5    1.10    1.70
   2 -10  -5   37.40    6.80
   1 -10  -5   -0.20    2.00
   8 -11  -5    0.00    1.40
   8 -11  -5   -2.90    1.50
   7 -11  -5    2.00    2.20
   6 -11  -5    1.10    1.60
   5 -11  -5   20.80    5.20
   4 -11  -5    1.40    2.30
   3 -12   6   10.60    2.70
   3 -12   6    6.30    1.90
   4 -12   6    9.00    2.80
   5 -12   6   19.00    3.70
   6 -12   6    2.80    1.60
  -7  12  -6    1.10    1.80
   7 -12   6   -0.10    1.10
   0 -11   6   -0.30    1.50
   1 -11   6    1.30    1.20
   1 -11   6    3.60    1.70
   2 -11   6    5.40    2.20
   2 -11   6    5.20    1.80
   3 -11   6    7.80    2.20
   3 -11   6    4.90    2.10
   4 -11   6    2.90    1.30
   5 -11   6   -1.80    0.90
  -6  11  -6   36.00    4.10
   6 -11   6   44.20    4.50
  -7  11  -6    5.30    2.50
   7 -11   6    5.60    2.00
  -8  11  -6   -2.40    1.60
   8 -11   6    1.30    1.30
  -2 -10   6    1.10    1.00
  -2 -10   6    5.30    2.10
  -1 -10   6    4.20    1.60
  -1 -10   6    4.80    1.70
   0 -10   6   -1.70    1.30
   0 -10   6    1.70    1.70
   1 -10   6    8.70    2.50
   2 -10   6   14.00    2.90
   2 -10   6    8.80    2.40
   2 -10   6   12.00    1.50
   3 -10   6   16.70    3.20
   3 -10   6   11.70    2.90
   4 -10   6    5.00    1.80
  -5  10  -6   24.70    3.20
   5 -10   6   29.10    3.50
  -6  10  -6    2.60    1.60
   6 -10   6    3.60    1.20
  -7  10  -6    3.30    1.80
   7 -10   6    2.50    1.40
  -8  10  -6    7.80    2.60
   8 -10   6   12.10    2.30
  -9  10  -6    8.60    2.90
   9 -10   6    5.10    1.60
  -3  -9   6    2.80    1.40
  -3  -9   6    1.30    1.80
  -2  -9   6   36.90    4.60
  -2  -9   6   37.10    4.40
  -1  -9   6   26.40    3.50
  -1  -9   6   32.70    4.00
   0  -9   6   35.90    3.60
   0  -9   6   34.40    2.20
   1  -9   6    1.90    0.90
   1  -9   6    1.20    0.80
   1  -9   6    0.30    0.90
  -2   9  -6   62.69    6.00
   2  -9   6   70.89    5.50
   2  -9   6   62.79    3.70
   2  -9   6   73.99    4.80
  -3   9  -6   24.70    4.30
   3  -9   6   19.20    3.40
   3  -9   6   17.00    2.30
   3  -9   6   17.50    2.50
  -4   9  -6    1.00    1.20
   4  -9   6    2.20    1.20
  -5   9  -6   14.00    2.90
   5  -9   6   12.80    2.40
  -6   9  -6   28.80    3.60
  -6   9  -6   33.20    2.30
   6  -9   6   35.50    3.50
  -7   9  -6   -0.10    1.00
   7  -9   6   -0.20    0.70
  -8   9  -6   -2.10    1.00
   8  -9   6    2.20    1.10
  -9   9  -6   -3.40    1.20
   9  -9   6    1.30    0.80
 -10   9  -6    7.50    3.00
  10  -9   6    9.40    2.00
  -4  -8   6    3.80    2.10
  -4  -8   6    7.80    2.00
  -4  -8   6    3.70    1.10
  -3  -8   6   35.20    2.60
  -3  -8   6   38.20    4.10
  -3  -8   6   37.00    5.00
  -3  -8   6   37.90    3.40
  -2  -8   6   35.80    4.10
  -2  -8   6   37.60    3.90
  -2  -8   6   28.50    2.20
  -2  -8   6   30.40    2.50
  -1  -8   6   12.40    1.60
  -1  -8   6    8.20    2.20
  -1  -8   6    9.80    2.20
   0   8  -6    5.60    1.30
   0  -8   6    4.70    1.30
   0  -8   6    4.40    1.10
   0  -8   6    4.80    1.80
  -1   8  -6    5.90    1.10
  -1   8  -6    1.70    1.50
   1  -8   6    6.30    1.60
   1  -8   6    2.30    1.20
   1  -8   6    5.90    1.80
  -2   8  -6   85.59    3.70
  -2   8  -6   84.19    6.40
   2  -8   6   83.99    4.40
   2  -8   6   93.39    5.90
   2  -8   6   88.29    5.00
  -3   8  -6    8.30    1.70
  -3   8  -6    8.30    1.00
   3  -8   6    9.40    1.60
   3  -8   6    7.20    1.60
  -4   8  -6   22.60    4.00
  -4   8  -6   20.60    3.30
  -4   8  -6   20.90    1.70
   4  -8   6   26.20    2.90
  -5   8  -6   43.90    4.30
   5  -8   6   45.10    3.70
  -6   8  -6   -0.40    0.70
  -6   8  -6   -1.60    0.90
   6  -8   6   -0.70    0.50
  -7   8  -6  132.79    8.30
   7  -8   6  131.79    6.50
  -8   8  -6   17.00    3.80
   8  -8   6   19.30    2.30
  -9   8  -6    2.50    1.70
   9  -8   6    1.50    0.80
 -10   8  -6   12.40    3.40
  10  -8   6   10.80    1.90
  -5  -7   6    0.40    0.90
  -5  -7   6    3.70    2.20
  -5  -7   6    0.00    0.90
  -4  -7   6   14.20    2.70
  -4  -7   6   16.30    2.00
  -4  -7   6   10.90    3.30
  -3  -7   6   11.00    1.90
  -3  -7   6    9.60    2.40
  -3  -7   6   14.50    2.40
  -3  -7   6   12.40    3.20
   2   7  -6   37.60    3.30
  -2  -7   6   40.60    3.80
  -2  -7   6   48.70    4.20
  -2  -7   6   36.40    3.10
   1   7  -6    1.40    0.60
  -1  -7   6    0.10    0.50
  -1  -7   6   -1.00    0.70
  -1  -7   6    1.50    0.80
   0   7  -6   36.50    2.70
   0  -7   6   36.10    3.50
   0  -7   6   36.80    2.90
   0  -7   6   38.30    2.90
  -1   7  -6    6.70    1.80
  -1   7  -6   11.00    1.30
   1  -7   6    9.50    1.60
   1  -7   6    8.60    1.30
   1  -7   6   10.00    2.30
  -2   7  -6    3.00    0.80
  -2   7  -6    2.90    1.40
   2  -7   6    2.70    1.00
   2  -7   6    2.40    1.00
   2  -7   6    1.90    0.80
  -3   7  -6    6.70    2.00
  -3   7  -6    6.00    1.10
  -3   7  -6    5.40    1.60
   3  -7   6    6.10    1.50
   3  -7   6    3.10    1.10
  -4   7  -6    8.50    1.90
  -4   7  -6   10.70    2.30
   4  -7   6   12.20    2.20
   5  -7   6    1.90    0.90
  -6   7  -6   20.50    3.60
   6  -7   6   19.40    2.20
  -7   7  -6    2.60    1.40
   7  -7   6    1.80    0.70
  -8   7  -6    3.00    2.00
   8  -7   6    2.50    0.70
   9  -7   6    5.30    1.40
 -10   7  -6    4.00    2.50
  10  -7   6    8.80    1.60
  -6  -6   6    4.70    1.50
  -6  -6   6    5.10    1.50
  -6  -6   6    3.50    2.40
  -5  -6   6   31.50    3.10
  -5  -6   6   31.70    5.80
  -5  -6   6   28.90    3.20
   4   6  -6    3.80    1.20
  -4  -6   6    3.90    1.40
  -4  -6   6    3.20    1.10
  -4  -6   6    1.60    1.60
   3   6  -6   13.50    2.40
  -3  -6   6   15.20    2.80
  -3  -6   6   13.90    3.10
   2   6  -6  192.08    8.30
  -2  -6   6  218.48    9.20
  -2  -6   6  181.28    7.90
  -2  -6   6  172.18    7.80
  -2  -6   6  193.58    8.70
   1   6  -6  754.22   22.30
  -1  -6   6  781.92   22.70
  -1  -6   6  803.42   23.70
   0   6  -6  182.68    7.10
   0  -6   6  173.88    7.30
   0  -6   6  183.98    8.40
   0  -6   6  186.48    6.70
  -1   6  -6  133.29    6.50
  -1   6  -6  136.69    5.50
   1  -6   6  134.99    5.30
   1  -6   6  133.29    6.10
   1  -6   6  133.79    6.50
  -2   6  -6   78.49    3.80
  -2   6  -6   76.49    4.90
  -2   6  -6   84.59    5.00
   2  -6   6   73.69    4.60
   2  -6   6   74.49    4.40
  -3   6  -6   25.00    2.70
  -3   6  -6   25.00    2.70
   3  -6   6   26.10    2.50
   3  -6   6   18.10    2.20
  -4   6  -6   70.39    5.00
  -4   6  -6   64.49    4.60
   4  -6   6   74.29    4.40
  -5   6  -6   39.80    3.90
  -5   6  -6   52.19    4.40
   5  -6   6   46.40    4.10
  -6   6  -6   39.00    4.20
   6  -6   6   42.40    3.00
  -7   6  -6    3.70    1.70
   7  -6   6    1.90    0.80
  -8   6  -6    0.90    1.40
   8  -6   6    1.50    0.80
   9  -6   6    7.80    1.60
 -10   6  -6   18.50    4.40
  10  -6   6   21.10    2.10
  -7  -5   6   19.50    5.10
  -7  -5   6   30.90    3.50
  -7  -5   6   25.80    2.70
  -6  -5   6   12.70    2.60
  -6  -5   6   22.70    5.00
  -6  -5   6   16.00    2.50
   5   5  -6    8.80    2.30
  -5  -5   6    8.70    1.90
  -5  -5   6    9.20    2.00
  -5  -5   6    2.90    1.90
   4   5  -6   24.00    3.70
  -4  -5   6   19.70    3.80
  -4  -5   6   19.30    2.40
   3   5  -6   13.00    2.50
  -3  -5   6   14.00    2.50
  -3  -5   6   15.00    3.00
   2   5  -6  843.72   25.20
  -2  -5   6  899.61   25.40
  -2  -5   6  947.11   25.60
  -2  -5   6  883.11   25.40
  -2  -5   6  844.32   24.90
   1   5  -6   18.00    2.00
  -1  -5   6   19.00    2.10
  -1  -5   6   21.80    2.20
   0   5  -6  309.67   10.10
   0  -5   6  301.27    8.60
   0  -5   6  301.27   10.70
   0  -5   6  289.97   10.60
  -1   5  -6   37.40    2.50
  -1   5  -6   33.10    2.90
  -1   5  -6   35.40    2.60
   1  -5   6   35.20    2.80
   1  -5   6   33.60    2.80
  -2   5  -6  127.39    6.30
  -2   5  -6  141.49    6.70
  -2   5  -6  126.49    5.70
   2  -5   6  123.69    6.00
   2  -5   6  138.99    6.10
  -3   5  -6   15.90    2.00
  -3   5  -6   14.30    1.80
  -3   5  -6   17.20    3.00
   3  -5   6   17.80    1.90
   3  -5   6   12.90    2.20
  -4   5  -6    6.00    1.40
  -4   5  -6    4.80    1.60
  -4   5  -6    3.80    1.30
   4  -5   6    5.30    1.10
  -5   5  -6  257.07   11.10
  -5   5  -6  232.78   10.30
   5  -5   6  251.87    8.80
  -6   5  -6    2.90    1.20
   6  -5   6    6.00    1.20
  -7   5  -6   18.30    3.30
   7  -5   6   28.10    2.20
  -8   5  -6    1.20    1.20
   8  -5   6    1.50    0.70
  -9   5  -6    1.60    2.80
   9  -5   6    7.50    1.50
 -10   5  -6    2.10    1.90
  -8  -4   6   18.00    1.70
  -8  -4   6   20.90    5.00
  -8  -4   6   20.10    3.70
  -7  -4   6    4.40    1.20
  -7  -4   6    6.40    2.50
  -7  -4   6    3.80    1.50
   6   4  -6   -0.80    0.50
  -6  -4   6   -0.50    0.70
  -6  -4   6    0.10    0.50
  -6  -4   6    0.80    1.70
   5   4  -6   77.09    5.60
  -5  -4   6   69.69    6.30
  -5  -4   6   73.19    4.20
  -5  -4   6   71.89    4.80
   4   4  -6  176.18    8.60
  -4  -4   6  187.28    9.60
  -4  -4   6  183.58    7.40
   3   4  -6   18.30    2.30
  -3  -4   6   15.40    1.80
  -3  -4   6   15.90    2.00
  -3  -4   6   17.20    2.30
   2   4  -6    0.40    0.40
  -2  -4   6   -0.30    0.40
  -2  -4   6   -0.10    0.40
  -2  -4   6    0.30    0.50
   1   4  -6   61.79    3.70
  -1  -4   6   58.59    3.80
  -1  -4   6   62.99    3.70
   0   4  -6  423.56   13.80
   0   4  -6  436.56   13.20
   0  -4   6  434.06   14.00
   0  -4   6  433.96   13.40
  -1   4  -6   32.90    2.70
  -1   4  -6   31.60    2.00
  -1   4  -6   31.60    2.80
   1  -4   6   32.00    2.70
   1  -4   6   33.30    2.50
  -2   4  -6    0.00    0.40
  -2   4  -6    0.70    0.70
  -2   4  -6    0.30    0.50
   2  -4   6    0.70    0.50
   2  -4   6   -0.30    0.20
  -3   4  -6   80.99    4.40
  -3   4  -6   77.59    5.00
  -3   4  -6   75.19    4.30
   3  -4   6   81.69    4.70
   3  -4   6   79.19    4.00
  -4   4  -6  223.88    8.60
  -4   4  -6  234.88    9.90
   4  -4   6  227.18    8.00
  -5   4  -6   47.40    4.20
  -5   4  -6   45.90    3.20
   5  -4   6   46.20    2.90
  -6   4  -6    3.60    1.50
   6  -4   6    4.60    1.10
  -7   4  -6   43.60    4.50
  -8   4  -6    2.10    1.30
   8  -4   6    0.00    0.50
  -9   4  -6    7.10    2.80
   9  -4   6    9.00    1.60
 -10   4  -6    8.20    3.10
  -9  -3   6    4.10    2.80
  -9  -3   6    7.20    2.30
  -8  -3   6   -1.30    1.20
   7   3  -6   22.80    3.90
  -7  -3   6   25.60    3.20
  -7  -3   6   24.60    1.80
   6   3  -6    1.70    1.00
  -6  -3   6    1.60    0.60
  -6  -3   6    1.10    0.70
   5   3  -6   40.10    3.80
  -5  -3   6   39.60    2.60
   4   3  -6   65.69    4.70
  -4  -3   6   65.39    3.50
   3   3  -6    5.60    1.50
  -3  -3   6    3.30    0.90
  -3  -3   6    5.40    1.20
  -3  -3   6    5.30    1.30
   2   3  -6   16.70    1.90
  -2  -3   6   17.80    1.60
  -2  -3   6   14.30    1.70
   1   3  -6  290.27    9.70
   1   3  -6  294.37    9.90
  -1  -3   6  274.47   10.10
  -1  -3   6  276.17    9.20
   0   3  -6   62.89    3.50
   0   3  -6   66.79    3.60
   0  -3   6   59.49    3.80
   0  -3   6   62.89    3.30
  -1   3  -6  210.68    7.80
  -1   3  -6  227.98    6.80
  -1   3  -6  216.48    8.60
   1  -3   6  217.58    7.50
   1  -3   6  220.48    8.30
  -2   3  -6   44.30    3.50
  -2   3  -6   50.79    3.10
   2  -3   6   47.80    2.80
   2  -3   6   48.90    3.40
  -3   3  -6   39.80    3.40
  -3   3  -6   37.30    3.10
   3  -3   6   39.80    3.10
   3  -3   6   43.30    2.60
  -4   3  -6   12.00    1.80
  -4   3  -6    8.50    1.80
   4  -3   6    6.40    1.10
  -5   3  -6   50.29    4.30
  -5   3  -6   51.09    3.30
   5  -3   6   49.20    2.90
  -6   3  -6   95.69    6.60
   6  -3   6   97.09    4.50
  -7   3  -6   22.80    4.20
   7  -3   6   16.30    1.80
  -8   3  -6   38.40    4.60
   8  -3   6   39.00    2.90
  -9   3  -6    2.50    1.30
 -10   3  -6    2.40    1.50
  -9  -2   6    9.40    2.60
  -8  -2   6    1.40    1.00
   7   2  -6    6.90    2.00
  -7  -2   6   10.90    2.60
   6   2  -6    4.60    1.60
  -6  -2   6    5.00    1.60
  -6  -2   6    2.70    1.00
  -6  -2   6    2.60    0.60
   5   2  -6    8.70    2.00
  -5  -2   6   10.90    1.10
  -5  -2   6   11.80    1.70
   4   2  -6   21.10    2.50
  -4  -2   6   17.30    1.70
  -4  -2   6   19.30    1.50
  -4  -2   6   18.00    2.70
   3   2  -6    0.00    0.40
  -3  -2   6    0.60    0.30
  -3  -2   6    0.40    0.30
   2   2  -6    9.50    1.10
   2   2  -6   10.80    1.90
  -2  -2   6    9.30    1.10
  -2  -2   6    9.40    1.60
   1   2  -6   14.00    1.40
  -1  -2   6   11.70    1.80
  -1  -2   6   13.30    1.30
   0   2  -6  475.05   13.10
   0   2  -6  480.55   13.80
   0  -2   6  469.25   13.40
   0  -2   6  487.05   14.90
  -1   2  -6    1.50    0.60
  -1   2  -6    0.70    0.50
   1  -2   6    1.40    0.50
   1  -2   6    0.90    0.70
  -2   2  -6  105.29    4.50
  -2   2  -6  100.49    5.50
   2  -2   6   96.29    4.10
   2  -2   6  101.19    5.10
  -3   2  -6   46.70    2.90
  -3   2  -6   48.20    3.80
   3  -2   6   54.69    2.90
   3  -2   6   50.79    3.60
  -4   2  -6   64.79    3.60
  -4   2  -6   63.79    4.60
   4  -2   6   69.59    3.50
  -5   2  -6   64.39    3.80
  -5   2  -6   63.99    5.00
   5  -2   6   75.79    3.80
  -6   2  -6    3.70    1.30
   6  -2   6    5.60    1.20
  -7   2  -6   49.50    4.90
  -8   2  -6    1.10    1.30
  -9   2  -6   -0.50    0.80
 -10  -1   6    2.00    1.50
  -9  -1   6    0.80    1.10
   8   1  -6   53.39    5.00
  -8  -1   6   45.90    4.50
   7   1  -6    1.70    1.10
  -7  -1   6    1.10    0.60
   6   1  -6   11.40    2.30
  -6  -1   6    9.60    2.00
  -6  -1   6   13.60    2.00
   5   1  -6    7.80    2.00
  -5  -1   6    7.70    0.70
  -5  -1   6    7.30    1.70
   4   1  -6   16.20    2.10
  -4  -1   6   18.10    1.20
  -4  -1   6   15.90    2.00
  -4  -1   6   17.20    1.70
   3   1  -6    4.70    1.20
   3   1  -6    6.60    1.10
  -3  -1   6    8.10    1.00
  -3  -1   6    6.40    0.80
  -3  -1   6    7.60    1.60
   2   1  -6    1.20    0.40
   2   1  -6    0.40    0.40
  -2  -1   6    2.10    0.70
  -2  -1   6    1.40    0.40
   1   1  -6   19.80    1.60
   1   1  -6   21.10    1.90
   1   1  -6   21.40    1.50
  -1  -1   6   20.70    2.10
  -1  -1   6   23.60    1.70
  -1  -1   6   22.80    1.50
   0   1  -6  191.68    6.50
   0   1  -6  194.48    7.60
   0  -1   6  194.58    7.60
   0  -1   6  186.18    6.20
  -1   1  -6  104.39    4.30
  -1   1  -6  106.39    5.70
  -1   1  -6  106.59    5.40
   1  -1   6  102.99    4.10
   1  -1   6  102.19    5.10
  -2   1  -6  406.16   13.60
  -2   1  -6  384.96   11.60
   2  -1   6  384.16   11.40
   2  -1   6  391.46   12.90
  -3   1  -6   53.89    4.00
  -3   1  -6   48.70    3.20
   3  -1   6   53.99    2.90
   3  -1   6   50.89    3.60
  -4   1  -6  254.97   10.60
  -4   1  -6  246.78    8.50
   4  -1   6  241.18    8.40
  -5   1  -6  210.88    9.90
   5  -1   6  207.88    7.70
  -6   1  -6   80.79    6.00
  -7   1  -6    2.90    1.50
  -8   1  -6    6.70    2.20
  -9   1  -6   18.90    3.80
 -10   0   6   45.00    5.10
   9   0  -6   20.10    3.60
  -9   0   6   24.10    4.00
   8   0  -6    1.90    1.30
  -8   0   6    2.50    1.20
   7   0  -6  124.69    7.50
  -7   0   6  132.59    7.40
   6   0  -6    8.00    1.90
  -6   0   6    6.50    1.70
   5   0  -6    9.80    2.00
  -5   0   6   11.40    1.60
   4   0  -6    4.50    1.30
   4   0  -6    3.90    0.80
  -4   0   6    6.20    1.50
  -4   0   6    3.70    1.00
  -4   0   6    3.80    0.60
   3   0  -6    4.90    1.10
   3   0  -6    6.30    1.20
   3   0  -6    5.80    0.90
  -3   0   6    5.30    0.60
  -3   0   6    5.40    1.30
  -3   0   6    6.10    1.30
   2   0  -6   17.80    1.60
   2   0  -6   16.50    1.30
   2   0  -6   14.30    1.70
  -2   0   6   14.80    1.10
   1   0  -6   26.40    1.70
   1   0  -6   29.20    2.50
  -1   0   6   30.20    2.70
  -1   0   6   27.30    1.70
  -1   0   6   25.90    2.30
   0   0  -6   51.29    2.60
   0   0  -6   49.90    3.90
   0   0   6   51.39    3.40
   0   0   6   52.19    2.60
  -1   0  -6  520.95   18.10
  -1   0  -6  498.95   15.80
  -1   0  -6  509.45   14.30
   1   0   6  510.65   15.60
   1   0   6  510.65   14.30
  -2   0  -6  394.96   15.70
  -2   0  -6  383.56   11.70
  -2   0  -6  398.96   13.50
   2   0   6  391.56   11.70
   2   0   6  372.46   12.70
  -3   0  -6    2.60    1.10
  -3   0  -6    3.80    0.80
   3   0   6    3.20    0.80
   3   0   6    6.50    1.30
  -4   0  -6  362.26   13.50
  -5   0  -6   48.80    4.30
  -6   0  -6    2.20    1.10
  -7   0  -6    4.90    2.00
  -8   0  -6   23.00    4.20
  -8   0  -6   17.60    5.50
 -11   1   6   29.80    4.80
 -10   1   6    1.30    1.00
   9  -1  -6   22.50    3.90
  -9   1   6   27.80    3.60
   8  -1  -6    9.80    2.30
  -8   1   6   11.50    2.30
   7  -1  -6   46.30    4.20
  -7   1   6   48.40    4.10
   6  -1  -6  225.58   14.40
  -6   1   6  217.88    9.80
   5  -1  -6   24.80    2.70
   5  -1  -6   27.90    1.50
  -5   1   6   29.90    2.90
  -5   1   6   28.40    2.80
   4  -1  -6  205.58    7.90
   4  -1  -6  198.28    6.10
   4  -1  -6  203.58    8.30
  -4   1   6  197.38    7.90
  -4   1   6  203.48    8.50
  -4   1   6  201.08    6.00
   3  -1  -6   86.79    3.30
   3  -1  -6   81.99    4.40
   3  -1  -6   83.39    4.40
  -3   1   6   86.59    5.10
  -3   1   6   83.49    3.30
   2  -1  -6  319.47    9.50
   2  -1  -6  337.17   11.50
   2  -1  -6  338.47   10.90
  -2   1   6  331.17   12.40
  -2   1   6  333.87    9.60
   1  -1  -6  359.16   10.40
   1  -1  -6  382.96   13.70
  -1   1   6  334.67   13.30
  -1   1   6  371.46   10.60
  -1   1   6  365.06   11.90
   0  -1  -6  146.59    5.30
   0  -1  -6  141.59    8.20
   0   1   6  149.88    6.30
   0   1   6  155.08    5.50
  -1  -1  -6  155.78    6.70
  -1  -1  -6  151.98    5.60
  -1  -1  -6  149.39    9.00
   1   1   6  150.08    5.80
   1   1   6  139.09    6.20
  -2  -1  -6   30.50    2.80
  -2  -1  -6   28.90    4.00
   2   1   6   29.40    2.50
  -3  -1  -6  252.27   13.60
  -3  -1  -6  257.97   10.30
   3   1   6  241.88    9.40
  -4  -1  -6   20.30    2.50
  -4  -1  -6   11.30    3.00
  -5  -1  -6    2.00    1.20
  -5  -1  -6   -0.40    1.20
  -6  -1  -6   63.19    7.80
  -6  -1  -6   49.90    4.70
  -7  -1  -6   44.80    4.70
  -7  -1  -6   47.10    9.30
  -8  -1  -6    2.90    1.80
  -8  -1  -6    3.60    3.20
 -11   2   6   -1.50    0.90
 -10   2   6    7.30    2.70
   9  -2  -6    8.20    2.20
  -9   2   6    5.30    1.90
   8  -2  -6    3.30    1.50
  -8   2   6    1.50    0.90
   7  -2  -6   27.40    3.10
  -7   2   6   21.30    2.70
   6  -2  -6  219.78    9.40
  -6   2   6  201.78    9.80
   5  -2  -6   22.00    2.50
   5  -2  -6   20.80    1.30
   5  -2  -6   24.20    2.50
  -5   2   6   22.00    2.30
  -5   2   6   18.40    2.50
   4  -2  -6   18.00    1.20
   4  -2  -6   17.90    2.10
   4  -2  -6   17.00    1.90
  -4   2   6   17.70    2.40
   3  -2  -6    0.40    0.30
   3  -2  -6    0.20    0.20
   3  -2  -6   -0.10    0.40
  -3   2   6    1.20    0.60
   2  -2  -6   88.89    5.60
   2  -2  -6   89.69    3.60
  -2   2   6   82.89    6.00
   1  -2  -6   46.70    4.50
   1  -2  -6   48.10    2.60
  -1   2   6   42.10    4.20
  -1   2   6   44.90    3.00
   0  -2  -6  153.98    9.40
   0  -2  -6  142.49    6.20
   0   2   6  155.08    6.20
   0   2   6  145.49    8.50
  -1  -2  -6   83.89    4.00
  -1  -2  -6   82.79    7.10
  -1  -2  -6   96.19    4.90
   1   2   6   92.09    4.60
  -2  -2  -6  430.06   14.30
  -2  -2  -6  423.26   19.40
   2   2   6  436.06   13.80
  -3  -2  -6   96.69    8.80
  -3  -2  -6   97.49    5.70
   3   2   6  105.59    5.40
  -4  -2  -6   12.50    2.40
  -4  -2  -6    8.70    3.10
  -5  -2  -6   17.90    3.20
  -5  -2  -6   16.40    4.70
  -6  -2  -6   28.60    3.60
  -6  -2  -6   20.50    5.70
  -7  -2  -6    8.90    3.30
  -7  -2  -6    5.60    2.10
 -11   3   6    2.80    1.70
  10  -3  -6    6.70    2.10
 -10   3   6   11.00    2.70
   9  -3  -6   50.09    4.70
  -9   3   6   51.09    4.80
   8  -3  -6   19.40    3.60
  -8   3   6   25.70    3.10
   7  -3  -6   70.89    5.10
  -7   3   6   78.39    5.30
   6  -3  -6    2.50    1.10
   6  -3  -6    1.60    0.80
   6  -3  -6    0.70    0.40
  -6   3   6    0.10    1.00
  -6   3   6    1.40    0.80
   5  -3  -6    9.50    0.90
   5  -3  -6   11.10    2.50
   5  -3  -6    7.00    1.50
  -5   3   6   11.00    1.90
  -5   3   6   11.00    2.30
   4  -3  -6   26.90    2.90
   4  -3  -6   27.40    2.40
   4  -3  -6   24.40    1.60
  -4   3   6   25.80    4.30
   3  -3  -6    1.20    1.00
   3  -3  -6    1.10    0.60
   3  -3  -6    1.10    0.50
  -3   3   6    1.40    0.80
   2  -3  -6   24.90    3.20
   2  -3  -6   25.30    1.80
  -2   3   6   28.60    3.70
   1  -3  -6   25.90    4.60
   1  -3  -6   26.60    2.00
  -1   3   6   27.50    2.30
  -1   3   6   25.50    4.40
   0  -3  -6   32.20    4.40
   0  -3  -6   25.70    2.00
   0   3   6   29.90    2.30
   0   3   6   24.40    3.60
  -1  -3  -6   16.40    4.20
   1   3   6   11.10    1.90
  -2  -3  -6  137.89    6.50
  -2  -3  -6  137.59   10.70
   2   3   6  144.99    6.30
  -3  -3  -6   79.79    8.40
  -3  -3  -6   87.19    5.20
   3   3   6   87.59    4.90
  -4  -3  -6   91.29    5.80
  -4  -3  -6   93.99    9.80
  -5  -3  -6   -0.10    1.10
  -5  -3  -6    3.80    2.50
  -6  -3  -6   14.70    5.10
  -6  -3  -6   15.90    3.00
 -11   4   6   -0.30    1.20
  10  -4  -6   49.30    4.70
 -10   4   6   46.30    4.90
   9  -4  -6    5.20    1.80
  -9   4   6    2.80    1.40
   8  -4  -6   76.79    5.40
  -8   4   6   81.79    5.70
   7  -4  -6   -0.20    0.50
  -7   4   6   -0.80    0.40
   6  -4  -6  137.19    8.30
   6  -4  -6  136.59    6.80
   6  -4  -6  138.89    4.70
  -6   4   6  155.28    7.20
  -6   4   6  144.99    6.60
   5  -4  -6  284.27   10.50
   5  -4  -6  285.57    8.70
   5  -4  -6  316.57   12.70
   4  -4  -6  122.09    5.60
   4  -4  -6  127.59    7.50
   4  -4  -6  118.39    4.60
  -4   4   6   95.09    7.50
   3  -4  -6    4.10    0.90
   3  -4  -6    6.10    1.30
   3  -4  -6    7.00    2.40
  -3   4   6    3.50    1.90
   2  -4  -6   69.19    3.60
   2  -4  -6   72.69    6.10
  -2   4   6   68.39    3.80
  -2   4   6   71.39    6.50
   1  -4  -6   12.50    3.30
  -1   4   6   12.10    1.80
   0  -4  -6  149.79   10.90
   0   4   6  162.08    6.20
  -1  -4  -6  324.87   17.80
   1   4   6  307.47   10.20
  -2  -4  -6   29.90    2.70
  -2  -4  -6   31.00    6.50
   2   4   6   31.50    2.50
  -3  -4  -6   44.10    3.50
  -3  -4  -6   32.90    6.70
   3   4   6   45.80    3.30
  -4  -4  -6    3.10    1.40
  -4  -4  -6    0.80    1.90
  -5  -4  -6    5.50    3.00
  -5  -4  -6    9.10    2.30
  -6  -4  -6   31.30    4.40
  -6  -4  -6   30.10    7.50
 -11   5   6   -1.80    0.70
  10  -5  -6    8.50    2.10
 -10   5   6    8.30    2.50
   9  -5  -6   49.30    4.30
  -9   5   6   47.90    4.60
   8  -5  -6    1.00    0.80
  -8   5   6    0.90    0.70
   7  -5  -6    3.50    1.30
   7  -5  -6    3.20    1.50
   7  -5  -6    2.30    0.60
  -7   5   6    4.30    1.50
   6  -5  -6  157.88    5.80
   6  -5  -6  165.08    9.20
   6  -5  -6  172.38    7.50
  -6   5   6  181.58    7.90
   5  -5  -6   13.80    1.40
   5  -5  -6   16.60    2.00
   5  -5  -6   10.50    2.50
   4  -5  -6    4.70    1.20
   4  -5  -6    7.10    1.30
   3  -5  -6   26.50    2.30
   2  -5  -6   79.49    7.10
  -2   5   6   70.49    3.80
   1  -5  -6   11.30    3.20
  -1   5   6   16.60    1.60
   0  -5  -6  104.09    9.40
   0   5   6   97.09    4.20
  -1  -5  -6   76.19    8.60
   1   5   6   80.79    3.80
  -2  -5  -6   60.09    7.90
   2   5   6   58.69    3.30
  -3  -5  -6    2.40    2.30
   3   5   6   -0.40    1.00
  -4  -5  -6   15.50    6.00
  -4  -5  -6   10.50    2.10
  -5  -5  -6    4.20    1.70
  -5  -5  -6    6.00    3.10
 -11   6   6   -1.90    1.00
 -10   6   6   15.40    3.30
   9  -6  -6   14.40    2.70
  -9   6   6   15.50    2.80
   8  -6  -6  293.57   11.60
   8  -6  -6  297.27   14.30
   8  -6  -6  282.07    8.70
  -8   6   6  317.67   12.70
   7  -6  -6   20.80    1.80
   7  -6  -6   21.50    2.40
   7  -6  -6   14.60    3.30
  -7   6   6   19.20    2.40
   6  -6  -6   41.50    2.70
   6  -6  -6   52.49    5.20
   6  -6  -6   47.40    3.40
  -6   6   6   47.20    3.60
   5  -6  -6   11.80    2.00
   5  -6  -6    7.80    2.50
  -5   6   6   10.70    1.90
   4  -6  -6   64.59    3.80
   4  -6  -6   65.19    6.20
   3  -6  -6   24.60    4.90
   3  -6  -6   22.40    2.10
  -3   6   6   20.00    2.00
   2  -6  -6   87.09    8.00
  -2   6   6   89.69    4.00
   1  -6  -6    3.70    2.20
  -1   6   6    4.10    1.00
   0  -6  -6  129.69   11.50
  -1  -6  -6    1.70    2.00
  -2  -6  -6   21.70    5.80
  -3  -6  -6  118.59   12.50
  -4  -6  -6    6.40    3.20
 -11   7   6   12.00    2.90
 -10   7   6   17.70    3.40
   9  -7  -6   26.80    2.20
   9  -7  -6   24.50    1.80
   9  -7  -6   29.00    3.20
  -9   7   6   28.60    3.60
   8  -7  -6    3.70    1.40
   8  -7  -6    3.50    1.80
   8  -7  -6    2.00    0.70
  -8   7   6    4.10    1.50
   7  -7  -6    3.70    1.10
   7  -7  -6    3.10    1.70
  -7   7   6    3.70    1.20
   6  -7  -6    8.50    2.60
   6  -7  -6    6.50    1.40
  -6   7   6   12.30    2.10
   5  -7  -6   69.89    6.70
   5  -7  -6   75.49    4.00
  -5   7   6   76.89    4.30
   4  -7  -6   -0.70    1.00
   4  -7  -6    1.10    0.50
  -4   7   6    0.10    0.70
  -4   7   6    0.50    0.40
   3  -7  -6   17.80    4.20
   3  -7  -6   21.10    2.10
  -3   7   6   24.00    1.70
  -3   7   6   20.10    1.80
   2  -7  -6   55.29    6.90
   1  -7  -6    2.50    1.80
   0  -7  -6   -2.70    1.10
  -1  -7  -6    9.00    3.50
  -2  -7  -6   47.20    9.40
  -3  -7  -6    1.30    3.20
 -11   8   6   -1.50    1.30
  10  -8  -6    4.30    1.10
 -10   8   6    2.40    1.50
   9  -8  -6    2.90    1.20
   9  -8  -6    4.40    2.90
  -9   8   6    7.40    2.20
   8  -8  -6    1.40    1.50
   8  -8  -6    2.40    0.90
  -8   8   6    2.00    1.20
   7  -8  -6   46.50    3.20
   7  -8  -6   48.60    5.70
  -7   8   6   60.09    4.30
   6  -8  -6    7.80    2.90
   6  -8  -6    4.40    1.10
  -6   8   6    4.60    1.30
   5  -8  -6   -0.60    0.80
   5  -8  -6   -0.70    0.50
  -5   8   6    0.90    0.60
   4  -8  -6    6.80    2.50
   4  -8  -6   10.40    1.50
  -4   8   6   10.60    1.20
  -4   8   6   11.80    1.70
   3  -8  -6    1.00    0.60
   3  -8  -6   -1.30    1.30
   2  -8  -6   25.90    5.70
   1  -8  -6   -0.70    1.10
   0  -8  -6   21.70    5.80
  -1  -8  -6   16.40    5.20
  10  -9  -6    2.10    1.20
 -10   9   6   -0.80    1.30
   9  -9  -6    1.30    1.10
   9  -9  -6   -1.70    0.70
  -9   9   6    0.10    1.00
   8  -9  -6   19.70    4.60
  -8   9   6   15.40    2.70
   7  -9  -6    7.10    2.60
  -7   9   6    5.30    1.30
   6  -9  -6    4.50    2.40
  -6   9   6    8.90    1.60
   5  -9  -6   11.70    3.30
  -5   9   6    6.40    1.50
  -5   9   6    9.50    1.20
   4  -9  -6   11.50    3.50
   3  -9  -6    5.20    3.30
   2  -9  -6   10.60    3.90
   2  -9  -6   11.90    1.80
   1  -9  -6    6.10    3.00
   0  -9  -6   17.20    5.00
   9 -10  -6   -1.30    1.50
   9 -10  -6    1.10    1.70
  -9  10   6    0.90    1.40
   8 -10  -6    3.70    2.00
  -8  10   6    5.70    1.90
   7 -10  -6    1.30    1.50
  -7  10   6   -1.40    0.90
   6 -10  -6   22.80    5.50
   5 -10  -6   -0.70    1.50
   4 -10  -6    2.10    2.00
   3 -10  -6    5.20    2.90
   2 -10  -6   12.80    4.00
   6 -11  -6    5.20    3.00
   3 -12   7    1.10    1.30
   4 -12   7   16.70    3.50
   5 -12   7    3.50    1.60
   6 -12   7   19.60    3.30
   0 -11   7    2.50    1.60
   0 -11   7   -1.70    1.10
   1 -11   7    5.50    2.20
   1 -11   7    7.50    2.00
   2 -11   7    2.50    1.80
   2 -11   7    3.80    1.50
   3 -11   7   12.60    3.00
   4 -11   7   36.30    4.20
   5 -11   7    4.80    1.70
  -6  11  -7    8.20    2.50
   6 -11   7    6.60    2.10
  -7  11  -7    1.10    1.60
   7 -11   7   -0.40    0.90
  -8  11  -7    8.30    3.60
   8 -11   7   14.40    2.70
  -2 -10   7    9.30    2.50
  -2 -10   7    9.90    2.50
  -1 -10   7   -2.20    1.20
  -1 -10   7    2.70    1.30
   0 -10   7    2.40    1.10
   0 -10   7    3.10    1.40
   1 -10   7    6.00    1.60
   1 -10   7    1.10    1.20
   1 -10   7    5.90    1.20
  -2  10  -7    3.50    2.80
   2 -10   7    7.10    1.80
   2 -10   7    8.20    1.80
   2 -10   7    3.50    1.40
   3 -10   7    2.10    1.30
   4 -10   7   49.10    4.60
  -5  10  -7   10.00    2.50
   5 -10   7   13.20    3.00
  -6  10  -7    0.20    1.10
   6 -10   7    1.40    0.90
  -7  10  -7   37.80    4.80
   7 -10   7   36.40    3.70
  -8  10  -7    2.30    1.40
   8 -10   7    2.30    1.00
  -9  10  -7   41.40    5.30
   9 -10   7   42.90    4.20
  -3  -9   7   -0.60    1.00
  -3  -9   7   -2.40    1.30
  -3  -9   7    0.30    0.90
  -2  -9   7   21.70    3.00
  -2  -9   7   18.10    1.70
  -2  -9   7   20.00    3.80
  -1  -9   7    0.60    0.80
  -1  -9   7    0.60    0.90
  -1  -9   7    0.20    1.10
   0  -9   7   20.40    3.40
   0  -9   7   18.20    2.40
   0  -9   7   14.20    1.90
  -1   9  -7    2.90    0.80
   1  -9   7    0.80    0.80
   1  -9   7    0.20    0.90
  -2   9  -7    6.50    2.30
   2  -9   7    7.20    1.80
   2  -9   7   12.80    2.20
   2  -9   7   10.00    1.70
  -3   9  -7   -0.80    1.70
   3  -9   7   -0.70    0.70
  -4   9  -7    0.20    0.50
  -4   9  -7   -0.80    1.00
   4  -9   7    1.20    1.10
  -5   9  -7    0.70    0.60
  -5   9  -7   -0.20    0.80
   5  -9   7    0.40    0.80
  -6   9  -7   20.30    2.20
  -6   9  -7   15.20    3.20
   6  -9   7   15.70    2.70
  -7   9  -7    3.60    1.60
   7  -9   7    6.40    1.80
  -8   9  -7    2.80    1.90
   8  -9   7    3.20    1.30
  -9   9  -7    4.90    2.50
   9  -9   7   11.80    2.10
  -4  -8   7    1.80    1.20
  -4  -8   7    0.70    0.80
  -3  -8   7   57.89    4.90
  -3  -8   7   52.89    4.90
  -3  -8   7   59.79    3.70
   2   8  -7    0.40    0.80
  -2  -8   7    1.40    1.10
  -2  -8   7    0.10    1.00
  -2  -8   7   -1.90    1.00
   1   8  -7    6.30    1.60
  -1  -8   7    7.70    2.20
   0   8  -7   14.90    1.70
   0  -8   7    7.00    1.90
   0  -8   7   14.10    2.10
  -1   8  -7  172.18    6.70
  -1   8  -7  174.58    8.30
   1  -8   7  158.28    7.10
   1  -8   7  169.88    6.90
   1  -8   7  178.88    8.80
  -2   8  -7   12.90    1.50
  -2   8  -7   13.80    2.80
   2  -8   7   10.10    2.00
   2  -8   7   11.10    2.20
  -3   8  -7    6.10    2.20
  -3   8  -7    8.50    1.40
   3  -8   7    6.50    1.80
  -4   8  -7   45.20    2.90
  -4   8  -7   50.09    4.30
  -4   8  -7   43.30    4.50
   4  -8   7   51.99    4.20
  -5   8  -7    2.30    1.40
   5  -8   7    0.00    0.70
  -6   8  -7   30.50    3.90
   6  -8   7   37.30    3.30
  -7   8  -7   65.99    5.90
   7  -8   7   61.59    4.20
  -8   8  -7   22.50    4.10
   8  -8   7   30.20    2.90
  -9   8  -7    3.00    2.00
   9  -8   7    5.90    1.50
 -10   8  -7   -2.10    1.70
  10  -8   7    3.40    1.30
  -5  -7   7   28.90    3.10
  -5  -7   7   25.20    5.00
  -5  -7   7   23.90    2.70
  -4  -7   7   80.59    5.60
  -4  -7   7   88.29    6.80
  -4  -7   7   76.99    5.70
   3   7  -7   -0.10    0.80
  -3  -7   7   -0.70    0.40
  -3  -7   7   -0.10    0.90
   2   7  -7   29.30    3.50
  -2  -7   7   45.80    3.90
  -2  -7   7   44.80    3.40
  -2  -7   7   31.00    3.20
   1   7  -7   38.30    3.10
  -1  -7   7   37.40    2.60
  -1  -7   7   41.60    3.80
  -1  -7   7   33.30    3.00
   0   7  -7   15.10    1.90
   0  -7   7   15.40    1.60
   0  -7   7   16.30    3.00
   0  -7   7   18.40    3.00
  -1   7  -7   13.60    1.70
  -1   7  -7   17.60    2.20
   1  -7   7   12.40    2.10
   1  -7   7   21.70    2.20
  -2   7  -7   13.20    2.50
  -2   7  -7   13.90    1.60
   2  -7   7   12.40    2.00
   2  -7   7    8.50    1.70
  -3   7  -7   65.89    4.90
  -3   7  -7   71.69    5.10
  -3   7  -7   66.89    3.80
   3  -7   7   64.29    4.50
  -4   7  -7    9.50    2.70
  -4   7  -7   12.10    2.70
   4  -7   7    9.50    2.00
  -5   7  -7    0.20    0.60
   5  -7   7    0.50    0.60
  -6   7  -7    0.20    0.90
   6  -7   7    0.10    0.60
  -7   7  -7   56.29    5.40
   7  -7   7   49.90    3.60
  -8   7  -7   -1.10    1.20
   8  -7   7    0.50    0.50
  -9   7  -7   10.10    2.80
   9  -7   7   11.70    2.00
 -10   7  -7    4.40    2.20
  10  -7   7    1.10    1.00
  -6  -6   7   76.09    5.00
  -6  -6   7   72.39    7.30
  -6  -6   7   71.59    5.20
  -5  -6   7   14.10    2.60
  -5  -6   7   10.80    2.20
  -5  -6   7    9.40    3.00
   4   6  -7    7.40    1.80
  -4  -6   7    5.50    1.60
  -4  -6   7    6.20    2.20
  -4  -6   7    4.30    1.40
   3   6  -7   97.79    5.90
  -3  -6   7   86.19    5.40
  -3  -6   7   87.69    5.60
   2   6  -7  419.86   15.40
  -2  -6   7  531.75   14.80
  -2  -6   7  479.35   16.00
  -2  -6   7  439.46   15.60
   1   6  -7  389.96   13.60
  -1  -6   7  463.15   14.70
  -1  -6   7  385.76   14.30
   0   6  -7   84.99    4.50
   0  -6   7   77.39    4.90
  -1   6  -7   69.59    3.90
  -1   6  -7   67.29    3.90
   1  -6   7   79.39    4.70
   1  -6   7   68.69    4.40
  -2   6  -7  183.98    7.90
  -2   6  -7  183.08    7.10
  -2   6  -7  188.98    8.60
   2  -6   7  183.88    8.00
   2  -6   7  179.28    7.90
  -3   6  -7   22.30    2.90
  -3   6  -7   24.40    2.60
   3  -6   7   28.10    2.60
  -4   6  -7   -0.10    0.70
  -5   6  -7   59.99    5.10
   5  -6   7   54.99    3.70
  -6   6  -7    3.20    1.60
   6  -6   7    5.50    1.20
  -7   6  -7    2.50    1.40
   7  -6   7    3.30    1.00
  -8   6  -7    6.50    2.20
   8  -6   7   12.10    1.80
  -9   6  -7   17.50    3.60
   9  -6   7   20.20    2.20
 -10   6  -7    4.40    1.90
  10  -6   7   -1.40    0.90
  -7  -5   7   30.70    3.60
  -7  -5   7   26.30    2.60
  -7  -5   7   33.50    6.20
   6   5  -7    1.10    1.10
  -6  -5   7    2.20    0.90
  -6  -5   7    3.20    2.10
  -6  -5   7    4.80    1.20
   5   5  -7   23.90    3.90
  -5  -5   7   18.80    2.30
  -5  -5   7   19.80    3.90
  -5  -5   7   24.40    2.70
   4   5  -7   41.70    3.90
  -4  -5   7   36.80    3.90
  -3  -5   7   61.79    4.10
  -3  -5   7   56.69    4.00
   2   5  -7  173.18    7.70
  -2  -5   7  153.28    5.70
  -2  -5   7  160.58    7.10
  -2  -5   7  162.58    7.60
  -2  -5   7  180.78    7.50
   1   5  -7   -0.10    0.40
  -1  -5   7    1.30    0.90
   0   5  -7  153.68    6.60
   0  -5   7  142.99    6.60
   0  -5   7  160.78    7.40
  -1   5  -7   15.00    1.80
  -1   5  -7   14.90    1.50
   1  -5   7   12.60    2.50
   1  -5   7   13.80    2.20
  -2   5  -7   52.59    3.30
  -2   5  -7   55.49    4.20
   2  -5   7   51.19    3.50
   2  -5   7   56.49    3.90
  -3   5  -7  103.09    5.20
  -3   5  -7  104.99    6.30
   3  -5   7  103.79    5.10
   3  -5   7  101.89    6.80
   4  -5   7    1.10    0.60
  -5   5  -7    0.50    0.70
   5  -5   7    0.50    0.50
  -6   5  -7   11.20    2.40
   6  -5   7   13.40    1.60
  -7   5  -7   38.20    4.50
   7  -5   7   47.80    3.20
  -8   5  -7   41.90    5.10
   8  -5   7   37.10    2.90
  -9   5  -7    3.30    1.90
   9  -5   7    3.50    1.10
 -10   5  -7    4.40    2.50
  -8  -4   7   41.00    7.10
  -8  -4   7   37.80    4.30
  -8  -4   7   37.40    2.30
  -7  -4   7    0.70    0.90
  -7  -4   7   -2.40    1.20
  -7  -4   7   -0.20    0.60
   6   4  -7   12.00    3.00
  -6  -4   7   11.80    3.10
  -6  -4   7   11.10    1.80
  -6  -4   7   12.00    2.40
   5   4  -7   66.39    5.30
  -5  -4   7   71.29    5.80
  -5  -4   7   65.99    3.90
   4   4  -7    7.00    1.80
  -4  -4   7   11.80    1.90
  -4  -4   7    7.40    2.00
   3   4  -7   31.50    3.10
  -3  -4   7   28.40    2.40
  -3  -4   7   30.50    2.50
   2   4  -7   89.09    5.10
  -2  -4   7   90.29    4.60
   1   4  -7    8.20    1.50
   1   4  -7    7.00    1.60
  -1  -4   7    9.50    1.80
  -1  -4   7    8.90    1.80
   0   4  -7  125.29    6.00
   0   4  -7  133.19    5.90
   0  -4   7  125.89    6.40
   0  -4   7  128.49    5.70
  -1   4  -7   19.70    1.40
  -1   4  -7   16.40    1.90
   1  -4   7   18.00    2.90
   1  -4   7   21.90    2.00
  -2   4  -7   89.79    5.40
  -2   4  -7   93.39    4.90
  -2   4  -7   89.29    4.10
   2  -4   7   89.19    4.40
   2  -4   7   88.49    5.10
  -3   4  -7    4.00    1.10
  -3   4  -7    3.60    1.10
   3  -4   7    2.40    0.70
   3  -4   7    1.80    0.90
  -4   4  -7   20.00    4.60
   4  -4   7   16.10    1.70
  -5   4  -7    9.10    2.00
   5  -4   7    9.50    1.60
  -6   4  -7   73.29    5.90
   6  -4   7   80.19    4.20
  -7   4  -7    2.80    1.90
   7  -4   7    3.60    1.10
  -8   4  -7    3.60    1.80
   8  -4   7    2.80    1.00
  -9   4  -7   13.90    3.50
   9  -4   7   17.30    2.40
  -9  -3   7   42.10    6.20
  -9  -3   7   57.09    5.50
  -8  -3   7    1.80    1.20
   7   3  -7   29.70    3.80
  -7  -3   7   27.30    1.90
  -7  -3   7   28.10    3.30
   6   3  -7   26.00    3.40
  -6  -3   7   21.70    2.80
  -6  -3   7   22.70    1.90
  -6  -3   7   26.60    3.00
   5   3  -7    8.20    2.20
  -5  -3   7    7.30    1.50
  -5  -3   7    7.00    1.30
  -4  -3   7    3.40    0.90
  -4  -3   7    5.40    1.20
   3   3  -7   34.30    3.20
  -3  -3   7   35.70    2.00
  -3  -3   7   36.60    2.50
  -3  -3   7   35.80    2.50
  -3  -3   7   31.60    2.90
   2   3  -7   40.90    2.90
   2   3  -7   43.30    3.30
  -2  -3   7   42.70    2.70
   1   3  -7  297.37   10.40
   1   3  -7  319.37   10.80
  -1  -3   7  296.97   11.10
  -1  -3   7  316.87   10.00
   0   3  -7   14.60    1.70
   0   3  -7   15.40    1.70
   0  -3   7   16.10    1.60
   0  -3   7   11.90    2.10
  -1   3  -7    2.30    1.10
   1  -3   7    4.50    1.30
   1  -3   7    2.30    0.70
  -2   3  -7  147.89    7.20
  -2   3  -7  135.89    6.00
   2  -3   7  134.59    5.50
   2  -3   7  139.59    6.60
  -3   3  -7    8.70    1.80
  -3   3  -7    9.40    1.60
   3  -3   7    8.50    1.80
   3  -3   7    8.50    1.30
  -4   3  -7   81.19    7.50
   4  -3   7   95.79    4.40
  -5   3  -7   32.10    3.60
   5  -3   7   30.80    2.40
  -6   3  -7    0.60    0.80
   6  -3   7    0.80    0.50
  -7   3  -7    3.80    1.80
   7  -3   7    6.50    1.40
  -8   3  -7   26.10    4.60
   8  -3   7   25.40    2.50
  -9   3  -7    0.80    1.70
  -9  -2   7    0.90    1.00
   8   2  -7   72.39    6.30
  -8  -2   7   69.09    5.70
   7   2  -7    7.80    2.20
  -7  -2   7   12.20    2.50
   6   2  -7   13.30    2.50
  -6  -2   7   16.80    2.20
  -6  -2   7   17.50    1.30
   5   2  -7   81.29    5.50
  -5  -2   7   71.59    4.30
  -5  -2   7   77.69    3.30
   4   2  -7   87.69    5.40
  -4  -2   7   88.19    3.70
  -4  -2   7   82.29    4.10
   3   2  -7    4.40    1.10
   3   2  -7    7.40    1.70
  -3  -2   7    6.00    0.90
  -3  -2   7    5.50    1.10
  -3  -2   7    5.80    1.30
   2   2  -7   35.10    2.40
   2   2  -7   35.20    2.90
  -2  -2   7   34.80    2.20
   1   2  -7    3.90    0.90
   1   2  -7    1.20    0.60
  -1  -2   7    3.00    0.80
  -1  -2   7    2.70    1.10
   0   2  -7  195.48    6.90
   0   2  -7  187.58    7.00
   0  -2   7  190.98    8.10
   0  -2   7  199.08    6.80
  -1   2  -7    3.80    1.10
  -1   2  -7    4.30    1.10
  -1   2  -7    1.90    0.90
   1  -2   7    2.80    1.10
   1  -2   7    3.30    0.80
  -2   2  -7   91.09    5.50
  -2   2  -7   87.39    4.40
   2  -2   7   91.89    5.10
  -3   2  -7   88.69    4.40
  -3   2  -7   84.49    5.60
   3  -2   7   86.99    4.10
   3  -2   7   84.39    5.00
   4  -2   7   27.90    2.20
  -5   2  -7   15.70    3.10
  -6   2  -7    2.20    1.00
   6  -2   7    1.10    0.60
  -7   2  -7  106.99    7.70
  -8   2  -7    1.80    1.50
  -9   2  -7    4.10    2.00
 -10  -1   7   -0.70    1.60
   9   1  -7   60.09    5.80
  -9  -1   7   68.89    5.90
   8   1  -7    4.40    1.90
  -8  -1   7    4.90    1.70
   7   1  -7   10.50    2.80
  -7  -1   7   12.30    2.80
   6   1  -7   33.50    3.70
  -6  -1   7   34.60    3.60
  -6  -1   7   40.60    1.70
   5   1  -7   28.70    3.10
  -5  -1   7   25.70    2.50
  -5  -1   7   24.80    1.50
   4   1  -7   23.90    1.90
   4   1  -7   29.10    3.00
  -4  -1   7   24.30    1.50
  -4  -1   7   29.90    2.80
  -4  -1   7   29.00    2.30
   3   1  -7   27.80    2.70
   3   1  -7   28.20    2.00
  -3  -1   7   33.00    1.80
  -3  -1   7   27.10    2.20
   2   1  -7  366.46   12.20
   2   1  -7  349.17   10.90
   2   1  -7  379.36   10.20
  -2  -1   7  374.96   10.50
  -2  -1   7  348.87   11.10
   1   1  -7   97.59    4.30
   1   1  -7   94.19    4.20
   1   1  -7  104.49    5.00
  -1  -1   7  102.59    4.00
  -1  -1   7   96.79    5.20
   0   1  -7  641.44   19.70
   0   1  -7  659.33   18.00
   0  -1   7  652.73   19.70
   0  -1   7  652.63   17.70
  -1   1  -7  278.87    9.10
  -1   1  -7  289.37   10.80
  -1   1  -7  277.17   11.40
   1  -1   7  271.77   10.30
   1  -1   7  293.97    9.00
  -2   1  -7   80.29    3.90
  -2   1  -7   76.19    5.70
  -2   1  -7   70.39    4.70
   2  -1   7   79.49    3.80
   2  -1   7   75.89    4.60
  -3   1  -7   -0.40    0.30
  -3   1  -7   -0.50    0.50
   3  -1   7   -0.30    0.30
   3  -1   7    0.20    0.70
  -4   1  -7    4.90    1.90
   4  -1   7    3.10    0.90
  -5   1  -7   60.99    5.10
   5  -1   7   71.59    4.00
  -6   1  -7   97.79    6.90
  -7   1  -7   15.10    3.70
 -10   0   7   52.59    5.40
   9   0  -7    1.60    1.40
  -9   0   7   -0.80    0.90
   8   0  -7   16.40    3.10
  -8   0   7   16.40    3.10
   7   0  -7   52.29    4.80
  -7   0   7   56.79    4.70
   6   0  -7    2.80    1.20
  -6   0   7    1.40    1.20
   5   0  -7   17.40    1.40
   5   0  -7   17.10    2.80
  -5   0   7   17.90    1.10
  -5   0   7   13.10    1.90
   4   0  -7   24.60    2.60
   4   0  -7   25.70    1.70
  -4   0   7   23.90    2.50
  -4   0   7   25.70    2.50
  -4   0   7   24.40    1.50
   3   0  -7   44.80    2.70
   3   0  -7   38.30    2.30
   3   0  -7   39.40    3.10
  -3   0   7   38.70    2.00
  -3   0   7   39.30    3.10
   2   0  -7   15.10    1.60
   2   0  -7   14.00    1.30
   2   0  -7   12.40    1.60
  -2   0   7   17.60    1.30
  -2   0   7   16.80    2.00
   1   0  -7    4.70    0.80
   1   0  -7    3.90    1.10
  -1   0   7    5.20    1.30
  -1   0   7    6.00    1.50
  -1   0   7    4.40    1.00
   0   0  -7  549.05   19.00
   0   0  -7  579.44   15.70
   0   0   7  532.45   17.10
   0   0   7  571.74   15.60
  -1   0  -7   66.79    3.40
  -1   0  -7   69.39    5.60
  -1   0  -7   71.49    4.50
   1   0   7   67.99    3.40
   1   0   7   63.29    4.10
  -2   0  -7   13.50    2.20
  -2   0  -7   11.40    2.80
   2   0   7   10.90    1.90
  -3   0  -7   24.20    2.90
  -3   0  -7   25.30    4.70
   3   0   7   24.90    2.20
   3   0   7   21.10    3.90
  -4   0  -7  196.58    9.60
  -4   0  -7  215.08   12.90
  -5   0  -7   81.79    8.20
  -5   0  -7   74.19    5.70
  -6   0  -7   23.20    4.00
  -6   0  -7   28.00    6.50
  -7   0  -7    4.00    3.10
  -7   0  -7    3.20    1.30
  -8   0  -7    2.10    1.50
  -8   0  -7   -3.20    2.20
 -11   1   7    6.50    2.40
  10  -1  -7    7.50    2.50
 -10   1   7    4.30    1.80
   9  -1  -7    0.80    0.90
  -9   1   7    2.70    1.30
   8  -1  -7   39.20    4.20
  -8   1   7   38.30    4.00
   7  -1  -7    3.90    1.60
  -7   1   7    5.70    1.80
   6  -1  -7    1.40    1.10
  -6   1   7   -0.10    1.00
   5  -1  -7   28.00    2.90
   5  -1  -7   23.90    1.60
  -5   1   7   24.10    2.70
   4  -1  -7  227.78    7.10
   4  -1  -7  240.08    8.90
  -4   1   7  234.48    7.00
  -4   1   7  214.68    9.60
   3  -1  -7   34.20    2.00
   3  -1  -7   33.50    2.80
  -3   1   7   31.80    1.90
  -3   1   7   32.20    3.20
   2  -1  -7   89.79    4.80
   2  -1  -7   96.89    3.90
   2  -1  -7  100.89    5.50
  -2   1   7   93.79    5.90
  -2   1   7   94.29    3.90
   1  -1  -7   71.19    5.30
   1  -1  -7   79.89    3.60
  -1   1   7   79.99    4.50
  -1   1   7   79.39    5.40
  -1   1   7   81.79    3.70
   0  -1  -7   63.79    3.20
   0  -1  -7   56.99    5.20
   0   1   7   69.59    3.50
   0   1   7   62.09    3.90
  -1  -1  -7  117.09    5.00
  -1  -1  -7  120.59    6.20
  -1  -1  -7  135.99    8.80
   1   1   7  111.89    5.10
   1   1   7  121.09    5.80
  -2  -1  -7    1.90    1.10
  -2  -1  -7    4.30    1.80
   2   1   7    4.30    1.20
  -3  -1  -7   28.30    5.80
  -3  -1  -7   23.50    2.80
  -4  -1  -7   28.20    5.90
  -4  -1  -7   32.70    3.50
  -5  -1  -7   25.60    6.00
  -5  -1  -7   31.20    3.60
  -6  -1  -7   29.00    3.80
  -6  -1  -7   24.20    6.00
  -7  -1  -7    0.30    1.30
  -7  -1  -7   -3.10    1.70
 -11   2   7    2.50    1.90
  10  -2  -7   -1.40    0.80
 -10   2   7    1.00    0.90
   9  -2  -7   -0.20    0.70
  -9   2   7   -0.30    0.50
   8  -2  -7   38.90    4.10
  -8   2   7   46.80    4.40
   7  -2  -7    9.40    2.20
  -7   2   7    3.50    1.20
   6  -2  -7  257.27    7.50
  -6   2   7  256.77   11.60
   5  -2  -7   83.59    5.10
   5  -2  -7   71.59    4.80
   5  -2  -7   74.39    3.10
  -5   2   7   78.89    4.70
  -5   2   7   68.29    6.10
   4  -2  -7    6.10    1.30
   4  -2  -7    9.20    2.20
   4  -2  -7    8.40    0.90
  -4   2   7    7.80    2.00
   3  -2  -7  516.35   15.90
   3  -2  -7  508.25   17.00
   3  -2  -7  492.15   13.90
  -3   2   7  503.35   18.50
   2  -2  -7   89.89    3.90
   2  -2  -7   93.89    6.10
  -2   2   7   99.09    5.10
  -2   2   7   96.39    6.70
   1  -2  -7   81.39    6.40
   1  -2  -7   85.49    3.80
  -1   2   7   80.99    4.50
  -1   2   7   77.99    6.00
   0  -2  -7   48.30    5.20
   0  -2  -7   43.40    2.70
   0   2   7   53.99    3.50
  -1  -2  -7   65.39    4.20
  -1  -2  -7   52.19    5.90
   1   2   7   58.79    3.80
  -2  -2  -7  305.57   16.20
  -2  -2  -7  301.27   11.30
   2   2   7  280.37   10.50
  -3  -2  -7  141.09   11.30
  -3  -2  -7  146.99    7.50
  -4  -2  -7    2.20    1.10
  -4  -2  -7   -0.50    1.10
  -5  -2  -7   30.40    7.30
  -5  -2  -7   25.10    4.20
  -6  -2  -7    0.50    1.10
  -6  -2  -7    1.80    1.60
  -7  -2  -7    3.20    1.60
  -7  -2  -7    3.60    3.90
 -11   3   7   19.20    4.00
  10  -3  -7    2.00    1.20
 -10   3   7    3.20    2.10
   9  -3  -7   11.80    2.80
  -9   3   7   18.60    3.50
   8  -3  -7   12.40    2.70
  -8   3   7    8.50    2.10
   7  -3  -7   59.09    4.60
  -7   3   7   67.99    5.00
   6  -3  -7   10.80    1.00
   6  -3  -7    9.90    2.30
   6  -3  -7   12.90    2.50
   5  -3  -7   58.39    4.60
   5  -3  -7   62.89    4.30
   5  -3  -7   57.49    2.70
  -5   3   7   60.89    5.30
   4  -3  -7  122.79    4.60
   4  -3  -7  133.69    6.30
   4  -3  -7  126.19    7.10
  -4   3   7  111.39    7.80
   3  -3  -7   58.29    3.00
   3  -3  -7   59.69    4.90
   3  -3  -7   57.69    3.70
  -3   3   7   53.79    5.30
   2  -3  -7    0.50    0.40
   2  -3  -7    0.20    0.80
  -2   3   7   -0.10    0.40
  -2   3   7    0.80    1.10
   1  -3  -7   58.79    5.90
  -1   3   7   51.79    3.50
  -1   3   7   55.39    5.40
   0  -3  -7  300.07   15.60
   0   3   7  305.67   10.50
  -1  -3  -7   49.20    6.20
   1   3   7   43.80    3.20
  -2  -3  -7    0.90    1.10
  -2  -3  -7    2.40    1.10
   2   3   7   -1.00    0.60
  -3  -3  -7    3.40    2.20
  -3  -3  -7    2.90    1.10
  -4  -3  -7   62.09    8.10
  -4  -3  -7   46.50    4.20
  -5  -3  -7    4.70    1.70
  -5  -3  -7    2.30    2.90
  -6  -3  -7   20.30    6.50
  -6  -3  -7   12.40    2.80
 -11   4   7   -1.40    0.90
  10  -4  -7   14.30    3.00
 -10   4   7   10.70    3.00
   9  -4  -7    0.50    0.80
  -9   4   7    0.00    0.70
   8  -4  -7   27.90    3.20
  -8   4   7   24.40    3.10
   7  -4  -7   45.90    4.50
   7  -4  -7   42.20    2.10
   7  -4  -7   39.50    3.70
  -7   4   7   45.30    3.90
   6  -4  -7  581.14   20.50
   6  -4  -7  595.34   15.90
   6  -4  -7  595.94   19.00
   5  -4  -7    7.70    1.20
   5  -4  -7    6.60    1.70
   5  -4  -7    8.50    2.40
   4  -4  -7    2.40    0.60
   4  -4  -7    2.60    1.00
   4  -4  -7    1.60    1.00
   3  -4  -7   85.39    6.50
   3  -4  -7   81.69    4.60
   3  -4  -7   74.59    3.80
   2  -4  -7  125.59    8.70
  -2   4   7  122.39    5.80
   1  -4  -7    4.20    2.10
  -1   4   7    3.60    1.00
   0  -4  -7    6.60    3.00
   0   4   7    4.10    1.20
  -1  -4  -7   73.89    8.20
   1   4   7   76.89    4.20
  -2  -4  -7    8.90    3.20
   2   4   7   14.90    2.30
  -3  -4  -7   13.50    4.40
  -3  -4  -7   10.00    2.10
  -4  -4  -7    2.90    1.10
  -4  -4  -7    4.10    3.10
  -5  -4  -7   54.29    4.60
  -5  -4  -7   44.80    9.00
 -11   5   7    6.40    2.40
  10  -5  -7    4.70    1.50
 -10   5   7    3.50    1.60
   9  -5  -7   40.50    4.00
  -9   5   7   28.70    3.70
   8  -5  -7    6.40    1.90
   8  -5  -7    5.40    0.80
  -8   5   7    6.60    2.00
   7  -5  -7   18.80    3.80
   7  -5  -7   15.90    1.40
   7  -5  -7   19.10    3.80
  -7   5   7   14.10    2.60
   6  -5  -7   26.60    2.80
   6  -5  -7   33.10    3.90
   6  -5  -7   31.00    2.10
  -6   5   7   35.70    3.30
   5  -5  -7    0.60    0.60
   5  -5  -7   -0.50    0.30
   5  -5  -7   -0.50    0.40
   4  -5  -7  123.09    5.90
   4  -5  -7  112.89    8.00
   3  -5  -7  136.39    6.20
   3  -5  -7  138.09    9.20
  -3   5   7  120.49    5.90
   2  -5  -7    2.40    1.50
  -2   5   7    3.50    1.20
   1  -5  -7  224.08   13.90
  -1   5   7  202.58    7.70
   0  -5  -7    4.90    2.20
   0   5   7    4.00    1.00
  -1  -5  -7    0.80    1.50
   1   5   7    2.90    0.90
  -2  -5  -7    1.00    1.60
   2   5   7    2.20    0.90
  -3  -5  -7   -2.00    1.20
  -4  -5  -7   27.80    6.50
 -11   6   7    5.80    2.00
  10  -6  -7    5.10    1.60
 -10   6   7    4.70    2.10
   9  -6  -7    6.90    1.90
  -9   6   7    5.40    1.80
   8  -6  -7   13.30    1.30
   8  -6  -7   10.00    2.10
   8  -6  -7   10.60    3.10
  -8   6   7   12.20    2.50
   7  -6  -7   10.70    2.10
   7  -6  -7   17.20    3.70
   7  -6  -7   12.80    1.30
  -7   6   7   15.20    2.80
   6  -6  -7    3.00    1.70
   6  -6  -7    8.50    1.70
  -6   6   7    7.80    1.90
   5  -6  -7   67.59    4.30
   5  -6  -7   72.89    6.50
   4  -6  -7    1.10    0.60
   4  -6  -7    0.80    1.10
   3  -6  -7   -0.20    0.50
   3  -6  -7   -1.10    0.60
  -3   6   7    0.80    0.60
   2  -6  -7   24.00    5.40
  -2   6   7   19.50    1.90
   1  -6  -7   -1.20    1.20
  -1   6   7    1.90    0.70
   0  -6  -7  164.58   13.20
   0   6   7  153.18    5.60
  -1  -6  -7   24.50    6.40
   1   6   7   26.60    2.00
  -2  -6  -7   80.29   11.60
  -3  -6  -7    3.60    2.80
 -11   7   7    1.10    1.80
  10  -7  -7    0.80    1.00
 -10   7   7    2.50    1.60
   9  -7  -7    4.30    1.20
   9  -7  -7    4.60    1.20
   9  -7  -7    3.80    1.50
  -9   7   7    4.40    1.80
   8  -7  -7    1.60    1.00
   8  -7  -7    1.30    1.70
  -8   7   7    1.10    1.10
   7  -7  -7    3.90    1.90
   7  -7  -7    4.40    1.30
  -7   7   7    4.40    1.10
   6  -7  -7   36.40    4.90
   6  -7  -7   34.60    3.00
  -6   7   7   39.20    3.90
   5  -7  -7    2.00    0.80
   5  -7  -7    0.60    1.00
  -5   7   7    0.40    0.50
   4  -7  -7   -0.40    1.10
   4  -7  -7    1.00    0.60
  -4   7   7    1.60    0.90
  -4   7   7    1.10    0.60
   3  -7  -7    2.20    0.90
   3  -7  -7    1.10    1.30
  -3   7   7    2.40    0.80
  -3   7   7    2.40    0.90
   2  -7  -7   85.29    8.80
   1  -7  -7   -0.40    1.80
   0  -7  -7   62.69    8.50
  -1  -7  -7   16.90    4.80
  -2  -7  -7    2.40    2.60
  10  -8  -7   16.50    2.00
 -10   8   7   23.40    5.30
   9  -8  -7    1.20    1.20
   9  -8  -7    3.60    1.50
   9  -8  -7    0.40    1.00
  -9   8   7    3.20    1.60
   8  -8  -7    0.60    1.30
   8  -8  -7   -1.00    0.80
  -8   8   7   -0.60    1.00
   7  -8  -7   12.70    3.50
   7  -8  -7    8.80    1.80
  -7   8   7    7.80    1.80
   6  -8  -7   10.40    1.80
   6  -8  -7   14.60    3.90
  -6   8   7    7.60    1.70
   5  -8  -7    6.90    2.80
   5  -8  -7    8.30    1.50
  -5   8   7    9.50    1.60
   4  -8  -7    8.00    2.90
   4  -8  -7   13.40    1.70
  -4   8   7   12.50    1.40
  -4   8   7   11.40    1.80
   3  -8  -7   22.30    5.10
   3  -8  -7   29.40    2.70
   2  -8  -7    6.60    3.30
   1  -8  -7   29.30    6.60
   0  -8  -7   14.30    4.80
  -1  -8  -7    1.20    3.40
  10  -9  -7    5.70    1.80
 -10   9   7    2.10    2.60
   9  -9  -7    3.40    1.40
   9  -9  -7    2.00    2.00
  -9   9   7    0.40    1.10
   8  -9  -7    5.00    2.10
   8  -9  -7    7.80    1.60
  -8   9   7    2.70    1.60
   7  -9  -7   -1.00    1.00
   7  -9  -7    0.70    0.70
  -7   9   7   -0.80    0.80
   6  -9  -7   -0.30    0.50
  -6   9   7   -1.50    0.60
   5  -9  -7    9.80    4.30
  -5   9   7   10.30    1.50
  -5   9   7   10.70    2.20
   4  -9  -7   18.10    4.40
   3  -9  -7   55.89    3.40
   3  -9  -7   61.89    7.80
   2  -9  -7   12.20    3.80
   2  -9  -7    9.70    1.60
   1  -9  -7    0.90    3.10
   8 -10  -7   -0.90    1.10
  -8  10   7    0.60    1.40
   7 -10  -7    1.00    1.70
  -7  10   7   -3.20    1.10
   6 -10  -7   -1.90    1.70
   5 -10  -7    0.20    2.30
   4 -10  -7   20.30    4.90
   3 -10  -7    1.80    2.30
   4 -12   8   -0.50    1.40
   5 -12   8    0.30    1.20
   0 -11   8   22.30    3.00
   0 -11   8   33.00    5.00
   1 -11   8    4.30    1.60
   2 -11   8    0.80    1.20
   3 -11   8    4.50    1.80
   4 -11   8   -1.10    1.20
   5 -11   8    1.80    1.30
  -6  11  -8   -1.30    1.60
   6 -11   8    0.60    1.30
  -7  11  -8    0.40    1.80
   7 -11   8    1.00    1.20
  -1 -10   8   74.09    4.50
  -1 -10   8   76.49    6.30
  -1 -10   8   74.89    3.60
   0 -10   8   -1.20    0.90
   0 -10   8    1.60    1.20
   1 -10   8   -1.20    1.00
   2 -10   8    1.30    1.20
  -3  10  -8   25.10    4.80
   3 -10   8   35.90    4.00
   4 -10   8    1.90    1.20
  -5  10  -8    2.70    1.60
   5 -10   8    2.60    1.40
  -6  10  -8    9.60    1.60
  -6  10  -8   10.90    2.70
   6 -10   8   17.00    3.20
  -7  10  -8    6.50    2.70
   7 -10   8    4.30    2.40
  -8  10  -8    3.20    2.00
   8 -10   8    3.10    1.30
  -3  -9   8   29.10    4.40
  -3  -9   8   27.50    3.30
  -3  -9   8   24.00    2.40
  -2  -9   8   52.89    6.10
  -2  -9   8   46.50    3.50
  -2  -9   8   48.40    3.30
   1   9  -8    1.80    1.40
  -1  -9   8    2.30    1.10
  -1  -9   8    1.00    0.80
   0   9  -8    7.70    1.70
   0  -9   8   12.70    2.10
   0  -9   8    8.90    1.50
   0  -9   8   11.50    2.60
  -1   9  -8   29.70    2.40
   1  -9   8   28.30    4.30
  -2   9  -8    0.90    1.30
  -2   9  -8    0.80    0.70
   2  -9   8    2.50    1.40
  -3   9  -8   -2.00    1.40
  -3   9  -8    2.70    0.70
   3  -9   8    4.40    1.50
  -4   9  -8    3.80    1.80
  -4   9  -8    3.40    2.00
  -4   9  -8    6.80    1.30
   4  -9   8   10.40    2.20
  -5   9  -8   10.20    1.70
  -5   9  -8    8.40    2.40
   5  -9   8    9.50    2.20
  -6   9  -8    4.80    2.10
   6  -9   8    5.20    1.60
  -7   9  -8   -2.10    1.10
   7  -9   8   -0.80    0.70
  -8   9  -8    0.10    2.00
   8  -9   8   -0.20    0.80
  -9   9  -8    1.20    2.00
   9  -9   8    4.70    2.30
  -4  -8   8   47.00    4.40
  -4  -8   8   48.20    3.60
  -4  -8   8   36.40    4.20
   3   8  -8    2.50    1.30
  -3  -8   8    1.40    1.20
  -3  -8   8    2.60    1.40
   2   8  -8    3.00    1.30
  -2  -8   8    3.10    1.50
  -2  -8   8    3.60    1.10
   1   8  -8   70.09    4.50
  -1  -8   8   67.49    5.20
  -1  -8   8   46.40    5.10
   0   8  -8  328.77   11.30
   0  -8   8  305.87   12.60
   0  -8   8  279.67   12.20
  -1   8  -8  128.29    5.90
   1  -8   8  124.09    7.20
  -2   8  -8    6.80    2.00
  -2   8  -8    5.50    1.20
   2  -8   8    7.80    2.10
  -3   8  -8   12.20    1.90
  -3   8  -8    8.50    2.10
   3  -8   8   11.90    2.20
  -4   8  -8   28.50    3.40
  -4   8  -8   25.40    2.40
  -4   8  -8   21.40    3.10
   4  -8   8   23.50    2.80
  -5   8  -8    1.90    1.50
   5  -8   8    2.80    1.20
  -6   8  -8    1.60    1.20
   6  -8   8    0.50    0.70
  -7   8  -8   15.20    3.30
   7  -8   8   11.90    2.20
   8  -8   8   -0.80    0.80
  -9   8  -8    2.80    1.70
   9  -8   8    1.50    1.00
  -5  -7   8   -0.20    1.00
  -5  -7   8    2.00    1.30
  -5  -7   8    6.20    2.10
   4   7  -8    8.30    2.30
  -4  -7   8    3.00    1.50
  -4  -7   8    2.90    1.20
  -4  -7   8    5.50    1.50
   3   7  -8   25.40    2.90
  -3  -7   8   20.70    2.10
  -3  -7   8   15.80    2.70
   2   7  -8   60.99    4.60
  -2  -7   8   71.79    5.00
   1   7  -8  121.29    6.20
  -1  -7   8  100.39    7.10
  -1  -7   8  117.69    6.60
   0   7  -8  103.69    5.50
   0  -7   8   92.29    5.60
   0  -7   8  105.99    6.20
  -1   7  -8  157.18    6.90
   1  -7   8  163.98    7.90
  -2   7  -8   -1.00    0.80
  -2   7  -8    1.10    0.70
   2  -7   8    1.40    1.00
  -3   7  -8    9.40    2.10
  -3   7  -8   14.40    2.60
  -3   7  -8   13.50    2.20
   3  -7   8    8.00    1.70
  -4   7  -8   20.30    3.40
   4  -7   8   19.10    2.30
  -5   7  -8   22.00    4.20
   5  -7   8   22.80    2.40
  -6   7  -8   15.90    3.40
   6  -7   8   16.30    2.50
  -7   7  -8    8.20    2.90
   7  -7   8    6.90    1.50
  -8   7  -8    2.80    1.90
   8  -7   8    1.50    0.80
  -9   7  -8   -1.60    2.10
   9  -7   8   -2.00    0.70
  -6  -6   8    7.70    1.60
  -6  -6   8    5.20    1.50
  -6  -6   8    8.40    3.00
   5   6  -8   14.90    3.30
  -5  -6   8   11.40    2.40
  -5  -6   8   12.70    3.40
  -5  -6   8   11.60    2.40
   4   6  -8   64.79    5.10
  -4  -6   8   70.19    4.70
  -4  -6   8   60.79    4.70
   3   6  -8   42.10    3.80
  -3  -6   8   41.00    3.50
  -3  -6   8   34.30    2.50
   2   6  -8    5.70    2.00
  -2  -6   8   11.40    2.20
   1   6  -8   67.09    4.50
  -1  -6   8   67.49    4.80
  -1  -6   8   66.49    4.50
   0   6  -8   55.89    3.80
   0  -6   8   49.10    3.80
   0  -6   8   51.89    3.90
  -1   6  -8   12.30    2.10
   1  -6   8   11.30    2.10
   1  -6   8    9.40    2.00
  -2   6  -8    0.80    0.80
  -2   6  -8   -0.50    0.40
   2  -6   8    0.40    0.50
  -3   6  -8    9.30    2.30
  -3   6  -8   10.70    2.10
   3  -6   8    7.40    1.50
  -4   6  -8   49.40    4.50
  -4   6  -8   33.40    4.00
   4  -6   8   46.70    3.40
  -5   6  -8   17.40    3.30
   5  -6   8   16.50    2.60
  -6   6  -8   32.40    4.00
   6  -6   8   38.20    3.00
  -7   6  -8    0.00    1.20
   7  -6   8    1.00    0.60
  -8   6  -8    5.90    2.40
   8  -6   8    8.30    1.60
  -9   6  -8   -2.30    1.40
   9  -6   8    1.30    1.10
  -7  -5   8   20.00    3.40
  -7  -5   8   16.80    2.00
  -7  -5   8   16.10    4.10
   6   5  -8    1.80    1.00
  -6  -5   8    1.80    0.90
  -6  -5   8    1.60    0.80
  -6  -5   8    2.10    1.70
   5   5  -8   14.10    2.90
  -5  -5   8   25.60    3.50
  -5  -5   8   17.70    2.10
   4   5  -8   14.10    2.70
  -4  -5   8   12.60    1.90
  -4  -5   8   14.30    2.40
   3   5  -8    8.60    2.00
  -3  -5   8    7.30    2.10
   2   5  -8    1.20    0.70
  -2  -5   8    1.20    0.60
  -2  -5   8    1.90    1.00
   1   5  -8    4.50    1.40
  -1  -5   8    6.60    1.40
  -1  -5   8    5.40    1.50
   0   5  -8  125.69    6.20
   0  -5   8  139.19    6.30
   0  -5   8  131.59    6.80
  -1   5  -8  149.69    6.80
   1  -5   8  158.48    7.60
   1  -5   8  153.48    6.90
  -2   5  -8   45.10    4.00
  -2   5  -8   42.90    2.90
  -3   5  -8    0.30    0.60
   3  -5   8   -0.50    0.30
  -4   5  -8   18.60    3.10
  -4   5  -8   18.30    3.20
   4  -5   8   23.10    2.20
  -5   5  -8   79.19    6.20
   5  -5   8   82.39    4.50
  -6   5  -8    1.00    1.20
   6  -5   8    1.30    0.80
  -7   5  -8    8.90    2.60
   7  -5   8    8.70    1.60
  -8   5  -8    1.00    1.00
   8  -5   8    2.40    0.90
  -9   5  -8    3.70    2.00
   9  -5   8    1.50    1.00
  -8  -4   8   12.10    3.50
  -8  -4   8   11.30    3.70
   7   4  -8    9.20    2.80
  -7  -4   8   10.30    2.90
  -7  -4   8    7.60    1.80
  -7  -4   8    9.10    1.40
   6   4  -8   49.50    4.90
  -6  -4   8   49.50    3.10
  -6  -4   8   35.90    3.40
  -6  -4   8   41.20    4.00
  -6  -4   8   46.10    4.90
   5   4  -8   40.90    4.10
  -5  -4   8   39.10    4.00
  -5  -4   8   38.10    2.80
  -5  -4   8   36.60    2.90
   4   4  -8    1.70    1.00
  -4  -4   8    3.20    0.90
  -4  -4   8    2.60    0.80
  -4  -4   8    2.80    1.00
   3   4  -8   42.20    7.40
  -3  -4   8   37.40    2.90
   2   4  -8   69.19    4.60
  -2  -4   8   67.19    3.90
  -2  -4   8   62.29    4.60
   1   4  -8    1.10    0.80
   1   4  -8    4.00    1.20
  -1  -4   8    5.40    1.40
  -1  -4   8    2.50    0.70
   0   4  -8   31.10    2.70
   0   4  -8   27.00    2.70
   0  -4   8   34.20    2.60
   0  -4   8   27.20    2.90
  -1   4  -8   65.09    2.80
   1  -4   8   60.79    4.30
   1  -4   8   61.99    3.70
  -2   4  -8   13.20    2.60
  -2   4  -8   19.90    1.90
   2  -4   8   21.30    2.00
  -3   4  -8    1.00    0.90
   3  -4   8    0.50    0.50
  -4   4  -8   57.09    5.00
   4  -4   8   62.79    3.70
  -5   4  -8   21.50    3.40
   5  -4   8   33.00    2.60
  -6   4  -8   14.70    3.60
   6  -4   8   13.70    1.70
  -7   4  -8   26.70    4.40
   7  -4   8   26.30    2.40
  -8   4  -8    1.70    1.50
   8  -4   8    3.90    1.10
  -9   4  -8    3.00    1.90
  -9  -3   8    4.90    2.80
  -9  -3   8    5.80    2.10
   8   3  -8    2.90    1.30
  -8  -3   8    0.00    1.00
   7   3  -8   89.99    6.90
  -7  -3   8   94.99    3.80
  -7  -3   8   91.39    6.40
   6   3  -8    9.30    2.50
  -6  -3   8    6.10    1.90
  -6  -3   8   10.60    1.50
   5   3  -8   51.09    4.60
  -5  -3   8   53.49    3.00
  -5  -3   8   47.20    3.20
   4   3  -8    9.50    2.30
  -4  -3   8    9.60    1.60
  -4  -3   8    8.70    1.40
   3   3  -8   29.20    3.00
  -3  -3   8   28.50    2.20
   2   3  -8   30.50    2.60
   2   3  -8   23.90    2.60
  -2  -3   8   27.50    2.80
  -2  -3   8   27.30    2.20
   1   3  -8   10.70    1.70
   1   3  -8    6.70    1.40
  -1  -3   8   11.00    2.00
  -1  -3   8   10.30    1.50
   0   3  -8  355.46   11.60
   0   3  -8  348.97   11.80
   0  -3   8  323.97   12.50
   0  -3   8  343.87   10.90
  -1   3  -8    9.30    1.60
  -1   3  -8    6.70    1.70
  -1   3  -8    6.00    1.30
   1  -3   8    7.00    1.30
   1  -3   8    6.30    1.60
  -2   3  -8   68.89    4.50
  -2   3  -8   64.39    4.80
   2  -3   8   71.39    3.70
   2  -3   8   62.89    5.20
  -3   3  -8  334.27   13.30
   3  -3   8  317.77   10.60
  -4   3  -8    0.30    0.80
   4  -3   8    3.40    1.00
  -5   3  -8    5.00    2.00
   5  -3   8    3.10    1.10
  -6   3  -8   30.20    4.00
   6  -3   8   28.90    2.60
  -7   3  -8   10.60    2.90
   7  -3   8    7.80    1.50
  -8   3  -8   -0.60    1.00
   9   2  -8    1.70    1.60
  -9  -2   8   11.70    2.80
   8   2  -8   25.90    4.80
  -8  -2   8   18.60    3.70
   7   2  -8    5.10    2.00
  -7  -2   8   10.90    2.50
   6   2  -8   51.59    4.60
  -6  -2   8   41.00    3.40
  -6  -2   8   41.70    2.20
   5   2  -8    5.30    1.80
  -5  -2   8    4.10    0.90
  -5  -2   8    3.90    1.30
   4   2  -8    7.40    2.60
  -4  -2   8    9.60    1.10
  -4  -2   8   11.10    1.40
   3   2  -8    0.90    0.40
   3   2  -8    0.30    0.70
  -3  -2   8    0.80    0.40
   2   2  -8   39.80    2.80
   2   2  -8   42.60    3.40
  -2  -2   8   48.10    2.70
   1   2  -8   40.70    2.80
   1   2  -8   48.90    3.50
  -1  -2   8   40.60    3.50
  -1  -2   8   50.19    2.80
   0   2  -8   37.50    2.60
   0  -2   8   32.40    3.10
   0  -2   8   36.20    2.40
  -1   2  -8    7.20    1.40
  -1   2  -8    6.20    1.60
  -1   2  -8    6.20    1.70
   1  -2   8    7.70    1.30
   1  -2   8    7.50    1.70
  -2   2  -8  743.23   22.80
  -2   2  -8  714.93   20.60
  -2   2  -8  735.83   23.50
   2  -2   8  684.13   22.10
   2  -2   8  722.23   20.00
  -3   2  -8   34.00    3.60
   3  -2   8   32.70    2.40
  -4   2  -8   62.29    5.30
   4  -2   8   70.09    3.90
  -5   2  -8  149.69    8.80
   5  -2   8  160.08    6.70
  -6   2  -8   -2.30    0.90
   6  -2   8    0.50    0.80
  -7   2  -8   32.70    4.30
  -8   2  -8   -0.40    1.40
 -10  -1   8    1.60    1.20
   9   1  -8   15.90    3.90
  -9  -1   8   16.20    5.10
   8   1  -8   -0.90    0.60
  -8  -1   8   -0.80    0.70
   7   1  -8    0.10    0.80
  -7  -1   8    1.20    0.90
   6   1  -8   12.40    2.90
  -6  -1   8   12.40    1.00
  -6  -1   8   17.20    2.70
   5   1  -8   63.39    4.90
  -5  -1   8   63.29    4.10
  -5  -1   8   69.09    2.90
   4   1  -8   35.70    2.40
   4   1  -8   41.80    3.60
  -4  -1   8   35.20    2.00
  -4  -1   8   36.00    2.80
   3   1  -8   67.69    3.60
   3   1  -8   80.29    4.90
  -3  -1   8   76.29    3.30
  -3  -1   8   75.89    4.20
   2   1  -8   95.19    4.40
   2   1  -8  102.29    5.40
  -2  -1   8   94.79    4.60
  -2  -1   8   94.39    4.00
   1   1  -8    9.50    1.70
   1   1  -8    7.60    1.30
  -1  -1   8    8.70    1.40
  -1  -1   8    8.60    1.80
   0   1  -8  167.98    7.90
   0   1  -8  163.98    6.40
   0  -1   8  170.28    6.20
   0  -1   8  162.58    7.60
  -1   1  -8   11.00    2.30
  -1   1  -8   12.20    2.40
  -1   1  -8   13.40    1.50
   1  -1   8    7.30    1.20
   1  -1   8   11.70    2.00
  -2   1  -8    0.10    0.60
  -2   1  -8    0.90    0.60
   2  -1   8    0.30    0.30
   2  -1   8    0.40    0.80
  -3   1  -8  191.78    9.60
  -3   1  -8  188.18   10.90
   3  -1   8  184.18    8.10
  -4   1  -8   11.60    2.40
   4  -1   8   17.40    1.90
  -5   1  -8  108.69    7.30
   5  -1   8  110.19    5.60
  -6   1  -8   77.09    6.30
  -7   1  -8   56.59    5.70
  -8   1  -8   19.70    5.50
  -8   1  -8   18.40    3.70
  10   0  -8    2.70    1.60
 -10   0   8    2.50    1.40
   9   0  -8   -1.50    1.00
  -9   0   8    0.40    0.60
   8   0  -8   17.20    3.30
  -8   0   8   15.60    3.30
   7   0  -8    0.00    0.70
   6   0  -8   91.59    6.20
  -6   0   8   90.69    3.20
   5   0  -8  139.69    7.40
   5   0  -8  138.89    5.20
  -5   0   8  133.19    6.80
  -5   0   8  133.79    4.60
   4   0  -8   16.70    1.50
  -4   0   8   14.70    2.10
  -4   0   8   18.10    1.30
   3   0  -8   58.79    3.40
   3   0  -8   58.69    3.10
   3   0  -8   59.39    4.10
  -3   0   8   58.69    2.80
  -3   0   8   54.29    4.00
   2   0  -8   51.19    3.30
   2   0  -8   43.90    2.60
   2   0  -8   50.89    3.70
  -2   0   8   47.50    2.60
  -2   0   8   50.89    3.80
   1   0  -8  425.66   13.40
   1   0  -8  421.46   14.60
  -1   0   8  414.16   14.60
  -1   0   8  414.76   14.40
  -1   0   8  413.46   12.30
   0   0  -8   27.50    2.10
   0   0  -8   29.80    3.50
   0   0   8   28.20    2.10
   0   0   8   30.40    2.80
  -1   0  -8   23.30    2.00
  -1   0  -8   27.70    3.60
  -1   0  -8   29.10    3.00
   1   0   8   27.90    2.20
   1   0   8   24.60    2.70
  -2   0  -8  259.97   13.50
  -2   0  -8  280.97   11.20
   2   0   8  263.37    9.20
   2   0   8  253.57   11.70
  -3   0  -8   19.30    4.60
  -3   0  -8   23.10    5.70
   3   0   8   24.50    2.30
  -4   0  -8  166.18   11.60
  -4   0  -8  175.88    9.30
  -5   0  -8   27.30    5.80
  -5   0  -8   33.10    3.90
  -6   0  -8   14.80    3.40
  -6   0  -8    8.20    3.60
  -7   0  -8    1.90    1.60
  -7   0  -8    7.20    3.10
  10  -1  -8    6.40    2.80
 -10   1   8    4.10    1.70
   9  -1  -8   61.59    5.80
  -9   1   8   63.09    5.60
   8  -1  -8    6.70    2.20
   7  -1  -8  115.69    7.30
   6  -1  -8   58.59    2.60
   6  -1  -8   57.39    4.60
  -6   1   8   45.90    4.20
   5  -1  -8   69.69    3.20
   5  -1  -8   57.99    5.10
  -5   1   8   73.29    3.00
  -5   1   8   59.79    4.70
   4  -1  -8  235.58    9.60
   4  -1  -8  237.38    9.00
   4  -1  -8  228.48    7.40
  -4   1   8  213.18   10.10
  -4   1   8  224.48    7.20
   3  -1  -8   29.70    2.70
   3  -1  -8   28.40    2.00
  -3   1   8   25.80    3.00
  -3   1   8   30.60    2.00
   2  -1  -8  162.98    7.10
   2  -1  -8  167.48    7.90
   2  -1  -8  152.98    5.80
  -2   1   8  156.58    5.90
  -2   1   8  152.38    8.30
  -2   1   8  156.88    7.40
   1  -1  -8  184.78    9.50
   1  -1  -8  173.68    6.50
  -1   1   8  177.68    9.10
  -1   1   8  179.18    9.70
  -1   1   8  195.58    6.80
   0  -1  -8    1.50    1.10
   0  -1  -8    2.10    0.70
   0   1   8   -0.40    0.50
   0   1   8    0.90    0.60
  -1  -1  -8  200.68    8.80
  -1  -1  -8  206.98   11.80
   1   1   8  188.28    7.50
   1   1   8  187.48    8.20
  -2  -1  -8   70.59    7.30
  -2  -1  -8   69.99    4.90
  -3  -1  -8    0.30    0.90
  -3  -1  -8    1.80    1.40
  -4  -1  -8   55.79    4.90
  -4  -1  -8   57.29    7.10
  -5  -1  -8   -0.90    1.00
  -5  -1  -8    0.40    0.80
  -6  -1  -8    1.70    1.40
  -7  -1  -8    4.40    3.20
  -7  -1  -8    1.00    1.70
 -11   2   8    2.20    1.80
  10  -2  -8    5.00    2.00
   9  -2  -8    2.10    1.40
  -9   2   8    5.90    2.00
   8  -2  -8   84.99    6.30
  -8   2   8   89.99    6.40
   7  -2  -8   -0.10    0.90
   6  -2  -8    7.50    1.10
   6  -2  -8    6.30    1.80
  -6   2   8    5.10    1.60
   5  -2  -8  131.79    7.00
   5  -2  -8  130.49    4.80
   5  -2  -8  132.09    6.90
  -5   2   8  132.69    7.90
   4  -2  -8 1056.79   30.00
   4  -2  -8 1050.49   29.50
   4  -2  -8 1013.30   26.70
  -4   2   8 1003.90   32.10
   3  -2  -8    5.30    1.40
   3  -2  -8    5.30    1.00
   3  -2  -8    3.90    1.40
  -3   2   8    2.80    1.30
   2  -2  -8    4.50    1.70
   2  -2  -8    5.30    1.00
  -2   2   8    3.60    1.20
  -2   2   8    4.50    1.60
   1  -2  -8  186.58   10.60
   1  -2  -8  179.08    6.90
  -1   2   8  180.68   10.00
   0  -2  -8   49.10    5.50
   0   2   8   39.50    3.20
  -1  -2  -8   -2.00    1.00
   1   2   8    1.80    0.70
  -2  -2  -8  142.79   11.00
  -2  -2  -8  134.29    7.20
  -3  -2  -8  250.57   15.80
  -3  -2  -8  232.98   10.70
  -4  -2  -8   12.20    4.10
  -4  -2  -8    8.00    2.20
  -5  -2  -8    1.80    2.00
  -5  -2  -8    3.10    1.40
  -6  -2  -8    1.90    2.40
  -6  -2  -8    3.00    1.70
  11  -3  -8   -1.10    1.10
 -11   3   8    2.60    1.30
  10  -3  -8   -0.40    1.20
 -10   3   8    0.70    0.80
   9  -3  -8   42.00    4.40
  -9   3   8   43.30    4.60
   8  -3  -8    5.70    1.80
  -8   3   8    9.40    2.40
   7  -3  -8   90.49    6.00
   7  -3  -8   85.79    3.30
   6  -3  -8    5.60    1.00
   6  -3  -8    5.00    1.60
   6  -3  -8    4.00    1.30
   5  -3  -8   31.40    2.00
   5  -3  -8   33.30    3.20
   5  -3  -8   34.90    3.60
  -5   3   8   33.10    4.20
   4  -3  -8    7.50    1.70
   4  -3  -8    6.10    2.00
   4  -3  -8    6.50    1.10
  -4   3   8    6.10    1.70
   3  -3  -8    6.20    1.10
   3  -3  -8    8.30    1.80
   3  -3  -8   11.10    2.80
  -3   3   8    8.70    2.80
   2  -3  -8   56.39    5.40
  -2   3   8   51.89    4.60
  -2   3   8   55.49    5.70
   1  -3  -8  113.89    8.80
  -1   3   8  114.69    6.50
   0  -3  -8   16.80    4.20
   0   3   8   15.40    2.00
  -1  -3  -8   44.20    6.00
   1   3   8   39.10    3.20
  -2  -3  -8  171.48   12.90
  -3  -3  -8    0.30    0.90
  -3  -3  -8   -0.80    1.10
  -4  -3  -8    2.70    1.30
  -4  -3  -8    5.60    3.40
  -5  -3  -8   -3.10    1.40
  -5  -3  -8    0.40    1.20
  -6  -3  -8   33.80    8.40
  -6  -3  -8   32.30    4.00
  11  -4  -8   11.50    2.90
 -11   4   8   10.50    3.00
  10  -4  -8    5.80    2.30
 -10   4   8    6.90    1.90
   9  -4  -8   -0.10    0.70
  -9   4   8    1.60    1.10
   8  -4  -8   28.10    3.40
  -8   4   8   29.70    3.40
   7  -4  -8   96.89    6.20
   7  -4  -8   96.09    3.80
   7  -4  -8  100.19    6.90
   6  -4  -8   71.29    7.70
   6  -4  -8   64.39    5.40
   6  -4  -8   65.09    3.10
   5  -4  -8   11.70    1.70
   5  -4  -8   10.00    2.10
   5  -4  -8    7.70    2.10
   4  -4  -8    0.70    0.70
   4  -4  -8    1.70    1.00
   4  -4  -8    1.50    0.50
   3  -4  -8   48.10    3.60
  -3   4   8   42.80    3.50
   2  -4  -8   15.40    3.60
   1  -4  -8    1.40    1.30
  -1   4   8   -0.10    0.80
   0  -4  -8   24.70    4.90
  -1  -4  -8  141.29   11.70
   1   4   8  131.29    6.20
  -2  -4  -8    1.60    1.70
  -3  -4  -8    5.70    3.10
  -4  -4  -8   96.49    6.20
  -4  -4  -8  119.79   12.30
  -5  -4  -8   -5.10    2.10
  -5  -4  -8   -3.00    1.10
  11  -5  -8    1.20    1.30
 -11   5   8    1.30    1.00
  10  -5  -8    1.80    1.40
 -10   5   8    0.80    1.00
   9  -5  -8    1.80    0.90
  -9   5   8   -0.10    0.80
   8  -5  -8   44.50    2.30
   8  -5  -8   43.30    4.20
  -8   5   8   44.40    4.20
   7  -5  -8   28.80    3.80
   7  -5  -8   34.30    3.40
  -7   5   8   39.80    3.70
   6  -5  -8    3.90    1.40
   6  -5  -8    5.50    1.90
   6  -5  -8    6.10    1.20
   5  -5  -8   37.90    4.40
   5  -5  -8   35.60    3.20
   4  -5  -8   97.59    5.50
   4  -5  -8  109.39    8.10
   3  -5  -8    1.10    1.30
  -3   5   8    1.40    0.80
   2  -5  -8    7.60    2.90
  -2   5   8    4.90    1.30
   1  -5  -8   33.40    6.60
  -1   5   8   29.70    2.50
   0  -5  -8   54.49    7.20
   0   5   8   54.29    3.40
  -1  -5  -8   22.90    5.60
  -2  -5  -8    3.50    2.00
   2   5   8    0.70    1.40
  -3  -5  -8  101.99   11.50
  -4  -5  -8   -2.90    2.60
  11  -6  -8   -0.90    1.30
 -11   6   8    0.60    1.20
  10  -6  -8    2.50    1.40
 -10   6   8   -1.30    0.80
   9  -6  -8    7.30    1.90
  -9   6   8    5.60    1.90
   8  -6  -8    3.50    1.30
   8  -6  -8    1.30    1.20
   8  -6  -8    3.20    0.80
  -8   6   8    3.90    1.50
   7  -6  -8    4.50    2.00
  -7   6   8    3.70    1.20
   6  -6  -8    1.70    1.10
   6  -6  -8   -1.30    0.70
  -6   6   8    0.10    0.60
   5  -6  -8    1.10    1.20
   5  -6  -8    2.00    0.90
   4  -6  -8    6.60    1.60
   4  -6  -8    7.90    2.50
  -4   6   8    6.70    1.50
   3  -6  -8   17.00    4.20
   3  -6  -8   13.30    2.20
  -3   6   8    8.70    1.70
   2  -6  -8   18.40    4.20
  -2   6   8   25.00    2.40
   1  -6  -8    0.50    1.80
  -1   6   8    1.60    0.80
   0   6   8    1.70    0.80
  -1  -6  -8    8.00    3.30
   1   6   8   14.00    1.90
  -2  -6  -8   73.39    9.90
  -3  -6  -8    4.40    2.80
 -11   7   8   32.00    5.40
  10  -7  -8   17.50    3.20
 -10   7   8   17.20    3.70
   9  -7  -8   18.90    3.40
  -9   7   8   15.10    3.50
   8  -7  -8    2.50    1.50
   8  -7  -8    3.20    1.40
  -8   7   8    4.70    1.50
   7  -7  -8    1.50    1.70
   7  -7  -8    1.70    1.00
  -7   7   8    3.20    1.10
   6  -7  -8    6.10    1.50
   6  -7  -8    5.50    2.50
  -6   7   8    2.70    1.20
   5  -7  -8   14.40    2.40
   5  -7  -8   15.30    4.10
  -5   7   8   14.00    2.30
   4  -7  -8    9.90    3.40
   4  -7  -8   10.10    1.80
  -4   7   8    9.70    1.80
   3  -7  -8   30.50    6.40
   3  -7  -8   23.00    2.50
  -3   7   8   22.90    2.30
   2  -7  -8    1.60    2.40
   1  -7  -8   28.70    6.70
   0  -7  -8   45.50    8.90
  -1  -7  -8   -1.80    2.00
  10  -8  -8    3.40    1.70
  10  -8  -8    4.90    1.50
 -10   8   8    3.00    1.90
   9  -8  -8    4.00    1.40
  -9   8   8    4.20    1.90
   8  -8  -8    5.40    1.40
   8  -8  -8    6.50    2.40
  -8   8   8    5.00    1.70
   7  -8  -8    1.40    0.80
   7  -8  -8    1.60    1.50
  -7   8   8    0.40    1.00
   6  -8  -8    0.40    1.00
   6  -8  -8    1.90    1.70
  -6   8   8    1.20    0.60
   5  -8  -8   35.40    3.10
   5  -8  -8   35.00    6.60
  -5   8   8   40.70    3.00
  -5   8   8   29.10    3.40
   4  -8  -8    0.30    0.80
   4  -8  -8    0.10    1.10
  -4   8   8    0.90    0.50
  -4   8   8    1.90    1.20
   3  -8  -8    2.70    1.00
   3  -8  -8   -2.20    1.10
   2  -8  -8   22.70    5.80
   1  -8  -8    0.10    2.70
   0  -8  -8    0.10    3.10
   9  -9  -8    5.30    1.70
   9  -9  -8    3.10    2.70
  -9   9   8    9.30    2.40
   8  -9  -8   -0.10    0.90
  -8   9   8    1.50    1.50
   7  -9  -8    8.10    1.60
   7  -9  -8    4.00    2.20
  -7   9   8    7.50    1.90
   6  -9  -8   14.70    1.80
   6  -9  -8   12.30    3.90
  -6   9   8   14.50    2.20
   5  -9  -8    7.80    2.90
   5  -9  -8   12.10    1.80
  -5   9   8   12.80    1.70
   4  -9  -8    1.90    1.10
   4  -9  -8    3.30    2.70
   3  -9  -8    1.50    0.90
   3  -9  -8    0.60    1.50
   2  -9  -8   -0.30    2.60
   2  -9  -8   -0.40    1.10
   7 -10  -8    3.50    2.90
  -7  10   8    1.10    1.70
   6 -10  -8    4.00    3.00
   5 -10  -8   18.40    4.60
   1 -11   9    5.10    2.10
   2 -11   9   14.40    3.10
   3 -11   9   20.40    4.00
   4 -11   9    0.90    1.20
   5 -11   9    0.80    1.30
  -6  11  -9   -0.60    1.80
   6 -11   9    1.20    1.50
  -7  11  -9    1.40    2.10
   7 -11   9    3.70    1.30
  -1 -10   9   -0.70    1.30
   0  10  -9   11.00    2.00
   0 -10   9    7.60    2.20
  -1  10  -9   50.89    3.40
   1 -10   9   61.09    5.40
  -2  10  -9   89.29    4.30
   2 -10   9   90.49    6.70
  -3  10  -9   35.70    2.50
   3 -10   9   32.10    6.40
  -4  10  -9    5.20    1.10
   4 -10   9    1.60    1.90
  -5  10  -9    2.20    1.70
  -5  10  -9    5.40    1.30
   5 -10   9    4.50    2.10
  -6  10  -9    4.00    1.20
  -6  10  -9    0.90    1.40
   6 -10   9    2.20    1.10
  -7  10  -9    1.90    2.60
   7 -10   9    2.40    1.20
  -8  10  -9    0.50    2.40
   8 -10   9    3.40    1.30
  -3  -9   9    2.20    1.50
  -3  -9   9    4.20    1.30
   2   9  -9    1.40    1.20
  -2  -9   9    0.20    1.10
   1   9  -9   17.10    2.80
  -1  -9   9   21.10    3.80
   0   9  -9   23.60    2.60
   0  -9   9   28.70    3.50
  -1   9  -9   13.10    2.10
   1  -9   9   14.90    3.00
  -2   9  -9    6.80    1.60
  -2   9  -9    5.30    1.30
   2  -9   9    7.80    2.20
  -3   9  -9   62.89    5.30
  -3   9  -9   68.19    4.00
   3  -9   9   74.89    5.40
  -4   9  -9    4.80    2.90
  -4   9  -9    1.50    1.00
   4  -9   9    4.70    1.60
  -5   9  -9    0.70    1.20
  -5   9  -9    0.80    0.60
   5  -9   9   -1.40    0.60
  -6   9  -9    2.20    1.60
   6  -9   9    2.60    1.00
  -7   9  -9    5.60    2.10
   7  -9   9    3.30    1.40
  -8   9  -9   19.30    4.00
   8  -9   9   29.40    3.20
  -4  -8   9    1.00    1.00
  -4  -8   9   -0.90    0.70
   3   8  -9    2.80    1.20
  -3  -8   9    1.90    1.20
   2   8  -9   24.70    3.20
  -2  -8   9   26.80    3.80
   1   8  -9   17.10    2.90
  -1  -8   9   17.70    3.00
   0   8  -9   49.70    3.80
   0  -8   9   56.39    4.70
  -1   8  -9    2.20    1.00
   1  -8   9    4.40    1.30
  -2   8  -9   57.69    3.90
  -2   8  -9   67.89    4.20
   2  -8   9   65.69    4.90
  -3   8  -9    1.90    1.50
  -3   8  -9    3.00    1.00
   3  -8   9    0.90    1.00
  -4   8  -9   23.90    3.30
  -4   8  -9   22.90    4.10
  -4   8  -9   24.40    2.50
   4  -8   9   24.20    2.80
  -5   8  -9   -1.00    1.00
   5  -8   9    0.10    0.70
  -6   8  -9   37.50    4.80
   6  -8   9   44.90    3.70
  -7   8  -9    1.10    2.00
   7  -8   9    1.80    1.00
  -8   8  -9   12.90    3.50
   8  -8   9   13.10    2.20
  -9   8  -9   -0.70    1.60
   9  -8   9    0.30    1.20
   5   7  -9   -1.70    0.90
  -5  -7   9    0.90    0.90
  -5  -7   9    0.20    0.80
  -5  -7   9    2.70    1.20
   4   7  -9   -0.10    1.00
  -4  -7   9    0.30    0.80
   3   7  -9   -0.80    0.60
  -3  -7   9    0.90    0.60
   2   7  -9   24.60    2.90
  -2  -7   9   31.90    3.30
   1   7  -9   60.09    5.40
  -1  -7   9   65.79    4.80
   0   7  -9   44.40    3.50
   0  -7   9   40.30    3.70
  -1   7  -9   89.29    5.10
   1  -7   9   91.19    5.60
  -2   7  -9    6.40    1.50
   2  -7   9    5.60    1.50
  -3   7  -9   91.39    5.60
  -3   7  -9   92.89    6.50
  -3   7  -9   94.39    5.30
   3  -7   9  100.09    5.80
   4  -7   9   -0.10    0.50
  -5   7  -9    6.10    2.10
   5  -7   9    7.30    1.70
  -6   7  -9   -1.20    0.80
   6  -7   9    1.00    0.70
  -7   7  -9    1.50    1.70
   7  -7   9    7.60    1.80
  -8   7  -9   24.40    4.10
   8  -7   9   23.10    2.50
  -9   7  -9    1.50    1.70
   9  -7   9    0.30    0.90
   6   6  -9    1.50    1.40
  -6  -6   9    2.10    1.80
  -6  -6   9    1.50    1.40
  -6  -6   9    3.00    1.10
   5   6  -9    7.90    2.30
  -5  -6   9    9.40    2.20
  -5  -6   9    9.70    2.00
  -5  -6   9    8.50    1.80
   4   6  -9   29.30    3.50
  -4  -6   9   26.90    2.80
   3   6  -9   12.60    2.60
  -3  -6   9    9.90    2.00
   2   6  -9    0.80    0.90
  -2  -6   9    1.50    0.80
   1   6  -9    6.80    1.70
  -1  -6   9    4.90    1.50
   0   6  -9   58.89    4.10
   0  -6   9   53.29    4.00
  -1   6  -9   73.89    4.60
   1  -6   9   79.39    4.90
  -2   6  -9   32.00    3.00
   2  -6   9   32.70    3.00
  -3   6  -9   29.70    2.90
  -3   6  -9   37.10    3.90
   3  -6   9   33.30    3.00
  -4   6  -9   20.50    3.70
  -4   6  -9   20.50    2.80
   4  -6   9   24.40    2.50
  -5   6  -9   -0.60    0.90
   5  -6   9    0.10    0.60
  -6   6  -9   20.80    4.00
   6  -6   9   22.70    2.40
  -7   6  -9   53.79    5.80
   7  -6   9   50.59    3.70
  -8   6  -9    6.80    3.00
   8  -6   9    4.80    1.40
  -9   6  -9    9.40    2.80
   9  -6   9    6.30    1.80
   7   5  -9   52.19    5.20
  -7  -5   9   47.70    8.20
  -7  -5   9   50.69    3.20
  -7  -5   9   40.70    4.20
   6   5  -9    1.40    1.20
  -6  -5   9    1.10    0.90
  -6  -5   9    2.40    1.40
  -6  -5   9   -1.40    0.80
   5   5  -9   42.30    4.50
  -5  -5   9   44.10    2.90
  -5  -5   9   43.70    3.70
  -5  -5   9   46.70    3.40
   4   5  -9    1.80    1.00
  -4  -5   9   -0.10    0.50
   3   5  -9    7.40    1.90
  -3  -5   9   10.80    2.10
   2   5  -9   21.90    2.70
  -2  -5   9   18.50    2.10
   1   5  -9    0.20    0.40
  -1  -5   9    0.90    0.50
   0   5  -9    0.30    0.50
   0  -5   9    0.90    0.70
  -1   5  -9   59.89    4.10
   1  -5   9   57.49    3.80
  -2   5  -9  296.67   12.50
  -2   5  -9  296.87    9.70
   2  -5   9  293.87   10.60
  -3   5  -9    6.30    1.80
  -3   5  -9    8.10    1.60
   3  -5   9    7.40    1.40
  -4   5  -9   36.80    3.50
  -4   5  -9   44.50    4.60
   4  -5   9   44.00    3.20
  -5   5  -9  142.09    8.90
   5  -5   9  131.09    6.20
   6  -5   9    0.80    0.60
  -7   5  -9   20.40    4.00
   7  -5   9   19.40    2.20
  -8   5  -9    3.90    1.60
   8  -5   9    0.80    0.90
  -9   5  -9    6.00    3.20
   9  -5   9    4.70    1.50
   8   4  -9   26.60    4.60
  -8  -4   9   21.80    3.70
  -8  -4   9   22.60    4.80
   7   4  -9   16.00    4.40
  -7  -4   9   18.90    3.50
  -7  -4   9   17.00    1.70
  -7  -4   9   23.60    4.50
   6   4  -9    1.10    1.00
  -6  -4   9    1.90    1.30
  -6  -4   9    0.60    0.60
  -6  -4   9   -1.20    1.10
   5   4  -9    0.30    1.00
  -5  -4   9   -1.70    0.80
  -5  -4   9    1.80    0.80
   4   4  -9   47.40    4.30
  -4  -4   9   43.10    3.10
   3   4  -9   33.40    3.40
  -3  -4   9   33.70    2.70
   2   4  -9    5.40    1.60
  -2  -4   9    4.50    1.20
   1   4  -9    0.00    0.40
  -1  -4   9    0.00    0.40
   0   4  -9    4.70    1.40
   0  -4   9    3.30    1.00
  -1   4  -9   76.49    3.10
  -1   4  -9   66.19    3.40
   1  -4   9   71.69    4.80
  -2   4  -9    0.20    0.50
  -2   4  -9    0.70    1.00
   2  -4   9    1.70    0.80
  -3   4  -9   32.30    3.70
   3  -4   9   36.50    2.80
  -4   4  -9  124.49    7.90
   4  -4   9  120.09    5.70
  -5   4  -9    0.60    1.10
   5  -4   9    1.10    0.60
  -6   4  -9   24.50    4.30
   6  -4   9   30.90    2.80
  -7   4  -9   40.90    5.10
   7  -4   9   38.90    3.20
  -8   4  -9    3.30    2.00
   8  -4   9    4.30    1.40
  -9   4  -9   16.80    3.90
   8   3  -9   36.60    4.90
  -8  -3   9   35.60    4.70
  -8  -3   9   41.60    4.60
   7   3  -9   26.40    4.40
  -7  -3   9   19.50    1.60
  -7  -3   9   26.70    4.40
   6   3  -9    0.20    0.60
  -6  -3   9    2.00    0.70
  -6  -3   9    2.10    0.90
   5   3  -9   29.40    3.60
  -5  -3   9   29.00    2.20
  -5  -3   9   25.80    2.30
   4   3  -9   16.00    2.90
  -4  -3   9   15.40    1.60
   3   3  -9    3.60    1.40
   3   3  -9    1.10    0.50
  -3  -3   9    2.10    0.70
   2   3  -9   46.30    3.40
   2   3  -9   50.79    4.00
  -2  -3   9   47.10    3.00
   1   3  -9   23.60    2.30
   1   3  -9   31.80    3.00
  -1  -3   9   27.20    2.20
   0   3  -9   35.20    3.10
  -1   3  -9   78.59    4.60
   1  -3   9   79.39    4.10
  -2   3  -9   17.70    2.40
  -3   3  -9   13.90    2.70
   3  -3   9   13.50    1.70
  -4   3  -9   59.29    5.30
   4  -3   9   57.39    3.60
  -5   3  -9   89.89    6.90
   5  -3   9   81.59    4.60
  -6   3  -9   22.10    4.10
   6  -3   9   24.20    2.50
  -7   3  -9    1.40    1.50
   7  -3   9    3.60    1.30
  -8   3  -9    1.10    1.80
   9   2  -9   10.20    2.90
  -9  -2   9    5.70    2.00
   8   2  -9    9.00    4.10
  -8  -2   9   21.10    3.90
   7   2  -9   21.10    4.00
  -7  -2   9   15.00    1.20
  -7  -2   9   16.50    3.00
   6   2  -9   21.70    3.50
  -6  -2   9   25.40    2.70
  -6  -2   9   24.20    1.60
   5   2  -9   10.10    2.40
  -5  -2   9    9.10    1.10
  -5  -2   9   12.10    1.90
   4   2  -9   10.50    1.70
   4   2  -9    9.30    2.10
  -4  -2   9    8.20    1.30
  -4  -2   9    9.00    1.50
   3   2  -9   66.69    4.70
   3   2  -9   61.09    3.80
  -3  -2   9   66.79    3.40
   2   2  -9   10.90    2.00
   2   2  -9   14.80    2.10
  -2  -2   9   14.90    1.50
   1   2  -9    9.80    1.70
   1   2  -9   13.70    2.40
  -1  -2   9    9.10    1.50
  -1  -2   9   11.60    2.60
   0   2  -9    0.20    0.40
   0   2  -9    1.00    0.60
   0  -2   9    0.50    1.30
  -1   2  -9   44.10    3.90
   1  -2   9   46.80    3.00
  -2   2  -9   13.80    3.00
  -3   2  -9   23.00    3.30
  -3   2  -9   24.40    3.20
   3  -2   9   28.30    2.40
  -4   2  -9  121.09    7.80
   4  -2   9  120.49    5.70
  -5   2  -9   34.70    4.10
   5  -2   9   31.00    2.70
  -6   2  -9   69.99    6.30
   6  -2   9   76.29    4.70
  -7   2  -9    4.70    1.90
  -8   2  -9    7.70    2.40
   9   1  -9    7.00    2.60
  -9  -1   9    3.40    1.50
   8   1  -9    3.80    1.70
  -8  -1   9    2.60    1.50
   7   1  -9   56.49    5.20
  -7  -1   9   42.10    4.20
   6   1  -9   14.70    3.20
  -6  -1   9    8.60    0.90
  -6  -1   9    8.10    2.10
   5   1  -9  128.59    7.60
   5   1  -9  134.29    5.60
  -5  -1   9  125.79    6.30
  -5  -1   9  134.79    4.80
   4   1  -9   34.00    3.50
   4   1  -9   28.00    2.30
  -4  -1   9   30.70    2.00
  -4  -1   9   32.70    2.80
   3   1  -9    1.10    0.70
   3   1  -9    0.80    0.60
  -3  -1   9    2.40    0.70
   2   1  -9    0.40    0.40
   2   1  -9   -0.30    0.30
   2   1  -9   -0.30    0.40
  -2  -1   9    0.00    0.30
   1   1  -9    4.70    1.20
   1   1  -9    3.90    1.00
  -1  -1   9    3.90    1.30
  -1  -1   9    6.10    1.20
   0   1  -9   40.40    3.70
   0   1  -9   35.80    2.70
   0  -1   9   36.60    2.50
   0  -1   9   33.20    3.40
  -1   1  -9   77.19    6.00
   1  -1   9   75.19    4.00
  -2   1  -9    3.40    1.40
   2  -1   9    4.30    1.20
  -3   1  -9   27.20    3.90
  -3   1  -9   15.30    2.80
   3  -1   9   20.10    2.10
  -4   1  -9   57.69    5.20
  -4   1  -9   51.99    6.00
   4  -1   9   60.59    3.90
  -5   1  -9    2.40    1.50
  -5   1  -9    4.30    1.80
   5  -1   9    4.80    1.40
  -6   1  -9   25.20    5.50
  -6   1  -9   28.90    4.70
  -7   1  -9    5.80    3.10
  -8   1  -9   10.40    4.30
  10   0  -9   18.90    4.40
 -10   0   9   25.20    4.50
   9   0  -9    2.20    1.50
   8   0  -9    2.90    1.80
  -8   0   9    7.40    2.10
   7   0  -9   16.50    3.40
   6   0  -9  112.29    4.70
   6   0  -9  135.09    7.80
  -6   0   9  119.59    4.20
   5   0  -9   91.39    6.00
   5   0  -9   99.19    4.30
  -5   0   9   91.19    3.70
  -5   0   9   87.19    5.50
   4   0  -9   23.10    4.40
   4   0  -9   18.20    1.70
  -4   0   9   18.40    1.50
  -4   0   9   17.80    3.00
   3   0  -9  126.39    5.30
   3   0  -9  126.89    6.60
   3   0  -9  114.29    5.40
  -3   0   9  125.19    4.90
  -3   0   9  118.09    6.50
   2   0  -9  367.26   12.90
   2   0  -9  343.27   11.00
   2   0  -9  360.96   12.20
  -2   0   9  344.07   13.30
  -2   0   9  343.07   13.00
  -2   0   9  358.66   10.80
   1   0  -9    0.20    0.50
   1   0  -9   -0.40    0.30
  -1   0   9    0.30    0.40
  -1   0   9   -0.10    0.70
   0   0  -9    3.60    1.40
   0   0   9    7.30    1.50
   0   0   9    5.40    1.50
  -1   0  -9   23.40    4.60
  -2   0  -9   13.20    3.60
   2   0   9   15.40    1.80
  -3   0  -9    2.00    1.30
  -3   0  -9   -0.20    0.50
   3   0   9    0.20    0.30
  -4   0  -9  125.69    7.90
  -4   0  -9  117.59   10.00
  -5   0  -9  101.99    7.50
  -5   0  -9   90.99    9.40
  -6   0  -9   34.00    7.20
  -6   0  -9   38.10    4.60
  -7   0  -9    3.50    2.00
  -7   0  -9    6.60    3.50
  10  -1  -9    0.10    1.00
 -10   1   9   -1.20    1.00
   9  -1  -9    0.50    1.40
  -9   1   9    1.80    1.20
   8  -1  -9   14.90    3.10
  -8   1   9   13.80    2.90
   7  -1  -9   57.39    5.10
   6  -1  -9  141.69    5.20
   6  -1  -9  143.39    8.00
  -6   1   9  121.69    7.60
   5  -1  -9  334.17   13.00
   5  -1  -9  316.47    9.90
  -5   1   9  285.97   12.90
  -5   1   9  333.07    9.70
   4  -1  -9  148.39    5.80
   4  -1  -9  147.89    7.80
   4  -1  -9  163.98    7.20
  -4   1   9  155.28    5.70
  -4   1   9  148.99    8.30
   3  -1  -9   31.60    3.00
   3  -1  -9   28.40    3.00
   3  -1  -9   28.10    2.10
  -3   1   9   29.00    3.40
  -3   1   9   29.10    2.10
   2  -1  -9   53.09    4.40
   2  -1  -9   50.09    3.00
  -2   1   9   56.29    4.90
  -2   1   9   50.69    3.00
  -2   1   9   50.69    4.00
   1  -1  -9   24.10    3.30
  -1   1   9   28.30    3.00
  -1   1   9   25.10    2.10
  -1   1   9   24.10    3.10
   0  -1  -9   28.30    4.00
   0   1   9   29.10    2.80
   0   1   9   27.20    2.90
  -1  -1  -9  219.28   12.90
   1   1   9  238.08    8.90
  -2  -1  -9   11.10    3.00
  -2  -1  -9    7.90    3.20
  -3  -1  -9   13.80    3.00
  -3  -1  -9   10.60    3.30
  -4  -1  -9   88.69    6.50
  -4  -1  -9   89.09    9.40
  -5  -1  -9    6.70    2.20
  -5  -1  -9    6.50    3.10
  -6  -1  -9   20.60    4.00
  -6  -1  -9    8.20    4.00
  11  -2  -9    2.40    1.60
  10  -2  -9   15.00    3.60
 -10   2   9   18.40    3.80
   9  -2  -9    8.40    2.30
  -9   2   9   15.00    3.40
   8  -2  -9    5.00    1.70
  -8   2   9    5.20    1.80
   7  -2  -9   20.40    3.30
   6  -2  -9   77.39    3.60
   6  -2  -9   85.89    5.90
   5  -2  -9  267.57   10.80
   5  -2  -9  253.97    8.20
   5  -2  -9  254.67   10.80
  -5   2   9  223.08   11.80
   4  -2  -9  106.19    4.60
   4  -2  -9  102.39    6.20
   4  -2  -9  115.19    6.30
  -4   2   9  110.79    7.60
   3  -2  -9    2.60    1.30
   3  -2  -9    8.90    1.50
   3  -2  -9    3.50    1.10
  -3   2   9    9.00    2.50
   2  -2  -9   18.50    3.40
  -2   2   9   26.10    3.50
  -2   2   9   20.70    2.50
   1  -2  -9   52.19    5.60
  -1   2   9   57.39    4.20
  -1   2   9   60.39    5.70
   0  -2  -9    5.80    2.20
   0   2   9    4.50    1.30
  -1  -2  -9   13.70    3.70
  -2  -2  -9   19.50    3.20
  -2  -2  -9   17.40    5.00
  -3  -2  -9   46.60    4.40
  -3  -2  -9   36.70    6.90
  -4  -2  -9   12.80    4.60
  -4  -2  -9   16.90    3.20
  -5  -2  -9   22.20    6.30
  -5  -2  -9   21.70    3.90
  -6  -2  -9   60.29    5.50
  -6  -2  -9   53.19   10.00
  11  -3  -9    5.30    2.60
 -11   3   9    8.80    3.00
  10  -3  -9   -0.50    1.20
 -10   3   9   -0.80    0.80
   9  -3  -9    6.30    2.30
  -9   3   9    4.60    1.90
   8  -3  -9    5.70    1.90
  -8   3   9    4.10    1.60
   7  -3  -9    1.10    0.50
   7  -3  -9   -0.90    0.60
   6  -3  -9  151.28    7.90
   6  -3  -9  130.19    8.90
   6  -3  -9  137.49    5.20
   5  -3  -9   36.10    3.50
   5  -3  -9   33.00    2.20
   5  -3  -9   34.60    3.70
   4  -3  -9   35.50    3.30
   4  -3  -9   34.30    3.80
   4  -3  -9   36.70    2.40
   3  -3  -9    4.80    1.90
   3  -3  -9    2.70    1.20
   2  -3  -9   32.30    4.30
  -2   3   9   32.70    3.10
   1  -3  -9   22.90    5.20
  -1   3   9   18.10    2.20
   0  -3  -9   13.60    3.80
   0   3   9   17.80    2.30
  -1  -3  -9    5.90    2.80
  -2  -3  -9   14.10    4.50
  -3  -3  -9    1.30    1.70
  -4  -3  -9    2.90    2.80
  -4  -3  -9    7.30    2.10
  -5  -3  -9   32.30    4.90
  -5  -3  -9   32.40    8.60
  11  -4  -9    9.50    2.40
 -11   4   9   11.70    3.00
  10  -4  -9   12.20    3.30
 -10   4   9   10.50    2.60
   9  -4  -9    2.90    1.30
  -9   4   9    0.80    1.00
   8  -4  -9    2.10    1.40
  -8   4   9    1.00    1.10
   7  -4  -9    3.60    1.60
   7  -4  -9    2.70    1.30
   7  -4  -9    3.50    0.80
   6  -4  -9   26.50    3.30
   6  -4  -9   28.10    3.20
   6  -4  -9   24.80    1.90
   5  -4  -9   36.40    4.10
   5  -4  -9   41.60    3.70
   4  -4  -9   43.60    3.70
   4  -4  -9   48.60    5.00
   3  -4  -9   51.89    4.00
   3  -4  -9   53.39    5.50
   2  -4  -9   23.20    4.40
  -2   4   9   28.00    2.90
   1  -4  -9   23.40    4.90
  -1   4   9   25.00    2.70
   0  -4  -9   20.60    4.60
   0   4   9   17.90    2.30
  -1  -4  -9   26.50    6.20
  -2  -4  -9   23.30    6.30
  -3  -4  -9   42.30    9.10
  -4  -4  -9    2.20    2.40
  11  -5  -9   -2.20    1.20
 -11   5   9    3.70    1.60
  10  -5  -9    1.20    1.00
 -10   5   9    2.70    1.40
   9  -5  -9   14.30    2.90
  -9   5   9   12.10    2.80
   8  -5  -9   29.30    3.50
   8  -5  -9   32.30    4.20
   8  -5  -9   26.90    1.90
  -8   5   9   35.40    3.90
   7  -5  -9    0.80    0.60
   7  -5  -9   -0.50    0.60
   7  -5  -9    2.40    1.50
   6  -5  -9   38.20    3.70
   6  -5  -9   35.90    4.30
   5  -5  -9   15.10    3.60
   5  -5  -9   12.00    2.20
   4  -5  -9    8.60    2.20
   4  -5  -9   10.70    2.60
   3  -5  -9   17.90    4.20
  -3   5   9   16.10    2.60
   2  -5  -9   42.50    5.80
  -2   5   9   45.80    3.50
   1  -5  -9   51.69    6.70
  -1   5   9   39.70    3.30
   0  -5  -9    1.90    1.80
   0   5   9    1.80    1.10
  -1  -5  -9  182.18   14.60
   1   5   9  151.38    7.30
  -2  -5  -9    1.40    2.10
  -3  -5  -9    3.40    3.00
  11  -6  -9    2.90    1.60
 -11   6   9    1.20    1.50
  10  -6  -9    0.20    1.00
 -10   6   9    2.20    1.50
   9  -6  -9   11.00    2.50
  -9   6   9    8.80    2.50
   8  -6  -9    4.20    1.70
   8  -6  -9    6.90    2.40
  -8   6   9    6.20    2.00
   7  -6  -9    5.20    2.00
   7  -6  -9    7.50    1.80
  -7   6   9    3.90    1.40
   6  -6  -9   13.30    2.50
   6  -6  -9   14.90    3.50
   5  -6  -9    3.80    1.80
   5  -6  -9    2.20    1.10
   4  -6  -9   28.70    4.60
   4  -6  -9   24.60    4.80
   3  -6  -9   35.90    6.40
   3  -6  -9   36.90    3.40
  -3   6   9   29.70    3.00
   2  -6  -9    6.30    2.70
  -2   6   9    8.90    1.80
   1  -6  -9   52.99    9.40
  -1   6   9   36.80    3.80
   0  -6  -9   38.40    7.40
   0   6   9   39.10    3.10
  -1  -6  -9   10.90    4.00
  -2  -6  -9    6.70    3.30
  10  -7  -9   17.10    3.20
 -10   7   9   15.20    3.20
   9  -7  -9   10.20    2.90
   9  -7  -9   13.10    2.90
  -9   7   9   20.00    3.70
   8  -7  -9    2.80    1.60
   8  -7  -9    4.50    1.70
  -8   7   9    8.50    2.20
   7  -7  -9    7.90    2.00
   7  -7  -9    8.10    2.60
  -7   7   9    7.80    2.00
   6  -7  -9    1.50    1.10
   6  -7  -9    3.70    1.90
  -6   7   9    1.30    1.10
   5  -7  -9   18.00    4.10
   5  -7  -9   18.90    3.00
   4  -7  -9    8.10    1.90
   4  -7  -9    5.90    2.60
  -4   7   9    7.10    2.10
   3  -7  -9   -0.10    0.80
   3  -7  -9   -0.60    1.50
   2  -7  -9   69.09    8.40
  -2   7   9   57.39    3.60
   1  -7  -9    5.00    2.60
   0  -7  -9    5.60    3.50
  -1  -7  -9    0.10    2.70
  10  -8  -9    5.90    1.90
  10  -8  -9    4.50    1.80
 -10   8   9    8.70    2.70
   9  -8  -9    6.50    1.90
   9  -8  -9    3.50    2.30
  -9   8   9    7.00    2.20
   8  -8  -9   16.30    2.90
   8  -8  -9   16.30    3.70
  -8   8   9   20.60    3.50
   7  -8  -9    3.50    2.20
   7  -8  -9    5.30    1.30
  -7   8   9    2.70    1.40
   6  -8  -9    2.50    1.40
  -6   8   9    0.00    0.70
   5  -8  -9   16.80    6.30
  -5   8   9   18.60    2.20
   4  -8  -9   18.90    4.90
   4  -8  -9   12.00    2.20
  -4   8   9   15.80    1.80
   3  -8  -9   87.09    9.40
   3  -8  -9   99.19    5.70
   2  -8  -9    0.20    1.00
   1  -8  -9    5.80    3.10
   8  -9  -9   23.40    2.60
   8  -9  -9   21.20    4.70
  -8   9   9   26.80    3.50
   7  -9  -9    2.30    1.90
   7  -9  -9   -1.20    1.00
  -7   9   9   -1.60    1.00
   6  -9  -9    6.20    1.60
   6  -9  -9    7.00    3.20
   5  -9  -9    3.90    2.70
   5  -9  -9    0.60    1.10
  -5   9   9    2.00    1.20
   4  -9  -9    1.20    2.30
   3  -9  -9   10.40    3.70
   3  -9  -9    9.80    1.80
   1 -11  10    0.20    1.60
   2 -11  10    7.10    2.30
   3 -11  10    6.60    2.50
   4 -11  10   -0.80    1.10
   5 -11  10   17.80    3.40
   6 -11  10    2.50    1.40
   1  10 -10    3.50    1.70
  -1 -10  10    2.20    1.20
   0  10 -10   12.90    2.40
   0 -10  10   14.40    3.10
  -1  10 -10   25.50    2.60
   1 -10  10   24.40    4.10
  -2  10 -10   67.29    4.10
   2 -10  10   66.49    5.60
  -3  10 -10    0.80    1.00
   3 -10  10    1.80    1.30
  -4  10 -10    9.00    1.70
   4 -10  10    6.30    1.90
  -5  10 -10    2.10    1.10
   5 -10  10    2.10    1.30
  -6  10 -10    3.70    2.50
  -6  10 -10    6.60    1.60
   6 -10  10    1.80    1.30
  -7  10 -10   -1.20    1.50
   7 -10  10   -2.30    0.80
   3   9 -10    0.20    1.20
  -3  -9  10    0.60    0.90
   2   9 -10    2.10    1.30
  -2  -9  10    3.90    1.60
   1   9 -10    1.50    1.40
  -1  -9  10    1.80    1.50
   0   9 -10    2.90    1.10
   0  -9  10    3.00    1.50
  -1   9 -10   91.29    5.30
   1  -9  10   96.19    6.50
  -2   9 -10   12.30    2.40
   2  -9  10   11.40    2.70
  -3   9 -10   -2.60    1.60
  -3   9 -10   -1.50    0.80
   3  -9  10    1.10    1.20
  -4   9 -10    2.00    2.70
  -4   9 -10    6.20    1.60
   4  -9  10    6.00    1.80
  -5   9 -10   19.80    2.40
  -5   9 -10   21.80    4.10
   5  -9  10   25.50    3.10
  -6   9 -10   -1.30    1.10
   6  -9  10    1.70    1.60
  -7   9 -10    5.30    2.00
  -8   9 -10    2.20    2.10
   8  -9  10    1.60    1.00
   4   8 -10    0.50    1.30
  -4  -8  10    0.70    0.90
   3   8 -10    8.70    2.40
   2   8 -10    4.10    1.70
  -2  -8  10    8.70    2.10
   1   8 -10    6.10    1.80
  -1  -8  10    2.70    1.30
   0   8 -10   -0.30    0.70
   0  -8  10    1.00    0.70
  -1   8 -10    4.80    1.40
   1  -8  10    5.30    1.80
  -2   8 -10   -0.30    0.60
   2  -8  10   -0.20    0.80
  -3   8 -10    0.10    0.70
  -3   8 -10   -1.20    1.20
   3  -8  10    0.40    0.80
  -4   8 -10   -0.70    0.50
  -4   8 -10    1.90    1.80
  -4   8 -10    1.40    1.20
   4  -8  10    0.50    0.60
  -5   8 -10   13.10    3.20
   5  -8  10   10.30    2.20
  -6   8 -10    0.80    1.40
   6  -8  10   -0.20    0.80
  -7   8 -10    0.40    1.60
   7  -8  10    0.50    0.90
  -8   8 -10    9.70    3.20
   8  -8  10    6.90    1.90
   5   7 -10   21.50    4.40
  -5  -7  10   25.00    3.00
  -5  -7  10   17.90    2.80
   4   7 -10   23.80    3.80
  -4  -7  10   26.50    3.00
   3   7 -10    0.80    1.10
  -3  -7  10    0.10    0.60
   2   7 -10   -0.10    0.70
  -2  -7  10    1.20    0.70
   1   7 -10    1.50    0.90
  -1  -7  10   -0.30    0.70
   0   7 -10   32.40    3.10
   0  -7  10   28.00    3.00
  -1   7 -10    0.20    0.50
   1  -7  10    0.40    0.60
  -2   7 -10    0.80    0.70
   2  -7  10    0.50    0.80
  -3   7 -10    7.70    1.80
  -3   7 -10    6.00    1.70
   3  -7  10    7.00    1.70
  -4   7 -10    6.80    2.20
   4  -7  10    8.60    2.00
  -5   7 -10    1.80    1.30
   5  -7  10    4.60    1.50
  -6   7 -10    8.80    2.70
   6  -7  10   15.10    2.50
  -7   7 -10   12.50    3.50
   7  -7  10   11.90    2.10
  -8   7 -10   -1.80    1.80
   8  -7  10    1.80    1.10
   6   6 -10   15.70    3.20
  -6  -6  10   19.90    2.70
  -6  -6  10   18.50    3.30
   5   6 -10   62.49    5.70
  -5  -6  10   61.19    4.30
   4   6 -10    0.70    1.00
  -4  -6  10    0.90    0.80
   3   6 -10    0.60    0.90
  -3  -6  10    1.80    0.90
   2   6 -10   70.49    5.10
  -2  -6  10   62.39    4.50
   1   6 -10   19.90    2.50
  -1  -6  10   23.00    2.60
   0  -6  10    0.40    0.50
  -1   6 -10   52.29    4.10
   1  -6  10   55.29    4.00
  -2   6 -10    3.50    1.00
  -2   6 -10    3.40    1.50
   2  -6  10    3.30    1.30
  -3   6 -10    9.70    1.80
  -3   6 -10    6.00    2.40
   3  -6  10    6.20    1.40
  -4   6 -10   19.50    2.50
  -4   6 -10   23.30    4.40
   4  -6  10   20.20    2.40
  -5   6 -10   31.70    5.10
   5  -6  10   30.90    2.90
  -6   6 -10    6.80    2.90
   6  -6  10    6.80    1.70
  -7   6 -10    4.30    3.00
   7  -6  10    5.30    1.30
  -8   6 -10   19.70    4.30
   8  -6  10   18.90    2.70
   7   5 -10   22.10    4.20
  -7  -5  10   18.70    3.50
  -7  -5  10   21.20    2.10
   6   5 -10   51.09    5.40
  -6  -5  10   55.49    3.60
  -6  -5  10   56.79    4.10
   5   5 -10   29.70    3.80
  -5  -5  10   28.70    2.70
   4   5 -10   13.80    2.80
  -4  -5  10   13.70    2.20
   3   5 -10   14.30    2.80
  -3  -5  10   12.90    2.20
   2   5 -10   20.80    2.70
  -2  -5  10   19.70    2.20
   1   5 -10   -0.10    0.50
   0   5 -10   98.89    7.00
   0  -5  10  111.29    5.70
  -1   5 -10    1.30    0.80
   1  -5  10    3.10    1.00
  -2   5 -10    0.70    0.60
   2  -5  10    1.00    0.70
  -3   5 -10   20.10    3.40
  -3   5 -10   23.70    2.40
   3  -5  10   19.80    2.20
  -4   5 -10   23.40    2.80
  -4   5 -10   23.50    4.30
   4  -5  10   26.50    2.60
  -5   5 -10   19.30    3.60
   5  -5  10   23.90    2.50
  -6   5 -10   17.20    3.50
   6  -5  10   15.90    2.40
  -7   5 -10   17.50    6.40
   7  -5  10   42.00    3.40
  -8   5 -10   -0.50    1.30
   8  -5  10    0.60    0.80
   8   4 -10   17.70    3.50
  -8  -4  10   24.70    4.30
  -8  -4  10   25.10    4.70
   7   4 -10   -0.70    1.00
  -7  -4  10   -0.40    0.50
  -7  -4  10    0.70    1.40
  -7  -4  10   -1.30    0.80
   6   4 -10   14.80    3.10
  -6  -4  10   15.10    2.20
  -6  -4  10   20.80    2.70
  -6  -4  10   22.10    3.70
   5   4 -10   18.50    3.30
  -5  -4  10   19.50    2.90
   4   4 -10   -0.30    0.60
  -4  -4  10    1.50    0.80
   3   4 -10   18.30    3.30
  -3  -4  10   12.40    2.00
   2   4 -10   -0.70    0.40
  -2  -4  10    1.20    0.60
   1   4 -10   89.39    6.80
  -1  -4  10   88.59    4.70
   0   4 -10   24.00    2.70
   0  -4  10   16.40    1.90
  -1   4 -10    5.70    0.80
   1  -4  10    4.20    1.30
  -2   4 -10    8.00    1.90
  -2   4 -10    6.10    1.70
   2  -4  10    6.50    1.30
  -3   4 -10   46.20    4.50
   3  -4  10   41.10    3.10
  -4   4 -10   19.40    3.90
   4  -4  10   14.10    2.20
  -5   4 -10    1.60    1.20
   5  -4  10    0.90    0.80
  -6   4 -10   10.30    3.10
   6  -4  10   11.90    2.00
  -7   4 -10    1.40    1.60
   7  -4  10    0.10    0.70
  -8   4 -10    4.80    2.40
   8  -4  10    3.00    1.30
   8   3 -10    0.40    1.00
  -8  -3  10   -1.20    1.30
  -8  -3  10    1.80    1.10
   7   3 -10    3.90    1.80
  -7  -3  10    5.00    2.30
   6   3 -10    1.70    1.30
  -6  -3  10    2.00    0.80
  -6  -3  10    0.50    1.10
   5   3 -10   70.59    5.80
  -5  -3  10   81.69    4.00
   4   3 -10   48.00    4.50
  -4  -3  10   60.59    3.40
  -3  -3  10  266.97    9.20
   2   3 -10   57.49    4.50
  -2  -3  10   62.49    3.60
   1   3 -10   -0.20    0.40
  -1  -3  10   -0.30    0.30
   0   3 -10   28.40    3.00
   0  -3  10   25.70    2.80
  -1   3 -10   11.20    2.10
   1  -3  10   14.50    1.70
  -2   3 -10    8.70    2.10
  -2   3 -10    5.10    1.70
   2  -3  10    5.40    1.10
  -3   3 -10    0.10    1.10
  -3   3 -10    2.50    1.30
   3  -3  10    1.00    0.60
  -4   3 -10    1.20    1.20
   4  -3  10    0.00    0.60
  -5   3 -10   -1.00    1.10
   5  -3  10   -1.10    0.40
  -6   3 -10    6.20    1.80
   6  -3  10    5.20    1.50
  -7   3 -10   12.80    3.50
   7  -3  10   15.70    2.60
  -8   3 -10   21.10    4.60
   9   2 -10    3.30    1.80
  -9  -2  10    1.50    1.30
   8   2 -10    0.60    1.40
  -8  -2  10    4.40    1.70
   7   2 -10    6.60    2.50
  -7  -2  10    7.70    0.90
  -7  -2  10    6.70    2.10
   6   2 -10   17.00    3.20
  -6  -2  10   14.50    1.40
  -6  -2  10   13.10    2.40
   5   2 -10   15.50    3.20
  -5  -2  10   12.10    1.30
  -5  -2  10   11.00    1.60
   4   2 -10  228.48   10.50
   4   2 -10  212.38    8.50
  -4  -2  10  218.48    7.60
   3   2 -10   63.69    4.80
   3   2 -10   60.89    3.90
  -3  -2  10   66.29    3.50
   2   2 -10   17.90    3.10
  -2  -2  10   18.10    1.70
   1   2 -10  117.59    4.40
   1   2 -10  117.29    6.80
  -1  -2  10  118.69    5.20
   0   2 -10  402.16   13.60
   0  -2  10  385.36   13.60
  -1   2 -10   34.10    3.60
   1  -2  10   32.30    2.50
  -2   2 -10   11.20    2.70
  -2   2 -10    9.40    2.70
   2  -2  10    8.40    1.50
  -3   2 -10   11.40    3.10
  -3   2 -10    9.40    2.40
   3  -2  10    8.30    1.60
  -4   2 -10    3.00    1.70
  -4   2 -10    2.40    1.40
   4  -2  10    5.00    1.20
  -5   2 -10    3.20    2.00
  -5   2 -10    1.90    1.60
   5  -2  10    2.70    0.90
  -6   2 -10  104.39   10.20
  -6   2 -10  111.69    8.50
   6  -2  10  107.79    6.00
  -7   2 -10  106.79    8.70
  -7   2 -10  110.59   11.00
   9   1 -10    8.40    2.50
  -9  -1  10   13.10    3.20
   8   1 -10   33.40    4.30
  -8  -1  10   28.50    3.80
   7   1 -10   22.40    4.20
  -7  -1  10   18.00    2.90
  -7  -1  10   15.10    1.10
   6   1 -10   21.00    3.80
  -6  -1  10   16.70    2.70
  -6  -1  10   16.10    1.30
   5   1 -10   32.80    2.50
   5   1 -10   33.50    3.70
  -5  -1  10   30.30    2.00
  -5  -1  10   34.10    3.20
   4   1 -10   43.60    3.00
   4   1 -10   47.40    4.20
  -4  -1  10   41.50    2.50
  -4  -1  10   44.30    3.40
   3   1 -10   18.10    1.90
   3   1 -10   26.20    2.90
  -3  -1  10   23.00    2.30
  -3  -1  10   23.10    1.90
   2   1 -10  242.68   12.80
   2   1 -10  258.47    8.70
   2   1 -10  279.67   10.00
  -2  -1  10  264.47    8.80
   1   1 -10   26.90    2.70
  -1  -1  10   27.00    2.20
   0   1 -10    1.60    1.00
  -1   1 -10   20.40    3.00
   1  -1  10   18.50    1.90
  -2   1 -10  111.99    7.20
  -2   1 -10  114.19    8.50
   2  -1  10   96.99    5.20
  -3   1 -10   25.50    5.00
  -3   1 -10   27.50    3.60
   3  -1  10   31.30    2.70
  -4   1 -10    7.90    2.90
  -4   1 -10    3.90    1.90
   4  -1  10    4.00    1.20
  -5   1 -10   13.00    3.90
  -5   1 -10   19.20    3.70
   5  -1  10   13.10    2.30
  -6   1 -10   19.30    4.30
  -6   1 -10   22.00    5.90
  -7   1 -10    2.40    2.30
  -7   1 -10    0.30    1.80
  10   0 -10    5.60    2.20
 -10   0  10    5.90    1.80
   9   0 -10    2.70    1.70
  -9   0  10    3.00    1.40
   8   0 -10   -0.20    0.80
  -8   0  10    0.10    0.80
   7   0 -10    6.00    2.10
  -7   0  10    5.80    2.50
   6   0 -10    2.10    0.70
   6   0 -10    0.10    0.80
  -6   0  10    1.50    1.10
  -6   0  10    2.20    0.50
   5   0 -10   17.00    1.80
   5   0 -10   12.90    2.60
  -5   0  10   15.70    2.90
  -5   0  10   19.00    1.60
   4   0 -10    9.30    1.80
   4   0 -10    9.50    2.00
   4   0 -10    7.90    1.40
  -4   0  10    8.40    1.40
  -4   0  10    6.50    1.80
   3   0 -10 1143.99   31.20
   3   0 -10 1159.68   30.80
   3   0 -10 1181.98   33.20
  -3   0  10 1161.48   30.00
  -3   0  10 1089.99   33.00
   2   0 -10   95.49    6.90
   2   0 -10  103.49    5.70
  -2   0  10  108.49    4.80
  -2   0  10  101.79    6.10
   1   0 -10  130.29    7.40
  -1   0  10  124.19    5.50
   0   0 -10   35.80    4.30
   0   0  10   31.10    2.60
  -1   0 -10   24.80    5.10
   1   0  10   24.40    2.30
  -2   0 -10    8.50    2.90
  -2   0 -10    8.30    2.40
   2   0  10    6.20    1.30
  -3   0 -10    5.00    1.80
  -3   0 -10    9.60    3.20
   3   0  10    6.70    1.40
  -4   0 -10  112.89    7.70
  -4   0 -10  100.89    9.80
  -5   0 -10    2.20    1.40
  -6   0 -10    4.90    3.60
  -6   0 -10    6.60    2.50
  10  -1 -10    1.50    1.80
 -10   1  10    0.80    1.20
   9  -1 -10   12.70    3.90
  -9   1  10   10.40    2.80
   8  -1 -10    2.20    1.40
   7  -1 -10    0.30    1.00
   7  -1 -10    1.30    0.60
   6  -1 -10    1.80    1.00
   6  -1 -10    2.70    0.90
  -6   1  10    1.90    1.50
   5  -1 -10    2.00    0.90
   5  -1 -10    1.60    1.10
   5  -1 -10    1.90    0.90
  -5   1  10    3.20    0.80
  -5   1  10    3.20    1.60
   4  -1 -10  400.96   14.80
   4  -1 -10  374.16   12.10
   4  -1 -10  399.26   13.70
  -4   1  10  411.96   12.10
  -4   1  10  373.56   15.70
   3  -1 -10  166.58    7.30
   3  -1 -10  182.58    8.50
   3  -1 -10  166.38    8.10
  -3   1  10  160.58    9.10
  -3   1  10  174.58    6.60
   2  -1 -10   28.80    3.10
   2  -1 -10   30.20    3.50
  -2   1  10   31.40    2.50
  -2   1  10   34.40    3.70
   1  -1 -10   11.60    2.80
  -1   1  10   14.00    1.70
   0  -1 -10   22.40    4.70
   0   1  10   20.30    2.10
  -1  -1 -10   11.10    3.50
   1   1  10    8.90    1.90
  -2  -1 -10   21.80    5.10
  -3  -1 -10   84.39    8.80
  -3  -1 -10   81.79    6.20
  -4  -1 -10    5.80    1.80
  -4  -1 -10    4.50    3.10
  -5  -1 -10    0.00    1.20
  -6  -1 -10    3.90    2.70
  -6  -1 -10    8.50    4.00
  10  -2 -10    5.50    2.40
 -10   2  10   11.10    2.80
   9  -2 -10   17.00    3.80
  -9   2  10   20.50    5.40
   8  -2 -10    0.40    0.70
   7  -2 -10    4.20    1.60
   6  -2 -10    7.20    1.30
   6  -2 -10    5.20    1.70
   6  -2 -10    4.40    1.30
   5  -2 -10   24.70    2.90
   5  -2 -10   22.00    2.80
   5  -2 -10   19.10    1.70
  -5   2  10   20.20    3.80
   4  -2 -10   62.49    3.90
   4  -2 -10   77.79    5.30
   4  -2 -10   66.09    4.90
  -4   2  10   58.89    5.70
   3  -2 -10    7.90    1.80
   3  -2 -10   10.00    2.40
  -3   2  10    7.20    2.10
   2  -2 -10  118.89    7.90
  -2   2  10  124.69    8.40
   1  -2 -10   18.80    4.40
   0  -2 -10   21.00    4.50
  -1  -2 -10  108.29    9.60
  -2  -2 -10   29.40    6.10
  -3  -2 -10    5.40    3.00
  -3  -2 -10   11.70    2.60
  -4  -2 -10    6.10    2.30
  -4  -2 -10    3.90    2.80
  -5  -2 -10   39.20    4.60
  -5  -2 -10   34.70    8.20
  10  -3 -10    2.30    1.40
 -10   3  10   -1.80    0.80
   9  -3 -10    1.10    1.00
  -9   3  10    1.50    1.60
   8  -3 -10    6.30    1.90
   7  -3 -10   30.20    2.10
   7  -3 -10   26.70    3.40
   6  -3 -10    8.20    2.10
   6  -3 -10    9.90    2.20
   6  -3 -10    7.90    1.30
   5  -3 -10   30.30    3.30
   5  -3 -10   25.80    4.70
   4  -3 -10   20.70    4.20
   4  -3 -10   27.70    3.00
   3  -3 -10  113.29    6.50
   2  -3 -10    9.70    2.40
   1  -3 -10   10.20    3.60
   0  -3 -10   16.30    3.90
  -1  -3 -10   36.30    7.00
  -2  -3 -10    6.30    2.90
  -3  -3 -10   40.90    8.90
  -4  -3 -10   29.80    7.20
  10  -4 -10    6.90    2.40
 -10   4  10    5.00    2.30
   9  -4 -10   21.50    3.80
  -9   4  10   33.00    4.10
   8  -4 -10    9.80    1.30
   8  -4 -10    7.50    2.20
  -8   4  10   10.00    2.50
   7  -4 -10    0.10    0.70
   7  -4 -10    0.40    0.70
   7  -4 -10    2.60    1.30
   6  -4 -10    0.60    0.70
   6  -4 -10   -0.40    0.80
   5  -4 -10    4.80    1.60
   5  -4 -10    4.00    1.50
   4  -4 -10   61.39    4.70
   4  -4 -10   64.19    5.90
   3  -4 -10    0.90    1.30
   3  -4 -10    1.70    0.90
   2  -4 -10   51.19    6.00
   1  -4 -10   14.80    4.40
   0  -4 -10   21.90    6.10
  -1  -4 -10   46.10    8.70
  -2  -4 -10   17.80    4.90
  -3  -4 -10   20.30    6.20
  10  -5 -10   25.80    6.80
 -10   5  10   19.10    3.50
   9  -5 -10    4.30    1.90
  -9   5  10    4.60    1.90
   8  -5 -10    0.50    1.00
   8  -5 -10    1.20    0.90
   8  -5 -10    0.10    0.90
  -8   5  10   -2.10    0.80
   7  -5 -10    0.40    0.90
   7  -5 -10    1.30    1.00
   6  -5 -10   23.10    3.00
   6  -5 -10   27.40    3.90
   5  -5 -10    8.70    2.00
   5  -5 -10    7.90    2.70
   4  -5 -10    7.10    2.10
   4  -5 -10    5.60    1.80
   3  -5 -10   16.70    4.30
   3  -5 -10   21.00    2.70
   2  -5 -10   38.40    7.30
   1  -5 -10    0.30    1.90
   0  -5 -10   47.10    8.60
  -2  -5 -10   11.20    4.10
  10  -6 -10    0.50    1.50
 -10   6  10    4.30    2.00
   9  -6 -10    7.00    1.90
  -9   6  10    3.70    1.90
   8  -6 -10    4.30    2.10
   8  -6 -10    5.70    2.00
  -8   6  10    5.00    1.80
   7  -6 -10    5.50    1.80
   7  -6 -10    4.30    2.00
  -7   6  10    5.60    1.80
   6  -6 -10    5.90    1.80
   6  -6 -10    4.10    2.10
   5  -6 -10    4.80    2.20
   5  -6 -10    6.20    1.80
   4  -6 -10   17.90    4.00
   4  -6 -10   15.10    2.70
   3  -6 -10   14.40    4.20
   3  -6 -10   15.90    2.80
   2  -6 -10    0.90    1.70
   1  -6 -10   62.69    8.20
  -1   6  10   58.19    6.70
   0  -6 -10   28.10    6.80
  -1  -6 -10   20.40    5.50
  10  -7 -10    6.50    2.10
 -10   7  10    6.80    2.20
   9  -7 -10    1.50    1.30
   9  -7 -10    0.80    1.20
   8  -7 -10   68.69    7.40
   8  -7 -10   67.09    5.30
  -8   7  10   81.59    6.10
   7  -7 -10   26.20    4.80
   7  -7 -10   21.40    3.50
  -7   7  10   26.70    3.30
   6  -7 -10    9.10    2.30
   6  -7 -10   14.00    4.00
  -6   7  10   15.90    2.70
   5  -7 -10    6.80    3.00
   5  -7 -10    7.70    1.90
   4  -7 -10    6.00    1.90
   4  -7 -10   10.40    3.40
   3  -7 -10    2.30    1.80
   2  -7 -10    0.20    1.80
   1  -7 -10   32.70    7.10
   0  -7 -10    2.90    3.10
   9  -8 -10   -0.90    1.30
   9  -8 -10    3.70    2.20
  -9   8  10   -3.20    1.20
   8  -8 -10    2.40    2.10
   8  -8 -10    6.20    1.80
  -8   8  10    7.70    2.30
   7  -8 -10    0.50    0.90
   7  -8 -10   -1.00    1.70
  -7   8  10   -2.10    1.10
   6  -8 -10   26.80    5.60
   6  -8 -10   28.00    3.20
  -6   8  10   26.60    3.00
   5  -8 -10    1.40    1.70
   5  -8 -10    0.00    0.80
  -5   8  10   -1.30    0.90
   4  -8 -10   12.90    2.70
   4  -8 -10    7.30    3.20
  -4   8  10   15.60    1.90
   3  -8 -10    3.50    2.80
   3  -8 -10    7.30    1.80
   2  -8 -10   10.10    2.30
   2  -8 -10   10.10    3.70
   7  -9 -10    2.80    1.80
   7  -9 -10    4.20    1.60
  -7   9  10    3.00    1.60
   6  -9 -10    4.10    2.70
   6  -9 -10    9.10    1.80
  -6   9  10    6.00    1.80
   5  -9 -10    7.80    1.80
   5  -9 -10   -0.80    2.00
  -5   9  10    1.70    1.30
   3 -11  11   18.00    3.60
   4 -11  11    2.10    1.30
   0  10 -11    0.10    1.60
   0 -10  11    2.60    1.40
  -1  10 -11   11.50    2.20
   1 -10  11   10.60    2.40
   2 -10  11    5.80    1.90
  -3  10 -11   24.50    4.00
   3 -10  11   39.10    4.20
  -4  10 -11    9.60    2.10
   4 -10  11    4.10    1.60
  -5  10 -11    2.60    1.40
   5 -10  11    3.10    1.50
  -6  10 -11    0.90    1.30
  -6  10 -11   -1.70    1.80
   6 -10  11    1.20    1.10
   2   9 -11    8.60    2.30
  -2  -9  11   10.20    2.40
   1   9 -11   -0.90    1.10
  -1  -9  11    2.90    1.50
   0   9 -11   -0.80    1.30
   0  -9  11   -1.90    0.80
  -1   9 -11    3.50    1.40
   1  -9  11    0.10    1.00
  -2   9 -11   42.80    3.80
  -3   9 -11    5.60    1.60
   3  -9  11   12.50    4.30
  -4   9 -11    2.20    1.20
   4  -9  11    2.20    1.20
  -5   9 -11    0.60    2.00
  -5   9 -11    2.00    1.10
   5  -9  11    1.10    0.80
  -6   9 -11    7.70    2.70
   6  -9  11    7.70    2.20
  -7   9 -11   -2.90    1.20
   7  -9  11    0.20    0.90
   4   8 -11    7.90    2.60
   3   8 -11   47.40    4.80
  -3  -8  11   45.80    5.20
   2   8 -11    2.80    1.60
  -2  -8  11   -0.10    1.10
   1   8 -11    6.60    1.90
  -1  -8  11    7.80    2.20
   0   8 -11   13.20    2.50
   0  -8  11    5.20    1.60
  -1   8 -11   26.70    2.90
   1  -8  11   28.20    3.20
  -2   8 -11    6.10    1.70
   2  -8  11    5.80    1.70
  -3   8 -11    5.50    1.50
   3  -8  11    1.40    1.10
  -4   8 -11    2.60    1.20
  -4   8 -11    7.50    2.20
   4  -8  11    5.50    1.60
  -5   8 -11    0.00    1.30
   5  -8  11   -1.40    0.60
  -6   8 -11    1.70    1.60
   6  -8  11    4.10    2.40
  -7   8 -11    5.10    2.30
   7  -8  11    7.10    1.80
   5   7 -11   -2.90    1.20
  -5  -7  11    2.00    1.00
   4   7 -11   53.39    5.30
  -4  -7  11   52.99    4.20
   3   7 -11   22.50    3.90
  -3  -7  11   18.50    2.90
   2   7 -11   22.30    3.70
  -2  -7  11   24.50    2.90
   1   7 -11    0.20    0.70
  -1  -7  11    0.40    0.60
   0   7 -11   30.00    3.20
   0  -7  11   32.10    3.30
  -1   7 -11    3.70    1.30
   1  -7  11    3.20    1.20
  -2   7 -11    1.70    0.90
   2  -7  11    2.00    1.00
  -3   7 -11   91.49    5.20
  -3   7 -11  106.49    6.30
   3  -7  11  101.09    6.00
  -4   7 -11    5.40    2.00
   4  -7  11    8.20    2.10
  -5   7 -11   69.79    6.40
   5  -7  11   63.79    4.60
  -6   7 -11   -0.40    1.50
  -7   7 -11    8.00    2.80
   7  -7  11    9.70    2.70
  -8   7 -11    0.20    1.40
   8  -7  11   -0.80    0.70
   6   6 -11    1.80    1.40
  -6  -6  11    0.40    1.20
  -6  -6  11    1.90    0.90
   5   6 -11    3.00    1.60
  -5  -6  11    5.80    1.50
   4   6 -11   23.50    4.20
  -4  -6  11   21.50    3.10
   3   6 -11   11.50    2.50
  -3  -6  11   12.00    2.20
   2   6 -11   -0.20    0.60
  -2  -6  11    0.50    0.60
   1   6 -11    5.00    1.50
  -1  -6  11    6.60    1.70
   0   6 -11    1.20    1.00
   0  -6  11    0.70    0.80
  -1   6 -11   43.60    3.90
   1  -6  11   44.70    3.70
  -2   6 -11  108.89    6.50
   2  -6  11  112.89    6.10
  -3   6 -11  100.49    5.40
  -3   6 -11  117.59    8.00
   3  -6  11  112.19    6.10
  -4   6 -11    6.30    1.80
  -4   6 -11    8.00    3.00
   4  -6  11    5.80    1.60
  -5   6 -11    0.60    1.10
   5  -6  11    1.30    0.80
  -6   6 -11    3.70    2.30
   6  -6  11    4.80    1.40
  -7   6 -11    5.40    2.00
   7  -6  11    3.70    1.30
  -8   6 -11   -0.10    1.40
   8  -6  11   -0.60    0.80
   7   5 -11   -1.20    1.20
  -7  -5  11    0.60    0.80
  -7  -5  11   -0.80    1.10
   6   5 -11   -0.80    1.10
  -6  -5  11    0.60    0.60
   5   5 -11   -2.20    0.80
  -5  -5  11    0.70    0.70
   4   5 -11    8.10    2.20
  -4  -5  11    3.20    1.10
   3   5 -11   34.90    3.80
  -3  -5  11   33.80    3.00
   2   5 -11    3.80    1.30
  -2  -5  11    4.40    1.30
   1   5 -11   82.19    5.70
  -1  -5  11   82.49    4.90
   0   5 -11   53.69    4.40
   0  -5  11   59.89    4.00
  -1   5 -11   -0.70    0.50
   1  -5  11   -0.10    0.50
  -2   5 -11   50.79    3.70
  -2   5 -11   56.79    3.20
   2  -5  11   55.99    3.90
  -3   5 -11    0.70    1.20
  -3   5 -11   -0.70    0.70
   3  -5  11    0.40    0.60
  -4   5 -11    2.70    1.50
   4  -5  11    2.10    0.90
  -5   5 -11    3.20    1.70
   5  -5  11    1.20    0.90
  -6   5 -11    6.70    2.70
   6  -5  11    7.90    1.60
  -7   5 -11   -1.80    1.20
   7  -5  11    0.00    0.70
  -8   5 -11   -2.90    1.80
   8  -5  11   -0.20    0.90
   7   4 -11   32.80    5.50
  -7  -4  11   35.20    7.40
   6   4 -11    1.10    1.00
  -6  -4  11    1.50    0.80
   5   4 -11    2.30    1.30
  -5  -4  11    4.10    1.10
   4   4 -11    1.00    0.70
  -4  -4  11    0.30    0.50
   3   4 -11   13.20    2.90
  -3  -4  11   14.90    1.80
   2   4 -11   50.79    4.40
  -2  -4  11   53.99    3.60
   1   4 -11   89.59    5.90
  -1  -4  11   93.79    5.00
   0   4 -11   16.10    2.90
   0  -4  11   11.50    1.80
  -1   4 -11   82.89    3.40
   1  -4  11   86.09    4.80
  -2   4 -11  158.48    8.10
   2  -4  11  153.08    6.90
  -3   4 -11    1.50    1.30
  -3   4 -11    5.60    2.10
   3  -4  11    5.50    1.50
  -4   4 -11    2.80    1.70
   4  -4  11    2.00    1.00
  -5   4 -11   50.39    5.40
   5  -4  11   47.10    3.70
  -6   4 -11    5.00    2.50
   6  -4  11    2.80    1.10
  -7   4 -11    5.60    2.40
   7  -4  11    5.40    1.40
   8   3 -11   10.20    2.80
  -8  -3  11   15.90    3.60
  -8  -3  11   15.00    3.20
   7   3 -11    3.80    1.90
  -7  -3  11    1.70    1.30
  -7  -3  11    0.90    0.60
   6   3 -11   26.10    4.60
  -6  -3  11   25.90    2.00
   5   3 -11   22.20    3.80
  -5  -3  11   25.80    2.10
   4   3 -11   10.50    2.50
   3   3 -11   11.30    2.60
  -3  -3  11   14.80    2.20
   2   3 -11   43.00    4.00
  -2  -3  11   41.40    2.90
   1   3 -11    7.30    2.00
  -1  -3  11   11.90    2.00
   0   3 -11  118.39    6.80
   0  -3  11  123.09    5.70
  -1   3 -11   26.60    2.90
   1  -3  11   25.80    2.40
  -2   3 -11   13.30    2.90
   2  -3  11   10.50    1.80
  -3   3 -11   66.59    5.90
  -3   3 -11   62.99    5.90
   3  -3  11   64.99    4.10
  -4   3 -11   71.99    6.70
  -4   3 -11   58.99    5.70
   4  -3  11   67.69    4.30
  -5   3 -11   -2.20    0.90
  -5   3 -11    0.00    1.20
   5  -3  11   -0.20    0.60
  -6   3 -11   -1.10    1.10
  -6   3 -11   -0.30    1.00
   6  -3  11   -0.20    0.60
  -7   3 -11    7.30    3.80
  -7   3 -11    8.50    2.80
   7  -3  11    6.70    2.60
   9   2 -11   13.80    3.80
  -9  -2  11    5.20    2.20
   8   2 -11    0.30    0.90
  -8  -2  11    0.90    0.80
   7   2 -11   -0.90    1.00
  -7  -2  11    0.60    0.40
  -7  -2  11    1.50    1.30
   6   2 -11    0.00    0.70
  -6  -2  11    0.30    0.90
  -6  -2  11    0.50    0.40
   5   2 -11   67.19    5.60
   5   2 -11   48.70    4.40
  -5  -2  11   63.99    3.30
   4   2 -11    0.30    1.00
  -4  -2  11    0.10    0.40
   3   2 -11    1.40    0.90
  -3  -2  11    1.90    0.70
   2   2 -11   14.40    2.90
  -2  -2  11    8.10    1.70
   1   2 -11  427.86   15.40
   1   2 -11  414.96   12.20
  -1  -2  11  404.16   13.10
   0   2 -11   20.70    2.50
   0  -2  11   26.60    2.40
  -1   2 -11   54.49    4.90
   1  -2  11   51.19    3.50
  -2   2 -11   62.59    5.50
  -2   2 -11   72.89    6.20
   2  -2  11   69.09    4.20
  -3   2 -11   -1.80    0.70
  -3   2 -11   -1.40    1.00
   3  -2  11    0.30    0.50
  -4   2 -11    2.10    1.70
  -4   2 -11    1.20    1.20
   4  -2  11    1.00    0.90
  -5   2 -11    5.20    2.80
  -5   2 -11    6.80    2.40
   5  -2  11    4.80    1.50
  -6   2 -11   96.99   10.20
   6  -2  11  101.19    6.10
  -7   2 -11   -0.40    1.30
  -7   2 -11    3.30    3.40
   9   1 -11    4.40    1.90
  -9  -1  11    1.80    1.50
   8   1 -11    3.80    1.60
   7   1 -11   11.90    3.30
  -7  -1  11    7.30    2.40
  -7  -1  11    9.80    1.00
   6   1 -11   14.20    2.90
  -6  -1  11   10.50    2.50
  -6  -1  11   11.90    1.30
   5   1 -11   12.30    1.90
   5   1 -11   13.60    3.00
  -5  -1  11   12.10    2.30
  -5  -1  11   10.90    1.30
   4   1 -11   24.20    3.10
  -4  -1  11   21.70    1.80
  -4  -1  11   19.10    2.40
   3   1 -11    0.50    1.00
   3   1 -11    1.60    0.60
  -3  -1  11    1.60    0.70
  -3  -1  11    0.60    0.70
   2   1 -11    8.40    2.00
   2   1 -11    8.60    1.60
  -1  -1  11    7.20    1.20
   0   1 -11   72.19    5.50
   0  -1  11   77.99    4.30
  -1   1 -11   38.50    4.70
   1  -1  11   41.80    3.10
  -2   1 -11   16.20    3.60
   2  -1  11   12.40    2.00
  -3   1 -11   13.80    3.30
  -3   1 -11   12.00    3.70
   3  -1  11   11.50    1.90
  -4   1 -11   31.80    5.00
  -4   1 -11   25.60    5.50
   4  -1  11   30.70    3.00
  -5   1 -11   39.00    7.70
  -5   1 -11   48.00    5.40
  -6   1 -11   -3.00    1.20
  -6   1 -11   -1.00    1.80
   9   0 -11   38.60    4.90
  -9   0  11   38.70    4.60
   8   0 -11   90.49    7.40
   7   0 -11    0.40    0.60
  -7   0  11   -1.10    1.20
   6   0 -11   -0.30    0.40
   6   0 -11   -0.60    0.90
  -6   0  11   -0.10    0.30
  -6   0  11    2.00    1.50
   5   0 -11   49.80    4.60
   5   0 -11   42.80    3.10
  -5   0  11   42.20    4.20
  -5   0  11   48.10    2.80
   4   0 -11   10.00    1.90
   4   0 -11   12.20    2.80
  -4   0  11    8.90    2.10
  -4   0  11    9.80    1.50
   3   0 -11  115.49    6.80
   3   0 -11  115.79    5.70
  -3   0  11  100.69    4.90
  -3   0  11  105.59    6.40
   2   0 -11  347.17   13.00
   2   0 -11  353.36   13.70
  -2   0  11  357.46   11.60
   1   0 -11  137.19    8.00
  -1   0  11  152.98    6.40
   0   0 -11   48.80    5.10
   0   0  11   49.10    3.40
  -1   0 -11    7.40    2.70
   1   0  11    6.20    1.50
  -2   0 -11    2.60    1.70
   2   0  11    1.70    0.90
  -3   0 -11   29.80    6.40
  -3   0 -11   33.60    4.00
   3   0  11   28.30    3.00
  -4   0 -11   22.30    4.20
  -4   0 -11   18.20    5.20
  -5   0 -11    4.90    1.80
  -5   0 -11   -0.90    1.80
  -6   0 -11   26.20    6.90
  -6   0 -11   37.30    4.60
  10  -1 -11    1.30    1.10
 -10   1  11    0.70    1.20
   9  -1 -11   41.20    4.90
  -9   1  11   44.70    4.90
   8  -1 -11   -1.10    0.70
   7  -1 -11    3.10    1.40
   7  -1 -11    1.70    0.80
   6  -1 -11    2.60    0.70
   6  -1 -11    2.50    1.30
  -6   1  11   -1.60    1.40
   5  -1 -11   13.30    2.00
   5  -1 -11   13.70    3.00
   5  -1 -11   10.30    2.20
  -5   1  11   10.50    1.60
  -5   1  11    9.90    2.30
   4  -1 -11    9.20    1.90
   4  -1 -11   10.70    2.10
  -4   1  11   12.30    1.50
   3  -1 -11    4.20    1.40
   3  -1 -11    2.70    1.10
  -3   1  11    4.80    1.30
   2  -1 -11   48.70    4.20
   2  -1 -11   48.10    4.50
  -2   1  11   40.40    4.30
  -2   1  11   48.50    3.30
   1  -1 -11   17.30    3.90
  -1   1  11   10.20    1.80
   0   1  11    1.50    0.90
  -1  -1 -11   12.10    3.60
   1   1  11   13.60    2.40
  -2  -1 -11    0.60    1.60
  -3  -1 -11   60.39    5.40
  -3  -1 -11   61.69    7.80
  -4  -1 -11   -0.40    2.30
  -4  -1 -11   10.00    2.80
  -5  -1 -11   43.50    5.20
  -5  -1 -11   47.10    9.40
  10  -2 -11   14.70    3.90
 -10   2  11   15.20    3.50
   9  -2 -11   -0.10    0.80
  -9   2  11    0.60    1.10
   8  -2 -11    3.20    1.70
   7  -2 -11   31.60    2.30
   7  -2 -11   39.00    4.30
   6  -2 -11    3.20    1.40
   6  -2 -11    7.40    1.30
   6  -2 -11    5.10    1.90
   5  -2 -11    0.90    0.90
   5  -2 -11    0.00    0.60
   4  -2 -11   25.80    3.10
   4  -2 -11   23.30    2.90
   3  -2 -11    0.80    0.80
   3  -2 -11    2.30    1.10
   2  -2 -11   18.90    3.60
   1  -2 -11   18.90    3.90
   0  -2 -11   53.49    6.40
  -1  -2 -11   19.20    4.50
  -2  -2 -11   22.40    6.00
  -3  -2 -11   76.09    9.20
  -4  -2 -11   19.30    6.20
  -5  -2 -11   -1.70    2.60
  10  -3 -11   15.10    3.60
 -10   3  11   13.60    3.40
   9  -3 -11   11.30    3.30
  -9   3  11   17.00    3.50
   8  -3 -11    7.20    1.20
   8  -3 -11    5.80    2.20
   7  -3 -11    0.30    0.80
   7  -3 -11    0.00    0.90
   6  -3 -11    1.80    1.30
   6  -3 -11    2.70    1.30
   5  -3 -11    6.70    1.90
   5  -3 -11    7.80    2.10
   4  -3 -11   24.50    4.30
   4  -3 -11   29.50    3.30
   3  -3 -11    0.10    0.90
   3  -3 -11   -0.30    0.60
   2  -3 -11    2.10    1.50
   1  -3 -11   87.29    8.20
   0  -3 -11   23.70    5.00
  -1  -3 -11   13.20    4.00
  -2  -3 -11   55.19    9.80
  -3  -3 -11    2.20    2.30
  -4  -3 -11    3.10    3.00
  10  -4 -11    8.70    2.50
 -10   4  11   10.40    2.80
   9  -4 -11   -0.40    1.10
  -9   4  11   -1.20    1.10
   8  -4 -11   -0.10    1.60
   8  -4 -11    3.20    1.40
   7  -4 -11   44.10    4.70
   7  -4 -11   44.50    4.50
   6  -4 -11    0.00    0.70
   6  -4 -11    0.30    0.80
   5  -4 -11    0.20    0.80
   5  -4 -11    1.60    0.90
   4  -4 -11    6.50    2.20
   4  -4 -11    5.20    1.70
   3  -4 -11   10.20    2.50
   3  -4 -11   12.50    2.90
   2  -4 -11   61.59    6.80
   1  -4 -11    2.00    1.80
   0  -4 -11    2.60    1.50
  -1  -4 -11   24.30    6.30
  -2  -4 -11   -0.30    1.90
  -3  -4 -11    2.60    2.70
  10  -5 -11    2.20    1.40
 -10   5  11   -1.40    1.00
   9  -5 -11   -2.10    1.00
  -9   5  11   -1.60    1.20
   8  -5 -11    2.50    1.40
   8  -5 -11    1.80    1.20
  -8   5  11    0.70    1.20
   7  -5 -11    3.50    1.90
   7  -5 -11    2.00    1.30
   6  -5 -11   28.50    4.20
   6  -5 -11   30.30    3.60
   5  -5 -11   21.20    4.70
   5  -5 -11   16.30    3.00
   4  -5 -11   51.59    4.50
   4  -5 -11   44.20    5.60
   3  -5 -11   -0.10    0.70
   3  -5 -11    1.30    1.50
   2  -5 -11   23.50    5.70
   1  -5 -11    1.60    2.30
   0  -5 -11   12.30    6.00
  -1  -5 -11   37.10    8.50
  -2  -5 -11    7.90    3.80
  10  -6 -11   -0.10    1.40
 -10   6  11    1.80    1.20
   9  -6 -11   11.70    2.80
  -9   6  11   16.10    3.70
   8  -6 -11   -1.60    0.80
   8  -6 -11    0.60    1.40
  -8   6  11   -0.50    1.10
   7  -6 -11    2.70    1.40
   7  -6 -11   -1.20    0.80
   6  -6 -11   11.90    3.30
   6  -6 -11   13.90    3.10
   5  -6 -11    6.40    1.90
   5  -6 -11    9.00    3.00
   4  -6 -11   17.10    2.90
   4  -6 -11   10.20    3.30
   3  -6 -11    0.10    1.00
   3  -6 -11    2.30    1.90
   2  -6 -11   79.69    8.90
   1  -6 -11    0.60    2.10
   0  -6 -11   10.30    4.40
   9  -7 -11   -0.20    1.30
   9  -7 -11    3.40    1.20
  -9   7  11    1.00    1.00
   8  -7 -11    2.00    1.70
   8  -7 -11    2.70    1.50
  -8   7  11   -0.80    1.20
   7  -7 -11   20.40    4.60
   7  -7 -11   30.40    3.60
  -7   7  11   27.10    3.40
   6  -7 -11    5.40    2.80
   6  -7 -11    2.90    1.40
   5  -7 -11    1.40    1.10
   5  -7 -11   -3.00    1.20
   4  -7 -11   26.60    3.20
   4  -7 -11   22.10    5.10
   3  -7 -11   18.60    5.00
   3  -7 -11   18.00    3.00
   2  -7 -11   -0.70    0.80
   2  -7 -11    3.60    2.30
   1  -7 -11    0.70    2.50
   8  -8 -11   43.10    5.70
   8  -8 -11   40.20    4.20
  -8   8  11   50.59    4.80
   7  -8 -11    4.00    1.70
   7  -8 -11    3.90    2.60
  -7   8  11    6.10    2.00
   6  -8 -11    1.90    1.10
   6  -8 -11    0.40    1.60
  -6   8  11   -0.70    1.20
   5  -8 -11   85.49    8.90
   5  -8 -11   85.29    5.80
  -5   8  11   75.59    5.00
   4  -8 -11    5.30    1.70
   4  -8 -11    0.20    1.80
   3  -8 -11    5.50    1.60
   3  -8 -11    3.10    2.80
   0  10 -12   -0.70    1.40
  -1  10 -12    2.70    1.70
   1 -10  12    1.60    1.00
  -2  10 -12   -1.90    1.20
  -3  10 -12    4.80    1.70
   3 -10  12    8.00    2.20
  -4  10 -12    2.40    1.50
   4 -10  12    0.70    1.00
  -5  10 -12    1.30    1.70
   5 -10  12    8.10    2.00
   2   9 -12    2.60    1.80
  -2  -9  12    7.30    1.90
   1   9 -12    0.80    1.50
  -1  -9  12   -0.10    1.00
   0   9 -12    5.50    1.70
   0  -9  12    5.70    1.70
  -1   9 -12    4.70    1.70
   1  -9  12    0.20    1.10
  -2   9 -12    7.00    1.90
   2  -9  12    6.00    2.00
  -3   9 -12   -0.50    1.10
   3  -9  12   -0.90    0.80
  -4   9 -12    3.20    1.50
   4  -9  12    3.40    1.30
  -5   9 -12   26.40    4.10
   5  -9  12   21.30    3.20
  -6   9 -12    2.20    2.00
   6  -9  12    2.10    1.20
   3   8 -12    7.00    2.20
  -3  -8  12    8.70    2.20
   2   8 -12    0.80    1.00
  -2  -8  12   -1.90    0.80
   1   8 -12   23.00    3.70
  -1  -8  12   22.40    3.60
   0   8 -12    1.70    1.20
   0  -8  12    0.50    0.90
  -1   8 -12    5.10    1.60
   1  -8  12    6.70    1.80
  -2   8 -12    2.30    1.20
   2  -8  12    2.50    1.10
  -3   8 -12   15.20    2.90
   3  -8  12   11.30    2.20
  -4   8 -12    8.40    2.10
   4  -8  12   13.50    4.40
  -5   8 -12   -0.30    1.60
   5  -8  12    3.30    1.20
  -6   8 -12   17.20    4.50
   6  -8  12   22.20    3.50
  -7   8 -12    0.30    1.60
   7  -8  12    0.60    1.10
   4   7 -12   18.50    4.80
  -4  -7  12   16.50    2.70
   3   7 -12    2.00    1.50
  -3  -7  12   -0.20    0.90
   2   7 -12   25.00    4.10
  -2  -7  12   21.60    3.30
   1   7 -12    0.20    0.70
   0   7 -12    0.10    0.50
   0  -7  12    0.60    0.70
  -1   7 -12   23.30    3.60
   1  -7  12   23.70    2.80
  -2   7 -12    5.90    1.60
   2  -7  12    4.90    1.50
  -3   7 -12    1.10    0.80
   3  -7  12   -0.60    0.70
  -4   7 -12   -0.40    1.50
   4  -7  12    1.30    1.20
  -5   7 -12   30.40    5.40
   5  -7  12   33.70    3.40
  -6   7 -12    2.90    2.40
   6  -7  12    2.70    1.10
  -7   7 -12    0.00    1.70
   7  -7  12    0.60    1.10
   5   6 -12   15.50    3.40
  -5  -6  12   18.00    2.60
   4   6 -12   -1.50    0.70
  -4  -6  12    1.00    0.80
   3   6 -12    1.30    1.50
  -3  -6  12    1.70    1.00
   2   6 -12    1.40    1.10
  -2  -6  12    1.60    1.00
   1   6 -12    0.40    0.80
  -1  -6  12    0.90    0.80
   0   6 -12   22.90    3.00
   0  -6  12   32.10    3.10
  -1   6 -12    6.10    1.90
   1  -6  12    7.10    1.60
  -2   6 -12   17.40    3.00
   2  -6  12   22.60    2.60
  -3   6 -12   34.80    3.00
  -3   6 -12   46.40    3.80
   3  -6  12   40.80    3.50
  -4   6 -12   74.39    5.30
  -4   6 -12   74.99    7.00
   4  -6  12   93.69    5.50
  -5   6 -12   30.00    5.40
   5  -6  12   34.00    3.30
  -6   6 -12    3.50    1.60
   6  -6  12    0.40    0.90
  -7   6 -12   16.00    4.10
   7  -6  12   14.00    2.60
   6   5 -12    2.60    1.30
  -6  -5  12    1.10    1.00
   5   5 -12   32.50    4.10
  -5  -5  12   30.20    2.70
   4   5 -12   30.10    3.80
  -4  -5  12   23.60    2.40
   3   5 -12   25.70    4.30
  -3  -5  12   20.90    2.30
   2   5 -12   99.29    6.80
  -2  -5  12  110.99    5.80
   1   5 -12   -0.20    0.60
  -1  -5  12    1.40    0.70
   0   5 -12    1.00    1.00
  -1   5 -12    1.30    1.00
   1  -5  12    2.30    1.00
  -2   5 -12   43.30    3.40
  -2   5 -12   48.60    2.90
   2  -5  12   46.90    3.70
  -3   5 -12    4.70    1.50
  -3   5 -12    0.90    0.90
  -3   5 -12    1.30    1.50
   3  -5  12    3.50    1.30
  -4   5 -12    3.80    1.90
  -4   5 -12    2.60    1.60
   4  -5  12    6.20    1.50
  -5   5 -12    6.80    2.50
   5  -5  12    9.30    2.00
  -6   5 -12   15.20    3.80
   6  -5  12   16.30    3.60
  -7   5 -12   -2.10    1.70
   7  -5  12    0.10    1.00
   7   4 -12    6.00    2.60
  -7  -4  12    7.50    1.30
   6   4 -12   39.90    5.10
  -6  -4  12   28.20    2.40
   5   4 -12    1.80    1.20
  -5  -4  12   -0.30    0.60
   4   4 -12    5.20    2.00
  -4  -4  12   10.50    1.80
   3   4 -12  155.58    9.00
  -3  -4  12  172.58    7.30
   2   4 -12   42.20    4.20
  -2  -4  12   41.20    3.20
   1   4 -12    1.20    0.80
   0   4 -12   30.30    3.40
   0  -4  12   30.10    2.80
   1  -4  12  117.29    6.00
  -2   4 -12   16.10    3.00
   2  -4  12   14.70    2.50
  -3   4 -12   10.80    3.10
  -3   4 -12   13.30    3.20
   3  -4  12   13.00    2.30
  -4   4 -12   12.40    3.20
  -4   4 -12   15.00    3.10
   4  -4  12   19.30    2.40
  -5   4 -12    4.70    2.30
  -5   4 -12    6.00    2.50
   5  -4  12    2.50    0.90
  -6   4 -12    6.30    2.60
  -6   4 -12    1.60    1.80
   6  -4  12    2.60    1.60
  -7   4 -12   -3.60    1.70
  -7   4 -12    1.00    2.10
   7  -4  12    0.50    1.00
   8   3 -12   40.70    5.20
  -8  -3  12   40.00    4.70
   7   3 -12    1.90    1.40
  -7  -3  12   -0.10    0.60
   6   3 -12   11.80    3.00
  -6  -3  12    8.60    1.40
   5   3 -12   14.50    3.20
  -5  -3  12   17.00    1.80
   4   3 -12    4.00    1.70
  -4  -3  12    7.50    1.40
   3   3 -12   20.70    3.80
  -3  -3  12   18.30    2.00
   2   3 -12   15.20    3.10
  -2  -3  12   15.60    1.80
   1   3 -12   16.40    2.90
  -1  -3  12   18.00    1.90
   0   3 -12    2.80    1.50
   0  -3  12    3.60    1.10
  -1   3 -12    2.10    1.20
   1  -3  12    2.40    0.90
  -2   3 -12   26.10    3.60
   2  -3  12   26.20    2.60
  -3   3 -12   32.90    5.40
  -3   3 -12   31.70    4.40
   3  -3  12   31.60    3.00
  -4   3 -12   14.20    3.80
  -4   3 -12    8.30    3.10
   4  -3  12    7.70    1.80
  -5   3 -12   19.10    4.00
  -5   3 -12   19.60    4.90
   5  -3  12   23.80    2.70
  -6   3 -12    5.80    3.60
  -6   3 -12    4.60    2.40
   6  -3  12   10.10    2.10
  -7   3 -12   14.90    5.60
  -7   3 -12    7.20    2.70
   7  -3  12   11.50    2.50
   8   2 -12    4.60    1.90
   7   2 -12   10.30    3.30
  -7  -2  12   11.00    1.20
   6   2 -12   43.70    4.80
  -6  -2  12   42.10    2.60
   5   2 -12    8.30    2.30
   4   2 -12    0.70    0.80
  -4  -2  12    1.60    0.60
   3   2 -12   86.19    6.20
  -3  -2  12   90.89    4.60
   2   2 -12   34.60    3.70
  -2  -2  12   34.10    2.70
   1   2 -12  334.07   13.50
   1   2 -12  314.37   10.30
  -1  -2  12  322.77   11.10
   0   2 -12   77.19    5.10
   0  -2  12   76.59    4.40
  -1   2 -12    9.30    2.50
   1  -2  12    7.80    1.60
  -2   2 -12   53.19    5.60
   2  -2  12   53.49    3.80
  -3   2 -12   12.30    3.10
  -3   2 -12   14.10    3.80
   3  -2  12   11.30    2.10
  -4   2 -12    5.20    2.60
   4  -2  12    4.70    1.50
  -5   2 -12   12.80    3.20
  -5   2 -12   13.50    4.10
   5  -2  12   16.50    2.50
  -6   2 -12    1.30    1.30
  -6   2 -12    1.00    1.90
   6  -2  12    3.80    1.40
   9   1 -12    8.80    3.00
  -9  -1  12    9.10    2.90
   8   1 -12    0.50    1.20
   7   1 -12   30.80    4.10
  -7  -1  12   32.80    2.10
   6   1 -12   41.40    4.60
   6   1 -12   39.60    3.40
  -6  -1  12   38.40    2.50
  -6  -1  12   39.30    3.80
   5   1 -12    3.70    1.40
  -5  -1  12    4.60    1.10
  -5  -1  12    6.20    1.70
   4   1 -12   16.30    3.20
  -4  -1  12   10.70    1.60
  -4  -1  12    9.70    1.80
   3   1 -12   70.59    3.60
  -3  -1  12   59.99    3.60
   2   1 -12   98.39    4.90
  -2  -1  12   96.19    4.90
   1   1 -12    7.30    2.10
   1   1 -12    5.30    1.60
  -1  -1  12    3.60    1.00
   0  -1  12    0.40    0.60
  -1   1 -12   41.30    4.70
   1  -1  12   44.60    3.40
  -2   1 -12   18.70    4.50
   2  -1  12   12.40    2.10
  -3   1 -12   -1.20    1.20
  -3   1 -12    0.90    1.40
   3  -1  12    1.20    0.80
  -4   1 -12   16.10    3.80
  -4   1 -12    6.50    2.60
   4  -1  12    8.90    1.90
  -5   1 -12   -4.20    2.10
  -5   1 -12    3.50    2.70
  -6   1 -12    0.80    1.60
  -6   1 -12   -2.40    1.90
   9   0 -12   59.49    6.20
  -9   0  12   59.59    6.00
   8   0 -12   38.90    4.90
   7   0 -12   -0.60    0.90
  -7   0  12   -0.60    1.70
   6   0 -12   41.80    4.50
   6   0 -12   30.90    2.70
  -6   0  12   35.90    2.40
   5   0 -12   18.90    3.20
  -5   0  12   27.60    2.20
  -5   0  12   33.90    3.70
   4   0 -12    6.50    2.20
   4   0 -12    5.40    1.30
  -4   0  12    4.80    1.70
  -4   0  12    6.30    1.40
   3   0 -12    9.60    1.90
   3   0 -12   12.10    2.70
  -3   0  12    7.20    1.90
  -3   0  12   10.80    1.80
   2   0 -12    2.40    1.10
   2   0 -12    1.90    0.90
  -2   0  12    3.40    1.00
   1   0 -12   21.70    3.20
  -1   0  12   22.30    2.30
   0   0 -12   14.60    3.40
   0   0  12   16.10    2.40
  -1   0 -12   -0.40    1.00
   1   0  12   -0.10    0.50
  -2   0 -12   65.39    7.20
   2   0  12   62.19    4.40
  -3   0 -12    8.80    3.60
  -4   0 -12    8.80    4.00
  -4   0 -12    6.30    2.30
  -5   0 -12    0.80    2.30
  -5   0 -12    3.10    1.80
   9  -1 -12    3.70    2.10
  -9   1  12    8.90    2.50
   8  -1 -12    8.80    3.70
   7  -1 -12   11.00    2.60
   6  -1 -12   49.30    4.90
  -6   1  12   39.50    5.50
   5  -1 -12   -0.60    0.70
   5  -1 -12    0.50    0.80
  -5   1  12    1.00    1.50
  -5   1  12   -1.00    0.60
   4  -1 -12    0.00    0.50
   4  -1 -12   -0.40    0.50
  -4   1  12    0.40    0.60
   3  -1 -12   36.80    3.90
   3  -1 -12   46.50    4.20
  -3   1  12   46.20    4.50
  -3   1  12   45.20    3.20
   2  -1 -12  148.89    8.50
   2  -1 -12  129.19    7.70
  -2   1  12  128.49    6.20
   1  -1 -12   80.19    6.80
  -1   1  12   77.29    4.70
   0  -1 -12   -0.30    1.30
   0   1  12   -1.10    0.50
  -1  -1 -12   47.30    5.90
  -2  -1 -12    3.80    2.00
  -3  -1 -12   31.00    7.50
  -4  -1 -12   -3.10    1.60
  -5  -1 -12    7.20    4.80
  -5  -1 -12    4.60    2.10
  10  -2 -12    3.10    2.30
 -10   2  12    4.80    2.10
   9  -2 -12   -0.60    1.00
  -9   2  12    1.70    0.90
   8  -2 -12   40.80    4.70
   7  -2 -12    6.90    1.70
   7  -2 -12    6.70    2.30
   6  -2 -12    2.40    1.40
   6  -2 -12    1.70    0.90
   5  -2 -12   37.10    4.00
   4  -2 -12   28.00    3.40
   4  -2 -12   30.10    3.50
   3  -2 -12    0.20    0.50
   3  -2 -12    0.70    1.20
   2  -2 -12    9.10    2.40
   2  -2 -12    5.40    2.00
   1  -2 -12   12.30    3.70
   0  -2 -12   25.20    5.50
  -1  -2 -12    0.90    1.90
  -2  -2 -12   10.00    3.80
  -3  -2 -12   10.60    3.90
  -4  -2 -12    3.60    3.50
  10  -3 -12    0.20    1.20
 -10   3  12    2.00    1.60
   9  -3 -12   31.30    5.30
  -9   3  12   42.20    4.80
   8  -3 -12    9.60    2.90
   7  -3 -12    0.80    1.00
   6  -3 -12   -0.40    0.90
   6  -3 -12    0.40    0.90
   5  -3 -12   30.00    3.80
   5  -3 -12   25.70    3.40
   4  -3 -12   13.50    2.80
   4  -3 -12   13.50    3.00
   3  -3 -12   39.30    4.10
   3  -3 -12   41.00    4.80
   2  -3 -12   44.40    5.40
   1  -3 -12   -1.40    1.50
   0  -3 -12    9.00    2.90
  -1  -3 -12   20.90    6.10
  -2  -3 -12    8.80    4.20
  -3  -3 -12   -3.30    2.30
  10  -4 -12    3.00    1.50
 -10   4  12   -1.50    0.80
   9  -4 -12   -1.30    0.80
  -9   4  12    1.70    1.50
   8  -4 -12    3.90    1.70
   7  -4 -12    2.30    1.50
   7  -4 -12    3.00    1.40
   6  -4 -12   18.80    3.50
   6  -4 -12   23.90    4.00
   5  -4 -12    0.40    0.60
   5  -4 -12   -0.80    0.80
   4  -4 -12   16.60    3.10
   4  -4 -12   14.50    3.30
   3  -4 -12   17.00    3.10
   3  -4 -12   20.20    4.40
   2  -4 -12   43.00    5.90
   1  -4 -12   20.40    4.90
   0  -4 -12   90.99   10.00
  -1  -4 -12   11.10    4.00
  -2  -4 -12   -0.70    2.20
   9  -5 -12    0.10    1.40
  -9   5  12    3.10    1.60
   8  -5 -12   18.50    3.90
   8  -5 -12   29.70    4.70
   7  -5 -12    7.60    2.50
   7  -5 -12    6.60    2.20
   6  -5 -12   39.40    5.00
   6  -5 -12   39.20    4.20
   5  -5 -12    8.80    2.50
   5  -5 -12    6.10    2.60
   4  -5 -12   13.70    3.80
   4  -5 -12   14.20    2.80
   3  -5 -12    1.20    1.70
   3  -5 -12    0.50    1.00
   2  -5 -12   32.00    6.50
   1  -5 -12    8.00    4.30
   0  -5 -12    5.30    3.40
  -1  -5 -12   14.50    5.00
   9  -6 -12    2.50    1.50
  -9   6  12    0.40    1.40
   8  -6 -12    5.60    2.50
   8  -6 -12   10.40    2.60
  -8   6  12    4.80    3.30
   7  -6 -12   39.60    5.30
   7  -6 -12   42.30    4.40
   6  -6 -12   -0.50    1.10
   6  -6 -12    0.30    1.20
   5  -6 -12   10.90    3.30
   5  -6 -12   11.00    2.50
   4  -6 -12   15.10    2.90
   4  -6 -12   14.50    3.90
   3  -6 -12   61.09    8.20
   3  -6 -12   58.49    5.10
   2  -6 -12    2.30    1.20
   2  -6 -12    3.00    1.90
   1  -6 -12   -4.60    2.30
   8  -7 -12    7.20    2.90
   8  -7 -12    9.20    2.30
  -8   7  12   10.90    3.00
   7  -7 -12    2.50    1.70
   7  -7 -12   -0.90    1.20
  -7   7  12   -0.90    1.00
   6  -7 -12   23.10    5.00
   6  -7 -12   20.20    3.40
   5  -7 -12   25.80    3.90
   5  -7 -12   23.50    5.00
   4  -7 -12    0.00    1.60
   4  -7 -12    5.20    1.60
   3  -7 -12   13.50    4.20
   3  -7 -12    9.80    2.40
   2  -7 -12    9.70    2.60
   2  -7 -12    8.90    3.60
  -2  10 -13    1.60    1.50
  -3  10 -13   11.30    2.50
   3 -10  13   11.90    2.70
   1   9 -13   -3.00    1.30
  -1  -9  13    2.60    1.30
   0   9 -13    4.60    2.00
   0  -9  13    3.50    1.50
  -1   9 -13    1.20    1.30
   1  -9  13    1.10    1.10
  -2   9 -13    4.30    1.70
   2  -9  13    0.90    1.00
  -3   9 -13    5.20    2.00
   3  -9  13    8.70    2.00
  -4   9 -13    2.20    1.50
   4  -9  13    3.10    1.70
  -5   9 -13    5.00    2.20
   5  -9  13    6.60    2.00
   3   8 -13   18.10    3.50
   2   8 -13    3.10    1.70
  -2  -8  13    1.40    1.10
   1   8 -13    0.70    1.20
  -1  -8  13    1.80    1.10
   0   8 -13    9.60    2.50
  -1   8 -13   13.80    2.80
   1  -8  13   16.70    2.90
  -2   8 -13   14.30    3.00
   2  -8  13   10.40    2.20
  -3   8 -13    4.60    1.80
   3  -8  13    2.00    1.10
  -4   8 -13    3.00    1.80
   4  -8  13    7.40    1.90
   5  -8  13    0.80    1.00
  -6   8 -13    0.80    2.00
   6  -8  13    2.20    1.30
   4   7 -13    3.40    1.80
   3   7 -13   18.30    3.60
  -3  -7  13   21.60    3.20
   2   7 -13   23.00    4.00
  -2  -7  13   25.30    2.80
   1   7 -13   12.60    2.80
  -1  -7  13   11.90    2.50
   0   7 -13  128.19    7.90
   0  -7  13  128.49    7.10
  -1   7 -13    6.10    2.10
   1  -7  13    4.40    1.40
  -2   7 -13   -0.70    0.60
   2  -7  13    0.90    0.80
  -3   7 -13   19.10    3.40
   3  -7  13   21.50    3.60
  -4   7 -13    7.50    1.90
   4  -7  13    6.90    1.80
  -5   7 -13    5.50    2.60
   5  -7  13    8.40    2.30
  -6   7 -13    7.40    3.10
   6  -7  13    7.90    1.80
   5   6 -13   -0.60    1.40
  -5  -6  13    1.30    1.10
   4   6 -13    7.60    3.50
  -4  -6  13   11.10    2.10
   3   6 -13    1.30    1.00
  -3  -6  13    2.20    1.00
   2   6 -13   14.40    3.10
  -2  -6  13   13.90    2.30
   1   6 -13  101.39    7.00
  -1  -6  13  101.09    6.00
   0   6 -13    6.50    1.70
  -1   6 -13   15.00    2.80
   1  -6  13   16.20    2.90
  -2   6 -13   28.50    3.60
   2  -6  13   28.80    3.00
  -3   6 -13    7.80    1.90
  -3   6 -13    4.50    1.50
   3  -6  13    8.00    1.90
  -4   6 -13   -2.40    1.40
  -4   6 -13    1.50    1.30
   4  -6  13    1.70    1.20
  -5   6 -13   16.80    4.00
  -5   6 -13   20.10    4.80
   5  -6  13   15.20    2.60
  -6   6 -13    4.80    2.60
  -6   6 -13    6.50    3.10
   6  -6  13    7.50    1.90
  -6  -5  13    1.10    0.80
   5   5 -13    7.50    2.50
  -5  -5  13    7.10    1.60
   4   5 -13    1.40    1.00
  -4  -5  13    0.80    0.70
   3   5 -13   27.00    4.60
  -3  -5  13   26.60    2.70
   2   5 -13    3.60    1.40
  -2  -5  13    8.90    1.90
   0   5 -13   76.69    6.00
   0  -5  13   75.99    4.90
  -1   5 -13   14.90    3.20
   1  -5  13   12.50    2.10
   2  -5  13    3.40    1.20
  -3   5 -13    0.20    1.20
   3  -5  13   -0.10    0.80
  -4   5 -13   27.20    4.90
  -4   5 -13   28.50    5.10
   4  -5  13   27.70    3.00
  -5   5 -13    7.60    2.90
  -5   5 -13    5.90    2.50
   5  -5  13    2.10    1.20
  -6   5 -13   -1.10    1.80
  -6   5 -13   -2.00    1.50
   6  -5  13    0.30    0.70
   7   4 -13    3.70    2.10
  -7  -4  13    8.10    1.40
   6   4 -13   55.49    5.70
  -6  -4  13   53.99    3.40
   5   4 -13    0.10    1.30
  -5  -4  13    0.60    0.70
   4   4 -13   47.90    5.10
  -4  -4  13   50.09    3.50
   3   4 -13    9.20    2.70
  -3  -4  13    6.10    1.50
   2   4 -13    1.30    1.20
  -2  -4  13    1.10    0.60
   1   4 -13  106.29    7.20
  -1  -4  13  120.79    6.10
   0   4 -13    8.20    2.20
   0  -4  13   11.00    2.20
   1  -4  13  176.58    8.00
  -2   4 -13    5.50    1.90
   2  -4  13    7.30    1.80
  -3   4 -13    4.20    2.10
   3  -4  13    3.60    1.30
  -4   4 -13    5.80    2.50
  -4   4 -13    7.10    3.00
   4  -4  13    3.30    1.30
  -5   4 -13    2.60    2.20
  -5   4 -13    1.70    2.10
   5  -4  13    2.00    1.10
  -6   4 -13   -1.60    1.30
  -6   4 -13    1.50    2.60
   6  -4  13   -0.60    0.60
   7   3 -13   28.70    5.20
  -7  -3  13   23.10    2.00
   6   3 -13    5.60    2.30
  -6  -3  13    7.20    1.50
   5   3 -13   13.80    3.50
  -5  -3  13   10.80    1.80
   4   3 -13   17.00    3.60
  -4  -3  13   14.80    1.80
   3   3 -13    5.10    1.50
  -3  -3  13    5.10    1.20
   2   3 -13    1.20    0.90
  -2  -3  13    0.70    0.60
   1   3 -13   38.20    4.10
  -1  -3  13   41.00    3.20
   0   3 -13    8.30    2.00
   0  -3  13   14.10    2.40
  -1   3 -13   22.60    3.00
   1  -3  13   18.30    2.30
  -2   3 -13   -2.50    1.00
   2  -3  13    0.40    0.80
  -3   3 -13   -0.10    1.50
   3  -3  13    0.50    0.70
  -4   3 -13    0.20    1.20
  -4   3 -13    0.20    1.80
   4  -3  13    2.50    1.10
  -5   3 -13    5.50    3.00
  -5   3 -13   12.30    3.30
   5  -3  13   15.50    2.90
  -6   3 -13    6.40    3.10
  -6   3 -13    5.30    2.90
   6  -3  13    5.40    1.60
   8   2 -13   25.90    5.00
   7   2 -13   83.59    7.40
  -7  -2  13   86.99    4.00
   6   2 -13   10.40    2.90
  -6  -2  13    7.30    1.30
   5   2 -13    2.10    1.20
  -5  -2  13    5.20    1.20
   4   2 -13    3.30    1.50
  -4  -2  13    6.30    1.40
   3   2 -13   10.20    2.30
  -3  -2  13   16.90    1.90
   2   2 -13    7.20    1.90
  -2  -2  13   10.00    1.90
   1   2 -13   29.00    3.50
   1   2 -13   25.90    2.20
  -1  -2  13   24.40    2.40
   0   2 -13   84.29    5.60
   0  -2  13   89.09    5.10
  -1   2 -13    1.00    1.10
   1  -2  13    0.10    0.50
   2  -2  13    0.70    0.60
   3  -2  13    1.10    0.90
  -4   2 -13   56.39    7.20
  -4   2 -13   57.59    6.20
   4  -2  13   60.09    4.80
  -5   2 -13    0.50    2.00
  -5   2 -13    3.10    1.70
   5  -2  13    0.60    0.80
   8   1 -13   36.10    4.80
   7   1 -13   -0.50    1.10
  -7  -1  13    2.50    0.70
   6   1 -13    5.50    2.10
  -6  -1  13    1.80    1.70
  -6  -1  13    4.90    1.10
   5   1 -13   18.20    3.60
  -5  -1  13   19.60    2.50
  -5  -1  13   16.40    1.80
   4   1 -13   76.49    6.20
  -4  -1  13   84.79    4.50
   3   1 -13    1.30    1.00
   3   1 -13    1.50    0.70
  -3  -1  13   -0.10    0.40
   2   1 -13    1.00    0.80
  -2  -1  13    1.20    0.60
   1   1 -13  184.98    9.80
   1   1 -13  187.88    8.90
  -1  -1  13  197.78    8.10
   0   1 -13    1.60    1.20
   0  -1  13   -0.20    0.50
   1  -1  13    8.40    1.80
  -2   1 -13    4.80    2.00
   2  -1  13    1.20    0.90
  -3   1 -13   19.30    5.20
   3  -1  13   23.30    3.40
  -4   1 -13    6.60    4.10
  -4   1 -13    9.70    3.50
  -5   1 -13   20.40    5.70
  -5   1 -13   24.20    4.80
   9   0 -13   11.80    3.30
  -9   0  13    9.40    2.70
   8   0 -13   -2.10    0.80
   7   0 -13    4.60    2.70
   6   0 -13  100.09    7.60
  -6   0  13   98.29    5.70
   5   0 -13    2.00    1.30
  -5   0  13    4.30    1.60
  -5   0  13    1.00    0.70
   4   0 -13    1.00    0.70
   4   0 -13    0.40    0.50
  -4   0  13    0.50    1.10
  -4   0  13    1.10    0.70
   3   0 -13   77.09    6.00
   3   0 -13   76.19    4.90
  -3   0  13   72.89    4.30
   2   0 -13    6.50    1.90
   2   0 -13    3.50    1.60
  -2   0  13    6.90    1.70
   1   0 -13   -0.70    1.00
  -1   0  13    1.80    0.70
   0   0 -13   32.10    4.40
   0   0  13   26.50    2.70
  -1   0 -13  122.69    9.80
   1   0  13  122.69    6.60
  -2   0 -13    7.00    2.60
   2   0  13    9.90    2.40
  -3   0 -13    0.10    1.50
  -4   0 -13   43.50   12.50
   9  -1 -13   -0.90    1.50
   8  -1 -13   -2.00    1.00
   7  -1 -13   20.50    4.00
   6  -1 -13    3.90    1.70
   5  -1 -13    1.50    1.00
   5  -1 -13   -0.40    0.80
  -5   1  13    1.30    0.70
  -5   1  13   -0.10    1.50
   4  -1 -13    8.00    2.10
   4  -1 -13    4.90    2.00
  -4   1  13    6.30    1.50
   3  -1 -13    3.70    1.60
   3  -1 -13    6.40    2.10
  -3   1  13    5.90    1.30
   2  -1 -13   53.39    4.90
   2  -1 -13   56.29    5.20
  -2   1  13   52.29    3.90
   1  -1 -13   29.20    4.20
  -1   1  13   31.60    3.10
   0  -1 -13  166.48   11.50
   0   1  13  166.88    8.10
  -1  -1 -13    1.90    2.10
  -2  -1 -13   14.30    4.80
  -3  -1 -13   25.50    6.30
  -4  -1 -13   13.30    5.30
   9  -2 -13    3.60    1.20
   8  -2 -13   -0.30    1.10
   7  -2 -13    5.70    2.00
   6  -2 -13    4.20    1.60
   6  -2 -13    2.20    1.10
   5  -2 -13   -0.20    0.80
   5  -2 -13    1.10    1.30
   4  -2 -13   19.60    3.70
   4  -2 -13   16.80    3.30
   3  -2 -13    0.30    0.90
   3  -2 -13    0.70    0.80
   2  -2 -13   49.60    5.20
   2  -2 -13   45.20    4.50
   1  -2 -13   21.70    4.30
   0  -2 -13   -1.60    1.00
  -1  -2 -13   26.10    6.40
  -2  -2 -13   38.00    8.30
  -3  -2 -13   -1.30    2.40
   9  -3 -13    0.20    1.20
   8  -3 -13    7.20    2.60
   7  -3 -13   19.20    3.90
   7  -3 -13   24.70    3.60
   6  -3 -13    6.40    2.30
   6  -3 -13    5.30    1.80
   5  -3 -13    6.00    2.20
   5  -3 -13    6.30    2.10
   4  -3 -13   38.50    4.20
   4  -3 -13   36.50    4.40
   3  -3 -13    9.70    2.60
   3  -3 -13    9.70    2.60
   2  -3 -13    6.00    1.80
   2  -3 -13    5.70    2.20
   1  -3 -13    0.30    1.20
   0  -3 -13    3.90    2.40
  -1  -3 -13   25.60    8.80
  -2  -3 -13   31.50    6.90
   9  -4 -13    0.30    1.40
  -9   4  13    1.20    1.30
   8  -4 -13    1.20    1.20
   7  -4 -13    2.40    1.40
   7  -4 -13    0.00    1.30
   6  -4 -13    7.90    2.40
   6  -4 -13   16.00    3.60
   5  -4 -13   49.60    5.50
   5  -4 -13   52.89    5.00
   4  -4 -13    5.10    1.60
   4  -4 -13    7.90    2.50
   3  -4 -13    4.90    2.20
   3  -4 -13    4.80    1.90
   2  -4 -13    7.10    2.20
   2  -4 -13    8.70    3.60
   1  -4 -13   49.99    6.90
   0  -4 -13    6.80    2.90
  -1  -4 -13   -2.30    1.70
   9  -5 -13    6.00    2.70
  -9   5  13    4.50    2.00
   8  -5 -13   -1.80    1.30
   8  -5 -13    4.70    2.00
   7  -5 -13   15.40    3.40
   7  -5 -13   15.20    3.50
   6  -5 -13   -1.20    1.20
   6  -5 -13   -0.90    0.80
   5  -5 -13   -0.60    0.80
   5  -5 -13   -1.30    1.50
   4  -5 -13    0.10    1.10
   4  -5 -13   -0.50    1.80
   3  -5 -13   15.50    3.10
   3  -5 -13   13.80    3.80
   2  -5 -13   20.00    3.70
   2  -5 -13   14.30    4.30
   1  -5 -13    5.80    2.60
   0  -5 -13    6.40    3.00
   8  -6 -13    9.70    2.70
   8  -6 -13    6.70    2.70
  -8   6  13   16.00    3.70
   7  -6 -13    6.10    2.30
   7  -6 -13    2.40    1.80
   6  -6 -13    2.00    2.30
   6  -6 -13    7.60    2.00
   5  -6 -13    1.20    2.00
   5  -6 -13    3.60    1.70
   4  -6 -13   10.80    3.60
   4  -6 -13   18.60    3.60
   3  -6 -13   14.70    2.90
   3  -6 -13   18.70    4.70
   2  -6 -13    0.80    1.70
   2  -6 -13    1.80    2.30
   6  -7 -13   24.70    3.80
   6  -7 -13   21.50    4.80
   5  -7 -13   -1.10    1.10
   5  -7 -13   -2.00    1.80
   0   9 -14    3.00    2.00
  -1   9 -14    6.80    2.40
   1  -9  14    6.90    2.00
  -2   9 -14   19.60    3.60
   2  -9  14   29.20    3.50
  -3   9 -14   -0.70    1.50
   3  -9  14    0.00    1.10
   2   8 -14   12.50    3.40
  -2  -8  14    7.80    2.00
   1   8 -14   -1.10    1.30
  -1  -8  14    0.60    0.90
   0   8 -14   -1.00    1.20
   0  -8  14   -0.70    0.60
  -1   8 -14   33.40    4.10
   1  -8  14   45.30    4.10
  -2   8 -14    1.20    1.40
   2  -8  14    2.30    1.20
  -3   8 -14   13.00    3.00
   3  -8  14   12.90    2.40
  -4   8 -14   11.80    3.10
   4  -8  14   16.60    3.20
  -5   8 -14    8.60    3.10
   5  -8  14    6.60    1.70
   3   7 -14    2.70    2.00
  -3  -7  14    2.10    1.10
   2   7 -14    7.80    2.40
  -2  -7  14    6.40    1.70
   1   7 -14    0.90    1.40
  -1  -7  14    1.90    1.10
   0   7 -14    3.00    1.80
   0  -7  14    2.30    1.40
  -1   7 -14    0.90    1.20
   1  -7  14    1.30    1.10
  -2   7 -14   25.20    4.00
   2  -7  14   31.50    3.40
  -3   7 -14   18.40    3.50
   3  -7  14   19.00    3.00
  -4   7 -14    1.20    2.10
   4  -7  14    3.00    1.40
  -5   7 -14    8.60    3.40
   5  -7  14    3.90    1.60
   4   6 -14    1.20    1.10
  -4  -6  14    0.00    0.80
   3   6 -14    2.20    1.50
  -3  -6  14    0.30    0.70
   2   6 -14   22.10    3.90
  -2  -6  14   15.40    2.40
   1   6 -14    0.60    1.10
  -1  -6  14    2.10    1.10
   0   6 -14    0.80    1.00
   0  -6  14    0.10    0.50
  -1   6 -14   44.90    4.60
   1  -6  14   33.10    3.40
  -2   6 -14   11.70    3.10
   2  -6  14   10.40    2.30
   3  -6  14   95.19    6.10
  -4   6 -14    5.50    2.30
   4  -6  14    3.50    1.40
  -5   6 -14    1.50    2.10
  -5   6 -14    4.20    2.20
   5  -6  14    1.80    1.30
   5   5 -14    6.30    2.40
  -5  -5  14    5.00    1.30
   4   5 -14    7.40    2.50
  -4  -5  14    3.30    1.20
   3   5 -14    1.90    1.40
  -3  -5  14    2.10    1.00
   2   5 -14    0.90    1.00
  -2  -5  14    1.10    0.80
   1   5 -14    1.50    1.20
  -1  -5  14    4.00    1.20
   0   5 -14    7.00    2.30
   0  -5  14    4.00    1.20
  -1   5 -14    9.10    2.40
   1  -5  14   10.20    2.30
   2  -5  14    3.10    1.40
  -3   5 -14   14.40    3.30
   3  -5  14   10.60    2.80
  -4   5 -14    1.40    2.10
   4  -5  14    1.30    0.90
  -5   5 -14   -3.60    1.30
   5  -5  14    0.80    1.10
   6   4 -14    9.70    2.80
  -6  -4  14    5.90    1.30
   5   4 -14   26.80    4.80
  -5  -4  14   26.80    2.50
   4   4 -14   15.60    3.40
  -4  -4  14   13.70    2.30
   3   4 -14    1.40    1.20
  -3  -4  14    1.50    0.80
   2   4 -14    6.00    2.10
  -2  -4  14    2.90    1.10
   1   4 -14   18.40    3.50
  -1  -4  14   15.00    2.30
   0   4 -14   11.80    2.70
   0  -4  14   21.60    2.40
  -1   4 -14   62.29    5.60
   1  -4  14   71.09    4.70
  -2   4 -14   45.30    4.50
   2  -4  14   58.39    4.40
  -3   4 -14    2.50    1.90
   3  -4  14    0.40    0.60
  -4   4 -14    0.70    2.00
   4  -4  14    1.90    0.90
  -5   4 -14    1.10    2.10
  -5   4 -14   -1.50    1.30
   7   3 -14    4.80    2.00
  -7  -3  14    4.70    1.00
   6   3 -14   38.50    6.00
  -6  -3  14   30.30    2.60
  -5  -3  14    0.10    0.50
   4   3 -14    0.70    1.20
  -4  -3  14    2.30    0.90
   3   3 -14   18.30    3.90
  -3  -3  14   17.20    2.00
   2   3 -14   17.90    3.60
  -2  -3  14   23.10    2.40
   1   3 -14    8.50    2.00
  -1  -3  14    9.60    1.90
   0   3 -14   40.80    4.50
   0  -3  14   32.20    3.10
  -1   3 -14   99.99    6.40
   1  -3  14  101.59    5.80
  -2   3 -14    6.20    2.40
   2  -3  14   10.50    2.20
  -3   3 -14   17.30    4.30
   3  -3  14   19.00    3.30
  -4   3 -14    3.50    2.40
  -5   3 -14    6.10    3.20
  -5   3 -14    2.10    2.20
   5  -3  14    6.00    1.70
   7   2 -14   17.60    3.90
  -7  -2  14   13.10    1.60
   6   2 -14    5.60    2.20
  -6  -2  14    3.60    1.10
   5   2 -14   11.00    3.00
  -5  -2  14   10.10    1.80
   4   2 -14   13.60    2.70
  -4  -2  14   15.20    2.40
   3   2 -14   -0.60    0.90
  -3  -2  14    0.50    0.50
   2   2 -14    0.40    0.70
  -2  -2  14   -0.70    0.30
   1   2 -14   14.20    2.90
   1   2 -14   16.70    1.80
  -1  -2  14   21.20    2.40
   0   2 -14   18.90    2.80
   0  -2  14   21.10    2.40
  -1   2 -14    0.50    1.90
   1  -2  14    2.30    1.10
  -2   2 -14    2.10    1.40
   2  -2  14    1.50    1.00
  -3   2 -14   34.20    6.50
   3  -2  14   27.80    3.30
  -4   2 -14    4.70    3.30
   4  -2  14    6.70    1.60
  -5   2 -14    1.70    2.70
  -5   2 -14    3.40    2.90
   5  -2  14    2.60    1.30
   8   1 -14   10.70    3.30
   7   1 -14   31.20    5.20
  -7  -1  14   27.20    2.20
   6   1 -14    0.80    1.00
   5   1 -14    0.30    1.10
  -5  -1  14    1.50    0.70
   4   1 -14    0.00    0.90
  -4  -1  14    2.00    0.90
   3   1 -14    9.80    1.40
   3   1 -14   10.60    2.50
  -3  -1  14   15.30    2.30
   2   1 -14   14.50    1.90
   2   1 -14   12.80    3.20
  -2  -1  14    9.10    1.80
   1   1 -14   29.00    3.80
   1   1 -14   29.10    3.20
  -1  -1  14   29.40    2.80
   0   1 -14    5.20    2.00
   0  -1  14    4.10    1.30
  -1   1 -14   10.60    3.50
   1  -1  14   18.10    2.90
  -2   1 -14   23.40    5.50
   2  -1  14   24.40    2.90
  -3   1 -14    3.30    2.10
   3  -1  14    1.20    1.00
  -4   1 -14   18.90    5.90
   8   0 -14   14.60    3.50
   7   0 -14    3.10    1.50
   6   0 -14    1.10    1.20
  -6   0  14    1.10    2.70
  -6   0  14    1.80    0.90
   5   0 -14    1.40    1.00
  -5   0  14    1.80    0.80
  -5   0  14    4.40    1.50
   4   0 -14   27.10    2.60
   4   0 -14   30.80    5.00
  -4   0  14   28.60    2.60
   3   0 -14    4.10    1.40
   3   0 -14    4.00    1.70
  -3   0  14    4.60    1.30
   2   0 -14    7.70    2.20
   2   0 -14    7.80    2.00
  -2   0  14    6.90    1.60
   1   0 -14   49.70    5.30
  -1   0  14   50.89    3.90
   0   0 -14    4.70    1.80
   0   0  14    0.90    1.00
  -1   0 -14   16.10    4.30
   1   0  14   13.20    2.60
  -2   0 -14    8.60    4.00
   2   0  14    7.80    2.10
  -3   0 -14   15.10    5.40
  -4   0 -14    3.60    2.90
   8  -1 -14    6.70    2.30
   7  -1 -14    5.00    1.90
   6  -1 -14   -0.50    0.80
   5  -1 -14    7.80    2.10
   5  -1 -14    9.90    2.20
   4  -1 -14   26.30    4.50
   4  -1 -14   25.10    3.10
  -4   1  14   21.50    2.40
   3  -1 -14    3.10    1.40
  -3   1  14    3.80    1.20
   2  -1 -14   31.60    4.20
   2  -1 -14   30.00    3.90
  -2   1  14   36.10    3.30
   1  -1 -14    1.30    1.20
  -1   1  14   -0.20    0.60
   0  -1 -14   13.30    4.30
  -1  -1 -14    8.20    3.60
  -2  -1 -14    4.10    2.80
  -3  -1 -14   14.10    4.80
   8  -2 -14   -1.40    0.80
   7  -2 -14    0.50    1.00
   6  -2 -14    4.00    1.80
   6  -2 -14    2.40    1.40
   5  -2 -14   11.60    2.70
   5  -2 -14   20.70    3.50
   4  -2 -14    4.60    2.10
   4  -2 -14    2.20    1.40
   3  -2 -14   46.00    5.00
   3  -2 -14   48.90    4.80
   2  -2 -14   18.40    3.80
   2  -2 -14    7.70    2.70
   1  -2 -14    0.40    1.50
   0  -2 -14   30.00    6.60
  -1  -2 -14   20.00    5.10
  -2  -2 -14    2.10    2.40
   8  -3 -14    3.70    1.70
   7  -3 -14   46.40    4.90
   7  -3 -14   36.70    4.60
   6  -3 -14    6.40    2.10
   6  -3 -14    5.80    2.00
   5  -3 -14   91.99    7.10
   5  -3 -14   90.39    7.10
   4  -3 -14    2.70    1.20
   4  -3 -14    1.20    1.40
   3  -3 -14    1.70    1.30
   3  -3 -14    1.40    1.00
   2  -3 -14    0.30    1.40
   2  -3 -14    1.50    1.20
   1  -3 -14   19.80    4.90
   0  -3 -14   -0.40    1.80
  -1  -3 -14   -3.30    2.10
   8  -4 -14   -0.40    1.50
   7  -4 -14   -0.40    1.10
   7  -4 -14    1.90    1.70
   6  -4 -14   22.30    4.00
   6  -4 -14   28.90    4.20
   5  -4 -14   -0.30    1.40
   5  -4 -14   -0.10    1.10
   4  -4 -14   -1.70    0.80
   4  -4 -14    1.10    1.50
   3  -4 -14   45.40    5.90
   3  -4 -14   39.60    4.40
   2  -4 -14    8.60    3.20
   2  -4 -14    6.40    2.90
   1  -4 -14   45.30    6.60
   0  -4 -14    5.50    3.00
   7  -5 -14    2.80    1.60
   7  -5 -14    0.20    2.10
   6  -5 -14    5.30    2.60
   6  -5 -14    6.20    3.00
   5  -5 -14    1.70    2.10
   5  -5 -14    2.80    1.50
   4  -5 -14    2.10    3.80
   4  -5 -14    8.40    2.50
   3  -5 -14    2.30    2.00
   3  -5 -14    4.90    2.50
   2  -5 -14    5.10    1.90
   2  -5 -14    4.80    2.70
   6  -6 -14   -1.10    1.50
   6  -6 -14    0.00    1.70
   5  -6 -14   63.39    7.50
   5  -6 -14   64.79    5.90
   4  -6 -14   58.89    7.30
   4  -6 -14   56.69    5.50
   0   8 -15    6.20    3.80
   0  -8  15    7.90    1.90
  -1   8 -15   18.20    4.40
   1  -8  15   24.70    3.90
  -2   8 -15    5.70    2.60
   2  -8  15    3.80    1.50
  -3   8 -15   10.80    3.20
   3  -8  15   15.70    3.10
   2   7 -15    2.50    1.70
  -2  -7  15   -1.00    0.80
   1   7 -15   -0.10    2.10
  -1  -7  15    0.90    0.90
   0   7 -15    0.30    1.30
   0  -7  15   -0.20    0.60
   1  -7  15    0.80    0.80
  -2   7 -15    0.60    1.10
   2  -7  15    1.30    1.20
  -3   7 -15    0.70    1.50
   3  -7  15    1.10    0.90
   4  -7  15    0.80    1.10
   4   6 -15    5.20    2.10
  -4  -6  15    6.40    1.70
   3   6 -15   46.60    5.00
  -3  -6  15   42.80    3.70
   2   6 -15    3.30    2.00
  -2  -6  15    2.50    1.30
   1   6 -15   -0.90    1.10
  -1  -6  15   -0.10    0.80
   0   6 -15   16.70    3.50
   0  -6  15   13.80    2.30
  -1   6 -15    1.60    1.40
   1  -6  15    1.40    1.10
  -2   6 -15    8.20    2.80
   2  -6  15   13.00    2.80
   3  -6  15   33.40    3.60
  -4   6 -15   17.70    4.00
   4  -6  15   19.80    3.30
   5   5 -15   93.89    8.00
  -5  -5  15   87.69    5.20
   4   5 -15   11.10    3.10
  -4  -5  15    4.70    1.30
   3   5 -15    2.80    1.90
  -3  -5  15    1.00    0.90
   2   5 -15    2.30    1.60
  -2  -5  15   -0.20    0.60
   1   5 -15    6.30    2.50
  -1  -5  15    7.20    1.60
   0   5 -15    1.90    1.50
   0  -5  15    5.90    1.60
   1  -5  15   -0.20    0.60
   2  -5  15   -0.20    0.50
  -3   5 -15    8.00    2.90
   3  -5  15   11.80    2.40
  -4   5 -15    0.60    2.50
   4  -5  15    7.80    1.90
   5   4 -15   47.90    5.50
  -5  -4  15   43.60    3.30
   4   4 -15   -0.80    0.90
  -4  -4  15    0.50    0.60
   3   4 -15   14.80    4.70
  -3  -4  15   15.10    2.50
   2   4 -15    6.30    2.20
  -2  -4  15    7.70    1.70
   1   4 -15    4.50    2.10
  -1  -4  15    4.80    1.40
   0   4 -15    0.70    1.10
   0  -4  15    0.10    0.50
  -1   4 -15   61.09    5.80
   1  -4  15   71.49    5.00
  -2   4 -15    2.70    1.70
   2  -4  15    0.40    0.90
  -3   4 -15   -0.50    2.10
   3  -4  15    2.10    1.00
  -4   4 -15   -0.80    2.90
   4  -4  15   -0.60    0.70
   6   3 -15   15.30    3.70
  -6  -3  15   16.20    2.40
   5   3 -15    6.40    2.50
  -5  -3  15    5.60    1.50
   4   3 -15   14.80    3.60
  -4  -3  15   18.20    2.10
   3   3 -15    6.70    2.50
  -3  -3  15    3.00    1.10
   2   3 -15    2.20    1.10
  -2  -3  15    0.90    0.70
   1   3 -15   19.10    3.50
  -1  -3  15   24.90    2.70
   0   3 -15   33.50    4.20
   0  -3  15   32.20    3.10
  -1   3 -15    3.10    1.50
   1  -3  15   -0.50    0.40
   2  -3  15    0.40    0.60
  -3   3 -15    8.90    3.00
   3  -3  15    7.40    1.80
  -4   3 -15   13.10    4.60
   4  -3  15   11.90    2.40
   7   2 -15    3.00    1.90
  -7  -2  15    1.50    0.80
   6   2 -15    4.30    1.90
  -6  -2  15   10.10    1.70
   5   2 -15   30.60    5.00
  -5  -2  15   29.70    2.60
   4   2 -15    5.30    2.20
  -4  -2  15   10.00    1.80
   3   2 -15    3.30    1.40
  -3  -2  15    3.50    1.10
   2   2 -15    6.60    2.10
  -2  -2  15    9.40    1.80
   1   2 -15    3.70    1.40
   1   2 -15    4.80    1.30
  -1  -2  15    7.40    1.80
   0   2 -15    0.60    1.10
   0   2 -15    0.20    0.90
  -1   2 -15    5.10    2.50
   1  -2  15    2.60    1.40
  -2   2 -15   25.80    5.00
   2  -2  15   19.10    3.00
  -3   2 -15   -1.70    2.80
   3  -2  15    0.80    0.90
  -4   2 -15    3.40    3.00
   4  -2  15    1.20    0.90
   7   1 -15   -1.10    1.20
  -7  -1  15    1.00    0.80
   6   1 -15   36.00    5.90
  -6  -1  15   36.10    2.80
   5   1 -15   38.50    4.70
  -5  -1  15   28.80    2.70
   4   1 -15    3.80    1.80
  -4  -1  15    1.10    0.70
   3   1 -15    2.30    1.30
   3   1 -15    4.90    1.20
  -3  -1  15    4.20    1.30
   2   1 -15   31.30    2.90
   2   1 -15   32.20    4.10
  -2  -1  15   32.30    3.10
   1   1 -15    1.70    1.40
   1   1 -15    2.10    1.50
  -1  -1  15    3.10    1.20
   0   1 -15   38.10    7.30
   0  -1  15   37.20    3.50
  -1   1 -15   42.20    5.70
   1  -1  15   43.80    3.90
  -2   1 -15   41.60    7.80
   2  -1  15   36.70    3.70
  -3   1 -15    0.80    2.60
   3  -1  15    2.30    1.40
   7   0 -15    0.20    1.20
   6   0 -15    3.20    1.50
  -6   0  15    0.70    0.90
   5   0 -15   -0.10    0.90
  -5   0  15   -0.40    0.50
   4   0 -15   14.90    3.60
   4   0 -15   14.90    2.20
  -4   0  15   15.50    2.50
   3   0 -15   19.50    3.90
   3   0 -15   23.90    2.80
  -3   0  15   20.90    2.40
   2   0 -15    2.20    1.70
   2   0 -15    2.90    1.60
  -2   0  15    1.60    1.00
   1   0 -15  105.09    7.70
   1   0 -15  121.79    8.30
  -1   0  15  113.69    6.50
   0   0 -15    6.70    2.60
  -1   0 -15   48.10    6.60
   1   0  15   44.20    4.20
  -2   0 -15    3.80    2.10
  -3   0 -15   16.00    5.60
   8  -1 -15    5.90    2.00
   7  -1 -15    2.30    1.40
   6  -1 -15   21.10    3.80
   5  -1 -15   27.10    5.00
   4  -1 -15    2.80    1.30
   4  -1 -15    3.30    1.50
   3  -1 -15   72.49    6.40
   3  -1 -15   74.29    5.90
   2  -1 -15    4.40    2.20
   2  -1 -15    4.00    1.60
   1  -1 -15    3.50    2.30
   0  -1 -15   -1.40    1.80
  -1  -1 -15    9.40    3.50
  -2  -1 -15   11.60    4.60
   8  -2 -15    2.00    1.40
   7  -2 -15   -1.70    0.90
   6  -2 -15    2.50    1.40
   6  -2 -15    2.70    1.60
   5  -2 -15   10.40    2.40
   5  -2 -15    9.00    2.40
   4  -2 -15   51.59    5.10
   4  -2 -15   73.59   13.70
   3  -2 -15   10.80    4.10
   3  -2 -15    5.40    2.20
   2  -2 -15   -0.50    1.00
   2  -2 -15   -0.40    1.30
   1  -2 -15   54.49    6.60
   0  -2 -15   22.10    5.40
  -1  -2 -15   19.60    5.20
   7  -3 -15    1.20    1.20
   6  -3 -15    4.10    1.80
   6  -3 -15    2.70    1.90
   5  -3 -15    9.20    3.00
   5  -3 -15    6.00    2.20
   4  -3 -15    8.50    2.60
   4  -3 -15    5.30    2.40
   3  -3 -15    0.40    1.70
   3  -3 -15    2.70    1.50
   2  -3 -15   17.10    4.50
   2  -3 -15    9.70    2.60
   1  -3 -15   -2.30    2.00
   0  -3 -15   -0.70    2.20
   7  -4 -15   15.10    3.60
   7  -4 -15   15.90    3.60
   6  -4 -15    2.10    1.80
   6  -4 -15   -0.70    1.30
   5  -4 -15    7.10    2.80
   5  -4 -15    7.80    2.50
   4  -4 -15   -0.20    1.50
   4  -4 -15    1.60    1.10
   3  -4 -15   38.50    4.60
   2  -4 -15   23.80    5.60
   2  -4 -15   16.90    3.80
   5  -5 -15    7.20    2.40
   5  -5 -15    1.50    2.00
   4  -5 -15   40.60    4.70
   1   7 -16    1.20    1.50
  -1  -7  16   -1.60    1.00
   0   7 -16    2.30    1.80
   0  -7  16    4.60    1.60
  -1   7 -16    2.20    1.90
   1  -7  16    2.70    1.20
  -2   7 -16    5.50    2.30
   2  -7  16    1.40    1.20
   2   6 -16    4.00    2.00
  -2  -6  16    5.60    1.80
   1   6 -16   11.90    2.80
  -1  -6  16   11.40    2.10
   0   6 -16    2.20    1.60
   0  -6  16    2.00    1.00
  -1   6 -16   -0.70    0.90
   1  -6  16   -0.10    0.80
  -2   6 -16   -2.20    1.00
   2  -6  16    1.10    1.10
  -3   6 -16   36.40    4.50
   3  -6  16   35.20    3.90
   4   5 -16    1.30    1.50
   3   5 -16   46.60    5.50
  -3  -5  16   45.00    3.80
   2   5 -16    7.10    2.00
   1   5 -16    3.70    1.70
  -1  -5  16    3.20    1.20
   0   5 -16    3.80    2.00
   0  -5  16    4.60    1.40
  -1   5 -16    1.20    1.10
   1  -5  16    1.30    0.80
  -2   5 -16   54.29    5.70
   2  -5  16   54.49    4.50
  -3   5 -16    2.40    2.40
   3  -5  16    0.80    0.80
   5   4 -16    1.50    1.40
   4   4 -16    5.40    2.20
  -4  -4  16    8.00    1.80
   3   4 -16    3.30    1.80
  -3  -4  16    1.90    1.00
   2   4 -16    2.30    1.80
  -2  -4  16    3.30    1.90
   1   4 -16    4.70    2.20
  -1  -4  16    2.50    1.20
   0   4 -16    0.20    1.20
   0  -4  16    1.30    0.80
  -1   4 -16   27.90    5.00
   1  -4  16   30.60    3.20
  -2   4 -16    3.50    2.10
   2  -4  16    3.90    1.70
  -3   4 -16   13.60    3.30
   3  -4  16   11.30    2.50
   5   3 -16   -2.10    1.40
  -5  -3  16    1.20    0.90
   4   3 -16   19.50    4.40
  -4  -3  16   16.10    2.60
   3   3 -16    5.00    1.90
  -3  -3  16    3.20    1.10
   2   3 -16    0.70    1.20
  -2  -3  16    0.70    0.70
   1   3 -16    9.70    2.70
   0   3 -16   15.30    3.50
   0  -3  16   10.70    2.20
   1  -3  16   10.90    2.30
  -2   3 -16   15.40    3.90
   2  -3  16   20.00    3.40
  -3   3 -16   14.80    4.10
   3  -3  16   15.90    2.90
   6   2 -16    2.30    1.70
  -6  -2  16    0.10    0.70
   5   2 -16   -0.50    1.10
  -5  -2  16    1.90    1.00
   4   2 -16    1.50    1.70
  -4  -2  16    3.50    1.10
   3   2 -16   15.00    3.30
  -3  -2  16   15.70    2.50
   2   2 -16   -0.40    1.30
  -2  -2  16    0.70    1.00
   1   2 -16    4.70    1.80
   0   2 -16    2.10    1.50
   0   2 -16    2.50    1.70
   0  -2  16    4.00    1.50
  -1   2 -16   20.90    4.60
   1  -2  16   20.20    3.20
  -2   2 -16    7.70    3.70
   2  -2  16    7.60    2.00
   6   1 -16    3.40    1.80
  -6  -1  16    2.60    1.00
   5   1 -16   -1.00    1.00
  -5  -1  16   -1.00    0.70
   4   1 -16   42.90    5.20
  -4  -1  16   47.50    3.70
   3   1 -16    1.90    1.10
  -3  -1  16    2.10    0.80
   2   1 -16   -0.50    0.70
   2   1 -16    0.80    1.10
  -2  -1  16    1.20    0.80
   1   1 -16   23.20    3.80
   1   1 -16   27.70    4.90
  -1  -1  16   31.70    3.30
   0   1 -16    0.90    1.50
  -1   1 -16   12.20    3.60
   1  -1  16   16.30    3.00
  -2   1 -16   17.80    5.60
   6   0 -16    0.60    1.30
   5   0 -16    0.90    1.20
  -5   0  16    2.90    1.10
   4   0 -16    1.80    1.50
  -4   0  16    0.10    0.50
   3   0 -16   -0.20    1.00
   3   0 -16   -1.40    1.10
  -3   0  16   -0.90    0.80
   2   0 -16   13.10    2.90
   2   0 -16   21.10    3.70
   1   0 -16    6.70    2.30
   1   0 -16    8.00    2.40
  -1   0  16    5.60    1.80
   0   0 -16    6.20    2.50
   0   0  16    5.90    2.10
  -1   0 -16  111.39   10.10
   7  -1 -16   12.00    3.40
   6  -1 -16   -1.70    0.80
   5  -1 -16    7.80    2.70
   5  -1 -16   10.00    2.40
   4  -1 -16    4.90    1.50
   4  -1 -16    1.30    1.30
   3  -1 -16    7.40    2.30
   3  -1 -16   12.00    3.20
   2  -1 -16    9.00    2.80
   2  -1 -16   13.90    3.50
   1  -1 -16    2.70    1.90
   1  -1 -16    0.40    1.30
   0  -1 -16   16.10    4.60
   6  -2 -16    0.30    1.00
   6  -2 -16   -0.10    1.50
   5  -2 -16   13.30    2.90
   5  -2 -16   14.80    3.40
   4  -2 -16   14.50    3.50
   4  -2 -16   12.80    3.30
   3  -2 -16   15.00    3.70
   3  -2 -16   15.80    3.80
   2  -2 -16    2.60    1.40
   2  -2 -16    0.70    2.00
   1  -2 -16    4.40    1.80
   1  -2 -16    0.60    2.20
   6  -3 -16    0.30    1.80
   6  -3 -16   -1.70    1.00
   5  -3 -16    2.90    1.70
   5  -3 -16   -0.10    1.70
   4  -3 -16    2.30    1.00
   4  -3 -16    0.00    1.80
   3  -3 -16    0.60    1.30
   3  -3 -16   -0.90    1.80
   2  -3 -16    3.50    3.00
   2  -3 -16    2.00    1.70
   2   5 -17    2.80    1.80
  -2  -5  17    4.40    1.30
   1   5 -17    4.00    2.10
  -1  -5  17    7.30    1.90
   0   5 -17    1.80    1.90
   0  -5  17    2.10    1.10
  -1   5 -17    1.70    1.40
   1  -5  17    2.10    1.30
   3   4 -17   10.90    3.10
  -3  -4  17   10.20    2.00
   2   4 -17    3.10    1.50
  -2  -4  17    2.50    1.00
   1   4 -17    7.20    2.10
  -1  -4  17    4.70    1.70
   0   4 -17    0.10    0.90
   0  -4  17   -1.00    0.80
  -1   4 -17    1.80    1.40
   1  -4  17    3.40    1.60
   4   3 -17    1.80    1.80
  -4  -3  17    7.10    1.70
   3   3 -17    0.90    1.60
  -3  -3  17    3.40    1.20
   2   3 -17   30.70    5.50
  -2  -3  17   22.30    2.60
   1   3 -17    4.50    2.00
   0   3 -17    9.10    2.90
   0  -3  17    9.20    2.10
  -1   3 -17    9.60    3.40
  -1   3 -17    5.70    2.30
   1  -3  17   15.00    2.70
   5   2 -17   -1.40    1.40
  -5  -2  17    0.60    1.20
   4   2 -17   -1.60    1.40
  -4  -2  17   -0.40    0.50
   3   2 -17    7.90    2.50
  -3  -2  17   11.30    2.00
   2   2 -17    1.60    1.40
  -2  -2  17    2.50    1.10
   1   2 -17   27.40    5.20
  -1  -2  17   24.30    2.90
   0   2 -17    2.20    1.60
   0   2 -17    2.10    2.00
   0  -2  17    4.50    1.60
  -1   2 -17    3.60    2.60
   5   1 -17   15.40    3.10
  -5  -1  17   21.30    2.50
   4   1 -17    8.60    3.20
  -4  -1  17    4.20    1.60
   3   1 -17   36.60    4.90
  -3  -1  17   39.20    3.60
   2   1 -17    7.50    1.80
   2   1 -17   10.10    3.10
  -2  -1  17   10.90    2.10
   1   1 -17   15.60    3.40
   1   1 -17   12.70    3.30
  -1  -1  17   15.70    2.60
   0   1 -17    1.10    1.80
   0  -1  17    0.70    1.00
   5   0 -17   -1.30    0.80
   4   0 -17    9.50    2.60
  -4   0  17    6.10    1.60
   3   0 -17   15.20    2.70
   3   0 -17   14.60    3.40
  -3   0  17   15.90    2.60
   2   0 -17   10.70    2.80
   2   0 -17   10.20    2.50
  -2   0  17    7.00    1.80
   1   0 -17    1.60    1.30
  -1   0  17   -0.90    0.90
   0   0 -17    0.00    2.60
   5  -1 -17   -2.40    0.90
   4  -1 -17    7.40    2.20
   4  -1 -17   14.00    2.90
   3  -1 -17   -2.80    1.30
   3  -1 -17    1.10    1.50
   2  -1 -17    1.70    1.80
   2  -1 -17    4.30    2.40
   0   0   0    0.00    0.00

_computing_structure_solution     'SHELXT 2014/5 (Sheldrick, 2014)'
;
_shelx_hkl_checksum              8569
_olex2_submission_special_instructions 'No special instructions were received'
loop_
_space_group_symop_operation_xyz
'x, y, z'
'-x, -y, -z'
loop_
_atom_site_label
_atom_site_type_symbol
_atom_site_fract_x
_atom_site_fract_y
_atom_site_fract_z
_atom_site_U_iso_or_equiv
_atom_site_adp_type
_atom_site_occupancy
_atom_site_site_symmetry_order
_atom_site_calc_flag
_atom_site_refinement_flags_posn
_atom_site_refinement_flags_adp
_atom_site_refinement_flags_occupancy
_atom_site_disorder_assembly
_atom_site_disorder_group
Cl1 Cl 0.85782(5) 0.80366(5) 0.85704(3) 0.03259(11) Uani 1 1 d . . . . .
O1 O 0.20902(15) 0.17167(14) 0.75836(9) 0.0278(2) Uani 1 1 d . . . . .
O2 O 0.39690(15) 0.10601(14) 0.43090(9) 0.0256(2) Uani 1 1 d . . . . .
N1 N 0.31070(17) 0.13993(17) 0.59987(11) 0.0236(2) Uani 1 1 d . . . . .
C1 C 0.7139(2) 0.4422(2) 0.50286(13) 0.0256(3) Uani 1 1 d . . . . .
H1 H 0.692672 0.362912 0.431231 0.031 Uiso 1 1 calc R . . . .
C2 C 0.8699(2) 0.6111(2) 0.54008(14) 0.0293(3) Uani 1 1 d . . . . .
H2 H 0.952538 0.651863 0.492123 0.035 Uiso 1 1 calc R . . . .
C3 C 0.9072(2) 0.7233(2) 0.64875(14) 0.0285(3) Uani 1 1 d . . . . .
H3 H 1.018717 0.837837 0.676256 0.034 Uiso 1 1 calc R . . . .
C4 C 0.7830(2) 0.6682(2) 0.71582(13) 0.0244(3) Uani 1 1 d . . . . .
C5 C 0.6100(2) 0.50197(19) 0.67751(12) 0.0221(3) Uani 1 1 d . . . . .
C6 C 0.5848(2) 0.38614(19) 0.57078(12) 0.0221(3) Uani 1 1 d . . . . .
C7 C 0.4240(2) 0.20768(19) 0.53562(12) 0.0222(3) Uani 1 1 d . . . . .
C8 C 0.3364(2) 0.25440(19) 0.69942(13) 0.0232(3) Uani 1 1 d . . . . .
C9 C 0.4655(2) 0.43768(19) 0.73784(12) 0.0226(3) Uani 1 1 d . . . . .
C10 C 0.4144(2) 0.5463(2) 0.81797(12) 0.0241(3) Uani 1 1 d . . . . .
C11 C 0.3042(2) 0.4585(2) 0.88853(13) 0.0269(3) Uani 1 1 d . . . . .
C12 C 0.2654(2) 0.2681(2) 0.87912(13) 0.0288(3) Uani 1 1 d . . . . .
H12A H 0.380416 0.268523 0.919559 0.035 Uiso 1 1 calc R . . . .
H12B H 0.163443 0.206943 0.916060 0.035 Uiso 1 1 calc R . . . .
C13 C 0.4423(2) 0.7189(2) 0.81413(14) 0.0292(3) Uani 1 1 d . . . . .
H13 H 0.512235 0.778973 0.764645 0.035 Uiso 1 1 calc R . . . .
C14 C 0.3682(3) 0.8025(2) 0.88232(15) 0.0356(4) Uani 1 1 d . . . . .
H14 H 0.388384 0.919704 0.879472 0.043 Uiso 1 1 calc R . . . .
C15 C 0.2647(3) 0.7160(3) 0.95479(16) 0.0381(4) Uani 1 1 d . . . . .
H15 H 0.217377 0.775349 1.002822 0.046 Uiso 1 1 calc R . . . .
C16 C 0.2310(2) 0.5432(2) 0.95666(14) 0.0334(4) Uani 1 1 d . . . . .
H16 H 0.157645 0.482533 1.004591 0.040 Uiso 1 1 calc R . . . .
C17 C 0.2335(2) -0.0740(2) 0.39351(14) 0.0274(3) Uani 1 1 d . . . . .
H17A H 0.116474 -0.066369 0.393131 0.033 Uiso 1 1 calc R . . . .
H17B H 0.244612 -0.146813 0.446707 0.033 Uiso 1 1 calc R . . . .
C18 C 0.2267(3) -0.1606(2) 0.27336(15) 0.0340(4) Uani 1 1 d . . . . .
H18A H 0.123656 -0.286140 0.248048 0.051 Uiso 1 1 calc GR . . . .
H18B H 0.347125 -0.158739 0.273656 0.051 Uiso 1 1 calc GR . . . .
H18C H 0.205048 -0.093136 0.220230 0.051 Uiso 1 1 calc GR . . . .
loop_
_atom_site_aniso_label
_atom_site_aniso_U_11
_atom_site_aniso_U_22
_atom_site_aniso_U_33
_atom_site_aniso_U_23
_atom_site_aniso_U_13
_atom_site_aniso_U_12
Cl1 0.0279(2) 0.0244(2) 0.0285(2) 0.00282(15) 0.00291(15) 0.00149(15)
O1 0.0236(5) 0.0220(5) 0.0244(5) 0.0039(4) 0.0078(4) 0.0001(4)
O2 0.0248(5) 0.0201(5) 0.0236(5) 0.0021(4) 0.0057(4) 0.0054(4)
N1 0.0206(6) 0.0198(6) 0.0238(6) 0.0049(5) 0.0043(5) 0.0052(5)
C1 0.0252(7) 0.0253(7) 0.0273(7) 0.0087(6) 0.0098(6) 0.0116(6)
C2 0.0259(7) 0.0275(8) 0.0345(8) 0.0123(7) 0.0147(6) 0.0096(6)
C3 0.0224(7) 0.0209(7) 0.0360(8) 0.0097(6) 0.0084(6) 0.0045(6)
C4 0.0217(7) 0.0189(7) 0.0256(7) 0.0061(6) 0.0041(5) 0.0049(5)
C5 0.0192(6) 0.0192(7) 0.0238(7) 0.0070(6) 0.0044(5) 0.0059(5)
C6 0.0198(6) 0.0199(7) 0.0231(7) 0.0063(6) 0.0048(5) 0.0069(5)
C7 0.0221(7) 0.0183(7) 0.0229(7) 0.0044(5) 0.0044(5) 0.0079(5)
C8 0.0197(6) 0.0200(7) 0.0238(7) 0.0065(6) 0.0053(5) 0.0046(5)
C9 0.0211(6) 0.0195(7) 0.0218(7) 0.0057(5) 0.0046(5) 0.0057(5)
C10 0.0210(7) 0.0217(7) 0.0202(7) 0.0013(5) 0.0022(5) 0.0051(5)
C11 0.0205(7) 0.0267(8) 0.0223(7) 0.0030(6) 0.0027(5) 0.0044(6)
C12 0.0273(7) 0.0252(8) 0.0215(7) 0.0052(6) 0.0069(6) 0.0029(6)
C13 0.0303(8) 0.0249(8) 0.0262(7) 0.0038(6) 0.0044(6) 0.0102(6)
C14 0.0386(9) 0.0292(9) 0.0342(9) 0.0008(7) 0.0044(7) 0.0168(7)
C15 0.0344(9) 0.0412(10) 0.0348(9) -0.0008(8) 0.0089(7) 0.0188(8)
C16 0.0256(8) 0.0361(9) 0.0282(8) 0.0020(7) 0.0080(6) 0.0084(7)
C17 0.0240(7) 0.0201(7) 0.0288(8) 0.0018(6) 0.0037(6) 0.0056(6)
C18 0.0368(9) 0.0280(8) 0.0292(8) 0.0009(7) 0.0031(7) 0.0133(7)
loop_
_atom_type_symbol
_atom_type_description
_atom_type_scat_dispersion_real
_atom_type_scat_dispersion_imag
_atom_type_scat_source
C C 0.0033 0.0016 'International Tables Vol C Tables 4.2.6.8 and 6.1.1.4'
H H 0.0000 0.0000 'International Tables Vol C Tables 4.2.6.8 and 6.1.1.4'
Cl Cl 0.1484 0.1585 'International Tables Vol C Tables 4.2.6.8 and 6.1.1.4'
N N 0.0061 0.0033 'International Tables Vol C Tables 4.2.6.8 and 6.1.1.4'
O O 0.0106 0.0060 'International Tables Vol C Tables 4.2.6.8 and 6.1.1.4'
loop_
_geom_angle_atom_site_label_1
_geom_angle_atom_site_label_2
_geom_angle_atom_site_label_3
_geom_angle
_geom_angle_site_symmetry_1
_geom_angle_site_symmetry_3
_geom_angle_publ_flag
C8 O1 C12 113.41(11) . . ?
C7 O2 C17 116.48(11) . . ?
C7 N1 C8 116.52(12) . . ?
C2 C1 H1 120.0 . . ?
C2 C1 C6 120.04(15) . . ?
C6 C1 H1 120.0 . . ?
C1 C2 H2 120.1 . . ?
C1 C2 C3 119.89(14) . . ?
C3 C2 H2 120.1 . . ?
C2 C3 H3 119.9 . . ?
C4 C3 C2 120.15(14) . . ?
C4 C3 H3 119.9 . . ?
C3 C4 Cl1 116.36(12) . . ?
C3 C4 C5 122.57(14) . . ?
C5 C4 Cl1 120.83(11) . . ?
C4 C5 C6 115.23(13) . . ?
C4 C5 C9 126.80(14) . . ?
C6 C5 C9 117.90(13) . . ?
C1 C6 C5 121.64(13) . . ?
C1 C6 C7 121.06(14) . . ?
C5 C6 C7 117.30(12) . . ?
O2 C7 C6 115.84(12) . . ?
N1 C7 O2 119.87(13) . . ?
N1 C7 C6 124.25(14) . . ?
O1 C8 C9 121.61(13) . . ?
N1 C8 O1 111.81(12) . . ?
N1 C8 C9 126.45(13) . . ?
C5 C9 C10 127.74(13) . . ?
C8 C9 C5 115.71(13) . . ?
C8 C9 C10 115.25(12) . . ?
C11 C10 C9 116.91(13) . . ?
C13 C10 C9 123.82(13) . . ?
C13 C10 C11 118.42(14) . . ?
C10 C11 C12 115.15(14) . . ?
C16 C11 C10 120.89(15) . . ?
C16 C11 C12 123.89(14) . . ?
O1 C12 C11 109.35(12) . . ?
O1 C12 H12A 109.8 . . ?
O1 C12 H12B 109.8 . . ?
C11 C12 H12A 109.8 . . ?
C11 C12 H12B 109.8 . . ?
H12A C12 H12B 108.3 . . ?
C10 C13 H13 119.9 . . ?
C14 C13 C10 120.26(15) . . ?
C14 C13 H13 119.9 . . ?
C13 C14 H14 119.7 . . ?
C13 C14 C15 120.58(16) . . ?
C15 C14 H14 119.7 . . ?
C14 C15 H15 120.1 . . ?
C16 C15 C14 119.73(16) . . ?
C16 C15 H15 120.1 . . ?
C11 C16 H16 120.0 . . ?
C15 C16 C11 120.05(15) . . ?
C15 C16 H16 120.0 . . ?
O2 C17 H17A 110.2 . . ?
O2 C17 H17B 110.2 . . ?
O2 C17 C18 107.51(12) . . ?
H17A C17 H17B 108.5 . . ?
C18 C17 H17A 110.2 . . ?
C18 C17 H17B 110.2 . . ?
C17 C18 H18A 109.5 . . ?
C17 C18 H18B 109.5 . . ?
C17 C18 H18C 109.5 . . ?
H18A C18 H18B 109.5 . . ?
H18A C18 H18C 109.5 . . ?
H18B C18 H18C 109.5 . . ?
loop_
_geom_bond_atom_site_label_1
_geom_bond_atom_site_label_2
_geom_bond_distance
_geom_bond_site_symmetry_2
_geom_bond_publ_flag
Cl1 C4 1.7446(16) . ?
O1 C8 1.3597(16) . ?
O1 C12 1.4475(18) . ?
O2 C7 1.3423(17) . ?
O2 C17 1.4511(18) . ?
N1 C7 1.3067(18) . ?
N1 C8 1.3475(19) . ?
C1 H1 0.9500 . ?
C1 C2 1.370(2) . ?
C1 C6 1.4094(19) . ?
C2 H2 0.9500 . ?
C2 C3 1.398(2) . ?
C3 H3 0.9500 . ?
C3 C4 1.373(2) . ?
C4 C5 1.421(2) . ?
C5 C6 1.421(2) . ?
C5 C9 1.4388(19) . ?
C6 C7 1.435(2) . ?
C8 C9 1.385(2) . ?
C9 C10 1.475(2) . ?
C10 C11 1.403(2) . ?
C10 C13 1.402(2) . ?
C11 C12 1.496(2) . ?
C11 C16 1.388(2) . ?
C12 H12A 0.9900 . ?
C12 H12B 0.9900 . ?
C13 H13 0.9500 . ?
C13 C14 1.387(2) . ?
C14 H14 0.9500 . ?
C14 C15 1.391(3) . ?
C15 H15 0.9500 . ?
C15 C16 1.384(3) . ?
C16 H16 0.9500 . ?
C17 H17A 0.9900 . ?
C17 H17B 0.9900 . ?
C17 C18 1.506(2) . ?
C18 H18A 0.9800 . ?
C18 H18B 0.9800 . ?
C18 H18C 0.9800 . ?
