#------------------------------------------------------------------------------
#$Date: 2020-09-26 02:17:38 +0300 (Sat, 26 Sep 2020) $
#$Revision: 256778 $
#$URL: file:///home/coder/svn-repositories/cod/cif/4/03/88/4038840.cif $
#------------------------------------------------------------------------------
#
# This file is available in the Crystallography Open Database (COD),
# http://www.crystallography.net/
#
# All data on this site have been placed in the public domain by the
# contributors.
#
data_4038840
loop_
_publ_author_name
'Huang, Yange'
'Choy, Pui Ying'
'Wang, Junya'
'Tse, Man Kin'
'Sun, Raymond Wai-Yin'
'Chan, Albert Sun Chi'
'Kwong, Fuk Yee'
_publ_section_title
;
 Palladium-catalyzed Monoarylation of Arylhydrazines with Aryl Tosylates.
;
_journal_name_full               'The Journal of organic chemistry'
_journal_paper_doi               10.1021/acs.joc.0c01599
_journal_year                    2020
_chemical_formula_sum            'C16 H20 N2'
_chemical_formula_weight         240.34
_space_group_crystal_system      monoclinic
_space_group_IT_number           7
_space_group_name_Hall           'P -2yac'
_space_group_name_H-M_alt        'P 1 n 1'
_atom_sites_solution_hydrogens   geom
_audit_creation_method           SHELXL-2018/3
_cell_angle_alpha                90
_cell_angle_beta                 95.82(2)
_cell_angle_gamma                90
_cell_formula_units_Z            2
_cell_length_a                   6.381(4)
_cell_length_b                   13.803(9)
_cell_length_c                   7.880(5)
_cell_measurement_reflns_used    1082
_cell_measurement_temperature    296(2)
_cell_measurement_theta_max      15
_cell_measurement_theta_min      15
_cell_volume                     690.5(8)
_computing_cell_refinement       'BRUKER D8VENTURE DIFFRACTOMETER'
_computing_data_collection       'BRUKER D8VENTURE DIFFRACTOMETER'
_computing_data_reduction        'BRUKER D8VENTURE DIFFRACTOMETER'
_computing_molecular_graphics    'BRUKER SHELXTL'
_computing_publication_material  'BRUKER SHELXTL'
_computing_structure_refinement  'SHELXL-2018/3 (Sheldrick, 2018)'
_computing_structure_solution    'BRUKER D8VENTURE DIFFRACTOMETER'
_diffrn_ambient_temperature      296(2)
_diffrn_measured_fraction_theta_full 0.997
_diffrn_measured_fraction_theta_max 0.997
_diffrn_measurement_device_type  'BRUKER D8VENTURE DIFFRACTOMETER'
_diffrn_measurement_method       'PHI & OMEGA SCAN'
_diffrn_radiation_type           MoK\a
_diffrn_radiation_wavelength     0.71073
_diffrn_reflns_av_R_equivalents  0.0379
_diffrn_reflns_av_unetI/netI     0.0487
_diffrn_reflns_Laue_measured_fraction_full 0.997
_diffrn_reflns_Laue_measured_fraction_max 0.997
_diffrn_reflns_limit_h_max       7
_diffrn_reflns_limit_h_min       -7
_diffrn_reflns_limit_k_max       16
_diffrn_reflns_limit_k_min       -16
_diffrn_reflns_limit_l_max       9
_diffrn_reflns_limit_l_min       -9
_diffrn_reflns_number            6371
_diffrn_reflns_point_group_measured_fraction_full 0.974
_diffrn_reflns_point_group_measured_fraction_max 0.974
_diffrn_reflns_theta_full        25.242
_diffrn_reflns_theta_max         25.246
_diffrn_reflns_theta_min         2.951
_exptl_absorpt_coefficient_mu    0.068
_exptl_absorpt_correction_T_max  0.7456
_exptl_absorpt_correction_T_min  0.5627
_exptl_absorpt_correction_type   multi-scan
_exptl_crystal_colour            colourless
_exptl_crystal_density_diffrn    1.156
_exptl_crystal_description       block
_exptl_crystal_F_000             260
_exptl_crystal_size_max          0.400
_exptl_crystal_size_mid          0.300
_exptl_crystal_size_min          0.200
_refine_diff_density_max         0.180
_refine_diff_density_min         -0.176
_refine_diff_density_rms         0.029
_refine_ls_abs_structure_details
;
 Flack x determined using 751 quotients [(I+)-(I-)]/[(I+)+(I-)]
 (Parsons, Flack and Wagner, Acta Cryst. B69 (2013) 249-259).
;
_refine_ls_abs_structure_Flack   0.8(10)
_refine_ls_extinction_coef       0.10(2)
_refine_ls_extinction_expression Fc^*^=kFc[1+0.001xFc^2^\l^3^/sin(2\q)]^-1/4^
_refine_ls_extinction_method     'SHELXL-2018/3 (Sheldrick 2018)'
_refine_ls_goodness_of_fit_ref   1.028
_refine_ls_hydrogen_treatment    constr
_refine_ls_matrix_type           full
_refine_ls_number_parameters     164
_refine_ls_number_reflns         2442
_refine_ls_number_restraints     2
_refine_ls_restrained_S_all      1.028
_refine_ls_R_factor_all          0.0640
_refine_ls_R_factor_gt           0.0481
_refine_ls_shift/su_max          0.002
_refine_ls_shift/su_mean         0.000
_refine_ls_structure_factor_coef Fsqd
_refine_ls_weighting_details
'w=1/[\s^2^(Fo^2^)+(0.0619P)^2^+0.0393P] where P=(Fo^2^+2Fc^2^)/3'
_refine_ls_weighting_scheme      calc
_refine_ls_wR_factor_gt          0.1111
_refine_ls_wR_factor_ref         0.1209
_reflns_Friedel_coverage         0.943
_reflns_Friedel_fraction_full    0.952
_reflns_Friedel_fraction_max     0.952
_reflns_number_gt                1975
_reflns_number_total             2442
_reflns_threshold_expression     'I > 2\s(I)'
_cod_data_source_file            jo0c01599_si_003.cif
_cod_data_source_block           hygproduct
_cod_original_cell_volume        690.5(7)
_cod_original_sg_symbol_H-M      'P n'
_cod_database_code               4038840
_shelx_shelxl_version_number     2018/3
_shelx_space_group_comment
;
The symmetry employed for this shelxl refinement is uniquely defined
by the following loop, which should always be used as a source of
symmetry information in preference to the above space-group names.
They are only intended as comments.
;
_shelx_estimated_absorpt_t_min   0.973
_shelx_estimated_absorpt_t_max   0.986
_shelx_res_file
;
TITL p in Pn
    p.res
    created by SHELXL-2018/3 at 15:47:54 on 20-Dec-2019
CELL 0.71073   6.38070  13.80310   7.88020  90.0000  95.8185  90.0000
ZERR   2.00   0.00370   0.00870   0.00480   0.0000   0.0216   0.0000
LATT -1
SYMM 0.5+X, -Y, 0.5+Z
SFAC C H N
UNIT 32 40 4
rem C16 H20 N2
rem d8venture block colourless
omit -3 50.5
omit -1   0  -1
omit     0   0   2
omit     0   0  -2
omit    -1   0   1
omit     1   0  -1
size 0.40 0.30 0.20
TEMP 23

L.S. 4
acta
FMAP 2
PLAN 20
WGHT    0.061900    0.039300
EXTI    0.097123
FVAR       0.61908
N1    3    0.117729    0.542943    0.442506    11.00000    0.04247    0.04039 =
         0.08529   -0.00269    0.01396   -0.00257
N2    3    0.331274    0.550130    0.418095    11.00000    0.05095    0.04714 =
         0.16503   -0.01739    0.03920   -0.00216
AFIX  93
H2A   2    0.393433    0.605454    0.426712    11.00000   -1.20000
H2B   2    0.400407    0.499226    0.394470    11.00000   -1.20000
AFIX   0
C1    1    0.044781    0.447090    0.471196    11.00000    0.04355    0.03710 =
         0.05434   -0.00630    0.00187    0.00119
C2    1   -0.157855    0.418074    0.404946    11.00000    0.04583    0.03997 =
         0.06559    0.00544   -0.00748    0.00759
AFIX  43
H2C   2   -0.248342    0.462637    0.347299    11.00000   -1.20000
AFIX   0
C3    1   -0.223808    0.324159    0.424596    11.00000    0.04080    0.04298 =
         0.05921   -0.00032   -0.00741    0.00086
AFIX  43
H3A   2   -0.359295    0.306930    0.380220    11.00000   -1.20000
AFIX   0
C4    1   -0.094015    0.253410    0.509192    11.00000    0.04379    0.03878 =
         0.04857   -0.00267    0.00253    0.00411
C5    1    0.102738    0.285091    0.575693    11.00000    0.04585    0.04498 =
         0.06093   -0.00057   -0.00614    0.00817
AFIX  43
H5A   2    0.192693    0.241326    0.635997    11.00000   -1.20000
AFIX   0
C6    1    0.171565    0.378811    0.556540    11.00000    0.03775    0.04836 =
         0.06393   -0.00905   -0.00787   -0.00012
AFIX  43
H6A   2    0.306463    0.396080    0.602325    11.00000   -1.20000
AFIX   0
C7    1   -0.158157    0.145996    0.514195    11.00000    0.05344    0.03434 =
         0.06393   -0.00107    0.00099    0.00048
C8    1   -0.396802    0.133179    0.505524    11.00000    0.06439    0.05285 =
         0.07796    0.00543    0.00421   -0.01320
AFIX  33
H8A   2   -0.462131    0.163574    0.404051    11.00000   -1.50000
H8B   2   -0.430382    0.065366    0.503251    11.00000   -1.50000
H8C   2   -0.447866    0.162542    0.603820    11.00000   -1.50000
AFIX   0
C9    1   -0.061278    0.096497    0.677606    11.00000    0.07869    0.05291 =
         0.09522    0.01910   -0.00810    0.00062
AFIX  33
H9A   2    0.089157    0.103368    0.686603    11.00000   -1.50000
H9B   2   -0.114876    0.126136    0.774605    11.00000   -1.50000
H9C   2   -0.097392    0.028960    0.674036    11.00000   -1.50000
AFIX   0
C10   1   -0.079236    0.096134    0.357376    11.00000    0.09665    0.04897 =
         0.09104   -0.01543    0.02894   -0.00150
AFIX  33
H10A  2    0.070743    0.103587    0.361051    11.00000   -1.50000
H10B  2   -0.113826    0.028464    0.358396    11.00000   -1.50000
H10C  2   -0.145522    0.125327    0.255109    11.00000   -1.50000
AFIX   0
C11   1    0.010507    0.627946    0.480936    11.00000    0.04274    0.04451 =
         0.04441   -0.00180   -0.00409   -0.00101
C12   1    0.081683    0.717547    0.430318    11.00000    0.06386    0.04602 =
         0.06492    0.00248    0.01544   -0.00725
AFIX  43
H12A  2    0.199659    0.720766    0.370254    11.00000   -1.20000
AFIX   0
C13   1   -0.020575    0.801926    0.468079    11.00000    0.08913    0.04047 =
         0.06784    0.00351    0.01011   -0.00544
AFIX  43
H13A  2    0.029109    0.861223    0.432939    11.00000   -1.20000
AFIX   0
C14   1   -0.194483    0.799099    0.556798    11.00000    0.07089    0.04409 =
         0.06679   -0.00927    0.00507    0.01042
AFIX  43
H14A  2   -0.263761    0.856036    0.580557    11.00000   -1.20000
AFIX   0
C15   1   -0.265528    0.711390    0.610310    11.00000    0.05601    0.05334 =
         0.06047   -0.00258    0.00450    0.00199
AFIX  43
H15A  2   -0.382530    0.709119    0.671623    11.00000   -1.20000
AFIX   0
C16   1   -0.164513    0.626620    0.573731    11.00000    0.05224    0.04125 =
         0.05548    0.00061    0.00713   -0.00495
AFIX  43
H16A  2   -0.213761    0.567811    0.611441    11.00000   -1.20000

AFIX   0
HKLF 4




REM  p in Pn
REM wR2 = 0.120892, GooF = S = 1.02842, Restrained GooF = 1.02797 for all data
REM R1 = 0.048084 for 1975 Fo > 4sig(Fo) and 0.063952 for all 2442 data
REM 164 parameters refined using 2 restraints

END

WGHT      0.0612      0.0422

REM Highest difference peak  0.180,  deepest hole -0.176,  1-sigma level  0.029
Q1    1   0.3994  0.5845  0.5361  11.00000  0.05    0.18
Q2    1   0.3186  0.5906  0.2886  11.00000  0.05    0.16
Q3    1  -0.1152  0.2790  0.4044  11.00000  0.05    0.11
Q4    1  -0.0848  0.4525  0.4991  11.00000  0.05    0.10
Q5    1  -0.2348  0.8616  0.6430  11.00000  0.05    0.10
Q6    1  -0.3617  0.3194  0.4236  11.00000  0.05    0.10
Q7    1   0.0101  0.6765  0.3785  11.00000  0.05    0.10
Q8    1   0.3858  0.5447  0.6330  11.00000  0.05    0.09
Q9    1   0.1488  0.7169  0.4173  11.00000  0.05    0.09
Q10   1   0.0138  0.4373  0.2800  11.00000  0.05    0.09
Q11   1   0.0910  0.6816  0.5147  11.00000  0.05    0.09
Q12   1  -0.1409  0.3574  0.3374  11.00000  0.05    0.08
Q13   1   0.1148  0.5023  0.5441  11.00000  0.05    0.08
Q14   1   0.1041  0.5866  0.5435  11.00000  0.05    0.08
Q15   1  -0.4177  0.1396  0.3329  11.00000  0.05    0.08
Q16   1  -0.1699 -0.0462  0.6183  11.00000  0.05    0.08
Q17   1  -0.1480  0.0322  0.7160  11.00000  0.05    0.08
Q18   1  -0.4868  0.1286  0.3891  11.00000  0.05    0.08
Q19   1   0.0616  0.2562  0.4872  11.00000  0.05    0.08
Q20   1   0.3607  0.1962  0.6354  11.00000  0.05    0.08
;
_shelx_res_checksum              8517
_shelx_hkl_file
;
  -1   0   0    0.10    0.26
  -1   0   0   -0.05    0.17
  -1   0   0   -0.44    0.24
   1   0   0   -0.11    0.25
   1   0   0    0.17    0.19
   1   0   0    0.05    0.26
  -2   0   0   48.24    2.17
  -2   0   0   44.21    2.47
  -2   0   0   48.02    2.01
   2   0   0   48.29    2.21
   2   0   0   46.56    2.49
  -3   0   0   -0.06    0.27
  -3   0   0   -0.34    0.32
  -3   0   0   -0.62    0.40
   3   0   0    0.22    0.42
   3   0   0   -0.12    0.36
  -4   0   0  148.21    5.97
  -4   0   0  146.56    6.80
  -4   0   0  155.46    5.82
   4   0   0  135.06    6.02
   4   0   0  149.45    6.94
  -5   0   0    0.02    0.48
  -5   0   0   -0.19    0.52
  -5   0   0    0.26    0.74
  -5   0   0   -0.06    0.27
   5   0   0   -0.53    0.58
  -6   0   0    2.93    0.87
  -6   0   0    1.21    0.39
  -6   0   0    0.81    0.63
   6   0   0    1.30    0.85
  -7   0   0    0.65    0.62
  -7   0   0   -0.05    0.27
   7   0   0   -0.16    0.85
  -8   0   0    1.06    0.43
   8   0   0   -0.07    0.82
   8   0   1    1.03    1.02
   7   0   1    1.01    1.18
  -7   0  -1    1.78    0.39
   6   0   1    0.32    0.89
  -6   0  -1    0.08    0.23
   5   0   1    3.91    1.22
  -5   0  -1    2.49    1.00
  -5   0  -1    4.37    0.47
  -5   0  -1    8.49    1.58
  -5   0  -1    4.64    1.21
   4   0   1    0.26    0.69
  -4   0  -1    0.20    0.60
  -4   0  -1   -0.31    0.38
  -4   0  -1   -0.25    0.49
  -4   0  -1    0.00    0.18
   3   0   1   31.29    2.25
   3   0   1   33.54    1.76
   3   0   1   31.20    2.10
  -3   0  -1   32.44    1.26
  -3   0  -1   29.96    2.02
  -3   0  -1   31.16    1.81
  -3   0  -1   30.05    2.19
   2   0   1    0.00    0.35
   2   0   1    0.27    0.30
   2   0   1   -0.11    0.29
  -2   0  -1    0.18    0.23
  -2   0  -1   -0.48    0.29
  -2   0  -1   -0.11    0.08
  -2   0  -1    0.20    0.34
  -1   0  -1   -1.73    2.93
  -1   0  -1   -1.40    2.32
   0   0   1    0.07    0.21
   0   0   1    0.16    0.18
   0   0  -1   -0.20    0.15
   0   0  -1   -0.12    0.19
  -1   0   1    0.27    3.47
   1   0  -1    3.33    3.82
  -2   0   1   -0.15    0.19
  -2   0   1   -0.14    0.29
   2   0  -1   -0.01    0.27
   2   0  -1   -0.15    0.41
  -3   0   1  128.35    5.65
  -3   0   1  127.96    4.65
  -3   0   1  127.96    4.60
   3   0  -1  118.37    4.79
   3   0  -1  123.22    5.63
  -4   0   1    0.61    0.38
  -4   0   1   -0.17    0.34
  -4   0   1   -0.68    0.38
   4   0  -1   -0.14    0.55
   4   0  -1   -0.22    0.39
  -5   0   1    2.26    0.74
  -5   0   1    2.11    0.67
  -5   0   1    1.54    0.89
   5   0  -1    0.27    0.66
   5   0  -1   -0.15    0.66
  -6   0   1   -0.16    0.42
  -6   0   1    0.61    0.48
   6   0  -1    0.69    0.84
  -7   0   1    0.68    0.41
   7   0  -1   -1.41    0.59
  -8   0   1    1.32    0.80
   8   0  -1   -0.02    0.71
  -8   0  -2    1.32    0.34
   7   0   2   -0.95    0.73
  -7   0  -2    0.31    0.25
   6   0   2    2.48    1.09
  -6   0  -2    1.57    0.33
   5   0   2    1.06    0.84
  -5   0  -2    0.32    0.69
  -5   0  -2    0.09    0.17
  -5   0  -2   -0.19    0.48
  -5   0  -2    1.28    0.82
   4   0   2   61.64    3.12
   4   0   2   59.65    3.74
  -4   0  -2   61.23    3.77
  -4   0  -2   58.35    3.18
  -4   0  -2   62.98    3.64
  -4   0  -2   61.02    2.26
   3   0   2    0.36    0.38
   3   0   2    0.33    0.49
  -3   0  -2   -0.13    0.11
  -3   0  -2   -0.36    0.31
  -3   0  -2   -0.19    0.48
  -3   0  -2    0.15    0.40
   2   0   2   11.59    1.08
   2   0   2   10.24    0.50
   2   0   2   10.94    1.01
  -2   0  -2   11.66    1.08
  -2   0  -2   11.01    0.57
  -2   0  -2   10.06    0.92
  -2   0  -2    9.39    1.12
   1   0   2   -0.09    0.12
   1   0   2    0.17    0.29
   1   0   2   -0.15    0.21
  -1   0  -2   -0.16    0.14
  -1   0  -2    0.09    0.23
  -1   0  -2    0.35    0.29
  -1   0  -2    0.40    0.49
   0   0   2   -3.02    4.73
   0   0   2    1.07    5.01
   0   0  -2   -0.62    4.70
  -1   0   2    0.04    0.24
  -1   0   2   -0.02    0.26
  -1   0   2    0.27    0.19
   1   0  -2   -0.11    0.28
   1   0  -2    0.21    0.28
  -2   0   2  159.76    6.28
  -2   0   2  162.32    5.86
   2   0  -2  158.76    6.31
   2   0  -2  158.30    5.38
  -3   0   2   -0.39    0.30
  -3   0   2    0.10    0.29
  -3   0   2    0.30    0.21
   3   0  -2   -0.16    0.40
   3   0  -2    0.09    0.29
  -4   0   2  102.77    5.45
  -4   0   2  109.41    4.19
  -4   0   2  109.03    4.54
  -4   0   2  116.96    4.03
   4   0  -2  107.81    5.58
   4   0  -2   98.70    4.31
  -5   0   2    0.08    0.42
  -5   0   2   -0.26    0.56
  -5   0   2    0.21    0.67
  -5   0   2    0.05    0.36
   5   0  -2   -0.30    0.62
   5   0  -2    0.25    0.51
  -6   0   2    2.45    0.71
  -6   0   2    3.53    0.76
  -6   0   2    2.32    1.00
   6   0  -2    3.62    1.34
  -7   0   2    0.24    0.67
  -7   0   2   -0.86    0.46
   7   0  -2    0.68    0.77
  -8   0   2   -0.48    0.33
   8   0  -2   -0.90    0.72
   7   0   3    2.03    1.30
   6   0   3    0.53    1.03
  -6   0  -3   -0.02    0.23
   5   0   3   15.45    1.97
   5   0   3   13.22    1.54
  -5   0  -3   13.17    0.83
   4   0   3    0.42    0.66
   4   0   3   -0.41    0.62
  -4   0  -3    1.34    0.69
  -4   0  -3   -0.04    0.22
  -4   0  -3    0.35    0.58
  -4   0  -3   -0.57    0.69
   3   0   3   24.89    1.84
   3   0   3   22.28    0.99
   3   0   3   24.87    1.90
  -3   0  -3   23.43    2.06
  -3   0  -3   21.31    1.67
  -3   0  -3   22.90    1.87
  -3   0  -3   21.27    1.08
   2   0   3   -0.21    0.31
   2   0   3    0.23    0.13
   2   0   3   -0.43    0.32
  -2   0  -3   -0.33    0.52
  -2   0  -3    0.28    0.34
  -2   0  -3    0.20    0.19
  -2   0  -3    0.22    0.28
   1   0   3  231.04    7.87
   1   0   3  235.04    8.45
  -1   0  -3  234.33    8.39
  -1   0  -3  234.15    8.01
  -1   0  -3  230.43    7.96
  -1   0  -3  238.92    8.79
   0   0   3   -0.21    0.18
   0   0   3    0.02    0.28
   0   0  -3    0.21    0.30
   0   0  -3    0.28    0.30
  -1   0   3   49.08    2.15
  -1   0   3   50.31    2.29
   1   0  -3   49.24    2.31
   1   0  -3   52.67    2.25
  -2   0   3    0.05    0.29
  -2   0   3    0.01    0.17
   2   0  -3   -0.05    0.29
  -3   0   3  102.11    4.81
  -3   0   3  101.83    4.25
   3   0  -3   91.37    3.59
   3   0  -3  106.15    4.91
  -4   0   3    0.14    0.45
  -4   0   3    0.31    0.55
   4   0  -3   -0.09    0.38
   4   0  -3   -0.07    0.56
  -5   0   3    9.15    1.30
  -5   0   3    9.18    0.96
   5   0  -3    9.90    1.97
   5   0  -3    8.02    1.02
  -6   0   3    0.08    0.47
   6   0  -3   -0.04    1.16
  -7   0   3    0.98    0.70
   7   0  -3    1.01    1.05
   7   0   4   -1.41    0.88
  -7   0  -4    0.97    0.34
   6   0   4    2.81    1.16
  -6   0  -4    3.25    0.52
   5   0   4   -0.68    0.56
   5   0   4   -0.17    0.66
  -5   0  -4    0.15    0.28
   4   0   4    3.96    1.10
   4   0   4    4.17    1.10
   4   0   4    4.31    0.46
  -4   0  -4    4.53    0.61
   3   0   4    0.05    0.15
   3   0   4    0.04    0.47
   3   0   4   -0.35    0.46
  -3   0  -4   -0.02    0.41
  -3   0  -4   -0.25    0.36
  -3   0  -4   -0.90    0.47
  -3   0  -4   -0.16    0.25
   2   0   4   90.50    3.26
   2   0   4   90.68    4.20
  -2   0  -4   85.84    4.07
  -2   0  -4   90.49    4.60
  -2   0  -4   92.48    3.55
  -2   0  -4   92.11    3.83
   1   0   4    0.03    0.22
   1   0   4    0.14    0.34
  -1   0  -4    0.65    0.31
  -1   0  -4    0.16    0.31
  -1   0  -4    0.64    0.55
   0   0   4   23.74    1.35
   0   0   4   24.20    1.55
   0   0  -4   23.70    1.44
   0   0  -4   20.52    1.39
  -1   0   4   -0.09    0.30
  -1   0   4    0.20    0.29
   1   0  -4   -0.09    0.20
   1   0  -4   -0.11    0.26
   1   0  -4    0.15    0.23
  -2   0   4  114.03    4.83
  -2   0   4  119.77    4.52
   2   0  -4  121.41    5.05
  -3   0   4    0.17    0.44
  -3   0   4    0.06    0.30
   3   0  -4    0.13    0.25
   3   0  -4   -0.38    0.46
  -4   0   4   13.38    1.36
   4   0  -4   11.62    0.87
   4   0  -4   12.85    1.84
   5   0  -4   -0.52    0.31
   5   0  -4   -0.29    0.72
  -6   0   4    1.00    0.54
   6   0  -4   -0.37    0.78
  -7   0   4   -0.50    0.52
   7   0  -4    0.20    0.94
   8   0  -4   -0.20    0.81
   6   0   5   -0.13    0.48
  -6   0  -5    0.84    0.35
   5   0   5    0.92    0.74
  -5   0  -5    1.28    0.47
   4   0   5    0.02    0.21
   4   0   5    0.27    0.60
  -4   0  -5   -0.18    0.32
   3   0   5  145.14    5.06
   3   0   5  146.18    6.49
  -3   0  -5  146.82    5.50
   2   0   5    0.17    0.22
   2   0   5   -0.23    0.50
  -2   0  -5    0.12    0.47
  -2   0  -5    1.08    0.71
  -2   0  -5   -0.13    0.36
   1   0   5   24.34    1.86
   1   0   5   23.55    1.31
  -1   0  -5   20.19    1.66
  -1   0  -5   23.03    1.53
  -1   0  -5   21.70    1.97
   0   0   5    0.52    0.52
   0   0   5    0.68    0.41
   0   0  -5    0.76    0.38
  -1   0   5    7.08    1.02
  -1   0   5    7.52    1.04
   1   0  -5    6.77    0.60
   1   0  -5    5.83    1.03
   1   0  -5    6.46    0.77
  -2   0   5   -0.05    0.39
  -2   0   5   -0.15    0.44
   2   0  -5   -0.07    0.43
  -3   0   5    0.25    0.39
  -3   0   5    1.15    0.42
   3   0  -5   -0.46    0.42
  -4   0   5    0.31    0.33
   4   0  -5    0.59    0.67
   4   0  -5    0.35    0.29
  -5   0   5    5.58    0.79
   5   0  -5    4.03    0.54
   5   0  -5    3.80    1.26
  -6   0   5   -0.41    0.38
   6   0  -5    1.02    0.99
  -7   0   5    1.27    0.77
   7   0  -5    1.11    0.89
  -6   0  -6    3.40    0.55
   5   0   6    0.11    0.71
  -5   0  -6    0.15    0.39
   4   0   6   24.36    1.21
   4   0   6   21.78    2.26
  -4   0  -6   26.61    1.71
   3   0   6    0.96    0.75
   3   0   6   -0.20    0.18
  -3   0  -6   -0.33    0.35
   2   0   6   81.82    4.26
   2   0   6   74.52    3.01
  -2   0  -6   72.08    3.41
   1   0   6    0.27    0.62
   1   0   6   -0.15    0.28
  -1   0  -6    0.38    0.52
  -1   0  -6   -0.35    0.46
  -1   0  -6    0.59    0.79
   0   0   6    6.57    0.97
   0   0   6    8.87    1.37
   0   0  -6    8.26    1.22
   0   0  -6    5.73    1.25
   0   0  -6    7.49    1.12
  -1   0   6   -0.19    0.49
  -1   0   6    0.16    0.36
   1   0  -6   -0.20    0.51
   1   0  -6   -0.28    0.36
  -2   0   6    3.41    0.82
  -2   0   6    4.82    0.92
   2   0  -6    4.39    0.77
  -3   0   6   -0.29    0.36
   3   0  -6   -0.41    0.41
  -4   0   6    0.35    0.39
   4   0  -6    1.26    0.73
   4   0  -6    0.66    0.28
  -5   0   6   -0.09    0.38
   5   0  -6    1.26    0.78
  -6   0   6    0.85    0.74
   6   0  -6    0.41    0.95
   7   0  -6   -0.16    0.83
   5   0   7   -0.02    0.87
  -5   0  -7    0.86    0.64
   4   0   7   -0.89    0.55
   4   0   7   -0.25    0.25
  -4   0  -7    0.62    0.47
   3   0   7   60.24    3.86
   3   0   7   58.31    2.41
  -3   0  -7   58.06    2.98
   2   0   7    0.53    0.27
   2   0   7   -0.41    0.55
  -2   0  -7   -0.73    0.40
   1   0   7    4.25    1.08
   1   0   7    5.81    0.84
  -1   0  -7    4.62    0.93
   0   0   7    1.49    0.49
   0   0   7    1.48    0.75
   0   0  -7    0.08    0.56
   0   0  -7    1.38    0.58
   0   0  -7    1.80    0.72
  -1   0   7    3.03    0.90
   1   0  -7    2.68    0.93
  -2   0   7    0.30    0.46
  -3   0   7    1.35    0.64
   3   0  -7    1.36    0.60
  -4   0   7    0.06    0.44
   4   0  -7    0.05    0.28
   4   0  -7   -1.32    0.58
  -5   0   7    0.88    0.54
   5   0  -7   -0.08    0.79
   6   0  -7   -1.43    0.78
   4   0   8    2.31    1.09
  -4   0  -8    2.39    0.76
   3   0   8   -0.15    0.74
   3   0   8    1.03    0.38
  -3   0  -8   -0.40    0.44
   2   0   8   14.27    2.21
  -2   0  -8   13.06    1.43
   1   0   8    1.07    0.83
  -1   0  -8    0.11    0.48
   0   0   8    2.17    0.97
   0   0  -8    0.61    0.57
  -1   0   8    0.32    0.69
   1   0  -8    0.92    0.71
  -2   0   8   -0.16    0.54
   2   0  -8    0.75    0.67
  -3   0   8    0.65    0.58
   3   0  -8    0.92    0.59
  -4   0   8    1.50    0.71
   4   0  -8    0.75    0.33
   4   0  -8   -0.17    0.59
  -5   0   8   -1.29    0.50
   5   0  -8   -1.45    0.74
   3   0   9    2.70    1.26
  -3   0  -9    5.16    1.05
   2   0   9   -0.85    0.66
  -2   0  -9   -0.07    0.55
   1   0   9    6.67    1.47
   0   0   9    0.04    0.79
  -1   0   9    1.69    0.96
  -2   0   9   -1.39    0.59
   2   0  -9    0.37    0.79
  -3   0   9    0.87    0.82
  -4   0   9   -0.95    0.67
   4   0  -9   -0.60    0.38
   1   0  10   -1.53    0.89
   0   0  10   -1.00    0.81
  -1   0  10   -1.10    0.84
  -2   0  10   -0.57    0.91
  -2   1  10    0.03    0.88
  -1   1  10   -0.50    0.86
   0   1  10    0.41    0.75
   1   1  10    0.92    0.93
  -4   1   9   -0.38    0.71
   3  -1  -9    1.38    0.97
  -3   1   9    0.08    0.68
  -2   1   9    1.85    0.89
  -1   1   9   -0.82    0.73
   0   1   9    1.72    1.02
   1   1   9    0.23    0.74
   2   1   9    3.38    1.21
   3   1   9    0.27    0.86
   4  -1  -8    0.14    0.38
  -4   1   8    0.90    0.61
  -3   1   8    2.81    0.80
  -2   1   8    0.93    0.65
   1  -1  -8    5.70    1.36
  -1   1   8    4.70    1.09
   0   1   8    3.79    1.12
   1   1   8    3.35    1.11
   2   1   8    4.09    1.17
   2   1   8    4.02    0.66
   3   1   8    1.16    0.42
   3   1   8    1.36    0.91
   4   1   8    1.52    1.18
   6  -1  -7   -1.20    0.75
  -6   1   7   -0.07    0.42
   5  -1  -7   -1.57    0.73
   5  -1  -7    1.09    0.42
  -5   1   7    1.32    0.51
   4  -1  -7    7.84    0.76
   4  -1  -7    4.56    1.23
  -4   1   7   10.32    1.11
  -3   1   7    2.25    0.77
  -2   1   7    4.71    0.99
   1  -1  -7    5.35    0.96
  -1   1   7    7.55    1.25
   0  -1  -7   14.55    1.46
   0   1   7   17.43    1.77
   0   1   7   14.38    1.25
  -1  -1  -7    2.92    0.76
   1   1   7    3.24    1.01
   1   1   7    2.38    0.55
  -2  -1  -7    4.60    0.86
   2   1   7    4.92    1.22
   2   1   7    3.94    0.61
  -3  -1  -7    7.99    1.10
   3   1   7    6.80    1.40
   3   1   7    7.70    0.64
  -4  -1  -7    1.77    0.63
   4   1   7    0.62    0.75
   4   1   7    0.67    0.34
   5   1   7    0.18    0.74
   7  -1  -6    1.39    1.16
   6  -1  -6    0.10    0.34
   6  -1  -6   -0.58    0.74
  -6   1   6    0.66    0.40
  -6   1   6   -0.76    0.43
   5  -1  -6    6.33    0.69
   5  -1  -6    5.48    1.39
  -5   1   6    6.88    0.89
   4  -1  -6    2.59    0.99
   4  -1  -6    3.67    0.60
  -4   1   6    2.95    0.63
   3  -1  -6    9.25    1.20
  -3   1   6    7.12    1.02
  -2   1   6   15.17    1.40
  -2   1   6   12.86    1.37
   1  -1  -6   36.21    2.13
  -1   1   6   38.16    2.25
  -1   1   6   41.16    2.51
   0  -1  -6   38.65    2.31
   0  -1  -6   38.02    2.31
   0   1   6   44.02    2.69
   0   1   6   40.18    2.20
  -1  -1  -6   -0.42    0.40
  -1  -1  -6    0.52    0.50
  -1  -1  -6    0.44    0.60
   1   1   6    0.51    0.53
   1   1   6    0.63    0.38
  -2  -1  -6    6.07    0.94
   2   1   6    4.86    0.64
   2   1   6    5.37    1.21
  -3  -1  -6    1.14    0.46
   3   1   6    2.56    0.96
   3   1   6    1.87    0.34
  -4  -1  -6   11.23    0.98
   4   1   6    7.59    1.44
   4   1   6   10.61    0.67
  -5  -1  -6    0.36    0.35
   5   1   6    0.86    0.79
   7  -1  -5    2.12    1.15
   6  -1  -5    3.26    1.32
   6  -1  -5    2.26    0.64
  -6   1   5    1.52    0.51
  -6   1   5    2.52    0.54
   5  -1  -5    0.58    0.38
   5  -1  -5   -0.15    0.55
  -5   1   5    0.29    0.29
   4  -1  -5   15.22    1.82
   4  -1  -5   13.02    0.96
  -4   1   5   13.54    1.02
   3  -1  -5    4.98    1.05
  -3   1   5    4.54    0.99
  -3   1   5    4.59    0.69
   2  -1  -5   43.21    2.38
  -2   1   5   43.83    2.50
  -2   1   5   45.15    2.27
   1  -1  -5   29.38    1.70
  -1   1   5   29.75    1.85
  -1   1   5   32.24    1.93
   0  -1  -5   27.46    1.79
   0  -1  -5   33.87    1.90
   0   1   5   32.01    2.06
   0   1   5   30.57    1.72
  -1  -1  -5    1.07    0.44
  -1  -1  -5    1.08    0.55
   1   1   5    1.25    0.41
   1   1   5    1.29    0.68
  -2  -1  -5   26.00    1.98
  -2  -1  -5   25.68    1.52
  -2  -1  -5   23.00    2.27
   2   1   5   25.25    2.04
   2   1   5   26.37    1.24
  -3  -1  -5   24.43    1.40
   3   1   5   25.26    1.09
   3   1   5   20.80    1.95
  -4  -1  -5    3.75    0.55
   4   1   5    3.56    1.08
   4   1   5    4.51    1.15
  -5  -1  -5    0.67    0.32
   5   1   5    0.09    0.72
   5   1   5    1.56    0.87
   6   1   5    0.47    0.99
   8  -1  -4    2.28    1.35
   7  -1  -4   -0.03    0.73
  -7   1   4   -0.17    0.51
   6  -1  -4   -0.08    0.82
   6  -1  -4    1.51    0.64
  -6   1   4   -0.18    0.43
   5  -1  -4    8.57    1.79
   5  -1  -4    9.65    0.99
   4  -1  -4   15.44    1.10
   4  -1  -4   15.46    1.95
  -4   1   4   15.66    1.94
  -4   1   4   16.84    1.51
   3  -1  -4   18.08    1.00
   3  -1  -4   17.09    1.70
  -3   1   4   19.10    1.53
  -3   1   4   18.91    1.09
  -3   1   4   17.23    1.70
   2  -1  -4   43.77    2.37
  -2   1   4   39.30    2.32
  -2   1   4   41.58    1.92
  -2   1   4   39.10    2.23
   1  -1  -4  165.75    6.22
  -1   1   4  165.48    6.25
  -1   1   4  167.09    6.14
   0  -1  -4   31.66    1.74
   0  -1  -4   33.17    1.81
   0   1   4   34.53    1.91
   0   1   4   32.36    1.69
  -1  -1  -4  147.80    5.89
  -1  -1  -4  151.32    5.51
   1   1   4  153.26    6.08
   1   1   4  148.64    5.98
  -2  -1  -4   33.09    1.62
  -2  -1  -4   33.95    2.53
  -2  -1  -4   36.16    2.18
   2   1   4   32.07    1.84
   2   1   4   35.07    1.42
   2   1   4   33.76    2.20
  -3  -1  -4    3.26    0.83
  -3  -1  -4    2.11    0.97
  -3  -1  -4    3.22    0.50
   3   1   4    3.19    0.82
   3   1   4    2.33    0.81
   3   1   4    2.58    0.29
  -4  -1  -4   32.71    1.53
   4   1   4   36.67    2.50
   4   1   4   33.52    2.62
  -5  -1  -4    4.75    0.46
   5   1   4    1.91    0.91
  -6  -1  -4    0.46    0.24
   6   1   4    0.92    1.02
   7   1   4    0.62    1.17
   8  -1  -3   -1.41    1.13
   7  -1  -3    0.69    1.01
  -7   1   3   -0.98    0.51
   6  -1  -3    2.47    1.72
  -6   1   3    2.94    0.71
   5  -1  -3    5.46    0.94
   5  -1  -3    3.33    1.22
  -5   1   3    5.05    0.72
  -5   1   3    6.69    1.12
   4  -1  -3   33.80    2.76
   4  -1  -3   31.60    1.79
  -4   1   3   35.13    2.17
  -4   1   3   35.03    2.72
   3  -1  -3   16.56    0.99
   3  -1  -3   16.20    1.61
  -3   1   3   15.45    1.59
  -3   1   3   17.37    1.35
   2  -1  -3  108.16    4.58
  -2   1   3   99.74    4.28
  -2   1   3  106.11    4.60
  -2   1   3  112.57    3.85
   1  -1  -3  155.69    5.53
   1  -1  -3  165.95    5.72
  -1   1   3  158.19    5.85
  -1   1   3  156.51    5.76
  -1   1   3  159.39    5.64
   0  -1  -3    1.19    0.36
   0  -1  -3    1.07    0.37
   0   1   3    0.90    0.39
   0   1   3    1.41    0.38
  -1  -1  -3  172.17    6.01
  -1  -1  -3  166.50    6.39
   1   1   3  172.05    5.90
   1   1   3  177.27    6.01
   1   1   3  174.55    6.46
  -2  -1  -3  313.14   10.42
  -2  -1  -3  307.55   11.20
  -2  -1  -3  308.03   11.66
   2   1   3  323.17   11.16
   2   1   3  315.01   11.17
   2   1   3  312.10   10.23
  -3  -1  -3   28.02    1.24
  -3  -1  -3   27.50    2.25
  -3  -1  -3   30.03    2.01
   3   1   3   28.26    1.13
   3   1   3   30.08    2.03
   3   1   3   27.22    2.11
  -4  -1  -3   12.37    1.46
  -4  -1  -3   15.50    1.84
  -4  -1  -3   13.62    0.77
   4   1   3   15.09    1.59
   4   1   3   13.80    1.74
  -5  -1  -3    0.31    0.21
   5   1   3    0.14    0.64
  -6  -1  -3    2.33    0.37
   6   1   3    3.04    1.33
  -7  -1  -3    1.43    0.33
  -7  -1  -3    0.67    0.42
   7   1   3    0.49    1.06
  -8   1   2    0.85    0.57
   7  -1  -2    2.58    1.15
  -7   1   2    2.49    0.84
  -7   1   2    1.60    0.75
   6  -1  -2    3.14    1.29
   6  -1  -2    5.41    1.19
  -6   1   2    3.12    0.79
  -6   1   2    4.22    0.82
   5  -1  -2   10.50    1.87
   5  -1  -2    8.28    1.33
  -5   1   2    9.23    1.05
  -5   1   2   10.11    2.25
  -5   1   2   10.09    0.93
   4  -1  -2   27.32    1.80
   4  -1  -2   30.32    2.55
  -4   1   2   31.71    2.62
  -4   1   2   35.57    1.61
   3  -1  -2  118.81    5.40
   3  -1  -2  111.47    4.36
  -3   1   2  121.50    5.48
   2  -1  -2   19.00    1.45
   2  -1  -2   19.05    0.93
  -2   1   2   19.62    1.50
   1  -1  -2  412.73   13.73
  -1   1   2  403.71   13.77
  -1   1   2  414.35   13.37
  -1   1   2  405.27   13.67
   0  -1  -2  474.66   16.06
   0  -1  -2  491.36   16.04
   0   1   2  494.96   16.03
   0   1   2  491.47   16.10
  -1  -1  -2  942.81   31.84
  -1  -1  -2  977.05   31.42
   1   1   2 1000.00   31.75
   1   1   2  974.30   31.85
  -2  -1  -2    1.60    0.47
  -2  -1  -2    2.03    0.68
  -2  -1  -2    1.65    0.22
   2   1   2    1.89    0.17
   2   1   2    1.83    0.50
   2   1   2    1.73    0.48
  -3  -1  -2   19.10    0.82
  -3  -1  -2   19.46    1.50
  -3  -1  -2   18.71    1.74
   3   1   2   21.71    1.74
   3   1   2   18.84    1.74
  -4  -1  -2   14.05    0.68
  -4  -1  -2   13.05    1.62
  -4  -1  -2   12.23    1.36
   4   1   2   12.27    1.77
   4   1   2   15.42    1.39
  -5  -1  -2    5.17    0.43
  -5  -1  -2    6.40    1.42
  -5  -1  -2    8.02    1.74
   5   1   2    5.05    1.36
  -6  -1  -2    0.69    0.23
   6   1   2   -0.29    0.76
  -7  -1  -2    2.01    0.36
  -7  -1  -2    2.11    0.59
   7   1   2    1.54    1.17
  -8  -1  -2    0.01    0.30
   8  -1  -1    0.57    0.99
  -8   1   1    1.53    0.53
   7  -1  -1    0.16    0.98
  -7   1   1    0.14    0.38
  -7   1   1    1.14    0.66
   6  -1  -1    3.08    1.29
   6  -1  -1    3.87    1.19
  -6   1   1    3.22    0.80
  -6   1   1    6.43    1.10
   5  -1  -1    1.16    0.76
   5  -1  -1    0.89    0.99
  -5   1   1    0.35    0.44
  -5   1   1    2.02    0.97
  -5   1   1    1.15    0.57
   4  -1  -1   65.37    3.90
   4  -1  -1   58.26    3.06
  -4   1   1   62.25    3.90
  -4   1   1   64.98    2.87
  -4   1   1   64.16    2.84
   3  -1  -1  187.44    7.45
   3  -1  -1  210.42    8.42
  -3   1   1  209.46    7.24
  -3   1   1  211.69    8.47
  -3   1   1  221.59    7.34
   2  -1  -1  101.42    4.30
   2  -1  -1   91.97    3.63
  -2   1   1  107.12    3.57
  -2   1   1   97.46    3.46
  -2   1   1   96.19    4.28
   1  -1  -1  430.44   14.57
  -1   1   1  441.59   14.63
   0  -1  -1   33.29    1.32
   0   1   1   33.12    1.31
  -1  -1  -1  320.06   10.74
  -1  -1  -1  338.29   11.17
   1   1   1  344.12   11.31
   1   1   1  332.59   11.13
  -2  -1  -1  113.90    4.36
  -2  -1  -1  112.14    4.68
  -2  -1  -1  115.36    3.74
  -2  -1  -1  110.35    4.60
   2   1   1  113.99    4.77
   2   1   1  114.62    4.28
  -3  -1  -1  101.88    4.20
  -3  -1  -1  100.60    3.43
  -3  -1  -1  102.14    4.75
  -3  -1  -1   98.93    4.47
   3   1   1  100.17    4.81
  -4  -1  -1   43.10    2.75
  -4  -1  -1   43.94    1.70
  -4  -1  -1   46.58    2.54
   4   1   1   40.97    3.06
  -5  -1  -1    0.23    0.56
  -5  -1  -1    0.55    0.23
   5   1   1    0.80    0.76
   6   1   1    0.61    0.93
  -7  -1  -1    0.81    0.60
  -7  -1  -1    0.75    0.31
   7   1   1    0.00    0.84
  -8  -1  -1    0.48    0.33
   8   1   1   -0.44    0.79
   8  -1   0   -0.69    0.75
  -8   1   0   -0.43    0.38
   7  -1   0    2.33    1.43
  -7   1   0    2.96    0.55
   6  -1   0    7.21    1.74
  -6   1   0   10.01    0.80
  -6   1   0    8.38    1.31
  -6   1   0    9.57    1.28
   5  -1   0    2.79    0.95
   5  -1   0    1.93    0.98
  -5   1   0    2.55    0.51
  -5   1   0    2.77    0.90
  -5   1   0    3.21    1.06
  -5   1   0    1.50    0.72
   4  -1   0   46.68    2.82
   4  -1   0   49.67    3.34
  -4   1   0   52.43    2.77
  -4   1   0   55.85    2.64
  -4   1   0   53.07    3.50
   3  -1   0  227.24    7.78
   3  -1   0  207.47    8.18
   3  -1   0  233.13    8.88
  -3   1   0  214.50    8.84
  -3   1   0  231.94    7.94
  -3   1   0  221.72    8.11
   2  -1   0  140.51    5.41
   2  -1   0  146.48    5.13
   2  -1   0  151.45    5.83
  -2   1   0  145.19    5.83
  -2   1   0  152.01    5.39
  -2   1   0  143.62    5.18
   1  -1   0   23.30    1.14
   1  -1   0   25.32    1.31
   1  -1   0   24.93    1.01
  -1   1   0   23.68    1.11
  -1   1   0   24.49    1.32
  -1   1   0   25.04    1.02
  -1  -1   0   23.44    0.91
  -2  -1   0  154.51    5.93
  -2  -1   0  142.65    5.47
  -2  -1   0  150.96    5.31
   2   1   0  149.03    5.99
  -3  -1   0  220.87    7.93
  -3  -1   0  220.34    8.78
  -3  -1   0  218.90    8.19
   3   1   0  229.41    8.94
  -4  -1   0   49.27    2.59
  -4  -1   0   50.89    3.34
  -4  -1   0   51.83    2.81
   4   1   0   54.95    3.59
  -5  -1   0    3.34    1.07
  -5  -1   0    1.38    0.60
   5   1   0    3.43    1.28
  -6  -1   0   10.87    1.55
  -6  -1   0   10.54    1.00
  -6  -1   0    7.66    0.71
  -6  -1   0   11.24    1.32
   6   1   0    6.75    1.79
  -7  -1   0    3.14    0.52
  -7  -1   0    4.30    0.86
   7   1   0    2.93    1.43
  -8  -1   0    0.01    0.33
   8   1   0   -1.13    0.90
   8  -1   1   -0.87    0.89
  -8   1  -1    0.54    0.36
   7  -1   1    1.37    1.10
  -7   1  -1    0.86    0.31
   6  -1   1    0.91    0.89
  -6   1  -1    1.99    0.42
   5  -1   1   -0.30    0.54
   5  -1   1    1.44    0.98
  -5   1  -1    0.63    0.28
  -5   1  -1    0.78    0.72
  -5   1  -1    1.18    0.80
  -5   1  -1    0.74    0.56
   4  -1   1   42.41    3.06
   4  -1   1   49.91    2.66
   4  -1   1   41.84    2.80
  -4   1  -1   44.05    2.48
  -4   1  -1   41.18    3.11
  -4   1  -1   45.43    1.82
  -4   1  -1   48.54    2.84
   3  -1   1   90.91    4.56
   3  -1   1   98.96    3.98
   3  -1   1   93.12    4.37
  -3   1  -1  102.06    4.78
  -3   1  -1  100.19    4.37
  -3   1  -1   96.87    4.03
  -3   1  -1   99.54    3.43
   2  -1   1  105.06    4.54
   2  -1   1  107.50    3.79
   2  -1   1  106.36    4.51
   2  -1   1  110.44    4.21
  -2   1  -1  115.23    4.69
  -2   1  -1  114.34    3.76
  -2   1  -1  114.09    4.24
  -2   1  -1  112.53    4.52
   1  -1   1  328.77   11.08
   1  -1   1  327.51   11.00
   1  -1   1  327.68   11.21
  -1   1  -1  338.48   11.16
  -1   1  -1  323.60   10.98
  -1   1  -1  325.14   11.19
   0  -1   1   34.77    1.37
   0  -1   1   34.24    1.30
   0  -1   1   33.28    1.42
   0   1  -1   33.58    1.41
   0   1  -1   34.70    1.32
   0   1  -1   34.08    1.36
  -1  -1   1  406.17   13.54
   1   1  -1  417.81   13.57
  -2  -1   1  100.93    3.50
  -2  -1   1   99.54    3.66
   2   1  -1   94.69    3.55
   2   1  -1   96.42    4.29
  -3  -1   1  217.68    7.49
  -3  -1   1  207.64    7.28
   3   1  -1  206.28    8.41
   3   1  -1  195.69    7.36
  -4  -1   1   65.79    2.87
  -4  -1   1   64.54    2.88
  -4  -1   1   60.56    2.83
   4   1  -1   58.54    3.81
  -5  -1   1    0.88    0.58
  -5  -1   1    1.32    0.53
  -5  -1   1    0.86    0.63
   5   1  -1    0.53    0.86
  -6  -1   1    3.78    1.30
  -6  -1   1    3.53    0.82
   6   1  -1    3.47    1.36
   7   1  -1    0.77    1.11
  -8  -1   1    0.77    0.45
   8   1  -1    0.62    0.98
  -8   1  -2    0.90    0.36
   7  -1   2   -0.31    0.70
  -7   1  -2    2.11    0.41
   6  -1   2    1.39    0.90
   5  -1   2    4.70    1.34
   5  -1   2    6.72    1.15
  -5   1  -2    4.41    1.01
  -5   1  -2    5.04    1.36
  -5   1  -2    5.07    0.48
   4  -1   2   13.26    1.41
   4  -1   2   13.22    1.68
  -4   1  -2   13.09    1.71
  -4   1  -2   12.79    1.38
  -4   1  -2   14.90    0.80
  -4   1  -2   16.90    1.82
   3  -1   2   18.67    0.93
   3  -1   2   18.70    1.67
   3  -1   2   19.02    1.49
  -3   1  -2   20.21    1.76
  -3   1  -2   20.32    0.92
  -3   1  -2   17.44    1.70
  -3   1  -2   19.90    1.49
   2  -1   2    2.19    0.24
   2  -1   2    1.83    0.73
   2  -1   2    1.50    0.49
   2  -1   2    1.40    0.52
  -2   1  -2    1.81    0.56
  -2   1  -2    1.70    0.53
  -2   1  -2    1.87    0.28
  -2   1  -2    2.00    0.72
   1  -1   2  959.65   31.95
  -1   1  -2  980.66   31.57
  -1   1  -2  942.39   31.90
  -1   1  -2  983.27   31.64
   0  -1   2  488.29   16.00
   0  -1   2  481.60   15.85
   0   1  -2  489.15   15.96
   0   1  -2  481.10   16.08
   0   1  -2  476.02   15.90
  -1  -1   2  412.46   13.52
   1   1  -2  396.40   13.52
  -2  -1   2   19.48    1.24
   2   1  -2   22.33    1.64
   2   1  -2   21.70    0.90
  -3  -1   2  132.37    4.17
  -3  -1   2  119.50    4.73
   3   1  -2  116.69    5.53
   3   1  -2  112.96    4.35
  -4  -1   2   31.67    1.50
  -4  -1   2   32.83    1.92
   4   1  -2   28.55    1.71
   4   1  -2   34.52    2.76
  -5  -1   2    8.88    1.13
  -5  -1   2    8.60    0.98
  -5  -1   2    9.83    0.92
   5   1  -2    8.10    1.85
  -6  -1   2    6.21    0.94
  -6  -1   2    3.35    0.84
  -6  -1   2    3.43    0.97
   6   1  -2    3.01    1.37
  -7  -1   2    4.14    0.85
   7   1  -2    2.01    1.28
   7  -1   3   -0.43    0.92
  -7   1  -3    0.89    0.37
   6  -1   3    1.85    0.75
   6  -1   3    1.07    0.82
  -6   1  -3    1.67    0.39
   5  -1   3   -0.24    0.54
   5  -1   3    0.00    0.60
  -5   1  -3    0.49    0.71
  -5   1  -3    0.47    0.26
   4  -1   3   13.43    1.70
   4  -1   3   13.95    1.52
  -4   1  -3   14.10    1.49
  -4   1  -3   15.18    1.81
  -4   1  -3   13.78    0.87
  -4   1  -3   12.85    1.67
   3  -1   3   29.94    2.06
   3  -1   3   30.13    1.25
   3  -1   3   29.43    2.10
  -3   1  -3   27.42    1.33
  -3   1  -3   26.52    1.88
  -3   1  -3   27.88    2.18
  -3   1  -3   28.46    2.29
   2  -1   3  319.37   11.32
   2  -1   3  316.96   10.39
  -2   1  -3  313.39   10.59
  -2   1  -3  305.73   11.21
  -2   1  -3  316.14   11.31
  -2   1  -3  320.21   11.74
   1  -1   3  171.61    5.98
   1  -1   3  175.97    6.57
  -1   1  -3  173.95    6.81
  -1   1  -3  172.03    6.21
  -1   1  -3  178.71    6.16
  -1   1  -3  174.96    6.46
   0  -1   3    0.89    0.36
   0  -1   3    0.97    0.40
   0   1  -3    1.07    0.39
   0   1  -3    0.75    0.46
  -1  -1   3  161.44    5.67
  -1  -1   3  157.24    5.75
   1   1  -3  153.71    5.80
   1   1  -3  154.97    5.76
  -2  -1   3  104.86    4.25
   2   1  -3  105.27    4.30
   2   1  -3  106.98    4.63
  -3  -1   3   16.46    1.28
   3   1  -3   18.13    1.72
   3   1  -3   15.63    0.82
  -4  -1   3   36.10    2.13
   4   1  -3   38.73    2.96
   4   1  -3   30.97    1.59
  -5  -1   3    4.36    1.01
   5   1  -3    2.22    1.12
  -6  -1   3    1.87    0.66
  -7  -1   3    0.10    0.64
   7   1  -3   -0.07    0.77
   8   1  -3    0.89    1.08
  -7   1  -4    3.10    0.58
   6  -1   4    0.86    0.98
   6  -1   4   -0.32    0.67
  -6   1  -4    0.86    0.35
   5  -1   4    3.18    1.02
   5  -1   4    3.03    1.08
  -5   1  -4    4.64    0.63
  -5   1  -4    2.34    1.10
   4  -1   4   35.26    1.56
   4  -1   4   36.81    2.59
   4  -1   4   33.04    2.51
  -4   1  -4   31.36    2.58
  -4   1  -4   35.15    1.71
   3  -1   4    1.16    0.78
   3  -1   4    2.75    0.39
  -3   1  -4    2.21    0.82
  -3   1  -4    3.71    1.18
  -3   1  -4    3.27    0.57
  -3   1  -4    2.24    0.77
   2  -1   4   34.53    1.46
   2  -1   4   35.44    2.25
  -2   1  -4   31.09    2.03
  -2   1  -4   33.26    1.70
  -2   1  -4   35.31    2.03
  -2   1  -4   30.86    2.42
   1  -1   4  149.12    5.31
   1  -1   4  147.26    6.04
  -1   1  -4  148.09    5.33
  -1   1  -4  146.68    5.82
  -1   1  -4  149.53    6.25
  -1   1  -4  151.43    5.55
   0  -1   4   30.18    1.59
   0  -1   4   31.90    1.85
   0   1  -4   27.30    1.85
   0   1  -4   29.50    1.67
   0   1  -4   29.90    1.68
  -1  -1   4  166.99    6.12
  -1  -1   4  162.93    6.11
   1   1  -4  158.73    6.18
   1   1  -4  161.75    5.99
  -2  -1   4   37.14    2.12
  -2  -1   4   41.36    1.99
   2   1  -4   39.58    2.36
   2   1  -4   36.55    2.17
  -3  -1   4   18.46    1.45
   3   1  -4   15.58    0.76
   3   1  -4   16.07    1.72
  -4  -1   4   14.76    1.38
   4   1  -4   18.28    2.10
   5   1  -4   10.34    1.99
  -6  -1   4    0.14    0.49
   6   1  -4    1.41    1.04
  -7  -1   4    0.65    0.68
   7   1  -4   -0.69    0.66
   8   1  -4    0.84    1.23
   6  -1   5    1.83    0.94
  -6   1  -5    2.94    0.58
   5  -1   5    1.13    0.82
  -5   1  -5    1.54    0.45
   4  -1   5    2.59    0.97
   4  -1   5    3.99    0.49
  -4   1  -5    2.37    0.83
  -4   1  -5    4.16    0.75
   3  -1   5   24.15    2.11
   3  -1   5   25.82    1.19
  -3   1  -5   23.96    1.50
  -3   1  -5   22.79    1.87
   2  -1   5   25.06    2.05
   2  -1   5   26.10    1.28
  -2   1  -5   24.76    1.56
  -2   1  -5   22.65    1.83
  -2   1  -5   22.98    2.20
  -2   1  -5   25.98    1.60
   1  -1   5    2.40    0.50
   1  -1   5    0.81    0.58
  -1   1  -5    2.01    0.88
  -1   1  -5    2.55    0.66
  -1   1  -5    1.70    0.29
  -1   1  -5    0.86    0.54
   0  -1   5   33.96    2.12
   0  -1   5   31.57    1.74
   0   1  -5   29.25    2.05
   0   1  -5   30.50    1.88
   0   1  -5   30.25    1.87
  -1  -1   5   28.43    1.75
  -1  -1   5   29.48    1.86
   1   1  -5   29.73    1.92
   1   1  -5   29.39    1.56
   1   1  -5   26.46    1.76
  -2  -1   5   45.55    2.36
   2   1  -5   38.97    2.43
   2   1  -5   42.39    2.47
  -3  -1   5    5.68    0.86
  -3  -1   5    4.57    0.90
   3   1  -5    4.33    1.04
   3   1  -5    4.84    0.41
  -4  -1   5   13.29    1.16
   4   1  -5   13.37    1.81
   5   1  -5    0.11    0.65
   6   1  -5    2.05    1.14
  -7  -1   5    0.05    0.69
   7   1  -5   -0.78    0.82
   6  -1   6    3.71    1.91
   5  -1   6   -1.54    0.53
  -5   1  -6    0.73    0.46
   4  -1   6   11.26    1.84
   4  -1   6    9.74    0.73
  -4   1  -6   11.45    1.10
   3  -1   6    2.17    0.40
   3  -1   6    1.72    0.72
  -3   1  -6    2.58    0.67
   2  -1   6    5.42    1.13
   2  -1   6    6.12    0.72
  -2   1  -6    4.75    0.86
   1  -1   6    0.03    0.30
   1  -1   6    0.74    0.66
  -1   1  -6    0.39    0.52
  -1   1  -6    0.24    0.46
  -1   1  -6   -1.17    0.47
   0  -1   6   41.31    2.61
   0   1  -6   40.80    2.35
   0   1  -6   37.40    2.37
  -1  -1   6   41.73    2.51
  -1  -1   6   38.91    2.22
   1   1  -6   31.57    2.18
   1   1  -6   37.30    2.36
  -2  -1   6   13.24    1.38
  -2  -1   6   12.61    1.36
   2   1  -6   13.42    1.29
   2   1  -6   13.95    1.72
  -3  -1   6    7.60    1.11
   3   1  -6    5.75    1.14
   3   1  -6    6.15    0.67
  -4  -1   6    3.24    0.77
   4   1  -6    2.83    1.05
  -5  -1   6    6.14    0.96
   5   1  -6    5.29    1.39
  -6  -1   6   -0.07    0.42
   6   1  -6   -0.05    0.84
  -7  -1   6   -0.66    0.42
   7   1  -6   -0.27    0.93
   5  -1   7   -1.00    0.62
  -5   1  -7    0.61    0.49
   4  -1   7    1.40    0.96
   4  -1   7    0.57    0.35
  -4   1  -7    0.85    0.53
   3  -1   7    4.67    1.29
   3  -1   7    8.50    0.70
  -3   1  -7    9.73    1.28
   2  -1   7    4.74    0.68
  -2   1  -7    3.92    0.91
   1  -1   7    1.35    0.79
   1  -1   7    1.77    0.47
  -1   1  -7    1.51    0.61
   0  -1   7   15.39    1.72
   0   1  -7   14.14    1.45
   0   1  -7   11.37    1.51
  -1  -1   7    5.32    1.16
   1   1  -7    8.44    1.34
   1   1  -7    4.91    1.11
  -2  -1   7    6.02    1.10
   2   1  -7    3.86    0.89
   2   1  -7    4.61    0.75
  -3  -1   7    1.91    0.67
   3   1  -7    1.48    0.72
  -4  -1   7    9.32    1.28
   4   1  -7    4.75    1.20
  -5  -1   7    0.88    0.52
   5   1  -7   -0.61    0.75
  -6  -1   7   -0.70    0.49
   6   1  -7    0.24    1.08
   4  -1   8    1.58    0.99
  -4   1  -8    2.09    0.86
   3  -1   8    0.46    0.82
  -3   1  -8    2.44    0.76
   2  -1   8    4.29    1.31
  -2   1  -8    3.04    0.93
   1  -1   8    5.48    1.37
  -1   1  -8    6.78    1.24
   0  -1   8    2.85    1.04
   0   1  -8    2.65    0.90
  -1  -1   8    4.59    1.18
   1   1  -8    4.79    1.14
  -2  -1   8   -0.80    0.53
   2   1  -8    0.68    0.60
  -3  -1   8    2.52    0.86
   3   1  -8    2.63    0.67
   3   1  -8    1.76    0.67
  -4  -1   8    0.99    0.65
   4   1  -8    0.42    0.73
  -5  -1   8    0.37    0.62
   5   1  -8   -1.00    0.78
   3  -1   9    1.86    1.06
  -3   1  -9    2.64    1.06
   2  -1   9    3.74    1.28
  -2   1  -9    4.76    1.05
   1  -1   9    0.80    0.96
  -1   1  -9    2.60    1.05
   0  -1   9    1.11    0.88
   0   1  -9    1.31    0.93
  -1  -1   9   -0.33    0.77
  -2  -1   9    1.38    1.12
   2   1  -9    2.27    0.91
  -3  -1   9    0.47    0.73
   3   1  -9    0.63    0.57
  -4  -1   9    0.50    0.77
   1  -1  10    0.62    1.03
   0  -1  10   -0.22    0.78
  -1  -1  10    1.34    0.95
  -2  -1  10   -0.57    0.84
  -2   2  10    0.56    0.95
  -1   2  10   -0.37    0.85
   0   2  10   -0.32    0.80
   1   2  10    0.77    0.90
   4  -2  -9   -0.61    0.58
  -4   2   9   -0.03    0.68
  -3   2   9    0.91    0.75
  -2   2   9    1.42    0.73
  -1   2   9   -1.31    0.59
   0   2   9    0.21    0.89
   1   2   9   -0.95    0.73
   2   2   9    3.19    1.00
   3   2   9    0.42    1.40
   5  -2  -8    1.73    0.58
  -5   2   8   -0.33    0.42
   4  -2  -8    0.28    0.49
  -4   2   8    0.10    0.55
  -3   2   8   -0.10    0.58
  -2   2   8    0.41    0.72
  -1   2   8    2.00    0.94
   0   2   8   -0.06    0.64
   1   2   8    1.78    1.11
   2   2   8   -0.21    0.68
   2   2   8    1.46    0.41
   3   2   8    0.26    0.70
   3   2   8    0.10    0.30
   4   2   8   -0.34    1.04
   6  -2  -7    0.90    0.55
   5  -2  -7   -0.10    0.39
  -5   2   7    0.45    0.38
   4  -2  -7   -0.08    0.41
  -4   2   7    0.31    0.44
  -3   2   7    2.73    0.71
  -2   2   7    3.87    0.93
   1  -2  -7    0.43    0.57
  -1   2   7   -0.25    0.59
   0  -2  -7   10.11    1.38
   0   2   7   10.11    1.07
   0   2   7   11.97    1.47
   1   2   7    0.41    0.60
   1   2   7    2.17    0.60
   2   2   7    2.30    0.49
   2   2   7    2.94    1.02
   3   2   7    4.46    0.49
   3   2   7    3.96    1.23
   4   2   7    0.12    0.24
   4   2   7   -0.39    0.76
   5   2   7    2.33    1.69
   7  -2  -6    1.17    0.69
   7  -2  -6   -0.75    0.95
   6  -2  -6    1.37    0.56
   6  -2  -6   -0.26    0.84
   5  -2  -6    4.93    0.84
   5  -2  -6    2.50    0.98
  -5   2   6    4.85    0.58
   4  -2  -6   -0.46    0.46
   4  -2  -6    0.52    0.40
  -4   2   6    0.12    0.33
  -3   2   6   10.01    1.04
  -2   2   6    9.60    1.13
  -2   2   6    9.44    1.30
   1  -2  -6    5.99    0.94
  -1   2   6    7.74    1.15
  -1   2   6    7.08    1.25
   0  -2  -6    1.22    0.55
   0   2   6    2.51    0.82
   0   2   6    0.97    0.48
  -1  -2  -6   12.67    1.42
   1   2   6   14.50    1.66
   1   2   6   12.75    1.02
  -2  -2  -6    3.87    0.69
   2   2   6    3.94    0.53
   2   2   6    5.63    1.15
  -3  -2  -6    0.00    0.38
   3   2   6   -0.14    0.71
   3   2   6    0.18    0.17
   4   2   6    8.23    0.54
   4   2   6    7.75    1.44
   5   2   6    0.24    0.75
   5   2   6    1.01    0.72
   6   2   6   -0.19    1.01
   7  -2  -5    0.43    0.84
   7  -2  -5    0.22    0.89
   6  -2  -5   -0.84    0.91
   6  -2  -5    1.33    0.55
  -6   2   5   -0.03    0.26
  -6   2   5   -0.63    0.31
   5  -2  -5   -0.74    0.60
   5  -2  -5    0.67    0.47
  -5   2   5    0.14    0.26
  -5   2   5   -0.16    0.30
   4  -2  -5    0.27    0.42
   4  -2  -5    0.02    0.59
  -4   2   5   -0.02    0.80
  -4   2   5    0.14    0.27
   3  -2  -5   12.59    1.45
  -3   2   5    9.58    1.33
  -3   2   5   12.09    0.96
  -3   2   5   13.13    1.34
  -2   2   5   18.82    1.30
  -2   2   5   16.65    1.58
  -2   2   5   17.16    1.47
   1  -2  -5    4.38    0.69
  -1   2   5    4.92    0.87
  -1   2   5    5.20    0.87
   0  -2  -5   19.54    1.42
   0   2   5   20.69    1.59
   0   2   5   19.85    1.36
  -1  -2  -5    2.75    0.72
   1   2   5    2.94    0.56
   1   2   5    2.88    0.86
  -2  -2  -5   14.63    1.48
  -2  -2  -5   13.81    1.04
   2   2   5   13.95    1.07
   2   2   5   13.40    1.58
   2   2   5   14.13    0.82
  -3  -2  -5   29.01    1.48
   3   2   5   29.50    1.19
   3   2   5   29.79    2.27
   3   2   5   27.43    1.99
  -4  -2  -5    8.53    0.60
   4   2   5    7.67    1.40
   4   2   5    6.88    1.32
   5   2   5    0.53    0.70
   5   2   5    1.54    0.87
   6   2   5    0.03    0.95
   7  -2  -4    1.67    0.72
   7  -2  -4   -0.21    0.90
  -7   2   4    0.65    0.47
   6  -2  -4    0.79    0.62
   6  -2  -4    1.60    1.26
  -6   2   4    0.19    0.40
   5  -2  -4   20.97    2.35
   5  -2  -4   18.98    1.45
   4  -2  -4    2.53    1.08
   4  -2  -4    2.84    0.65
  -4   2   4    3.70    0.46
  -4   2   4    4.03    0.89
  -4   2   4    3.04    1.07
   3  -2  -4    9.14    0.75
   3  -2  -4    6.95    1.26
  -3   2   4    7.06    1.27
  -3   2   4    7.02    1.09
  -3   2   4    7.45    0.62
   2  -2  -4   37.53    2.14
  -2   2   4   38.82    1.76
  -2   2   4   37.21    2.14
  -2   2   4   38.12    2.58
   1  -2  -4  118.06    4.45
  -1   2   4  121.93    4.59
  -1   2   4  120.33    4.75
  -1   2   4  116.98    4.53
   0  -2  -4   49.56    2.42
   0   2   4   49.82    2.32
   0   2   4   53.74    2.54
  -1  -2  -4   78.99    3.15
  -1  -2  -4   77.11    3.55
   1   2   4   77.38    2.93
   1   2   4   78.46    3.04
   1   2   4   80.52    3.60
  -2  -2  -4   58.10    2.31
  -2  -2  -4   52.28    2.94
   2   2   4   53.30    2.94
   2   2   4   56.84    2.09
   2   2   4   56.81    2.73
  -3  -2  -4    4.39    1.05
  -3  -2  -4    5.02    1.33
  -3  -2  -4    4.53    0.48
   3   2   4    4.61    0.98
   3   2   4    4.68    0.33
   3   2   4    2.97    0.94
  -4  -2  -4   21.49    0.98
   4   2   4   21.71    1.87
   4   2   4   19.15    2.03
   5   2   4    6.05    1.51
   6   2   4   -0.27    0.90
   7   2   4    0.81    1.26
   8  -2  -3    0.71    1.09
   7  -2  -3   -0.35    0.81
   7  -2  -3    1.26    0.82
  -7   2   3    1.29    0.58
   6  -2  -3    5.41    1.09
  -6   2   3    4.84    0.80
   5  -2  -3    7.46    1.25
   5  -2  -3    6.81    1.55
  -5   2   3    7.17    0.79
   4  -2  -3    2.36    0.99
   4  -2  -3    3.04    0.76
  -4   2   3    3.28    0.48
  -4   2   3    3.68    1.22
   3  -2  -3   14.43    0.96
   3  -2  -3   13.82    1.55
  -3   2   3   13.50    1.55
  -3   2   3   13.96    0.71
   2  -2  -3  103.22    4.48
  -2   2   3  112.70    5.15
  -2   2   3  102.95    3.70
   1  -2  -3  144.02    5.08
  -1   2   3  145.33    5.41
  -1   2   3  145.54    5.14
  -1   2   3  146.35    5.42
   0  -2  -3    4.12    0.59
   0   2   3    5.57    0.64
   0   2   3    5.28    0.56
  -1  -2  -3   50.96    2.04
  -1  -2  -3   51.76    2.45
   1   2   3   49.77    2.41
   1   2   3   51.95    2.18
   1   2   3   47.53    1.97
  -2  -2  -3   43.46    2.34
  -2  -2  -3   41.19    1.65
   2   2   3   41.10    2.29
   2   2   3   43.41    2.33
   2   2   3   41.39    1.50
  -3  -2  -3   46.88    3.06
  -3  -2  -3   47.42    1.78
  -3  -2  -3   47.91    2.76
   3   2   3   48.25    2.93
   3   2   3   49.39    2.69
  -4  -2  -3   49.95    3.02
  -4  -2  -3   49.20    3.39
  -4  -2  -3   48.41    1.85
   4   2   3   53.92    2.99
   4   2   3   53.30    3.51
  -5  -2  -3    6.75    0.43
   5   2   3    5.15    1.40
  -6  -2  -3    0.99    0.19
  -6  -2  -3    0.70    0.25
   6   2   3    0.36    0.76
   7   2   3    0.04    0.96
  -8   2   2    0.60    0.45
   7  -2  -2    0.98    0.95
   7  -2  -2    1.65    0.83
  -7   2   2    1.82    0.78
   6  -2  -2    4.02    1.09
   6  -2  -2    3.96    1.57
  -6   2   2    4.58    1.02
  -6   2   2    3.53    0.83
   5  -2  -2    6.81    1.62
  -5   2   2    9.36    0.96
  -5   2   2    8.45    0.93
   4  -2  -2   10.23    1.52
   4  -2  -2    8.32    1.04
  -4   2   2   10.37    0.85
  -4   2   2    9.51    1.71
  -4   2   2   12.93    0.92
   3  -2  -2    3.95    0.67
   3  -2  -2    3.27    0.90
  -3   2   2    3.65    0.41
  -3   2   2    3.51    0.95
   2  -2  -2    1.21    0.52
   2  -2  -2    0.65    0.27
  -2   2   2    0.09    0.34
   1  -2  -2  715.89   22.83
  -1   2   2  697.54   22.84
  -1   2   2  707.27   23.37
   0  -2  -2  340.75   11.54
   0   2   2  344.25   11.54
   0   2   2  353.65   11.51
  -1  -2  -2   99.20    3.92
   1   2   2  102.54    3.89
   1   2   2  101.19    3.44
  -2  -2  -2  110.66    3.71
  -2  -2  -2  110.12    4.53
   2   2   2  117.69    4.81
   2   2   2  112.27    4.43
  -3  -2  -2   11.76    1.42
  -3  -2  -2   12.64    0.55
  -3  -2  -2   14.61    1.26
   3   2   2   13.98    1.25
   3   2   2   12.18    1.44
  -4  -2  -2   15.67    0.68
  -4  -2  -2   15.21    1.73
  -4  -2  -2   15.22    1.75
   4   2   2   13.29    1.84
  -5  -2  -2   19.07    1.05
  -5  -2  -2   19.41    1.97
  -5  -2  -2   18.57    0.84
   5   2   2   21.01    2.35
  -6  -2  -2    3.20    0.34
   6   2   2    4.72    1.57
  -7  -2  -2    4.91    0.63
  -7  -2  -2    4.72    0.43
   7   2   2    3.18    1.35
   8  -2  -1   -1.17    1.78
  -8   2   1    2.03    0.58
   7  -2  -1    1.48    1.04
   7  -2  -1    0.95    0.91
  -7   2   1    0.26    0.35
  -7   2   1   -0.69    0.61
   6  -2  -1   -0.56    0.57
   6  -2  -1    0.38    0.66
  -6   2   1    0.57    0.47
  -6   2   1    0.45    0.37
  -6   2   1    0.62    0.50
   5  -2  -1    1.41    0.97
   5  -2  -1    1.02    0.78
  -5   2   1    0.85    0.54
  -5   2   1    1.77    0.61
  -5   2   1    1.96    1.60
   4  -2  -1   14.65    1.81
   4  -2  -1   13.75    1.36
  -4   2   1   15.19    1.15
  -4   2   1   14.22    1.77
  -4   2   1   12.98    1.06
   3  -2  -1    4.88    0.82
   3  -2  -1    2.87    0.84
  -3   2   1    2.91    0.91
  -3   2   1    3.21    0.47
  -3   2   1    3.51    0.63
   2  -2  -1   13.30    0.88
   2  -2  -1   13.18    1.21
  -2   2   1   14.14    0.81
  -2   2   1   12.41    1.20
  -2   2   1   12.13    0.64
  -1   2   1  320.51   10.98
   0  -2  -1  226.82    7.52
  -1  -2  -1  281.00    9.50
  -2  -2  -1  142.44    5.26
  -2  -2  -1  141.03    4.55
  -2  -2  -1  137.24    4.61
   2   2   1  142.09    5.70
  -3  -2  -1   35.85    2.21
  -3  -2  -1   32.11    1.90
  -3  -2  -1   33.03    1.23
   3   2   1   31.89    2.39
  -4  -2  -1   31.84    2.26
  -4  -2  -1   30.06    1.21
  -4  -2  -1   28.80    1.41
  -4  -2  -1   31.29    2.04
   4   2   1   29.17    2.62
  -5  -2  -1    6.60    1.56
  -5  -2  -1    4.66    0.42
  -5  -2  -1    3.26    0.55
  -5  -2  -1    4.39    0.99
   5   2   1    3.99    1.26
  -6  -2  -1    0.03    0.19
  -6  -2  -1   -0.11    0.35
   6   2   1    0.44    0.91
  -7  -2  -1    1.12    0.50
   7   2   1    1.27    1.16
   8   2   1    1.19    1.50
   8  -2   0    0.81    2.05
  -8   2   0    0.62    0.44
   7  -2   0    0.73    1.14
  -7   2   0    1.20    0.48
   6  -2   0    7.45    1.82
   6  -2   0   10.28    1.90
  -6   2   0    8.71    1.55
  -6   2   0    8.91    0.80
   5  -2   0    5.74    1.38
   5  -2   0    6.90    1.58
  -5   2   0    1.66    1.13
  -5   2   0    4.66    0.94
  -5   2   0    4.18    0.62
  -5   2   0    5.37    1.14
   4  -2   0   12.39    1.60
   4  -2   0   10.72    1.50
  -4   2   0   10.12    0.75
  -4   2   0   11.61    1.23
  -4   2   0   11.66    1.60
  -4   2   0   10.18    1.03
   3  -2   0   82.60    4.08
   3  -2   0   82.67    3.22
   3  -2   0   73.83    3.57
  -3   2   0   82.30    3.29
  -3   2   0   82.63    3.03
  -3   2   0   82.22    4.16
  -3   2   0   78.68    3.47
   2  -2   0   24.10    1.45
   2  -2   0   24.76    1.23
   2  -2   0   25.48    1.71
  -2   2   0   27.69    1.27
  -2   2   0   25.39    1.13
  -2   2   0   27.26    1.43
  -2   2   0   26.55    1.77
   1  -2   0   72.79    2.77
   1  -2   0   72.43    2.62
  -1   2   0   78.44    2.75
  -1   2   0   72.16    2.56
  -1   2   0   72.60    2.60
   0  -2   0  170.12    5.45
   0   2   0  163.25    5.44
  -1  -2   0   70.55    2.41
   1   2   0   70.97    2.45
  -2  -2   0   26.59    1.15
   2   2   0   27.46    1.86
  -3  -2   0   81.45    3.11
  -3  -2   0   80.10    3.40
  -3  -2   0   82.97    3.63
   3   2   0   85.34    4.31
  -4  -2   0   11.30    1.27
  -4  -2   0   14.78    1.25
   4   2   0   13.07    1.74
  -5  -2   0    5.65    1.23
  -5  -2   0    4.84    0.77
   5   2   0    3.15    1.14
  -6  -2   0   12.10    1.44
  -6  -2   0    8.67    0.92
  -6  -2   0    8.74    1.17
   6   2   0    7.71    1.94
  -7  -2   0    0.79    0.37
  -7  -2   0    2.26    0.57
   7   2   0    0.39    1.07
  -8  -2   0    0.56    0.38
   8   2   0   -0.10    1.19
  -8   2  -1    2.96    0.60
   7  -2   1    0.11    1.02
  -7   2  -1    0.07    0.27
   6  -2   1   -0.72    0.70
   6  -2   1   -1.09    0.73
  -6   2  -1    0.29    0.54
  -6   2  -1    0.23    0.25
   5  -2   1    4.45    1.26
   5  -2   1    4.65    0.92
   5  -2   1    4.88    1.36
  -5   2  -1    4.15    1.50
  -5   2  -1    5.51    1.30
  -5   2  -1    3.47    0.83
  -5   2  -1    4.33    0.56
   4  -2   1   27.05    2.24
   4  -2   1   29.88    2.46
   4  -2   1   30.72    1.89
  -4   2  -1   30.87    2.58
  -4   2  -1   31.88    1.95
  -4   2  -1   31.14    1.40
  -4   2  -1   31.33    2.21
   3  -2   1   31.28    1.78
   3  -2   1   35.01    2.31
   3  -2   1   28.69    2.06
  -3   2  -1   31.83    2.05
  -3   2  -1   34.50    2.38
  -3   2  -1   29.94    1.33
  -3   2  -1   32.04    1.78
   2  -2   1  139.59    5.56
   2  -2   1  140.16    4.85
   2  -2   1  148.27    5.66
   2  -2   1  143.77    5.25
  -2   2  -1  139.18    5.49
  -2   2  -1  144.61    5.76
  -2   2  -1  145.65    5.25
  -2   2  -1  136.67    4.81
   1  -2   1  288.77    9.34
   1  -2   1  288.49    9.66
   1  -2   1  273.14    9.80
  -1   2  -1  282.75    9.35
  -1   2  -1  294.86    9.63
  -1   2  -1  284.24    9.79
   0  -2   1  219.04    7.49
   0  -2   1  222.05    7.38
   0   2  -1  226.83    7.42
   0   2  -1  226.45    7.45
  -1  -2   1  299.75    9.89
   1   2  -1  296.39    9.93
  -2  -2   1   12.70    0.81
  -2  -2   1   11.57    0.74
   2   2  -1   12.70    0.82
   2   2  -1   11.41    1.16
  -3  -2   1    4.73    0.75
  -3  -2   1    3.24    0.69
   3   2  -1    2.88    0.88
  -4  -2   1   14.88    1.18
  -4  -2   1   15.45    1.12
   4   2  -1   13.23    1.78
  -5  -2   1    0.89    0.53
  -5  -2   1    1.50    0.63
  -5  -2   1    1.17    0.56
   5   2  -1    0.86    0.97
  -6  -2   1    0.19    0.44
  -6  -2   1    1.18    0.50
  -6  -2   1   -0.22    0.49
   6   2  -1   -1.00    0.59
  -7  -2   1    1.75    0.64
  -7  -2   1    1.95    0.70
   7   2  -1    0.45    1.02
  -8  -2   1    2.43    0.61
   8   2  -1    1.20    1.20
   8  -2   2    0.32    0.98
   7  -2   2    4.54    1.50
  -7   2  -2    4.75    0.64
   6  -2   2    1.43    1.09
   5  -2   2   22.81    1.82
   5  -2   2   19.76    2.26
   5  -2   2   18.95    2.15
  -5   2  -2   15.02    1.55
  -5   2  -2   19.05    2.62
  -5   2  -2   19.30    1.06
   4  -2   2   13.42    1.71
   4  -2   2   13.47    1.74
   4  -2   2   15.39    1.47
  -4   2  -2   14.42    1.80
  -4   2  -2   17.51    2.07
  -4   2  -2   15.72    0.88
  -4   2  -2   17.35    1.55
   3  -2   2   12.46    1.49
   3  -2   2   15.36    1.28
   3  -2   2   12.94    0.76
   3  -2   2   13.32    1.45
  -3   2  -2   13.66    1.20
  -3   2  -2   12.70    0.73
  -3   2  -2   13.19    1.40
  -3   2  -2   12.04    1.39
   2  -2   2  113.89    3.85
   2  -2   2  113.55    4.50
   2  -2   2  108.67    4.80
  -2   2  -2  110.12    3.90
  -2   2  -2  107.16    4.40
  -2   2  -2  111.68    4.74
   1  -2   2  103.78    4.02
   1  -2   2  100.38    3.55
  -1   2  -2  105.14    3.65
  -1   2  -2   96.33    3.91
  -1   2  -2  103.95    4.19
   0  -2   2  347.59   11.57
   0  -2   2  340.66   11.37
   0  -2   2  334.68   11.62
   0   2  -2  347.86   11.52
   0   2  -2  347.02   11.58
   0   2  -2  340.63   11.45
  -1  -2   2  722.20   23.17
   1   2  -2  676.28   22.77
   1   2  -2  722.03   23.23
  -2  -2   2    1.08    0.36
   2   2  -2    0.26    0.42
   2   2  -2    0.37    0.34
  -3  -2   2    4.08    0.72
  -3  -2   2    3.94    0.35
   3   2  -2    4.54    1.10
  -4  -2   2   10.72    1.03
  -4  -2   2   10.43    0.76
   4   2  -2   11.59    1.92
  -5  -2   2    6.29    0.96
  -5  -2   2    8.10    1.13
  -5  -2   2    8.20    0.84
   5   2  -2    9.24    1.80
  -6  -2   2    4.45    0.91
  -6  -2   2    3.20    0.79
  -6  -2   2    5.74    0.89
   6   2  -2    2.60    1.31
  -7  -2   2    2.99    0.75
   7   2  -2    1.18    1.16
  -7   2  -3    0.74    0.38
   6  -2   3    0.10    1.20
  -6   2  -3    0.66    0.32
   5  -2   3    6.66    1.26
   5  -2   3    4.93    1.29
  -5   2  -3    6.74    0.63
   4  -2   3   54.01    3.08
   4  -2   3   50.57    3.20
  -4   2  -3   49.21    2.99
  -4   2  -3   53.24    3.56
  -4   2  -3   49.06    2.15
  -4   2  -3   52.06    3.37
   3  -2   3   48.42    2.76
   3  -2   3   47.52    3.15
   3  -2   3   48.28    1.94
  -3   2  -3   46.06    2.64
  -3   2  -3   51.59    3.14
  -3   2  -3   48.46    2.05
  -3   2  -3   48.20    3.00
   2  -2   3   39.66    2.61
   2  -2   3   43.18    2.36
   2  -2   3   41.65    1.64
  -2   2  -3   37.41    2.32
  -2   2  -3   38.92    2.19
  -2   2  -3   42.85    1.82
  -2   2  -3   40.82    2.56
   1  -2   3   50.47    2.02
   1  -2   3   50.48    2.50
  -1   2  -3   50.07    2.67
  -1   2  -3   50.40    2.28
  -1   2  -3   50.62    2.43
  -1   2  -3   50.99    2.18
   0  -2   3    5.04    0.71
   0  -2   3    4.34    0.48
   0   2  -3    3.38    0.54
   0   2  -3    5.24    0.70
   0   2  -3    5.49    0.84
  -1  -2   3  140.52    5.30
  -1  -2   3  150.16    5.32
   1   2  -3  146.47    5.41
   1   2  -3  137.40    5.07
  -2  -2   3   99.16    3.99
   2   2  -3   97.83    4.05
   2   2  -3   96.99    4.40
  -3  -2   3   12.10    1.09
   3   2  -3   14.07    1.64
  -4  -2   3    3.13    0.81
   4   2  -3    2.69    1.09
  -5  -2   3    6.56    1.11
   5   2  -3    7.37    1.78
  -6  -2   3    4.54    0.80
   6   2  -3    3.83    1.78
   7   2  -3   -0.59    0.68
   8   2  -3    1.03    1.00
  -7   2  -4    1.62    0.49
   6  -2   4    0.61    0.69
  -6   2  -4    0.31    0.36
   5  -2   4    8.75    1.51
  -5   2  -4    7.60    0.76
   4  -2   4   20.05    1.89
   4  -2   4   21.93    1.16
  -4   2  -4   20.47    2.11
   3  -2   4    4.33    0.45
   3  -2   4    3.55    1.02
  -3   2  -4    4.83    1.21
  -3   2  -4    3.72    1.00
  -3   2  -4    4.25    0.92
  -3   2  -4    4.29    0.68
   2  -2   4   56.61    2.21
   2  -2   4   59.15    3.13
  -2   2  -4   52.90    2.82
  -2   2  -4   56.22    2.50
  -2   2  -4   54.49    3.30
  -2   2  -4   54.42    2.89
   1  -2   4   77.93    2.99
   1  -2   4   75.35    3.63
  -1   2  -4   77.06    3.16
  -1   2  -4   73.24    3.42
  -1   2  -4   75.98    3.78
  -1   2  -4   77.12    3.23
   0  -2   4   50.27    2.52
   0  -2   4   48.51    2.17
   0   2  -4   47.19    2.51
   0   2  -4   45.27    2.29
   0   2  -4   46.01    2.31
  -1  -2   4  120.33    4.61
  -1  -2   4  114.09    4.51
   1   2  -4  115.38    4.65
   1   2  -4  105.88    4.36
  -2  -2   4   35.93    2.01
  -2  -2   4   38.57    1.97
   2   2  -4   36.47    2.26
   2   2  -4   32.21    1.48
   2   2  -4   37.08    2.13
  -3  -2   4    9.06    1.18
   3   2  -4    7.65    1.36
  -4  -2   4    5.00    1.02
   4   2  -4    4.36    1.30
   5   2  -4   23.31    2.57
   6   2  -4    1.27    1.19
   7   2  -4    0.05    0.75
   6  -2   5    1.14    0.80
  -6   2  -5    2.39    0.47
   5  -2   5    0.79    0.85
  -5   2  -5    0.66    0.42
   4  -2   5    9.02    0.70
   4  -2   5    8.34    1.45
  -4   2  -5    7.66    1.44
  -4   2  -5    8.49    0.89
   3  -2   5   30.00    1.37
   3  -2   5   28.17    2.31
  -3   2  -5   26.49    1.66
  -3   2  -5   27.12    2.15
   2  -2   5   14.67    1.58
   2  -2   5   13.80    0.90
  -2   2  -5   15.21    1.23
  -2   2  -5   14.22    1.27
  -2   2  -5   12.20    1.33
  -2   2  -5   14.51    1.72
   1  -2   5    2.62    0.77
   1  -2   5    2.95    0.54
  -1   2  -5    2.15    0.66
  -1   2  -5    2.11    0.49
  -1   2  -5    4.90    1.10
  -1   2  -5    2.16    0.66
   0  -2   5   19.83    1.65
   0  -2   5   22.94    1.41
   0   2  -5   19.77    1.49
   0   2  -5   21.75    1.56
  -1  -2   5    4.25    0.77
  -1  -2   5    5.45    0.95
   1   2  -5    4.93    0.69
   1   2  -5    3.60    0.80
   1   2  -5    4.26    0.85
  -2  -2   5   16.57    1.39
   2   2  -5   17.13    1.57
   2   2  -5   18.55    1.55
   2   2  -5   15.62    1.09
  -3  -2   5   13.52    1.29
  -3  -2   5   12.51    1.39
   4   2  -5    0.32    0.67
   5   2  -5   -0.61    0.70
   6   2  -5   -0.52    0.75
   7   2  -5   -0.66    0.88
  -6   2  -6    0.81    0.61
   5  -2   6    0.66    0.76
   5  -2   6    0.66    0.45
  -5   2  -6    1.35    0.57
   4  -2   6    8.37    0.83
   4  -2   6    5.71    1.35
  -4   2  -6   10.16    1.04
  -4   2  -6    7.45    1.37
   3  -2   6    0.92    0.57
   3  -2   6    0.07    0.29
  -3   2  -6   -0.22    0.50
  -3   2  -6    0.30    0.38
   2  -2   6    3.47    0.58
   2  -2   6    4.78    1.11
  -2   2  -6    3.91    0.91
  -2   2  -6    5.12    0.72
   1  -2   6   13.52    1.92
   1  -2   6   13.13    1.62
  -1   2  -6   13.49    1.38
  -1   2  -6   11.69    1.57
  -1   2  -6   11.72    1.26
   0  -2   6    1.97    0.75
   0  -2   6    1.23    0.36
   0   2  -6    2.37    0.89
   0   2  -6    1.69    0.59
   0   2  -6    1.12    0.71
  -1  -2   6    6.03    1.12
  -1  -2   6    4.60    0.92
   1   2  -6    6.26    1.20
   1   2  -6    7.10    1.16
   1   2  -6    6.17    0.75
  -2  -2   6   11.25    1.33
   2   2  -6    7.46    1.25
   2   2  -6    8.46    1.12
  -3  -2   6   13.92    1.31
   3   2  -6    8.18    1.81
  -4  -2   6    0.30    0.41
   4   2  -6    0.13    0.70
  -5  -2   6    4.13    0.86
   5   2  -6    3.05    1.20
  -6  -2   6    0.53    0.47
   6   2  -6   -0.50    0.81
  -7  -2   6    0.03    0.55
   7   2  -6   -0.03    0.95
   5  -2   7    1.41    1.07
  -5   2  -7    0.11    0.57
   4  -2   7   -0.96    0.54
  -4   2  -7    0.45    0.52
   3  -2   7    5.00    0.56
   3  -2   7    4.56    1.23
  -3   2  -7    6.79    1.09
   2  -2   7    1.31    0.87
   2  -2   7    2.78    0.51
  -2   2  -7    2.32    0.71
   1  -2   7    0.94    0.62
  -1   2  -7    0.93    0.65
   0  -2   7    9.86    1.52
   0   2  -7    9.22    1.45
   0   2  -7    9.09    1.54
  -1  -2   7    0.72    0.72
   1   2  -7    0.17    0.20
   1   2  -7    0.80    0.61
   1   2  -7    0.21    0.60
  -2  -2   7    1.52    0.73
   2   2  -7    1.77    0.55
   2   2  -7    2.51    0.62
   2   2  -7    1.32    0.70
  -3  -2   7    0.15    0.59
  -4  -2   7   -0.33    0.58
   4   2  -7    0.33    0.72
  -5  -2   7    0.59    0.52
   5   2  -7   -0.74    0.66
  -6  -2   7   -0.80    0.46
   6   2  -7    0.16    0.86
  -4   2  -8    0.21    0.60
   3  -2   8    1.80    0.98
  -3   2  -8    1.04    0.62
   2  -2   8   -0.62    0.74
  -2   2  -8    0.93    0.63
   1  -2   8    1.24    0.83
  -1   2  -8    2.53    0.83
   0   2  -8    1.41    0.73
  -1  -2   8    2.52    0.89
   1   2  -8    2.65    0.74
   1   2  -8    1.92    0.83
  -2  -2   8    0.82    0.67
   2   2  -8    0.55    0.56
   2   2  -8    1.35    0.71
   2   2  -8    0.09    0.33
  -3  -2   8    0.14    0.62
   3   2  -8   -0.07    0.49
  -4  -2   8    0.16    0.63
   4   2  -8    0.15    0.68
  -5  -2   8    0.94    0.70
   5   2  -8   -0.39    0.75
   3  -2   9   -1.25    0.82
  -3   2  -9   -1.73    0.67
   2  -2   9    3.09    1.25
  -2   2  -9    1.95    0.87
   1  -2   9    0.51    0.77
  -1   2  -9   -0.48    0.72
   0  -2   9    2.57    1.10
   0   2  -9    1.92    0.83
  -1  -2   9    0.79    0.81
   1   2  -9   -0.31    0.77
  -2  -2   9    1.56    0.89
   3   2  -9    2.02    0.58
  -4  -2   9   -0.87    0.70
   4   2  -9   -0.94    0.75
   0  -2  10   -0.29    0.97
   0   2 -10   -0.53    0.55
  -1  -2  10    1.30    0.89
  -2  -2  10    1.65    1.04
  -2   3  10   -0.34    0.94
  -1   3  10    0.33    0.94
   0   3  10    0.19    0.81
   4  -3  -9   -1.16    0.57
  -3   3   9    1.03    0.76
  -2   3   9    0.24    0.84
  -1   3   9   -0.18    0.70
   0   3   9    0.13    0.79
   1   3   9    1.68    1.00
   2   3   9    0.33    0.70
   3   3   9    0.02    0.91
   5  -3  -8    1.21    0.62
   4  -3  -8    0.65    0.57
  -4   3   8    0.95    0.49
  -3   3   8    1.71    0.68
  -2   3   8    0.42    0.69
   1  -3  -8    0.71    0.59
  -1   3   8    2.89    0.95
   0   3   8    1.45    0.78
   1   3   8    2.10    0.47
   1   3   8   -0.86    0.84
   2   3   8   -0.16    0.67
   2   3   8    0.33    0.39
   3   3   8   -1.12    0.54
   3   3   8   -0.53    0.24
   5  -3  -7    0.78    0.52
   4  -3  -7    2.55    0.66
  -4   3   7    2.19    0.48
  -3   3   7    1.87    0.63
  -2   3   7    0.17    0.49
   1  -3  -7    0.26    0.47
  -1   3   7    1.57    0.71
   0  -3  -7    0.80    0.48
   0   3   7    0.65    0.43
   0   3   7    0.60    0.54
   1   3   7    5.40    1.22
   1   3   7    5.92    0.87
   2   3   7    0.52    0.30
   2   3   7    0.68    0.86
   3   3   7    2.41    1.07
   3   3   7    3.73    0.45
   4   3   7   -0.16    0.66
   4   3   7   -0.09    0.20
   7  -3  -6    1.14    0.77
   6  -3  -6    0.81    0.54
   5  -3  -6    1.91    0.61
   4  -3  -6    0.29    0.45
  -4   3   6   -0.04    0.25
  -4   3   6   -0.80    0.57
  -3   3   6    3.86    1.02
  -3   3   6    3.70    0.65
  -2   3   6    8.69    1.06
  -2   3   6   10.15    1.15
  -2   3   6   10.06    1.06
   1  -3  -6    0.17    0.37
  -1   3   6   -0.16    0.36
  -1   3   6    0.56    0.56
   0  -3  -6   19.16    1.60
   0   3   6   18.94    1.72
   0   3   6   17.96    1.36
  -1  -3  -6    0.99    0.51
   1   3   6    1.43    0.48
   1   3   6    2.35    0.86
   2   3   6    0.13    0.66
   2   3   6    0.84    0.26
   3   3   6    3.01    0.72
   3   3   6    3.26    1.00
   4   3   6    3.74    1.06
   4   3   6    4.77    1.14
   5   3   6    0.44    0.79
   6   3   6   -0.74    1.03
   7  -3  -5    0.56    0.84
   7  -3  -5    1.10    0.74
   6  -3  -5    4.06    0.91
   6  -3  -5    4.33    1.44
   5  -3  -5    0.85    0.87
   5  -3  -5    1.40    0.83
   4  -3  -5    9.86    0.98
  -4   3   5   10.99    2.17
  -3   3   5    3.21    0.92
  -3   3   5    3.15    0.80
  -3   3   5    4.06    0.55
  -2   3   5   19.68    1.31
  -2   3   5   20.97    1.65
   1  -3  -5   12.19    1.01
  -1   3   5   11.18    1.08
  -1   3   5   12.87    1.17
  -1   3   5   12.14    0.95
   0  -3  -5   -0.01    0.38
   0   3   5    0.49    0.53
   0   3   5    0.31    0.38
  -1  -3  -5   62.65    3.20
   1   3   5   67.96    3.38
   1   3   5   60.79    2.67
  -2  -3  -5    0.06    0.46
   2   3   5    0.23    0.21
   2   3   5    0.48    0.42
   2   3   5    0.45    0.64
   3   3   5    5.96    1.21
   3   3   5    6.31    0.39
   3   3   5    6.60    1.16
   4   3   5    0.62    0.62
   5   3   5   -0.01    0.82
   7  -3  -4   -0.02    0.85
   7  -3  -4    0.55    0.76
   6  -3  -4   -0.33    1.02
   6  -3  -4    3.03    0.86
   5  -3  -4    1.90    0.77
   5  -3  -4    1.42    0.82
   4  -3  -4    1.25    0.86
   4  -3  -4    1.49    0.63
  -4   3   4    0.20    0.66
   3  -3  -4    6.03    0.71
  -3   3   4    6.59    1.20
  -3   3   4    6.65    1.27
  -2   3   4   23.35    1.77
  -2   3   4   26.65    1.72
  -2   3   4   24.20    1.22
   1  -3  -4   76.12    3.09
  -1   3   4   77.53    3.17
  -1   3   4   81.53    3.36
  -1   3   4   74.68    3.36
   0  -3  -4   58.44    2.71
   0   3   4   61.23    2.77
   0   3   4   59.70    2.63
  -1  -3  -4   43.38    2.37
   1   3   4   42.31    1.90
   1   3   4   43.62    2.36
   1   3   4   45.16    2.02
  -2  -3  -4    3.89    0.81
   2   3   4    3.92    0.34
   2   3   4    5.09    0.88
   2   3   4    3.47    0.83
  -3  -3  -4    0.67    0.66
  -3  -3  -4    1.83    0.96
   3   3   4    0.34    0.58
   3   3   4    0.98    0.61
   3   3   4    0.98    0.15
   4   3   4   21.06    2.14
   5   3   4   16.77    2.10
   6   3   4   -0.38    0.90
   7   3   4    1.53    1.34
   8  -3  -3    0.46    1.11
   8  -3  -3   -0.97    0.76
  -8   3   3    1.07    0.54
   7  -3  -3    0.77    1.02
   7  -3  -3    1.96    0.87
  -7   3   3    0.89    0.48
   6  -3  -3    1.91    0.78
   6  -3  -3    0.71    0.79
  -6   3   3    1.44    0.45
   5  -3  -3    7.10    1.22
   5  -3  -3    5.66    1.48
  -5   3   3    6.00    0.63
   4  -3  -3    5.92    0.99
   4  -3  -3    3.40    1.05
  -4   3   3    5.31    0.39
  -4   3   3    4.18    1.22
   3  -3  -3    1.20    0.62
   3  -3  -3    1.80    0.53
  -3   3   3    1.88    0.71
  -2   3   3  187.52    7.40
   1  -3  -3   63.02    2.47
  -1   3   3   65.53    2.86
  -1   3   3   64.15    2.49
   0  -3  -3   46.97    2.17
   0   3   3   49.16    2.11
   0   3   3   48.84    2.18
  -1  -3  -3  116.17    4.70
   1   3   3  121.43    4.69
   1   3   3  118.45    4.20
  -2  -3  -3   19.75    1.53
   2   3   3   21.74    1.60
   2   3   3   20.69    0.78
  -3  -3  -3    1.65    0.59
   3   3   3    1.18    0.61
   3   3   3    2.19    0.82
  -4  -3  -3   29.17    2.56
  -4  -3  -3   36.75    2.81
   4   3   3   33.03    2.74
   5   3   3    9.70    1.82
   6   3   3    1.71    1.20
   7   3   3    1.88    1.33
   8  -3  -2   -0.97    1.14
   8  -3  -2    2.28    0.88
  -8   3   2    1.08    0.53
   7  -3  -2    1.49    0.92
   7  -3  -2    2.00    1.17
  -7   3   2    3.20    0.86
  -7   3   2    2.66    0.74
   6  -3  -2    0.61    0.72
  -6   3   2    0.63    0.45
  -6   3   2   -0.15    0.53
   5  -3  -2    4.16    1.36
   5  -3  -2    4.10    1.05
  -5   3   2    5.52    0.90
  -5   3   2    4.61    0.69
   4  -3  -2    3.68    0.90
   4  -3  -2    2.49    1.02
  -4   3   2    3.83    0.51
  -4   3   2    3.38    1.10
   3  -3  -2    9.82    1.53
   3  -3  -2    6.91    0.81
  -3   3   2    7.36    0.42
  -3   3   2    6.94    1.28
   2  -3  -2    0.67    0.31
  -2   3   2    0.49    0.44
   1  -3  -2   76.98    2.70
   0  -3  -2   87.61    3.30
   1   3   2  169.54    5.67
  -2  -3  -2   17.57    1.28
   2   3   2   17.07    1.42
  -3  -3  -2   38.28    2.27
   3   3   2   39.87    2.71
  -4  -3  -2   33.36    2.32
  -4  -3  -2   34.74    2.63
   4   3   2   37.85    2.96
  -5  -3  -2   55.48    2.06
  -5  -3  -2   54.19    3.62
  -5  -3  -2   57.82    1.97
   5   3   2   58.39    4.08
  -6  -3  -2    1.57    0.29
  -6  -3  -2    1.49    0.20
   6   3   2    0.13    0.89
  -7  -3  -2    1.94    0.29
  -7  -3  -2    2.13    0.23
   7   3   2    1.27    1.19
   8  -3  -1   -0.16    1.75
  -8   3   1    0.67    0.52
   7  -3  -1    0.19    0.74
   7  -3  -1   -1.13    0.70
  -7   3   1   -0.17    0.40
  -7   3   1   -0.72    0.63
   6  -3  -1    1.36    1.39
   6  -3  -1    2.63    1.06
  -6   3   1    1.37    0.59
  -6   3   1    1.94    0.70
  -6   3   1    1.02    0.45
   5  -3  -1    0.77    0.65
   5  -3  -1    1.05    0.86
  -5   3   1    0.60    0.50
  -5   3   1    1.09    0.51
   4  -3  -1    3.38    1.07
   4  -3  -1    3.59    0.96
  -4   3   1    5.20    0.82
  -4   3   1    3.63    1.11
  -4   3   1    4.17    0.65
   3  -3  -1   21.26    1.82
   3  -3  -1   16.79    1.34
  -3   3   1   18.86    1.81
  -3   3   1   19.51    1.04
  -3   3   1   20.94    1.22
   2  -3  -1   41.47    1.50
   2  -3  -1   41.57    1.88
  -2   3   1   39.65    1.48
  -2   3   1   38.31    2.33
   1  -3  -1   45.65    4.98
  -1   3   1   40.90    3.25
   0   3   1  115.73    3.90
   1   3   1    6.10    0.27
  -2  -3  -1    1.03    0.38
  -3  -3  -1   34.74    1.96
  -3  -3  -1   30.63    1.22
   3   3   1   32.67    2.41
  -4  -3  -1   19.48    1.58
  -4  -3  -1   19.01    0.82
  -4  -3  -1   18.46    0.96
  -4  -3  -1   20.34    1.83
   4   3   1   18.65    2.09
  -5  -3  -1    6.34    0.44
  -5  -3  -1    5.47    0.59
  -5  -3  -1    5.90    1.15
  -5  -3  -1    6.87    1.73
   5   3   1    6.32    1.61
  -6  -3  -1    2.48    0.46
  -6  -3  -1    3.18    0.35
   6   3   1    3.77    1.53
  -7  -3  -1    0.65    0.25
  -7  -3  -1    1.80    0.51
   7   3   1    1.44    1.17
  -8  -3  -1    3.15    0.41
   8  -3   0   -2.10    1.45
  -8   3   0    0.63    0.45
   7  -3   0    0.31    1.07
  -7   3   0    0.16    0.34
   6  -3   0    0.83    0.76
  -6   3   0   -0.04    0.52
  -6   3   0    0.74    0.34
   5  -3   0   11.40    2.01
   5  -3   0   11.91    1.55
  -5   3   0   12.91    1.37
  -5   3   0   10.90    1.24
  -5   3   0   12.88    0.94
   4  -3   0   14.53    1.59
   4  -3   0   19.98    1.98
   4  -3   0   18.04    1.26
  -4   3   0   18.15    1.06
  -4   3   0   20.44    1.55
  -4   3   0   17.71    1.96
  -4   3   0   18.97    1.35
   3  -3   0   14.82    1.00
   3  -3   0   14.44    1.50
   3  -3   0   14.47    1.31
  -3   3   0   14.81    1.64
  -3   3   0   15.84    1.21
  -3   3   0   17.54    0.94
  -3   3   0   14.63    1.03
   2  -3   0   75.98    3.33
   2  -3   0   81.67    3.07
  -2   3   0   80.26    3.02
  -2   3   0   81.79    3.77
  -2   3   0   83.03    3.48
  -2   3   0   80.60    2.94
   1  -3   0  382.23   12.95
   1  -3   0  399.32   13.15
   1  -3   0  378.43   12.92
  -1   3   0  436.58   13.11
  -1   3   0  379.26   12.89
   0  -3   0   62.74    2.19
   0   3   0   63.76    2.19
  -1  -3   0  381.46   12.13
   1   3   0  366.51   12.18
  -2  -3   0   76.62    2.79
   2   3   0   81.20    2.86
  -3  -3   0   15.34    1.46
  -3  -3   0   15.25    0.85
   3   3   0   14.87    1.59
  -4  -3   0   19.11    1.61
  -4  -3   0   17.65    1.09
  -4  -3   0   20.26    1.50
   4   3   0   16.39    2.07
  -5  -3   0   13.52    1.00
  -5  -3   0   11.47    1.32
  -5  -3   0   10.06    1.39
   5   3   0   11.14    2.11
  -6  -3   0    0.76    0.54
  -6  -3   0    0.49    0.38
   6   3   0    2.05    1.08
  -7  -3   0    1.73    0.51
  -7  -3   0    0.09    0.29
   7   3   0   -0.32    0.89
  -8  -3   0    0.98    0.37
  -8   3  -1    3.19    0.65
   7  -3   1   -0.17    0.81
  -7   3  -1    1.98    0.48
   6  -3   1    1.56    1.00
  -6   3  -1    2.63    0.87
  -6   3  -1    2.87    0.54
   5  -3   1    6.48    1.04
   5  -3   1    5.55    1.41
   5  -3   1    5.57    1.49
  -5   3  -1    6.74    1.11
  -5   3  -1    5.62    0.61
  -5   3  -1    8.37    1.48
   4  -3   1   17.97    1.83
   4  -3   1   19.12    1.98
   4  -3   1   18.17    1.46
  -4   3  -1   17.90    1.45
  -4   3  -1   21.60    1.79
  -4   3  -1   19.14    2.08
  -4   3  -1   21.64    1.50
   3  -3   1   31.03    2.16
   3  -3   1   33.55    1.86
  -3   3  -1   32.85    2.43
  -3   3  -1   32.36    1.43
  -3   3  -1   35.17    2.12
  -3   3  -1   34.56    1.86
   2  -3   1    1.19    0.39
   2  -3   1    1.10    0.55
   2  -3   1    1.44    0.29
  -2   3  -1    1.71    0.57
  -2   3  -1    2.12    0.61
  -2   3  -1    1.01    0.36
  -2   3  -1    1.38    0.26
   1  -3   1    5.64    0.39
   1  -3   1    6.06    0.61
   1  -3   1    5.16    0.65
  -1   3  -1    5.95    0.66
  -1   3  -1    5.32    0.39
  -1   3  -1    5.48    0.52
   0  -3   1  120.95    4.21
   0  -3   1  122.16    4.36
   0   3  -1  131.56    4.29
   0   3  -1  120.03    4.26
  -1  -3   1   37.85    1.55
   1   3  -1   38.39    1.62
  -2  -3   1   38.96    1.75
   2   3  -1   43.94    1.86
  -3  -3   1   18.25    1.34
  -3  -3   1   18.41    1.20
   3   3  -1   18.77    1.81
  -4  -3   1    5.16    1.08
  -4  -3   1    3.68    0.65
   4   3  -1    3.09    1.17
  -5  -3   1    0.31    0.52
  -5  -3   1    0.63    0.56
  -5  -3   1    0.33    0.43
   5   3  -1    1.10    0.90
  -6  -3   1    1.93    0.60
  -6  -3   1    1.65    0.67
  -7  -3   1    0.73    0.54
  -7  -3   1    1.01    0.66
   7   3  -1   -0.76    0.76
  -8  -3   1    1.89    0.47
  -7   3  -2    1.41    0.40
   6  -3   2    1.51    0.71
   6  -3   2    0.47    0.86
  -6   3  -2    1.15    0.36
   5  -3   2   58.03    3.21
   5  -3   2   60.57    3.93
   5  -3   2   54.22    3.76
  -5   3  -2   60.57    2.46
  -5   3  -2   63.92    3.45
   4  -3   2   33.48    2.22
   4  -3   2   30.40    2.55
  -4   3  -2   33.86    2.53
  -4   3  -2   33.12    2.81
  -4   3  -2   35.57    2.25
   3  -3   2   37.94    2.21
   3  -3   2   32.11    2.42
   3  -3   2   36.64    1.61
  -3   3  -2   38.15    1.60
  -3   3  -2   41.02    2.51
  -3   3  -2   34.13    2.04
  -3   3  -2   38.14    2.66
   2  -3   2   18.87    1.35
   2  -3   2   17.20    0.86
   2  -3   2   18.01    1.53
  -2   3  -2   15.89    1.39
  -2   3  -2   16.43    1.21
  -2   3  -2   16.65    0.89
  -2   3  -2   18.49    1.45
   1  -3   2  169.84    6.62
   1  -3   2  186.34    6.48
   1  -3   2  172.53    6.13
  -1   3  -2  176.84    6.10
  -1   3  -2  179.43    6.37
   0  -3   2   87.44    3.42
   0  -3   2   92.93    3.23
   0  -3   2   81.53    3.41
   0   3  -2   87.65    3.29
   0   3  -2   88.06    3.34
  -1  -3   2   76.65    3.15
  -1  -3   2   78.04    2.98
   1   3  -2   94.00    2.87
   1   3  -2   84.06    3.28
  -2  -3   2    0.26    0.28
   2   3  -2    1.08    0.41
  -3  -3   2    6.44    0.44
  -3  -3   2    7.87    0.78
   3   3  -2    6.77    0.91
   3   3  -2    7.00    1.36
  -4  -3   2    4.52    0.84
  -4  -3   2    3.75    0.60
   4   3  -2    4.84    1.35
  -5  -3   2    5.28    0.72
  -5  -3   2    4.46    0.81
   5   3  -2    4.09    1.32
  -6  -3   2    1.08    0.48
  -6  -3   2    0.54    0.50
  -6  -3   2   -0.13    0.44
   6   3  -2    0.58    1.02
  -7  -3   2    4.85    0.84
   7   3  -2    1.88    1.38
   8   3  -2   -0.29    1.00
  -7   3  -3    1.18    0.40
  -6   3  -3    3.11    0.56
   5  -3   3   11.47    2.13
   5  -3   3   10.99    1.62
  -5   3  -3    9.45    0.79
   4  -3   3   35.18    2.90
   4  -3   3   34.00    1.63
   4  -3   3   33.82    2.38
  -4   3  -3   35.79    3.13
  -4   3  -3   32.87    1.64
  -4   3  -3   33.46    2.80
  -4   3  -3   34.72    2.34
   3  -3   3    1.21    0.89
   3  -3   3    1.83    0.34
   3  -3   3    2.22    0.79
  -3   3  -3    1.96    0.94
  -3   3  -3    0.94    0.67
  -3   3  -3    1.56    0.40
  -3   3  -3    1.64    0.64
   2  -3   3   21.22    1.01
  -2   3  -3   19.73    1.70
  -2   3  -3   21.01    1.15
  -2   3  -3   20.54    1.59
  -2   3  -3   18.50    1.45
   1  -3   3  114.26    4.76
   1  -3   3  112.62    4.97
   1  -3   3  122.81    4.24
  -1   3  -3  113.78    4.62
  -1   3  -3  121.89    4.42
  -1   3  -3  120.65    4.94
   0  -3   3   50.52    2.10
   0  -3   3   49.88    2.36
   0   3  -3   47.49    2.30
   0   3  -3   48.54    2.23
  -1  -3   3   60.78    2.69
  -1  -3   3   65.12    2.66
   1   3  -3   60.96    2.73
   1   3  -3   58.32    2.34
  -2  -3   3  181.16    6.60
   2   3  -3  176.53    6.69
  -3  -3   3    1.07    0.47
   3   3  -3    0.98    0.49
  -4  -3   3    4.21    0.87
   4   3  -3    4.50    1.34
  -5  -3   3    4.72    0.93
   5   3  -3    4.40    1.38
   6   3  -3    0.82    0.84
   7   3  -3    0.29    1.04
   8   3  -3   -0.97    1.04
   7  -3   4    0.22    0.87
  -7   3  -4    3.14    0.60
   6  -3   4    1.31    0.87
  -6   3  -4    1.28    0.45
   5  -3   4   16.67    1.82
  -5   3  -4   16.03    1.14
   4  -3   4   20.90    2.01
   4  -3   4   20.94    1.18
  -4   3  -4   21.26    1.33
  -4   3  -4   21.38    2.18
   3  -3   4    0.34    0.61
   3  -3   4    1.24    0.33
  -3   3  -4    1.15    0.68
  -3   3  -4    1.78    0.96
  -3   3  -4    0.70    0.44
  -3   3  -4    1.88    0.79
   2  -3   4    4.07    0.51
   2  -3   4    3.09    0.87
  -2   3  -4    4.41    0.73
  -2   3  -4    4.29    1.12
  -2   3  -4    4.70    0.85
  -2   3  -4    3.44    0.77
   1  -3   4   43.06    2.45
   1  -3   4   43.06    1.88
  -1   3  -4   40.52    2.09
  -1   3  -4   41.37    2.53
  -1   3  -4   40.27    2.24
   0  -3   4   61.17    2.97
   0  -3   4   61.37    2.60
   0   3  -4   56.97    2.88
   0   3  -4   62.87    2.83
  -1  -3   4   77.06    3.40
  -1  -3   4   77.76    3.27
   1   3  -4   72.59    3.09
   1   3  -4   79.35    3.47
  -2  -3   4   24.97    1.59
  -2  -3   4   23.06    1.54
   2   3  -4   22.67    1.63
  -3  -3   4    6.06    1.00
   3   3  -4    6.07    1.06
   3   3  -4    6.73    1.33
  -4  -3   4    1.61    0.59
   4   3  -4    0.67    0.85
   5   3  -4    1.02    0.89
   6   3  -4    1.15    1.09
   7   3  -4   -0.39    0.89
   6  -3   5    0.85    0.84
  -6   3  -5    1.19    0.44
   5  -3   5    1.68    0.84
  -5   3  -5    1.37    0.48
   4  -3   5    1.54    0.84
  -4   3  -5    0.02    0.80
  -4   3  -5    1.41    0.47
   3  -3   5    6.56    0.60
   3  -3   5    8.36    1.46
  -3   3  -5    6.98    0.98
  -3   3  -5    6.88    1.26
   2  -3   5    0.67    0.25
   2  -3   5    0.21    0.51
  -2   3  -5    0.81    0.76
  -2   3  -5   -0.25    0.35
  -2   3  -5    0.47    0.50
  -2   3  -5    0.81    0.48
   1  -3   5   66.05    3.48
   1  -3   5   62.57    2.69
  -1   3  -5   59.33    2.87
  -1   3  -5   64.65    3.07
  -1   3  -5   68.44    3.61
  -1   3  -5   63.05    3.20
   0  -3   5   -0.42    0.36
   0  -3   5    0.01    0.31
   0   3  -5    0.09    0.50
   0   3  -5    1.08    0.69
   0   3  -5    0.35    0.40
  -1  -3   5   12.06    1.08
  -1  -3   5   11.18    1.27
   1   3  -5   13.15    1.30
   1   3  -5   11.09    1.06
  -2  -3   5   21.20    1.60
  -2  -3   5   19.79    1.49
   2   3  -5   17.34    1.04
   2   3  -5   19.57    1.70
   2   3  -5   23.63    1.75
  -3  -3   5    4.43    0.84
  -3  -3   5    2.97    0.75
   3   3  -5    2.68    0.93
   3   3  -5    3.58    0.95
   4   3  -5   11.06    1.92
   5   3  -5    1.15    0.92
   6   3  -5    2.58    1.32
   7   3  -5    0.60    0.96
  -6   3  -6    2.33    0.69
   5  -3   6    1.34    0.95
  -5   3  -6    1.02    0.57
   4  -3   6    5.72    1.35
   4  -3   6    5.70    0.69
  -4   3  -6    4.47    1.21
  -4   3  -6    4.66    0.90
   3  -3   6    5.42    0.58
  -3   3  -6    5.94    0.94
  -3   3  -6    3.56    0.94
   2  -3   6    1.25    0.34
   2  -3   6    0.21    0.57
  -2   3  -6    0.64    0.70
  -2   3  -6    1.18    0.57
   1  -3   6    0.64    0.56
   1  -3   6    2.29    0.56
  -1   3  -6    1.96    0.88
  -1   3  -6    1.44    0.62
  -1   3  -6    0.97    0.39
   0  -3   6   18.12    1.30
   0  -3   6   16.24    1.70
   0   3  -6   15.19    1.58
   0   3  -6   17.11    1.52
  -1  -3   6   -0.44    0.33
  -1  -3   6    0.58    0.58
   1   3  -6   -0.10    0.53
   1   3  -6    0.17    0.43
   1   3  -6    0.21    0.36
  -2  -3   6    8.52    1.30
   2   3  -6   10.00    0.89
   2   3  -6    9.19    1.37
   2   3  -6   11.05    1.30
  -3  -3   6    3.81    0.88
   3   3  -6    3.77    1.00
   3   3  -6    2.49    0.99
  -4  -3   6    0.73    0.54
   4   3  -6   -0.10    0.68
  -5  -3   6    1.97    0.72
   5   3  -6    1.08    0.94
   6   3  -6    0.02    0.85
   7   3  -6   -0.26    0.73
  -5   3  -7    1.10    0.58
   4  -3   7   -0.15    0.75
  -4   3  -7    0.97    0.45
   3  -3   7    1.89    1.18
  -3   3  -7    3.40    0.86
  -3   3  -7    3.09    0.82
   2  -3   7    0.10    0.58
  -2   3  -7    0.13    0.49
  -2   3  -7    0.48    0.36
   1  -3   7    5.15    1.24
  -1   3  -7    4.82    1.06
   0  -3   7    0.86    0.73
   0   3  -7    0.12    0.49
   0   3  -7    0.81    0.71
  -1  -3   7    0.81    0.67
   1   3  -7    0.88    0.39
   1   3  -7    1.31    0.71
   1   3  -7    0.71    0.55
  -2  -3   7    0.62    0.58
   2   3  -7    1.26    0.50
   2   3  -7    0.25    0.50
   2   3  -7    0.90    0.69
  -3  -3   7    1.01    0.63
   3   3  -7    2.03    0.85
   3   3  -7    2.11    0.85
  -4  -3   7    1.62    0.71
   4   3  -7    2.36    0.97
  -5  -3   7   -0.46    0.53
   5   3  -7   -0.54    0.66
  -6  -3   7    1.04    0.66
   6   3  -7    0.23    1.27
   4  -3   8   -1.12    0.86
  -4   3  -8    2.85    1.23
   3  -3   8    0.37    0.68
  -3   3  -8    0.00    0.58
   2  -3   8    0.74    0.90
  -2   3  -8   -0.13    0.51
   1  -3   8   -0.79    0.51
  -1   3  -8    1.30    0.83
   0  -3   8    0.40    0.89
   0   3  -8    2.10    0.77
  -1  -3   8    1.03    0.65
   1   3  -8    2.07    0.87
  -2  -3   8    2.04    0.86
   2   3  -8    1.38    0.53
   2   3  -8    0.48    0.47
   2   3  -8    1.22    0.78
  -3  -3   8    2.64    1.02
   3   3  -8    3.26    0.44
   3   3  -8    1.73    0.76
  -4  -3   8    0.24    0.63
   4   3  -8    0.70    0.86
  -5  -3   8   -0.16    0.63
   5   3  -8    0.01    0.84
   3  -3   9    0.37    0.93
  -3   3  -9   -0.53    0.76
   2  -3   9    0.59    0.80
  -2   3  -9    2.42    0.87
   1  -3   9    1.01    0.87
  -1   3  -9    0.30    0.72
   0  -3   9   -0.40    0.72
   0   3  -9    0.78    0.72
  -1  -3   9   -0.24    0.68
   1   3  -9    0.08    0.76
  -2  -3   9    1.72    0.97
   2   3  -9    1.64    0.85
  -3  -3   9    0.82    0.79
   3   3  -9   -1.00    0.55
  -4  -3   9    1.71    0.91
   4   3  -9    0.74    0.91
   0  -3  10   -1.35    0.71
   0   3 -10   -1.26    0.62
  -1  -3  10   -0.56    0.80
   1   3 -10    1.97    0.98
  -2  -3  10    1.42    0.95
  -1   4  10   -0.24    0.96
   0   4  10    1.18    0.97
   4  -4  -9   -0.93    0.55
  -3   4   9   -0.03    0.69
  -2   4   9    0.24    0.62
  -1   4   9   -0.04    0.64
   0   4   9    1.96    0.93
   1   4   9    0.24    0.81
   2   4   9   -0.70    0.72
   5  -4  -8    0.78    0.64
   4  -4  -8    1.12    0.63
  -2   4   8    7.32    1.20
   1  -4  -8    3.07    0.85
  -1   4   8    4.07    1.04
   0   4   8   -1.10    0.47
   1   4   8    0.90    0.96
   1   4   8    1.08    0.49
   2   4   8    0.30    0.37
   2   4   8    1.14    0.80
   3   4   8   -0.64    0.63
   3   4   8    0.68    0.27
   4   4   8   -0.26    0.92
   6  -4  -7    1.72    0.68
   5  -4  -7    0.79    0.48
   4  -4  -7    7.09    1.08
  -2   4   7    3.42    0.79
   1  -4  -7   -0.22    0.38
  -1   4   7    0.63    0.56
   0  -4  -7    3.92    0.86
   0   4   7    2.92    0.78
   0   4   7    5.35    0.83
   1   4   7    1.32    0.78
   1   4   7    1.32    0.41
   2   4   7    1.79    0.38
   2   4   7    1.22    1.45
   3   4   7    0.60    0.23
   3   4   7    0.63    0.67
   4   4   7    0.09    0.80
   4   4   7   -0.49    0.57
   5   4   7   -0.29    0.76
   7  -4  -6    1.58    0.83
   6  -4  -6    1.12    0.67
   5  -4  -6    1.84    0.65
   4  -4  -6    4.66    0.88
  -4   4   6    2.64    0.99
  -3   4   6    7.89    1.39
  -2   4   6   18.11    1.35
  -2   4   6   16.04    1.47
   1  -4  -6    1.24    0.49
  -1   4   6    2.03    0.71
  -1   4   6    1.47    0.62
  -1   4   6    1.12    0.41
   0  -4  -6    7.85    1.14
   0   4   6    8.47    1.10
   0   4   6   11.07    1.26
  -1  -4  -6    0.38    0.53
   1   4   6    1.06    0.60
   1   4   6    0.15    0.35
   2   4   6    4.95    1.14
   2   4   6    2.88    0.53
   2   4   6    4.03    0.52
   3   4   6    1.54    0.63
   3   4   6    2.35    1.62
   3   4   6    1.82    0.23
   4   4   6   -0.18    0.63
   5   4   6   -0.50    0.82
   6   4   6    0.58    1.61
   7  -4  -5    1.85    0.70
   6  -4  -5    3.09    0.86
   5  -4  -5    1.00    0.49
   4  -4  -5    8.46    0.93
  -4   4   5    7.72    1.53
  -3   4   5   20.68    2.01
  -2   4   5    3.31    0.82
  -2   4   5    3.98    0.87
  -2   4   5    2.97    0.54
   1  -4  -5    0.85    0.39
  -1   4   5    1.23    0.47
  -1   4   5    0.92    0.40
  -1   4   5    0.57    0.47
   0  -4  -5    1.46    0.50
   0   4   5    0.92    0.31
   0   4   5    1.79    0.51
   0   4   5    1.47    0.65
  -1  -4  -5    4.76    0.91
   1   4   5    5.32    0.69
   1   4   5    4.57    0.61
   1   4   5    3.30    0.89
  -2  -4  -5   -0.09    0.41
   2   4   5    0.67    0.43
   2   4   5    0.97    0.29
   2   4   5    0.52    0.53
   3   4   5    5.64    1.09
   3   4   5    6.60    1.27
   3   4   5    5.92    0.31
   4   4   5    4.34    1.14
   5   4   5   -1.01    0.61
   6   4   5    1.10    1.07
   7  -4  -4    0.67    0.63
   6  -4  -4    2.84    0.79
   5  -4  -4   14.10    1.39
   4  -4  -4   25.36    1.67
  -4   4   4   24.13    2.41
   3  -4  -4    6.20    0.76
  -3   4   4    6.94    1.32
  -2   4   4   33.90    1.42
  -2   4   4   32.36    2.24
   1  -4  -4   14.91    1.01
  -1   4   4   15.22    1.22
  -1   4   4   16.17    1.06
  -1   4   4   14.06    1.16
   0  -4  -4   18.81    1.31
   0   4   4   19.44    1.25
   0   4   4   17.45    1.31
  -1  -4  -4    0.86    0.43
   1   4   4    1.75    0.73
   1   4   4    2.15    0.41
  -2  -4  -4   10.33    1.20
   2   4   4   10.69    1.15
   2   4   4   10.68    1.22
   2   4   4   10.23    0.57
  -3  -4  -4    4.84    1.09
   3   4   4    5.93    1.24
   4   4   4    1.84    0.78
   5   4   4    9.67    1.96
   6   4   4    0.82    1.23
   7   4   4   -0.04    1.03
   8  -4  -3    0.52    0.84
  -8   4   3    1.02    0.50
   7  -4  -3    4.77    1.15
  -7   4   3    2.01    0.44
   6  -4  -3    3.91    1.04
   6  -4  -3    3.49    1.31
  -6   4   3    3.23    0.44
   5  -4  -3   25.52    2.52
   5  -4  -3   21.23    1.76
   4  -4  -3   10.29    1.63
  -4   4   3    9.12    1.68
   3  -4  -3   15.25    1.09
  -3   4   3   12.46    1.54
  -2   4   3    4.96    0.99
   1  -4  -3    3.93    0.45
   0  -4  -3   10.50    0.87
  -1  -4  -3   84.16    3.63
   1   4   3   83.49    3.10
  -2  -4  -3   39.20    2.29
   2   4   3   39.17    1.34
  -3  -4  -3    1.11    0.65
   3   4   3    0.57    0.54
  -4  -4  -3    8.66    1.65
   4   4   3    7.46    1.57
   5   4   3   15.27    2.12
   6   4   3   -0.41    1.18
   7   4   3   -0.08    1.13
   8  -4  -2    0.99    0.99
  -8   4   2   -0.26    0.44
   7  -4  -2    4.40    1.17
  -7   4   2    4.35    0.76
  -7   4   2    3.35    0.79
   6  -4  -2   10.66    2.10
   6  -4  -2   11.45    1.53
  -6   4   2   11.99    1.00
   5  -4  -2   32.05    2.34
   5  -4  -2   36.20    3.02
  -5   4   2   38.80    1.76
   4  -4  -2   19.38    1.59
  -4   4   2   21.99    2.71
  -4   4   2   22.70    1.02
   3  -4  -2   47.14    2.32
  -3   4   2   46.57    3.07
   2  -4  -2   16.91    1.03
  -2   4   2   15.05    1.40
   1  -4  -2   22.59    1.01
   0  -4  -2   12.47    0.85
  -1  -4  -2   47.97    2.21
   1   4   2   46.10    1.66
  -2  -4  -2   24.13    1.58
  -3  -4  -2    2.79    0.71
   3   4   2    2.58    0.85
  -4  -4  -2    1.81    1.04
  -4  -4  -2    1.59    0.65
   4   4   2    1.27    0.90
  -5  -4  -2   18.28    2.00
   5   4   2   17.85    2.26
   7   4   2   -0.52    0.73
   8  -4  -1    1.26    1.04
  -8   4   1    0.36    0.44
   7  -4  -1    1.28    1.06
  -7   4   1    3.02    0.66
  -7   4   1    4.02    0.79
   6  -4  -1   16.78    1.92
   6  -4  -1   21.07    2.46
  -6   4   1   18.78    1.32
   5  -4  -1   36.85    2.71
   5  -4  -1   44.50    3.42
  -5   4   1   47.90    2.31
  -5   4   1   48.80    2.48
  -5   4   1   44.05    2.17
   4  -4  -1    0.39    0.65
  -4   4   1    0.92    0.36
  -4   4   1    0.85    0.40
  -4   4   1    0.85    0.52
   3  -4  -1   45.53    1.84
   3  -4  -1   41.96    2.34
  -3   4   1   44.15    1.84
  -3   4   1   43.26    2.92
  -3   4   1   53.29    2.22
   2  -4  -1   54.73    2.41
   2  -4  -1   54.09    2.02
  -2   4   1   55.87    2.97
  -1   4   1  118.92    4.17
   0   4   1  160.28    5.36
  -1  -4  -1   69.08    2.41
   1   4   1   72.34    2.40
  -2  -4  -1    3.32    0.17
  -3  -4  -1   36.98    2.09
  -3  -4  -1   36.69    1.31
   3   4   1   42.12    2.78
  -4  -4  -1    5.51    0.41
  -4  -4  -1    9.37    1.65
  -4  -4  -1    7.06    1.31
   4   4   1    5.66    1.42
  -5  -4  -1   47.98    1.91
  -5  -4  -1   48.26    1.76
   5   4   1   47.02    3.84
  -6  -4  -1   16.62    0.96
  -6  -4  -1   17.08    0.79
   6   4   1   15.76    3.04
   7   4   1    0.06    1.00
   8   4   1   -1.09    0.84
   8  -4   0    1.90    1.05
  -8   4   0   -0.22    0.39
   7  -4   0    4.31    1.35
  -7   4   0    5.01    1.07
  -7   4   0    2.98    1.06
   6  -4   0   14.96    1.89
  -6   4   0   18.17    1.59
  -6   4   0   16.68    1.16
   5  -4   0   38.36    2.10
   5  -4   0   31.91    2.56
  -5   4   0   40.12    2.43
  -5   4   0   40.90    2.27
  -5   4   0   36.88    1.82
   4  -4   0    0.18    0.68
   4  -4   0   -0.14    0.40
  -4   4   0    1.93    0.67
  -4   4   0    0.17    0.31
  -4   4   0    0.52    0.40
   3  -4   0    3.87    0.92
   3  -4   0    2.37    0.49
  -3   4   0    3.78    0.75
  -3   4   0    2.51    0.44
  -3   4   0    2.28    0.78
  -3   4   0    3.24    0.55
   2  -4   0   45.76    2.33
   2  -4   0   48.05    2.07
  -2   4   0   53.70    2.25
  -2   4   0   48.44    1.99
  -2   4   0   49.17    1.95
  -2   4   0   48.94    2.72
   1  -4   0   65.78    2.55
   1  -4   0   68.99    2.51
   1  -4   0   69.53    2.74
  -1   4   0   67.72    2.47
   0  -4   0  195.66    6.47
   0   4   0  194.64    6.47
  -1  -4   0   69.57    2.39
   1   4   0   67.15    2.45
  -2  -4   0   47.75    1.79
   2   4   0   48.57    1.90
  -3  -4   0    2.50    0.37
  -4  -4   0    0.49    0.58
  -4  -4   0    0.30    0.26
  -4  -4   0    0.58    0.38
   4   4   0   -0.32    0.45
  -5  -4   0   35.19    2.35
  -5  -4   0   36.38    1.76
  -5  -4   0   36.30    2.48
   5   4   0   36.96    3.36
  -6  -4   0   17.74    1.21
  -6  -4   0   16.17    1.64
   6   4   0   16.38    3.10
  -7  -4   0    4.82    0.80
   7   4   0    2.67    1.36
   8   4   0    2.25    1.46
  -8   4  -1   -0.08    0.47
   7  -4   1    3.25    1.23
  -7   4  -1    4.28    0.69
   6  -4   1   15.69    2.06
  -6   4  -1   17.51    1.66
  -6   4  -1   17.11    1.12
   5  -4   1   40.77    3.08
   5  -4   1   44.68    2.57
  -5   4  -1   49.72    2.72
  -5   4  -1   46.37    2.06
   4  -4   1    6.51    1.00
   4  -4   1    6.06    1.32
  -4   4  -1    5.89    0.60
  -4   4  -1    5.92    0.90
  -4   4  -1    6.24    1.62
   3  -4   1   39.50    2.09
   3  -4   1   34.39    2.38
  -3   4  -1   41.01    2.75
  -3   4  -1   40.42    2.08
  -3   4  -1   40.11    1.70
  -3   4  -1   39.05    2.28
   2  -4   1    3.39    0.43
   2  -4   1    3.21    0.77
   2  -4   1    3.62    0.62
  -2   4  -1    3.73    0.39
  -2   4  -1    3.36    0.77
  -2   4  -1    4.50    0.80
   1  -4   1   66.88    3.01
   1  -4   1   71.47    2.89
  -1   4  -1   74.28    2.66
  -1   4  -1   76.83    3.01
   0  -4   1  162.03    5.59
   0  -4   1  160.94    5.41
   0   4  -1  155.91    5.46
  -1  -4   1  118.78    4.08
   1   4  -1  113.50    4.16
  -2  -4   1   52.43    2.11
   2   4  -1   52.48    2.22
  -3  -4   1   44.04    2.03
   3   4  -1   44.40    2.05
  -4  -4   1    1.30    0.42
   4   4  -1    0.21    0.72
  -5  -4   1   45.12    2.52
  -5  -4   1   41.23    2.15
  -5  -4   1   41.76    2.49
   5   4  -1   44.65    3.74
  -6  -4   1   19.79    1.41
  -6  -4   1   25.00    1.76
   6   4  -1   19.81    2.80
  -7  -4   1    7.43    0.98
  -7  -4   1    3.84    0.77
   7   4  -1    4.31    1.58
  -8  -4   1    0.66    0.38
   8   4  -1   -0.80    0.88
  -7   4  -2    1.18    0.43
   6  -4   2   15.77    1.64
   6  -4   2   13.41    2.41
  -6   4  -2   15.03    1.04
   5  -4   2   23.23    1.89
   5  -4   2   19.59    2.20
  -5   4  -2   18.85    1.74
  -5   4  -2   19.79    1.17
   4  -4   2    1.08    0.96
   4  -4   2    1.07    0.63
  -4   4  -2    1.48    0.75
  -4   4  -2    0.70    0.33
  -4   4  -2    2.03    0.82
  -4   4  -2    1.31    0.50
   3  -4   2    2.78    0.44
   3  -4   2    2.68    0.75
   3  -4   2    2.47    0.92
  -3   4  -2    2.17    0.56
  -3   4  -2    1.98    0.38
  -3   4  -2    3.13    0.91
  -3   4  -2    2.00    0.73
   2  -4   2   27.90    1.23
   2  -4   2   27.02    1.67
   2  -4   2   22.55    1.79
  -2   4  -2   25.67    1.87
  -2   4  -2   27.79    1.82
  -2   4  -2   27.89    1.29
  -2   4  -2   24.71    1.55
   1  -4   2   43.77    2.36
   1  -4   2   49.49    2.28
   1  -4   2   48.17    1.86
  -1   4  -2   48.59    1.97
  -1   4  -2   48.29    2.19
  -1   4  -2   43.33    2.24
   0  -4   2   12.46    0.94
   0  -4   2   13.66    0.98
   0  -4   2   11.62    0.72
   0   4  -2   12.61    0.83
   0   4  -2   11.79    0.81
  -1  -4   2   22.00    1.09
  -1  -4   2   23.79    1.20
   1   4  -2   23.76    1.31
  -2  -4   2   15.18    0.64
  -2  -4   2   13.51    0.93
   2   4  -2   13.17    1.03
  -3  -4   2   45.20    1.81
  -3  -4   2   45.69    2.15
   3   4  -2   43.38    2.22
  -4  -4   2   21.83    1.43
  -4  -4   2   20.82    1.19
   4   4  -2   21.93    2.36
  -5  -4   2   34.33    2.04
  -5  -4   2   34.98    1.79
   5   4  -2   40.25    3.42
  -6  -4   2   12.90    1.07
  -6  -4   2   13.64    1.23
   6   4  -2    9.60    2.15
  -7  -4   2    6.79    0.88
   7   4  -2    2.75    1.41
   8   4  -2   -0.04    1.10
   7  -4   3    2.57    0.92
  -7   4  -3    2.07    0.57
  -6   4  -3    0.80    0.37
   5  -4   3   18.24    1.76
   5  -4   3   14.44    1.97
  -5   4  -3   14.82    1.06
   4  -4   3    8.09    1.79
   4  -4   3    7.68    1.26
   4  -4   3    7.92    0.73
  -4   4  -3    7.36    1.19
  -4   4  -3    6.87    0.69
  -4   4  -3    7.63    1.59
   3  -4   3    0.89    0.29
   3  -4   3    1.88    0.98
   3  -4   3    0.87    0.66
  -3   4  -3    0.40    0.54
  -3   4  -3    0.89    0.81
  -3   4  -3    0.68    0.34
  -3   4  -3    0.11    0.39
   2  -4   3   40.08    2.30
   2  -4   3   36.66    2.50
  -2   4  -3   38.29    2.44
  -2   4  -3   36.25    1.77
  -2   4  -3   37.85    2.40
  -2   4  -3   39.91    2.18
   1  -4   3   83.12    3.97
   1  -4   3   93.59    3.87
   1  -4   3   85.49    3.24
  -1   4  -3   83.08    3.65
  -1   4  -3   87.87    3.88
  -1   4  -3   89.26    3.47
   0  -4   3   10.91    0.75
   0  -4   3    8.27    0.95
   0  -4   3    9.88    0.94
   0   4  -3   10.78    0.89
   0   4  -3    9.09    0.84
  -1  -4   3    3.86    0.64
  -1  -4   3    3.83    0.58
   1   4  -3    3.87    0.67
   1   4  -3    3.40    0.40
  -2  -4   3    5.37    0.76
   2   4  -3    5.24    0.85
  -3  -4   3   13.94    1.16
   3   4  -3   15.98    1.35
   3   4  -3   16.98    1.83
  -4  -4   3   12.05    1.15
   4   4  -3   11.59    2.05
  -5  -4   3   23.67    1.72
   5   4  -3   23.26    2.68
   6   4  -3    2.87    1.22
   7   4  -3    1.57    0.96
   8   4  -3    0.01    0.93
   7  -4   4   -0.12    0.92
  -7   4  -4    2.12    0.60
   6  -4   4    1.64    0.85
  -6   4  -4    0.95    0.44
   5  -4   4   10.33    1.87
  -5   4  -4    9.72    0.90
   4  -4   4    0.57    0.89
   4  -4   4    1.63    0.72
   4  -4   4    1.62    0.82
  -4   4  -4    1.51    0.47
  -4   4  -4    0.86    0.75
   3  -4   4    4.62    1.17
   3  -4   4    3.06    1.13
   3  -4   4    5.11    0.60
  -3   4  -4    3.65    0.81
  -3   4  -4    7.33    1.56
  -3   4  -4    4.80    0.77
  -3   4  -4    3.45    0.95
   2  -4   4   11.51    1.50
   2  -4   4    8.63    1.65
   2  -4   4   11.62    0.78
  -2   4  -4   10.50    0.98
  -2   4  -4    9.95    1.24
  -2   4  -4   12.73    1.49
   1  -4   4    1.47    0.83
   1  -4   4    1.47    0.40
   1  -4   4    1.23    0.56
  -1   4  -4    2.67    0.86
  -1   4  -4    1.98    0.58
  -1   4  -4    1.10    0.43
   0  -4   4   17.68    1.12
   0  -4   4   18.78    1.48
   0  -4   4   17.39    1.49
   0   4  -4   15.63    1.30
   0   4  -4   17.82    1.30
  -1  -4   4   15.86    1.30
  -1  -4   4   15.17    1.09
   1   4  -4   14.53    1.24
   1   4  -4   13.98    0.97
  -2  -4   4   31.05    1.82
   2   4  -4   32.55    2.03
  -3  -4   4    6.64    1.27
   3   4  -4    5.73    1.25
   3   4  -4    5.66    1.07
  -4  -4   4   23.83    1.72
   4   4  -4   22.70    2.49
   5   4  -4   14.46    2.11
   6   4  -4    3.90    1.53
   7   4  -4    1.56    0.88
   6  -4   5    0.26    0.80
  -6   4  -5    1.45    0.51
   5  -4   5    0.08    0.69
  -5   4  -5    1.51    0.49
   4  -4   5    3.79    1.85
   4  -4   5    4.83    0.65
  -4   4  -5    5.72    1.35
  -4   4  -5    4.35    0.78
   3  -4   5    5.38    0.56
   3  -4   5    5.42    1.12
  -3   4  -5    5.58    1.16
  -3   4  -5    5.31    0.88
   2  -4   5    0.82    0.63
   2  -4   5    0.63    0.34
  -2   4  -5    1.52    0.61
  -2   4  -5    1.62    0.88
  -2   4  -5    0.99    0.57
  -2   4  -5    1.01    0.58
   1  -4   5    3.69    1.00
   1  -4   5    5.51    0.72
  -1   4  -5    5.26    1.10
  -1   4  -5    4.87    0.88
  -1   4  -5    3.73    0.81
   0  -4   5    0.99    0.41
   0  -4   5    1.26    0.63
   0   4  -5    0.57    0.50
   0   4  -5    2.26    0.64
  -1  -4   5    0.79    0.42
  -1  -4   5    1.57    0.64
   1   4  -5    0.89    0.48
   1   4  -5    1.94    0.69
  -2  -4   5    3.10    0.78
  -2  -4   5    3.72    0.79
   2   4  -5    2.05    0.72
   2   4  -5    2.62    0.40
   3   4  -5   19.94    1.73
   3   4  -5   18.89    2.00
   4   4  -5    6.07    1.50
   5   4  -5    0.41    0.79
   6   4  -5    2.04    1.24
   7   4  -5    0.52    0.91
   6  -4   6   -0.43    0.76
  -6   4  -6    0.92    0.55
   5  -4   6    2.21    0.94
  -5   4  -6    0.72    0.46
   4  -4   6    0.70    0.75
  -4   4  -6    1.57    0.54
  -4   4  -6    1.39    0.89
   3  -4   6    1.51    0.55
   3  -4   6    1.23    0.80
  -3   4  -6    1.78    0.69
  -3   4  -6    0.12    0.63
   2  -4   6    3.37    0.55
   2  -4   6    3.83    1.04
  -2   4  -6    3.44    0.85
  -2   4  -6    3.41    0.80
   1  -4   6    1.49    0.69
   1  -4   6    1.38    0.45
  -1   4  -6    0.59    0.49
  -1   4  -6    1.79    0.84
  -1   4  -6    1.35    0.60
   0  -4   6    8.47    1.38
   0  -4   6   10.78    0.98
   0   4  -6   10.69    1.26
   0   4  -6   10.74    1.50
  -1  -4   6    1.03    0.63
   1   4  -6    1.02    0.67
   1   4  -6    0.93    0.49
  -2  -4   6   17.49    1.60
   2   4  -6   14.59    0.96
   2   4  -6   16.04    1.61
   2   4  -6   16.39    1.66
  -3  -4   6    8.77    1.27
   3   4  -6    8.79    1.49
   3   4  -6    7.94    1.56
  -4  -4   6    3.79    0.84
   4   4  -6    4.42    1.47
   5   4  -6    1.33    1.01
   6   4  -6    1.80    1.04
   7   4  -6    0.29    1.09
   5  -4   7    1.29    1.01
  -5   4  -7    1.58    1.10
   4  -4   7   -0.62    0.68
  -4   4  -7   -0.75    0.47
  -4   4  -7   -0.07    0.74
   3  -4   7    1.92    1.01
  -3   4  -7    0.01    0.49
  -3   4  -7    1.56    0.68
   2  -4   7    2.77    0.93
  -2   4  -7    0.23    0.54
   1  -4   7    0.92    0.93
  -1   4  -7    0.38    0.38
  -1   4  -7    0.73    0.62
   0  -4   7    4.33    1.10
   0   4  -7    5.39    1.00
   0   4  -7    3.30    0.92
  -1  -4   7    0.58    0.61
   1   4  -7    0.52    0.58
   1   4  -7    0.37    0.58
   1   4  -7    0.18    0.37
  -2  -4   7    2.94    0.89
   2   4  -7    2.52    0.57
   2   4  -7    2.49    0.83
  -3  -4   7    9.00    1.39
   3   4  -7    5.80    1.32
   3   4  -7    5.65    1.20
  -4  -4   7    3.35    0.96
   4   4  -7    2.26    1.08
  -5  -4   7   -0.63    0.53
   5   4  -7    0.03    0.96
   6   4  -7    0.66    1.18
   4  -4   8    1.18    0.87
  -4   4  -8    0.50    0.77
   3  -4   8   -0.44    0.75
  -3   4  -8    0.46    0.67
   2  -4   8   -0.36    0.51
  -2   4  -8   -0.10    0.50
   1  -4   8    0.82    0.65
  -1   4  -8   -0.01    0.69
   0  -4   8    0.44    0.80
   0   4  -8    1.73    0.85
  -1  -4   8    3.19    1.08
   1   4  -8    2.77    0.56
   1   4  -8    3.90    1.19
   1   4  -8    3.57    1.19
   2   4  -8    7.21    0.86
   2   4  -8    5.22    1.04
   2   4  -8    7.28    1.44
  -3  -4   8    6.22    1.38
   3   4  -8    4.01    1.17
   3   4  -8    2.43    0.91
   4   4  -8    1.82    0.98
  -5  -4   8   -0.25    0.62
   5   4  -8   -1.27    0.78
   2  -4   9   -0.37    0.71
  -2   4  -9   -1.31    0.60
   1  -4   9    0.38    0.81
  -1   4  -9    0.12    0.72
   0  -4   9    2.57    0.93
   0   4  -9    0.73    0.78
  -1  -4   9    0.80    0.92
   1   4  -9    2.31    0.94
   1   4  -9    2.41    0.85
  -2  -4   9    2.79    1.10
   2   4  -9    1.16    0.84
   2   4  -9   -0.04    0.40
  -3  -4   9    0.58    0.80
   3   4  -9    0.95    0.75
  -4  -4   9   -1.21    0.63
   4   4  -9    0.11    0.75
   1   4 -10    3.47    1.58
   4  -5  -9    0.76    0.69
  -2   5   9    0.06    0.57
  -1   5   9    1.26    0.78
   0   5   9    1.35    0.86
   1   5   9   -0.15    0.79
   2   5   9   -1.30    0.62
   5  -5  -8    2.17    0.74
   4  -5  -8    0.61    0.63
  -2   5   8    4.30    0.89
   1  -5  -8    3.75    0.87
  -1   5   8    4.90    1.02
   0   5   8    0.38    0.73
   1   5   8    0.99    0.76
   1   5   8    2.55    0.62
   2   5   8    2.84    0.57
   2   5   8    0.76    0.73
   3   5   8    1.79    0.32
   3   5   8    0.72    0.79
   6  -5  -7    1.40    0.71
   5  -5  -7    0.76    0.61
   4  -5  -7    0.29    0.55
  -4   5   7   -0.79    0.85
  -3   5   7   17.04    1.89
  -2   5   7    2.14    0.68
  -2   5   7    2.31    0.63
   1  -5  -7    8.18    0.98
  -1   5   7    5.31    0.95
   0  -5  -7    3.86    0.87
   0   5   7    3.13    0.68
   0   5   7    4.21    0.98
   1   5   7    1.90    0.81
   1   5   7    2.06    0.58
   2   5   7    1.19    0.90
   2   5   7    2.80    0.45
   3   5   7   -0.21    0.15
   5   5   7    0.16    1.03
   6  -5  -6    1.38    0.68
   5  -5  -6    5.88    1.08
   4  -5  -6    6.67    0.92
  -4   5   6    4.32    1.40
  -3   5   6   10.35    1.49
   2  -5  -6   43.70    2.03
  -2   5   6   45.40    2.74
   1  -5  -6    7.22    0.96
  -1   5   6    7.46    1.12
  -1   5   6    6.51    0.82
  -1   5   6    5.98    0.96
   0  -5  -6    0.68    0.55
   0   5   6    0.51    0.30
   0   5   6    0.46    0.51
   0   5   6    0.53    0.50
  -1  -5  -6   11.31    1.29
   1   5   6    9.97    1.38
   1   5   6    9.73    0.90
   1   5   6    8.79    0.71
   2   5   6    0.65    0.62
   2   5   6    0.33    0.39
   2   5   6    0.97    0.29
   3   5   6    1.95    0.18
   3   5   6    0.80    0.54
   4   5   6    0.30    0.63
   5   5   6    4.08    1.26
   7  -5  -5    1.87    0.86
   6  -5  -5    6.10    1.27
   5  -5  -5    4.48    1.06
   4  -5  -5    8.82    1.02
  -4   5   5    8.06    1.73
  -3   5   5   63.34    3.86
   2  -5  -5    4.46    0.53
  -2   5   5    6.43    1.18
  -2   5   5    7.78    1.15
   1  -5  -5    3.47    0.62
  -1   5   5    2.91    0.70
  -1   5   5    4.21    0.72
  -1   5   5    4.21    0.79
   0  -5  -5    6.59    1.01
   0   5   5    7.77    0.98
   0   5   5    7.96    1.13
  -1  -5  -5    9.61    1.35
   1   5   5    7.57    1.18
   1   5   5    9.64    0.84
  -2  -5  -5    4.18    0.96
   2   5   5    4.30    0.92
   2   5   5    3.76    0.92
   2   5   5    4.22    0.42
   3   5   5    1.74    0.73
   4   5   5    4.66    1.25
   5   5   5   -1.00    0.73
   6   5   5    0.98    1.01
   7  -5  -4    7.97    1.54
   6  -5  -4    2.26    0.83
   5  -5  -4    8.93    1.22
   4  -5  -4   15.87    1.35
  -4   5   4   16.63    2.05
   3  -5  -4   52.78    2.42
  -3   5   4   46.27    3.23
   2  -5  -4   18.57    0.87
  -2   5   4   20.92    1.73
   1  -5  -4   16.82    1.09
   0  -5  -4   40.08    2.16
   0   5   4   42.21    2.07
  -1  -5  -4    7.14    1.05
   1   5   4    6.07    0.62
   2   5   4    7.91    0.49
   3   5   4    1.22    0.78
   4   5   4    5.13    1.38
   5   5   4    4.38    1.36
   6   5   4   -0.49    0.94
   7   5   4    0.20    1.15
   7  -5  -3    3.88    1.14
  -7   5   3    2.48    0.70
   6  -5  -3    8.58    1.55
   5  -5  -3    6.58    1.24
   4  -5  -3   36.61    2.26
  -4   5   3   40.91    3.18
   3  -5  -3   10.88    1.01
  -3   5   3   10.14    1.40
  -2   5   3   25.81    1.94
   1  -5  -3   79.14    3.03
   0  -5  -3   23.98    1.43
  -1  -5  -3   48.41    2.45
  -2  -5  -3   25.45    1.81
  -3  -5  -3   14.86    1.50
   4   5   3    5.96    1.47
   5   5   3    1.88    1.04
   6   5   3    1.14    1.17
   7   5   3   -0.07    1.07
   8  -5  -2    3.96    1.32
  -8   5   2    1.61    0.57
   7  -5  -2    4.70    1.44
  -7   5   2    3.41    0.72
  -7   5   2    3.49    0.66
   6  -5  -2    4.85    1.30
  -6   5   2    5.51    0.69
  -6   5   2    6.07    1.43
   5  -5  -2   22.01    1.97
  -5   5   2   26.49    1.22
   4  -5  -2   12.91    1.35
  -4   5   2   13.33    1.92
   3  -5  -2   39.51    2.39
  -3   5   2   42.31    2.91
   2  -5  -2   26.50    1.42
  -2   5   2   23.08    1.82
   1  -5  -2  166.56    5.69
   0  -5  -2   58.59    2.43
  -1  -5  -2   10.67    0.94
   1   5   2   11.98    0.55
  -2  -5  -2   81.80    3.62
  -3  -5  -2    4.42    0.95
  -4  -5  -2    5.13    1.06
   4   5   2    4.64    1.30
   5   5   2    0.80    0.85
   6   5   2    9.37    2.05
   7   5   2    0.07    0.88
   8  -5  -1    2.59    1.07
  -8   5   1    0.14    0.46
   7  -5  -1    4.90    1.32
  -7   5   1    4.54    0.88
  -7   5   1    3.71    0.79
   6  -5  -1    9.54    1.79
  -6   5   1   10.60    1.06
  -6   5   1   10.24    0.99
   5  -5  -1   24.91    2.20
  -5   5   1   33.20    1.74
  -5   5   1   27.14    1.64
  -5   5   1   34.09    2.01
   4  -5  -1   24.19    2.01
   4  -5  -1   27.62    1.38
  -4   5   1   26.21    1.50
  -4   5   1   23.79    2.46
  -4   5   1   28.89    1.43
  -4   5   1   31.74    1.81
   3  -5  -1    6.51    0.56
  -3   5   1    6.13    0.63
  -3   5   1    6.79    1.34
   2  -5  -1  121.56    4.27
   2  -5  -1  121.92    4.68
  -2   5   1  125.08    5.32
  -2   5   1  120.05    4.42
  -1   5   1   16.42    0.88
   0   5   1   39.08    1.51
  -1  -5  -1    2.77    0.26
   1   5   1    2.48    0.23
  -2  -5  -1  135.91    4.46
   2   5   1  135.42    4.57
  -3  -5  -1   39.65    2.22
  -3  -5  -1   40.38    1.37
  -4  -5  -1    9.77    0.46
  -4  -5  -1   11.41    1.26
   4   5   1   12.04    1.73
  -5  -5  -1   27.84    1.03
  -5  -5  -1   28.10    2.28
  -5  -5  -1   26.42    1.07
   5   5   1   22.95    2.68
  -6  -5  -1    4.92    0.32
  -6  -5  -1    5.64    0.39
   6   5   1    5.33    1.75
   7   5   1    0.47    0.84
   8  -5   0    1.86    1.24
  -8   5   0    0.64    0.44
   7  -5   0    0.66    0.84
  -7   5   0   -0.30    0.38
  -7   5   0   -0.54    0.59
   6  -5   0   33.15    2.86
  -6   5   0   38.67    2.34
  -6   5   0   35.94    1.89
   5  -5   0   16.96    1.86
   5  -5   0   18.92    1.39
  -5   5   0   23.87    1.59
  -5   5   0   18.70    1.21
   4  -5   0    8.06    0.89
   4  -5   0    7.39    1.45
  -4   5   0    8.22    0.88
  -4   5   0    8.10    1.64
  -4   5   0    7.54    0.71
   3  -5   0   16.88    1.15
   3  -5   0   16.67    1.50
  -3   5   0   17.64    1.78
  -3   5   0   16.82    1.01
  -3   5   0   18.28    1.10
  -3   5   0   18.50    1.32
   2  -5   0   87.77    3.87
   2  -5   0   88.19    3.53
  -2   5   0  105.38    3.76
  -2   5   0   90.13    3.40
   1  -5   0  208.29    7.03
   1  -5   0  205.02    7.28
  -1   5   0  208.16    6.98
   0  -5   0   52.26    1.94
   0   5   0   51.54    1.94
  -1  -5   0  211.09    6.84
   1   5   0  201.81    6.92
  -2  -5   0   91.45    3.10
   2   5   0   85.47    3.24
  -3  -5   0   16.14    0.82
   3   5   0   16.95    0.96
  -4  -5   0    8.30    1.31
  -4  -5   0    7.46    0.60
   4   5   0    7.54    1.60
  -5  -5   0   20.74    1.89
  -5  -5   0   19.26    1.12
   5   5   0   22.05    2.68
  -6  -5   0   35.97    1.72
  -6  -5   0   33.16    2.47
   6   5   0   36.24    3.62
  -7  -5   0    0.89    0.38
  -7  -5   0    0.25    0.27
   7   5   0   -0.62    0.61
   8   5   0   -1.57    0.89
   7  -5   1    1.59    1.16
  -7   5  -1    1.69    0.50
   6  -5   1    4.42    0.93
   6  -5   1    8.55    2.99
  -6   5  -1    5.53    0.77
  -6   5  -1    6.97    1.12
   5  -5   1   30.17    1.97
   5  -5   1   23.12    2.28
  -5   5  -1   27.27    1.47
  -5   5  -1   27.73    1.93
   4  -5   1   10.80    1.17
   4  -5   1   11.77    1.89
  -4   5  -1   10.66    1.31
  -4   5  -1   10.44    1.94
  -4   5  -1   10.18    1.10
  -4   5  -1   10.52    0.80
   3  -5   1   43.03    2.28
   3  -5   1   40.23    2.61
  -3   5  -1   44.70    1.88
  -3   5  -1   43.39    2.41
  -3   5  -1   43.02    2.93
  -3   5  -1   41.44    2.15
   2  -5   1  136.83    5.21
   2  -5   1  129.21    5.49
   2  -5   1  139.74    4.87
  -2   5  -1  146.17    5.35
  -2   5  -1  135.25    4.82
  -2   5  -1  134.62    5.09
   1  -5   1    2.49    0.57
   1  -5   1    2.14    0.43
   1  -5   1    2.92    0.38
  -1   5  -1    4.08    0.61
  -1   5  -1    2.80    0.38
   0  -5   1   40.82    1.79
   0  -5   1   38.47    1.57
  -1  -5   1   17.14    0.86
   1   5  -1   15.53    0.92
  -2  -5   1  114.55    4.22
   2   5  -1  121.16    4.40
  -3  -5   1    5.33    0.55
   3   5  -1    5.69    0.76
  -4  -5   1   25.38    1.40
  -4  -5   1   24.49    1.73
   4   5  -1   25.86    2.55
  -5  -5   1   26.85    1.91
  -5  -5   1   27.82    1.58
   5   5  -1   28.97    2.96
  -6  -5   1   11.00    1.24
  -6  -5   1   10.95    0.99
   6   5  -1    8.26    2.09
  -7  -5   1    6.19    1.19
   7   5  -1    1.24    1.11
  -8  -5   1    1.87    0.50
   8   5  -1    0.80    1.20
   7  -5   2    1.44    0.94
  -7   5  -2    0.34    0.33
   6  -5   2   15.17    2.62
   6  -5   2   10.24    1.53
  -6   5  -2   10.72    0.92
   5  -5   2    1.91    0.67
   5  -5   2    1.86    0.96
  -5   5  -2    1.25    0.54
  -5   5  -2    0.44    0.31
   4  -5   2    4.68    1.34
   4  -5   2    5.43    1.06
  -4   5  -2    5.33    1.34
  -4   5  -2    5.88    0.65
  -4   5  -2    5.76    1.01
  -4   5  -2    6.93    1.41
   3  -5   2    5.71    1.29
   3  -5   2    6.07    0.58
   3  -5   2    4.12    0.91
  -3   5  -2    5.47    0.89
  -3   5  -2    6.53    1.32
  -3   5  -2    5.90    0.58
  -3   5  -2    5.06    1.02
   2  -5   2   90.86    3.91
   2  -5   2   89.85    3.31
  -2   5  -2   83.42    3.90
  -2   5  -2   90.13    3.73
  -2   5  -2   89.97    3.38
   1  -5   2   11.26    0.99
   1  -5   2   10.62    1.10
   1  -5   2   12.12    0.71
  -1   5  -2   11.20    0.97
   0  -5   2   61.68    2.40
   0  -5   2   60.43    2.68
   0   5  -2   63.96    2.49
   0   5  -2   60.01    2.53
  -1  -5   2  165.77    5.79
  -1  -5   2  164.99    5.83
   1   5  -2  166.60    6.01
  -2  -5   2   25.55    1.04
  -2  -5   2   21.97    1.26
   2   5  -2   22.98    1.41
  -3  -5   2   36.11    1.83
   3   5  -2   37.10    2.01
  -4  -5   2   12.85    0.99
  -4  -5   2   14.39    1.10
   4   5  -2   14.67    2.33
  -5  -5   2   23.44    1.57
  -5  -5   2   22.42    1.39
   5   5  -2   25.21    2.85
  -6  -5   2    7.20    1.01
  -6  -5   2    6.44    0.86
   6   5  -2    4.66    1.47
   7   5  -2    2.82    1.47
   8   5  -2    2.92    1.64
   7  -5   3    0.73    0.83
  -7   5  -3    2.31    0.60
   6  -5   3    1.22    1.04
   6  -5   3    3.47    1.47
  -6   5  -3    3.12    0.62
   5  -5   3    1.96    1.86
   5  -5   3    2.30    0.91
  -5   5  -3    3.17    0.58
   4  -5   3    7.47    1.78
   4  -5   3    4.25    1.06
   4  -5   3    6.27    0.67
  -4   5  -3    5.68    0.76
  -4   5  -3    5.28    1.02
  -4   5  -3    4.97    1.33
   3  -5   3   16.37    1.01
   3  -5   3   17.24    1.66
   3  -5   3   16.76    1.91
  -3   5  -3   15.16    1.41
  -3   5  -3   18.53    1.91
  -3   5  -3   17.76    1.15
  -3   5  -3   19.52    1.81
   2  -5   3   25.61    1.86
   2  -5   3   24.82    1.24
   2  -5   3   22.30    1.99
  -2   5  -3   25.45    1.93
  -2   5  -3   27.18    1.97
  -2   5  -3   26.65    1.43
  -2   5  -3   25.65    1.71
   1  -5   3   51.60    2.12
   1  -5   3   48.21    2.77
  -1   5  -3   51.81    2.63
  -1   5  -3   52.22    2.43
   0  -5   3   21.86    1.54
   0  -5   3   22.74    1.52
   0  -5   3   22.16    1.22
   0   5  -3   25.63    1.44
   0   5  -3   23.41    1.36
  -1  -5   3   76.37    3.32
  -1  -5   3   81.75    3.33
   1   5  -3   94.58    3.10
   1   5  -3   82.27    3.55
  -2  -5   3   21.63    1.07
  -2  -5   3   24.30    1.41
   2   5  -3   26.39    1.73
  -3  -5   3   10.07    0.94
   3   5  -3   11.13    1.14
  -4  -5   3   32.85    1.99
   4   5  -3   35.99    3.09
   4   5  -3   37.37    2.26
  -5  -5   3    7.95    1.10
   5   5  -3    4.51    1.54
   6   5  -3    9.87    2.25
   7   5  -3    2.05    1.20
   7  -5   4    0.46    0.78
  -7   5  -4   -0.08    0.41
   6  -5   4   -0.42    0.74
  -6   5  -4   -0.07    0.31
   5  -5   4    4.04    1.45
  -5   5  -4    5.63    0.82
   4  -5   4    6.69    0.68
   4  -5   4    8.56    1.89
   4  -5   4    5.97    1.33
  -4   5  -4    6.41    1.41
  -4   5  -4    8.03    0.83
   3  -5   4    1.24    0.88
   3  -5   4    1.29    0.69
   3  -5   4    1.03    0.33
  -3   5  -4    1.04    0.56
  -3   5  -4    0.98    0.66
  -3   5  -4    1.30    0.43
   2  -5   4    9.92    1.76
   2  -5   4    8.50    1.32
   2  -5   4    8.52    0.68
  -2   5  -4    8.01    0.86
  -2   5  -4    7.89    1.17
  -2   5  -4    7.12    1.23
   1  -5   4    6.53    0.66
   1  -5   4    7.68    1.41
   1  -5   4    6.81    1.13
  -1   5  -4    8.20    1.06
  -1   5  -4    7.45    1.28
   0  -5   4   39.21    2.40
   0  -5   4   41.72    1.96
   0  -5   4   43.29    2.46
   0   5  -4   40.36    2.17
   0   5  -4   42.99    2.26
  -1  -5   4   14.17    1.21
  -1  -5   4   16.80    1.39
  -1  -5   4   15.11    1.10
   1   5  -4   15.91    0.98
   1   5  -4   15.76    1.35
  -2  -5   4   18.41    1.35
   2   5  -4   19.93    1.56
  -3  -5   4   44.20    2.36
   3   5  -4   42.24    2.55
  -4  -5   4   18.15    1.45
   4   5  -4   13.59    1.99
   4   5  -4   17.51    1.58
   5   5  -4    8.07    1.93
   6   5  -4    2.19    1.24
   7   5  -4    3.62    1.50
   6  -5   5    0.61    0.79
  -6   5  -5    2.70    1.15
   5  -5   5    1.37    0.87
  -5   5  -5    0.33    0.45
   4  -5   5    8.54    1.62
  -4   5  -5    5.15    1.26
  -4   5  -5    4.64    0.81
   3  -5   5    1.35    0.37
   3  -5   5    0.49    0.90
   3  -5   5    1.38    0.75
  -3   5  -5    0.58    0.64
  -3   5  -5    1.02    0.45
   2  -5   5    5.23    1.20
   2  -5   5    3.03    1.16
   2  -5   5    4.92    0.54
  -2   5  -5    4.58    1.03
  -2   5  -5    4.87    0.86
  -2   5  -5    5.12    1.18
   1  -5   5    9.77    1.42
   1  -5   5    8.26    0.76
   1  -5   5    8.65    1.66
  -1   5  -5    7.51    1.18
  -1   5  -5    9.81    1.28
  -1   5  -5   11.48    1.38
   0  -5   5    7.54    0.80
   0  -5   5    7.54    1.28
   0   5  -5    8.06    1.26
   0   5  -5    8.52    1.29
  -1  -5   5    3.20    0.57
  -1  -5   5    2.92    0.76
   1   5  -5    3.99    0.68
   1   5  -5    2.90    0.81
  -2  -5   5    7.06    0.98
  -2  -5   5    6.27    1.13
   2   5  -5    5.95    0.45
   2   5  -5    5.40    1.12
   3   5  -5   62.06    3.39
   3   5  -5   61.18    3.89
   4   5  -5    7.56    1.72
   4   5  -5    9.02    1.44
   5   5  -5    4.84    1.62
   6   5  -5    7.22    1.95
   7   5  -5    0.19    1.02
   5  -5   6    4.53    1.32
  -5   5  -6    6.15    1.15
   4  -5   6    0.20    0.69
  -4   5  -6    0.73    0.49
  -4   5  -6   -0.50    0.76
   3  -5   6    1.14    0.76
  -3   5  -6    0.37    0.72
  -3   5  -6    2.39    0.74
   2  -5   6    1.21    0.86
  -2   5  -6   -0.36    0.46
  -2   5  -6    0.91    0.50
   1  -5   6    9.65    1.56
  -1   5  -6   11.29    1.53
  -1   5  -6   10.26    1.32
   0  -5   6   -0.07    0.46
   0   5  -6    0.97    0.58
   0   5  -6    1.05    0.69
  -1  -5   6    6.68    1.27
   1   5  -6    7.95    1.37
   1   5  -6    6.62    0.84
  -2  -5   6   48.39    2.93
   2   5  -6   43.99    1.87
   2   5  -6   46.41    2.92
  -3  -5   6   11.49    1.40
   3   5  -6   10.79    1.64
   3   5  -6   11.32    1.65
  -4  -5   6    5.89    1.13
   4   5  -6    6.40    1.61
   4   5  -6    7.81    1.39
   6   5  -6    1.05    1.09
   5  -5   7   -0.01    0.65
  -5   5  -7    1.00    0.72
   4  -5   7    5.61    1.48
  -4   5  -7    6.82    1.18
  -4   5  -7    4.48    1.26
   3  -5   7    0.62    0.80
  -3   5  -7    0.99    0.68
   2  -5   7    1.56    0.83
  -2   5  -7    0.66    0.56
  -2   5  -7    3.55    0.97
   1  -5   7    0.81    0.77
  -1   5  -7    2.28    0.63
  -1   5  -7    2.84    0.89
   0  -5   7    2.82    0.99
   0   5  -7    3.21    0.93
   0   5  -7    4.14    0.97
  -1  -5   7    8.93    1.53
   1   5  -7    8.31    0.96
   1   5  -7    5.12    1.23
  -2  -5   7    0.68    0.68
   2   5  -7    2.91    0.52
   2   5  -7    2.24    0.86
   2   5  -7    2.80    0.92
  -3  -5   7   21.57    1.98
   3   5  -7   19.57    2.15
   3   5  -7   20.28    2.01
  -4  -5   7    0.13    0.52
   4   5  -7   -0.16    0.66
  -5  -5   7    0.04    0.59
   5   5  -7   -0.44    0.87
  -6  -5   7    2.91    0.95
   6   5  -7    2.14    1.22
   4  -5   8   -0.53    0.92
  -4   5  -8    1.42    0.72
   3  -5   8    1.54    0.86
  -3   5  -8    1.35    0.79
   2  -5   8    0.54    0.86
  -2   5  -8    1.51    0.86
   1  -5   8    1.20    0.86
  -1   5  -8    2.25    0.84
  -1   5  -8    1.90    0.47
   0  -5   8   -1.03    0.67
   0   5  -8    2.01    0.89
   0   5  -8   -0.01    0.40
  -1  -5   8    3.87    1.13
   1   5  -8    4.14    0.87
   1   5  -8    5.38    1.05
   1   5  -8    4.75    1.25
  -2  -5   8    4.02    1.14
   2   5  -8    3.66    1.10
   2   5  -8    4.67    1.41
   2   5  -8    5.47    0.71
  -3  -5   8    0.88    0.76
   3   5  -8    1.10    0.72
   3   5  -8    0.97    0.78
  -4  -5   8    0.91    0.69
   4   5  -8    1.08    0.86
  -5  -5   8    1.14    0.78
   5   5  -8    1.19    1.11
   2  -5   9    1.50    0.84
  -2   5  -9    0.35    0.61
   1  -5   9    0.01    0.64
  -1   5  -9    2.15    0.87
   0  -5   9    2.49    1.02
   0   5  -9    1.04    0.77
  -1  -5   9    1.38    0.83
   1   5  -9    2.80    0.99
   1   5  -9    1.78    0.71
  -2  -5   9    0.83    0.86
   2   5  -9   -0.14    0.55
   2   5  -9   -0.75    0.65
   2   5  -9    1.74    0.63
  -3  -5   9   -0.24    0.69
   3   5  -9    0.13    0.89
   3   5  -9   -1.00    0.64
  -4  -5   9    1.77    0.91
   4   5  -9   -0.10    1.07
   0   6   9    2.91    1.07
   5  -6  -8    0.66    0.70
   4  -6  -8   -0.46    0.62
   1  -6  -8   10.46    1.37
   0   6   8    0.66    0.66
   1   6   8    1.45    0.54
   2   6   8    0.84    0.39
   6  -6  -7    1.09    0.67
   5  -6  -7    1.35    0.70
   4  -6  -7    0.50    0.61
  -4   6   7    0.19    0.96
  -3   6   7    0.68    0.84
   2  -6  -7   15.28    1.15
  -2   6   7   18.09    1.67
   1  -6  -7    2.57    0.72
  -1   6   7    2.46    0.58
   0  -6  -7    1.12    0.65
   0   6   7    2.11    0.74
   0   6   7    2.87    0.72
   1   6   7    0.85    0.41
   2   6   7    6.03    0.59
   2   6   7    3.77    0.56
   3   6   7    0.82    0.58
   4   6   7    0.14    0.80
   6  -6  -6    2.53    0.92
   5  -6  -6    1.27    0.66
   4  -6  -6    2.98    0.81
  -4   6   6    2.16    1.06
  -3   6   6   16.17    1.86
  -2   6   6    2.84    0.86
   1  -6  -6    4.29    0.74
  -1   6   6    5.20    0.95
   0  -6  -6    0.93    0.54
   0   6   6    1.62    0.51
   0   6   6    1.06    0.41
  -1  -6  -6   13.63    1.44
   1   6   6   10.44    0.93
   2   6   6    1.71    0.35
   2   6   6    2.56    0.65
   3   6   6    4.22    0.99
   4   6   6    3.88    1.13
   5   6   6    1.50    1.10
   7  -6  -5    1.83    1.07
   6  -6  -5    4.18    1.11
   5  -6  -5    6.51    1.21
   4  -6  -5   22.05    1.62
  -4   6   5   24.60    2.50
  -3   6   5   -0.17    0.65
   2  -6  -5   14.10    0.86
  -2   6   5   15.53    1.58
   1  -6  -5    0.57    0.36
  -1   6   5   -0.60    0.44
  -1   6   5    0.36    0.47
   0  -6  -5   40.86    2.32
   0   6   5   39.59    2.15
  -1  -6  -5    0.21    0.56
   1   6   5   -0.25    0.33
  -2  -6  -5    4.55    1.51
   2   6   5    6.36    1.12
   2   6   5    6.15    0.49
   3   6   5    0.64    0.77
   4   6   5   11.58    1.70
   5   6   5    1.44    1.04
   6   6   5    2.05    1.24
   6  -6  -4    4.18    1.05
   5  -6  -4   12.49    1.42
   4  -6  -4    6.38    1.08
  -4   6   4    4.41    1.41
   3  -6  -4   62.88    2.81
  -3   6   4   51.38    3.57
   2  -6  -4    7.81    0.52
  -2   6   4    7.12    1.27
   1  -6  -4   18.99    1.23
   0  -6  -4    9.26    1.02
  -1  -6  -4   10.27    1.17
   1   6   4    8.45    0.79
  -2  -6  -4    0.68    0.51
   2   6   4    0.34    0.20
   2   6   4    0.39    0.15
   3   6   4    8.66    1.53
   4   6   4    0.27    0.74
   5   6   4    3.26    1.30
   6   6   4    0.40    0.96
   7  -6  -3    2.83    1.18
  -7   6   3    1.33    0.59
   6  -6  -3    2.36    0.98
  -6   6   3    1.31    0.58
   5  -6  -3    8.62    1.41
   4  -6  -3  137.16    5.76
  -4   6   3  144.68    7.20
   3  -6  -3    6.21    0.99
  -3   6   3    3.39    1.05
  -2   6   3    1.40    0.59
   1  -6  -3   21.67    1.20
   0  -6  -3   87.89    3.62
  -1  -6  -3    5.89    0.89
   1   6   3    5.55    0.43
  -2  -6  -3   10.29    1.22
   2   6   3    8.69    0.39
   2   6   3    8.97    0.48
  -3  -6  -3    3.79    0.96
   4   6   3   11.24    1.64
   5   6   3    0.38    0.75
   6   6   3    5.31    1.58
   7   6   3    0.94    1.11
   7  -6  -2    2.68    1.06
  -7   6   2    2.24    0.69
   6  -6  -2   11.66    1.93
  -6   6   2    7.24    1.02
   5  -6  -2   53.95    3.28
  -5   6   2   60.08    2.77
   4  -6  -2   15.10    1.53
  -4   6   2   16.29    1.24
  -4   6   2   19.88    2.36
   3  -6  -2   15.56    1.34
  -3   6   2   17.36    1.85
   2  -6  -2   20.23    0.88
  -1   6   2  273.52    9.27
   0   6   2    3.30    0.36
  -1  -6  -2   43.63    2.21
   1   6   2   45.82    1.67
  -2  -6  -2    1.80    0.54
   2   6   2    0.71    0.15
  -3  -6  -2   11.99    1.31
   4   6   2    1.84    1.00
   5   6   2    6.17    1.68
   6   6   2   -0.06    0.91
   7   6   2    6.46    1.90
   7  -6  -1    2.48    1.05
  -7   6   1    1.36    0.46
  -7   6   1    0.25    0.58
   6  -6  -1    0.99    0.83
  -6   6   1    1.01    0.46
  -6   6   1   -0.15    0.53
   5  -6  -1   21.12    2.03
  -5   6   1   25.93    1.41
  -5   6   1   20.60    1.38
   4  -6  -1   74.77    2.91
   4  -6  -1   70.27    3.75
  -4   6   1   73.87    3.10
  -4   6   1   72.47    4.57
   3  -6  -1   13.45    0.86
   3  -6  -1   12.61    1.29
  -3   6   1   13.79    1.65
  -3   6   1   14.21    0.96
   2  -6  -1  106.04    3.86
   2  -6  -1  108.89    4.29
  -2   6   1  105.51    3.98
  -1   6   1   67.55    2.58
   0   6   1   95.41    3.37
  -1  -6  -1   67.15    2.41
   1   6   1   66.48    2.39
  -2  -6  -1   91.63    3.10
   2   6   1   90.42    3.21
  -3  -6  -1    2.76    0.21
  -4  -6  -1    1.31    0.57
  -4  -6  -1    1.55    0.14
   4   6   1    2.39    1.13
  -5  -6  -1    3.48    1.10
   5   6   1    3.66    1.35
   6   6   1    3.77    1.46
   7   6   1    0.79    0.99
   7  -6   0    1.44    1.02
  -7   6   0    1.37    0.46
  -7   6   0   -0.66    0.65
   6  -6   0    2.94    1.54
  -6   6   0    3.00    0.65
  -6   6   0    2.21    0.70
   5  -6   0   43.93    2.33
   5  -6   0   40.10    3.02
  -5   6   0   43.66    2.11
  -5   6   0   46.50    2.37
   4  -6   0   15.77    1.27
   4  -6   0   17.18    1.79
  -4   6   0   17.51    1.14
  -4   6   0   16.90    2.02
  -4   6   0   19.97    1.29
  -4   6   0   16.80    1.45
   3  -6   0   18.27    1.25
   3  -6   0   16.51    1.59
  -3   6   0   22.60    1.46
  -3   6   0   18.64    1.09
  -3   6   0   16.33    1.78
   2  -6   0   39.42    2.20
   2  -6   0   36.82    1.86
  -2   6   0   47.61    2.10
  -2   6   0   37.97    1.73
   1  -6   0  448.98   15.27
   1  -6   0  479.50   15.60
  -1   6   0  460.86   15.23
   0  -6   0  103.77    3.64
   0   6   0  102.63    3.65
  -1  -6   0  467.43   14.95
   1   6   0  449.13   15.04
  -2  -6   0   39.51    1.50
   2   6   0   37.03    1.65
  -3  -6   0   18.71    0.88
   3   6   0   17.24    1.03
  -4  -6   0   14.81    0.82
   4   6   0   15.72    2.04
  -5  -6   0   39.90    2.69
  -5  -6   0   45.73    1.96
   5   6   0   46.48    3.84
  -6  -6   0    3.85    0.43
  -6  -6   0    3.49    1.03
   6   6   0    1.94    1.20
  -7  -6   0    0.98    0.33
  -7  -6   0    1.23    0.30
   7   6   0    2.57    1.16
   7  -6   1    1.52    0.88
  -7   6  -1    0.17    0.41
   6  -6   1    3.51    0.80
   6  -6   1    2.48    1.14
  -6   6  -1    4.00    0.80
  -6   6  -1    3.31    0.66
   5  -6   1    3.60    1.15
   5  -6   1    5.15    0.99
  -5   6  -1    4.03    0.64
  -5   6  -1    4.20    0.88
   4  -6   1    2.41    1.01
  -4   6  -1    2.84    1.11
  -4   6  -1    1.58    0.44
  -4   6  -1    2.06    0.74
  -4   6  -1    2.17    0.63
   3  -6   1    1.98    0.92
   3  -6   1    3.45    0.71
  -3   6  -1    2.97    0.74
  -3   6  -1    2.43    0.85
  -3   6  -1    3.11    0.60
  -3   6  -1    3.16    0.53
   2  -6   1   96.41    3.64
   2  -6   1   89.06    5.46
   2  -6   1   97.80    4.00
  -2   6  -1  103.37    4.06
   1  -6   1   64.79    2.61
   1  -6   1   68.00    2.93
   1  -6   1   65.86    3.07
  -1   6  -1   67.06    2.66
  -1   6  -1   81.10    2.97
   0  -6   1   96.03    3.45
   0  -6   1   96.70    3.70
   0   6  -1   95.78    3.55
  -1  -6   1   68.95    2.53
   1   6  -1   64.46    2.65
  -2  -6   1  103.64    3.77
   2   6  -1  104.59    3.99
  -3  -6   1   11.22    0.78
   3   6  -1   13.27    0.99
  -4  -6   1   70.42    2.86
   4   6  -1   70.31    4.49
  -5  -6   1   21.81    1.32
  -5  -6   1   21.54    1.70
   5   6  -1   22.20    2.62
  -6  -6   1    1.15    0.44
  -6  -6   1    1.11    0.68
   6   6  -1    1.11    1.03
  -7  -6   1    2.74    0.55
  -7  -6   1    4.90    1.07
   7   6  -1    0.97    1.05
   7  -6   2    6.58    1.22
   7  -6   2    6.56    1.72
  -7   6  -2    7.97    1.00
   6  -6   2    0.93    0.88
   6  -6   2    0.59    0.71
  -6   6  -2   -0.12    0.23
   5  -6   2    7.64    1.21
   5  -6   2    9.69    1.99
  -5   6  -2    6.60    0.74
  -5   6  -2    8.41    1.25
   4  -6   2    3.74    0.93
   4  -6   2    2.04    1.07
  -4   6  -2    1.35    0.60
  -4   6  -2    1.69    0.49
  -4   6  -2    1.45    0.78
   3  -6   2   11.97    1.30
   3  -6   2   10.39    0.87
   3  -6   2   11.91    1.60
  -3   6  -2   14.02    0.94
  -3   6  -2   13.41    1.68
  -3   6  -2   12.07    1.20
  -3   6  -2   14.09    1.42
   2  -6   2    0.84    0.27
   2  -6   2    0.90    0.50
   2  -6   2   -0.07    0.50
  -2   6  -2    0.54    0.30
  -2   6  -2    0.74    0.51
   1  -6   2   44.04    1.88
   1  -6   2   45.65    2.31
   1  -6   2   43.40    2.44
  -1   6  -2   46.57    2.04
  -1   6  -2   47.09    2.22
   0  -6   2    2.81    0.43
   0  -6   2    3.97    0.75
   0   6  -2    3.87    0.51
   0   6  -2    2.82    0.51
  -1  -6   2  276.80    9.31
  -1  -6   2  272.93    9.34
   1   6  -2  270.65    9.52
  -2  -6   2   21.85    1.23
  -2  -6   2   23.57    1.07
   2   6  -2   19.99    1.35
  -3  -6   2   17.48    1.13
   3   6  -2   16.31    1.28
  -4  -6   2   19.31    1.29
  -4  -6   2   17.70    1.21
   4   6  -2   18.39    1.43
   4   6  -2   17.76    2.19
  -5  -6   2   61.37    2.86
  -5  -6   2   59.55    2.74
   5   6  -2   63.93    4.58
  -6  -6   2    8.48    1.10
  -6  -6   2    9.58    0.88
   6   6  -2   10.43    2.28
  -7  -6   2    6.29    0.88
   7   6  -2    1.15    1.19
   7  -6   3    2.18    0.97
   7  -6   3    1.18    1.26
  -7   6  -3    1.57    0.51
   6  -6   3    5.19    1.26
   6  -6   3    4.21    1.51
  -6   6  -3    7.19    1.02
   5  -6   3    0.91    0.65
   5  -6   3    0.63    0.86
  -5   6  -3    1.42    0.47
   4  -6   3   10.48    0.88
   4  -6   3   12.69    1.70
   4  -6   3    9.94    1.93
  -4   6  -3   11.25    1.98
  -4   6  -3   10.95    1.31
  -4   6  -3   11.22    0.95
   3  -6   3    4.53    1.02
   3  -6   3    4.94    1.31
   3  -6   3    5.13    0.65
  -3   6  -3    5.69    1.26
  -3   6  -3    4.64    1.18
  -3   6  -3    3.60    0.83
  -3   6  -3    5.52    0.77
   2  -6   3    8.39    1.25
   2  -6   3    9.61    1.68
   2  -6   3    7.94    0.67
  -2   6  -3    8.83    1.18
  -2   6  -3    8.62    1.03
  -2   6  -3    7.88    0.79
   1  -6   3    4.66    1.07
   1  -6   3    5.51    0.55
   1  -6   3    5.05    0.92
  -1   6  -3    5.34    0.72
  -1   6  -3    5.82    0.83
   0  -6   3   94.62    4.03
   0  -6   3   90.85    3.52
   0  -6   3   87.59    3.94
   0   6  -3   95.74    3.66
   0   6  -3   90.49    3.78
  -1  -6   3   20.15    1.29
  -1  -6   3   21.39    1.22
   1   6  -3   19.97    1.42
  -2  -6   3    1.81    0.47
  -2  -6   3    1.85    0.43
   2   6  -3    2.49    0.66
  -3  -6   3    4.24    0.74
   3   6  -3    4.71    0.94
  -4  -6   3  142.94    6.04
   4   6  -3  142.65    7.25
   4   6  -3  143.42    5.90
  -5  -6   3    9.24    1.02
   5   6  -3    8.70    1.92
   6   6  -3    1.13    1.07
   7   6  -3   -0.70    1.14
   6  -6   4    0.72    0.91
   6  -6   4    1.89    1.17
  -6   6  -4    0.91    0.48
   5  -6   4    3.59    1.36
   5  -6   4    3.22    1.03
  -5   6  -4    3.19    0.68
   4  -6   4    1.44    1.03
   4  -6   4    1.08    0.82
  -4   6  -4    1.16    0.49
   3  -6   4    8.12    1.47
   3  -6   4    7.40    0.69
   3  -6   4    9.18    1.83
  -3   6  -4    7.37    1.43
  -3   6  -4    8.20    0.90
   2  -6   4    0.59    0.31
   2  -6   4   -0.13    0.55
   2  -6   4    0.56    0.73
  -2   6  -4    0.00    0.45
  -2   6  -4    0.26    0.46
  -2   6  -4    0.83    0.63
   1  -6   4    7.82    0.89
   1  -6   4   10.52    1.39
   1  -6   4    8.34    1.46
  -1   6  -4    9.53    0.98
  -1   6  -4   10.43    1.19
   0  -6   4    8.22    1.15
   0  -6   4    8.75    0.79
   0  -6   4   10.03    1.34
   0   6  -4    8.99    0.94
   0   6  -4    8.85    0.99
  -1  -6   4   18.90    1.58
  -1  -6   4   16.40    1.32
  -1  -6   4   16.39    1.16
   1   6  -4   19.08    1.47
  -2  -6   4    7.94    1.00
  -2  -6   4    6.71    0.73
   2   6  -4    8.61    1.24
  -3  -6   4   51.46    2.59
   3   6  -4   48.70    2.84
   4   6  -4    5.89    1.50
   4   6  -4    5.55    1.06
   5   6  -4   12.80    2.40
   6   6  -4    4.28    1.65
   7   6  -4    1.45    1.37
   6  -6   5    1.04    0.84
  -6   6  -5    2.00    0.61
   5  -6   5    1.77    0.78
  -5   6  -5    1.78    0.63
   4  -6   5    5.68    1.41
   4  -6   5    6.52    1.73
  -4   6  -5    6.43    1.00
   3  -6   5    2.82    1.16
   3  -6   5    1.17    0.69
  -3   6  -5    1.47    0.56
   2  -6   5    6.17    0.69
   2  -6   5    5.85    1.53
   2  -6   5    5.91    1.29
  -2   6  -5    4.57    1.10
  -2   6  -5    6.01    1.81
  -2   6  -5    6.26    0.98
   1  -6   5   -0.70    0.46
   1  -6   5    0.84    0.37
   1  -6   5    0.94    0.91
  -1   6  -5    0.23    0.47
  -1   6  -5    1.20    0.81
   0  -6   5   45.24    2.77
   0  -6   5   40.87    2.08
   0   6  -5   40.19    2.28
   0   6  -5   38.96    2.41
  -1  -6   5    0.37    0.56
  -1  -6   5   -0.30    0.27
   1   6  -5   -0.20    0.47
   1   6  -5    0.79    0.41
  -2  -6   5   13.27    1.37
   2   6  -5   13.92    1.45
   3   6  -5   -0.22    0.50
   4   6  -5   23.23    1.98
   4   6  -5   21.94    2.50
   5   6  -5    4.29    1.93
   6   6  -5    4.27    1.44
   7   6  -5    0.51    1.11
   5  -6   6    2.02    0.88
  -5   6  -6    3.37    0.84
   4  -6   6    2.98    1.05
  -4   6  -6    6.42    1.86
   3  -6   6    5.79    1.40
  -3   6  -6    6.35    1.05
  -2   6  -6    1.19    0.59
  -2   6  -6    1.17    0.68
   1  -6   6   11.07    1.74
  -1   6  -6   13.77    1.37
  -1   6  -6   13.10    1.41
   0  -6   6    0.94    0.61
   0   6  -6    2.16    0.68
   0   6  -6    2.66    0.83
  -1  -6   6    5.14    1.16
   1   6  -6    5.51    0.82
   1   6  -6    3.10    0.87
  -2  -6   6    2.01    0.73
   2   6  -6    2.12    0.78
   2   6  -6    3.07    0.44
  -3  -6   6   16.16    1.67
   3   6  -6   13.67    1.85
   3   6  -6   16.16    2.18
  -4  -6   6    1.92    0.72
   4   6  -6    2.14    0.91
   4   6  -6    2.15    1.06
   5   6  -6    1.26    1.20
   6   6  -6    0.20    1.08
   4  -6   7    0.84    1.03
  -4   6  -7    1.70    0.68
   3  -6   7    1.91    0.92
  -3   6  -7    2.29    0.85
  -3   6  -7    2.37    0.79
   2  -6   7    1.01    0.85
  -2   6  -7    3.20    0.98
  -2   6  -7    4.45    1.12
   1  -6   7    0.58    0.53
  -1   6  -7   -0.89    0.60
  -1   6  -7    0.04    0.73
   0  -6   7    3.16    0.99
   0   6  -7    3.39    0.92
   0   6  -7    1.75    0.77
  -1  -6   7    3.79    1.20
   1   6  -7    4.58    1.11
   1   6  -7    3.73    0.72
  -2  -6   7   23.10    2.09
   2   6  -7   16.38    1.17
   2   6  -7   14.02    1.95
  -3  -6   7    1.31    1.23
   3   6  -7    1.03    0.94
   3   6  -7    1.81    0.92
  -4  -6   7    0.39    0.62
   4   6  -7    0.80    0.77
   4   6  -7    0.63    0.85
  -5  -6   7   -0.09    0.61
   5   6  -7    0.23    1.05
  -6  -6   7   -0.11    0.65
   6   6  -7    1.18    1.12
   3  -6   8    1.43    1.04
  -3   6  -8    2.58    0.93
   2  -6   8   -0.62    0.72
  -2   6  -8    0.18    0.60
  -2   6  -8    1.05    0.73
   1  -6   8    0.86    0.88
  -1   6  -8    2.41    0.92
  -1   6  -8    1.06    0.58
   0  -6   8    0.77    0.76
   0   6  -8    1.74    0.81
  -1  -6   8   10.95    1.84
   1   6  -8   14.12    2.00
   1   6  -8   10.27    1.35
  -2  -6   8    1.76    0.86
   2   6  -8    1.79    0.50
   2   6  -8    0.94    0.69
   2   6  -8    0.97    0.76
  -3  -6   8   -0.53    0.61
   3   6  -8    0.24    0.71
   3   6  -8    0.02    0.57
  -4  -6   8    0.48    0.74
   4   6  -8   -0.27    0.73
  -5  -6   8   -1.09    0.61
   5   6  -8   -2.23    1.01
   2  -6   9    0.30    1.06
  -2   6  -9    2.18    0.82
   1  -6   9    0.17    0.84
  -1   6  -9    0.12    0.64
   0  -6   9    2.21    1.09
   0   6  -9    3.20    0.92
  -1  -6   9    0.92    0.90
   1   6  -9    3.53    0.70
   1   6  -9    1.20    0.62
   1   6  -9    0.11    0.55
  -2  -6   9    6.10    1.51
   2   6  -9    3.44    1.18
  -3  -6   9    0.36    0.68
   3   6  -9    0.06    0.80
   3   6  -9    0.09    0.80
   4  -7  -8   -1.07    0.69
  -3   7   8    0.02    0.81
  -2   7   8    6.16    1.08
   1  -7  -8    4.24    0.84
   1   7   8    1.74    0.72
   2   7   8    1.44    0.43
   5  -7  -7    5.48    1.34
   4  -7  -7    0.74    0.67
  -3   7   7    6.64    1.58
   2  -7  -7    4.05    0.64
  -2   7   7    4.26    1.08
   1  -7  -7    5.95    0.96
   0  -7  -7    3.20    0.84
   0   7   7    2.09    0.53
   0   7   7    2.95    0.75
   1   7   7    2.64    0.53
   1   7   7    3.82    0.67
   2   7   7    1.31    0.38
   2   7   7    0.46    0.47
   3   7   7    0.07    0.67
   4   7   7   -0.27    0.67
   5  -7  -6    1.05    0.62
   4  -7  -6    0.69    0.57
   2  -7  -6    9.43    0.86
  -2   7   6    9.88    1.37
   1  -7  -6   18.05    1.33
  -1   7   6   14.47    1.43
  -1   7   6   18.93    1.62
   0  -7  -6    1.55    0.64
   0   7   6    1.22    0.56
  -1  -7  -6    1.78    0.90
   1   7   6    2.04    0.46
   2   7   6   -0.12    0.35
   3   7   6    1.06    0.75
   4   7   6    1.27    0.84
   6  -7  -5    0.31    0.73
   5  -7  -5    2.29    0.84
   4  -7  -5    8.39    1.29
  -3   7   5   24.24    2.95
   2  -7  -5    1.67    0.35
  -2   7   5    2.29    0.83
   1  -7  -5    1.85    0.55
  -1   7   5    2.03    0.68
   0  -7  -5    4.28    0.87
   0   7   5    4.09    0.82
  -1  -7  -5    6.16    1.08
   1   7   5    7.05    0.76
   2   7   5    2.55    0.38
   2   7   5    3.04    0.31
   3   7   5    0.07    0.56
   4   7   5    0.78    0.86
   5   7   5    1.70    1.13
   6   7   5    2.93    1.43
   7  -7  -4    2.87    1.13
  -7   7   4    0.86    0.68
   6  -7  -4    1.84    0.95
   5  -7  -4    6.87    1.31
   4  -7  -4   20.55    1.66
   3  -7  -4    1.31    0.66
   2  -7  -4    9.12    0.61
  -2   7   4    7.66    1.32
   1  -7  -4    9.93    0.97
   0  -7  -4    7.40    1.04
  -1  -7  -4    2.99    0.80
   1   7   4    1.60    0.43
   1   7   4    2.18    0.38
  -2  -7  -4    2.79    0.85
   2   7   4    2.37    0.35
   4   7   4    3.12    1.07
   5   7   4    0.71    0.96
   6   7   4    2.25    1.17
   7  -7  -3    2.16    1.03
  -7   7   3    0.01    0.39
   6  -7  -3    0.54    0.64
  -6   7   3    0.00    0.36
   5  -7  -3   10.69    1.47
  -5   7   3   11.92    1.22
   4  -7  -3   24.56    1.86
   3  -7  -3   22.64    1.61
   2  -7  -3    6.48    0.51
  -2   7   3    7.35    1.27
   1  -7  -3    2.21    0.46
   0  -7  -3    0.35    0.38
   0   7   3    0.29    0.27
  -1  -7  -3    6.28    0.92
   1   7   3    6.60    0.48
   2   7   3   14.53    0.62
   2   7   3   14.52    0.75
   4   7   3    5.26    1.38
   5   7   3    2.19    0.97
   6   7   3    2.01    1.22
   7   7   3   -1.11    1.08
   7  -7  -2    1.77    1.04
  -7   7   2    2.00    0.58
   6  -7  -2    7.07    1.57
  -6   7   2   10.57    1.09
   5  -7  -2   16.13    1.72
  -5   7   2   19.87    1.39
   4  -7  -2   43.17    2.72
  -4   7   2   48.15    2.32
   3  -7  -2    4.54    0.98
  -3   7   2    4.29    0.67
   2  -7  -2   13.89    1.11
  -2   7   2   10.89    0.88
  -1   7   2   17.14    0.99
   0   7   2   41.24    1.69
   1   7   2    9.25    0.53
  -2  -7  -2   14.07    1.26
   2   7   2   13.30    0.65
  -3  -7  -2   10.50    1.22
   4   7   2   22.42    2.40
   5   7   2    0.43    0.87
   6   7   2    4.43    1.76
   7   7   2    0.57    1.06
   7  -7  -1    0.08    0.80
  -7   7   1    0.22    0.41
   6  -7  -1    1.55    1.15
  -6   7   1    0.85    0.41
   5  -7  -1   21.08    2.06
  -5   7   1   26.08    1.53
   4  -7  -1   62.94    3.60
   4  -7  -1   68.37    2.73
  -4   7   1   67.05    2.91
   3  -7  -1    3.85    0.97
   3  -7  -1    3.47    0.53
  -3   7   1    3.36    0.57
   2  -7  -1    2.12    0.65
   2  -7  -1    1.92    0.39
  -2   7   1    1.67    0.41
  -1   7   1   11.35    0.75
   0   7   1   85.77    3.11
  -1  -7  -1    3.66    0.36
   1   7   1    3.28    0.34
  -2  -7  -1    5.42    0.37
   2   7   1    4.49    0.43
  -3  -7  -1   27.98    1.05
   3   7   1   26.87    1.22
  -4  -7  -1   17.33    0.66
  -5  -7  -1    5.10    1.30
   5   7   1    6.72    1.84
   6   7   1    1.60    1.26
   7   7   1   -0.27    0.95
   7  -7   0    1.16    0.97
  -7   7   0   -0.01    0.35
  -7   7   0   -1.38    0.59
   6  -7   0    2.27    1.13
   6  -7   0    3.80    0.79
  -6   7   0    3.96    0.88
  -6   7   0    4.61    0.77
   5  -7   0   18.35    2.05
   5  -7   0   21.39    1.55
  -5   7   0   22.15    1.38
  -5   7   0   23.29    1.55
   4  -7   0   44.72    2.41
   4  -7   0   44.79    3.04
  -4   7   0   54.10    2.74
  -4   7   0   50.15    2.26
   3  -7   0   31.69    1.77
   3  -7   0   29.70    2.15
  -3   7   0   32.95    1.60
  -3   7   0   30.47    2.95
   2  -7   0   34.26    1.76
   2  -7   0   32.80    2.04
  -2   7   0   36.20    1.61
   1  -7   0   59.57    2.46
   1  -7   0   65.39    2.79
  -1   7   0   60.77    2.42
   0  -7   0  142.93    4.99
   0   7   0  143.96    5.01
  -1  -7   0   59.43    2.24
   1   7   0   60.09    2.35
  -2  -7   0   35.12    1.51
   2   7   0   34.55    1.60
  -3  -7   0   32.32    1.33
   3   7   0   31.61    1.58
  -4  -7   0   47.43    1.87
  -5  -7   0   20.15    1.83
  -5  -7   0   23.66    1.24
   5   7   0   19.06    2.50
  -6  -7   0    5.73    0.49
  -6  -7   0    6.56    1.26
   6   7   0    4.83    1.73
  -7  -7   0    0.46    0.31
  -7  -7   0   -0.16    0.21
   7   7   0   -0.71    0.68
   7  -7   1    0.23    0.89
  -7   7  -1    0.00    0.40
   6  -7   1    3.29    0.83
   6  -7   1    3.04    1.31
  -6   7  -1    2.04    0.74
  -6   7  -1    3.61    0.72
   5  -7   1    6.42    1.49
   5  -7   1    6.38    1.07
  -5   7  -1    6.43    1.00
  -5   7  -1    6.36    0.84
   4  -7   1   18.00    1.55
   4  -7   1   16.87    1.93
  -4   7  -1   17.09    1.13
  -4   7  -1   18.76    1.47
   3  -7   1   27.38    2.22
   3  -7   1   26.03    1.57
   3  -7   1   29.00    1.84
  -3   7  -1   30.44    2.50
  -3   7  -1   27.02    1.46
  -3   7  -1   30.32    1.91
   2  -7   1    5.65    0.84
   2  -7   1    5.16    0.56
   2  -7   1    7.28    1.29
  -2   7  -1    5.85    0.57
  -2   7  -1    6.06    0.81
   1  -7   1    3.30    0.47
   1  -7   1    3.23    0.63
   1  -7   1    4.05    0.88
  -1   7  -1    3.13    0.57
   0  -7   1   88.00    3.25
   0  -7   1   94.38    3.58
   0   7  -1   82.69    3.34
  -1  -7   1   11.10    0.68
   1   7  -1    9.74    0.77
  -2  -7   1    2.37    0.39
   2   7  -1    1.86    0.45
  -3  -7   1    4.20    0.54
   3   7  -1    4.35    0.71
  -4  -7   1   66.62    2.70
   4   7  -1   66.09    2.96
  -5  -7   1   25.38    1.35
  -5  -7   1   21.74    1.77
   5   7  -1   26.34    2.86
  -6  -7   1    0.36    0.54
  -6  -7   1    0.25    0.29
   6   7  -1    0.21    0.91
  -7  -7   1   -0.32    0.36
   7   7  -1   -0.28    0.95
   7  -7   2    1.04    0.81
   7  -7   2    1.36    1.07
  -7   7  -2    2.23    0.57
   6  -7   2    5.57    1.67
   6  -7   2    3.93    1.04
  -6   7  -2    3.83    0.74
   5  -7   2    0.76    0.62
   5  -7   2   -0.24    0.67
  -5   7  -2    0.43    0.34
  -5   7  -2   -0.25    0.53
   4  -7   2   24.29    1.93
   4  -7   2   21.99    2.28
  -4   7  -2   22.73    1.75
  -4   7  -2   21.93    1.36
   3  -7   2   13.03    1.39
   3  -7   2   12.30    0.94
   3  -7   2   10.70    1.49
  -3   7  -2   15.03    1.44
  -3   7  -2   15.81    1.82
  -3   7  -2   12.18    0.94
   2  -7   2   15.12    1.37
   2  -7   2   14.11    0.93
   2  -7   2   13.40    1.50
  -2   7  -2   14.05    0.99
  -2   7  -2   15.33    1.31
   1  -7   2    8.49    0.65
   1  -7   2    8.94    1.27
  -1   7  -2    9.37    0.90
  -1   7  -2    8.95    0.76
   0  -7   2   39.82    2.11
   0  -7   2   40.05    1.75
   0   7  -2   39.70    2.20
  -1  -7   2   17.64    1.14
  -1  -7   2   18.08    1.02
   1   7  -2   17.48    1.18
  -2  -7   2   10.56    0.80
  -2  -7   2   12.15    0.80
   2   7  -2   11.89    1.03
  -3  -7   2    3.92    0.60
   3   7  -2    4.52    0.86
  -4  -7   2   44.13    2.14
   4   7  -2   45.02    2.43
  -5  -7   2   17.56    1.23
  -5  -7   2   16.94    1.59
   5   7  -2   18.31    2.35
  -6  -7   2    9.66    0.96
  -6  -7   2    9.83    0.95
   6   7  -2   10.02    2.38
  -7  -7   2    9.79    1.35
   7  -7   3   -0.25    0.68
   7  -7   3    1.11    1.16
  -7   7  -3    0.57    0.37
   6  -7   3    1.73    1.12
   6  -7   3    2.48    1.03
  -6   7  -3    2.49    0.64
   5  -7   3    0.94    1.13
   5  -7   3    1.19    0.81
  -5   7  -3    1.24    0.47
   4  -7   3    7.11    1.74
   4  -7   3    5.09    1.16
  -4   7  -3    5.46    0.77
   3  -7   3    5.37    1.07
   3  -7   3    5.84    0.64
   3  -7   3    5.52    1.40
  -3   7  -3    6.04    0.84
  -3   7  -3    6.98    1.10
  -3   7  -3    6.32    1.43
   2  -7   3   12.92    1.57
   2  -7   3   15.63    1.00
   2  -7   3   14.87    1.48
  -2   7  -3   15.38    1.15
  -2   7  -3   14.93    1.46
   1  -7   3    6.17    1.03
   1  -7   3    6.80    1.27
   1  -7   3    6.03    0.59
  -1   7  -3    6.28    1.01
  -1   7  -3    6.57    0.87
   0  -7   3    0.36    0.51
   0  -7   3    0.77    0.44
   0  -7   3    0.99    0.33
   0   7  -3    0.26    0.36
   0   7  -3    0.36    0.37
  -1  -7   3    2.94    0.54
  -1  -7   3    2.20    0.66
   1   7  -3    1.77    0.63
  -2  -7   3    6.41    0.66
  -2  -7   3    5.28    0.65
   2   7  -3    6.54    1.00
  -3  -7   3   19.93    1.01
  -3  -7   3   22.71    1.38
   3   7  -3   20.08    1.60
  -4  -7   3   22.80    1.53
   4   7  -3   23.67    1.76
  -5  -7   3   10.75    1.05
   6   7  -3   -0.26    1.04
   7   7  -3    1.19    1.16
   6  -7   4    1.48    0.96
   6  -7   4    0.90    1.06
  -6   7  -4    1.60    0.60
   5  -7   4    1.52    0.83
   5  -7   4    0.04    0.77
   4  -7   4    2.87    1.30
   4  -7   4    3.38    1.12
  -4   7  -4    2.18    0.57
   3  -7   4    7.71    1.43
   3  -7   4    9.67    1.88
  -3   7  -4   10.32    1.00
  -3   7  -4    9.69    1.71
   2  -7   4    1.34    0.73
   2  -7   4    1.59    0.89
   2  -7   4    1.44    0.39
  -2   7  -4    1.52    0.74
  -2   7  -4    1.28    0.53
   1  -7   4    2.26    0.75
   1  -7   4    2.26    1.01
   1  -7   4    2.97    0.53
  -1   7  -4    2.61    0.72
  -1   7  -4    3.00    0.71
   0  -7   4    6.74    1.15
   0  -7   4    7.02    0.71
   0  -7   4    6.73    1.26
   0   7  -4    7.72    1.08
   0   7  -4    7.88    0.87
  -1  -7   4    8.63    1.07
  -1  -7   4    9.68    0.88
  -1  -7   4    8.86    1.25
   1   7  -4   11.36    0.80
   1   7  -4    9.54    1.27
  -2  -7   4    8.49    0.84
  -2  -7   4    8.73    0.86
   2   7  -4    7.45    1.22
  -3  -7   4    0.51    0.40
   3   7  -4    1.47    0.76
   4   7  -4   22.32    1.87
   5   7  -4    5.63    1.69
   6   7  -4    0.56    0.86
   7   7  -4    0.23    1.29
   6  -7   5    3.10    1.23
  -6   7  -5    3.28    0.77
   5  -7   5    5.38    1.70
   5  -7   5    1.75    0.93
  -5   7  -5    3.07    0.75
   4  -7   5    0.82    0.84
   4  -7   5    1.38    0.81
  -4   7  -5    0.83    0.49
   3  -7   5    0.55    0.80
   3  -7   5   -1.10    0.46
  -3   7  -5   -0.18    0.68
  -3   7  -5    0.96    0.47
   2  -7   5    1.85    0.83
   2  -7   5    2.00    0.98
  -2   7  -5    2.25    0.84
  -2   7  -5    1.69    0.57
   1  -7   5    7.32    1.32
   1  -7   5    5.56    1.38
  -1   7  -5    7.91    1.20
  -1   7  -5    8.30    1.09
   0  -7   5    2.23    0.82
   0  -7   5    4.17    1.19
   0   7  -5    3.73    0.85
   0   7  -5    3.55    0.85
  -1  -7   5    2.09    0.83
  -1  -7   5    1.57    0.71
   1   7  -5    3.11    0.60
   1   7  -5    2.22    0.80
  -2  -7   5    1.60    0.74
   2   7  -5    1.20    0.64
   3   7  -5   24.13    1.95
   4   7  -5    5.97    1.66
   4   7  -5    8.37    1.41
   5   7  -5    2.52    1.27
   6   7  -5   -0.04    1.01
   5  -7   6   -1.32    0.67
  -5   7  -6    0.08    0.61
   4  -7   6   -0.27    0.76
  -4   7  -6    0.96    0.56
   3  -7   6    1.26    0.82
  -3   7  -6    1.48    0.90
  -3   7  -6    2.25    0.79
   2  -7   6    0.59    0.86
   2  -7   6    0.99    0.88
  -2   7  -6   -0.18    0.54
  -2   7  -6   -0.45    0.64
   1  -7   6    1.68    0.75
  -1   7  -6    2.95    0.91
  -1   7  -6    1.72    0.67
   0  -7   6    1.77    0.83
   0   7  -6    2.72    0.78
   0   7  -6    2.25    0.80
  -1  -7   6   21.97    2.04
   1   7  -6   18.36    1.74
   1   7  -6   20.40    1.30
  -2  -7   6    8.27    1.43
   2   7  -6    8.84    1.49
  -3  -7   6    3.78    1.02
   3   7  -6    2.16    0.83
   4   7  -6    0.29    0.59
   4   7  -6   -0.23    0.53
   5   7  -6   -0.81    0.99
   6   7  -6    1.11    1.00
   4  -7   7    0.65    0.92
  -4   7  -7    0.43    0.63
   3  -7   7    0.13    0.83
  -3   7  -7    1.74    0.73
  -3   7  -7    0.06    0.89
   2  -7   7    0.66    0.71
  -2   7  -7    0.39    0.64
  -2   7  -7    0.52    0.61
   1  -7   7    1.49    0.85
  -1   7  -7    3.64    0.99
   0  -7   7    4.16    1.27
   0   7  -7    4.98    1.21
   0   7  -7    4.77    0.95
  -1  -7   7    6.59    1.32
   1   7  -7    7.00    0.82
   1   7  -7    6.96    1.32
  -2  -7   7    5.42    1.26
   2   7  -7    4.74    1.19
  -3  -7   7    6.40    1.31
   3   7  -7    4.80    1.09
   3   7  -7    5.77    1.54
  -4  -7   7    0.50    0.72
   4   7  -7    1.11    0.88
   4   7  -7    0.76    0.80
  -5  -7   7    2.93    1.00
   5   7  -7    2.39    1.41
   3  -7   8   -0.25    0.66
  -3   7  -8    0.08    0.60
   2  -7   8   -0.15    0.77
  -2   7  -8   -0.14    0.69
  -2   7  -8    0.09    0.71
   1  -7   8    0.00    0.78
  -1   7  -8   -1.59    0.63
  -1   7  -8    1.63    0.86
   0  -7   8    1.22    0.82
   0   7  -8    1.86    0.77
  -1  -7   8    4.50    1.29
   1   7  -8    3.97    1.13
  -2  -7   8   11.48    1.85
   2   7  -8    5.68    0.70
   2   7  -8    7.81    1.58
   2   7  -8    8.67    1.66
  -3  -7   8    0.36    0.67
   3   7  -8    0.04    0.79
   3   7  -8    1.30    0.82
  -4  -7   8   -0.25    0.59
   4   7  -8   -0.37    0.68
   1  -7   9    1.63    1.07
  -1   7  -9    3.73    0.86
   0  -7   9   -1.58    0.75
   0   7  -9   -0.18    0.60
  -1  -7   9    6.60    1.62
   1   7  -9    2.35    1.01
   1   7  -9    4.52    1.03
  -2  -7   9    0.12    0.89
   2   7  -9   -0.92    0.73
   2   7  -9    0.31    0.97
  -3  -7   9    0.64    0.70
   3   7  -9    0.97    0.87
   3   7  -9    0.71    0.76
   4  -8  -8   -0.58    0.68
   2  -8  -8    1.07    0.55
  -2   8   8    1.01    0.92
   1  -8  -8   -0.28    0.64
  -1   8   8    0.73    0.55
   1   8   8    1.95    0.71
   5  -8  -7    2.67    0.92
   4  -8  -7    0.98    0.68
  -3   8   7    1.53    0.74
   2  -8  -7    1.12    0.44
  -2   8   7    1.94    0.75
   1  -8  -7    4.33    0.84
  -1   8   7    2.26    0.92
   0  -8  -7    0.38    0.62
   0   8   7    1.03    0.54
   0   8   7    0.63    0.80
   1   8   7    1.34    0.45
   2   8   7    2.11    0.75
   2   8   7    2.51    0.48
   2   8   7    2.44    0.40
   4   8   7   -0.95    0.91
   6  -8  -6    1.08    0.84
   5  -8  -6    1.83    0.77
   4  -8  -6    2.69    0.80
  -3   8   6    4.88    1.40
   2  -8  -6    1.65    0.39
  -2   8   6    2.24    0.89
   1  -8  -6    5.22    0.87
  -1   8   6    3.15    0.82
  -1   8   6    5.61    1.34
   0  -8  -6   13.71    1.60
   1   8   6    1.06    0.42
   2   8   6    1.46    0.28
   3   8   6    1.64    0.82
   4   8   6    0.00    0.77
   5   8   6    0.04    1.01
   6  -8  -5    1.77    0.83
   5  -8  -5    1.76    0.84
   4  -8  -5    7.97    1.31
  -3   8   5   -0.30    0.64
   2  -8  -5    1.34    0.32
  -2   8   5    0.73    0.64
   1  -8  -5   18.96    1.36
   0  -8  -5    3.91    0.84
   0   8   5    3.84    0.78
  -1  -8  -5    1.32    0.60
   1   8   5    0.65    0.30
   1   8   5    1.03    0.42
   2   8   5    3.10    0.30
   2   8   5    3.03    0.46
   3   8   5    3.07    1.05
   4   8   5   -0.83    0.67
   5   8   5    0.36    1.01
   7  -8  -4    3.31    1.01
  -7   8   4    0.55    0.48
   6  -8  -4    1.40    0.77
  -6   8   4    0.47    0.56
   5  -8  -4    2.62    0.99
   4  -8  -4    2.80    0.91
   3  -8  -4    2.47    0.76
  -3   8   4    3.37    1.07
   2  -8  -4    1.95    0.36
  -2   8   4    1.06    0.72
   1  -8  -4   25.58    1.55
   0  -8  -4   54.50    2.77
  -1  -8  -4    4.54    0.97
   1   8   4    4.24    0.44
  -2  -8  -4    5.42    1.06
   2   8   4    5.90    0.50
   2   8   4    6.20    0.38
   4   8   4    4.29    1.35
   5   8   4   -0.03    0.96
   6   8   4   -0.05    1.05
   7  -8  -3    2.53    1.03
  -7   8   3    1.06    0.58
   6  -8  -3    0.76    0.85
  -6   8   3    1.82    0.64
   5  -8  -3   -0.09    0.65
  -5   8   3   -0.18    0.34
   4  -8  -3    0.74    0.61
  -4   8   3    1.58    0.56
   3  -8  -3    0.80    0.58
  -3   8   3   -0.42    0.54
  -3   8   3    0.63    0.42
   2  -8  -3   17.23    0.95
  -2   8   3   17.44    1.17
   1  -8  -3   25.22    1.47
  -1   8   3   26.43    1.40
   0  -8  -3   54.69    2.68
   0   8   3   59.97    2.33
  -1  -8  -3    1.10    0.56
   1   8   3    0.90    0.26
  -2  -8  -3    2.67    0.74
   2   8   3    2.32    0.26
   4   8   3    5.32    1.46
   5   8   3    0.52    0.89
   6   8   3    5.60    1.77
   7  -8  -2    1.47    0.92
  -7   8   2    0.11    0.43
   6  -8  -2    0.71    0.78
  -6   8   2    0.32    0.32
   5  -8  -2    1.88    0.92
  -5   8   2    2.12    0.59
   4  -8  -2    0.32    0.64
  -4   8   2    0.96    0.47
   3  -8  -2    1.02    0.67
   3  -8  -2    1.41    0.28
  -3   8   2    1.61    0.49
  -3   8   2    1.41    0.88
   2  -8  -2    6.13    0.97
  -2   8   2    6.23    0.78
  -1   8   2   35.46    1.64
   0   8   2   50.22    2.02
   1   8   2    5.42    0.44
   2   8   2    6.30    0.46
  -3  -8  -2   16.70    1.77
   5   8   2    0.38    0.89
   6   8   2    3.97    1.50
   7   8   2    3.55    1.49
   7  -8  -1    3.13    1.16
  -7   8   1    1.57    0.58
   6  -8  -1    5.76    1.54
  -6   8   1    5.25    0.84
   5  -8  -1    1.72    0.46
   5  -8  -1    2.94    1.12
  -5   8   1    2.47    0.59
   4  -8  -1   18.88    1.87
   4  -8  -1   18.64    1.20
  -4   8   1   19.43    1.27
   3  -8  -1   30.44    2.15
   3  -8  -1   30.58    1.60
  -3   8   1   29.16    1.58
  -3   8   1   30.08    2.57
   2  -8  -1    5.89    1.02
   2  -8  -1    4.73    0.63
  -2   8   1    5.42    0.59
   1  -8  -1   10.67    0.96
  -1   8   1    9.73    0.72
   0   8   1   31.71    1.40
  -1  -8  -1    1.01    0.28
   1   8   1    0.75    0.25
  -2  -8  -1    4.67    0.40
   2   8   1    4.58    0.47
  -3  -8  -1   44.01    1.63
   3   8   1   43.06    1.83
  -4  -8  -1   30.61    1.13
   5   8   1    2.88    1.54
   6   8   1    5.29    1.75
   7   8   1    1.69    1.30
   7  -8   0    3.94    1.36
  -7   8   0    4.11    0.75
   6  -8   0    1.19    0.97
   6  -8   0    1.75    0.62
  -6   8   0    2.21    0.59
   5  -8   0    1.11    0.90
   5  -8   0    1.16    0.52
  -5   8   0    0.78    0.45
   4  -8   0   20.92    1.48
   4  -8   0   18.98    1.93
  -4   8   0   17.76    1.21
   3  -8   0   18.28    1.73
   3  -8   0   21.27    1.45
  -3   8   0   19.63    1.22
  -3   8   0   18.25    1.94
   2  -8   0    6.03    0.81
   2  -8   0    5.76    1.08
  -2   8   0    6.00    0.70
   1  -8   0    3.93    0.55
   1  -8   0    6.07    0.79
  -1   8   0    5.66    0.56
   0  -8   0    2.11    0.38
   0   8   0    2.24    0.41
  -1  -8   0    5.40    0.46
   1   8   0    5.24    0.53
  -2  -8   0    4.66    0.42
   2   8   0    4.97    0.64
  -3  -8   0   21.64    0.98
   3   8   0   19.50    1.23
  -4  -8   0   18.11    0.88
   4   8   0   17.30    1.13
  -5  -8   0    1.28    0.25
  -5  -8   0    1.00    0.71
  -6  -8   0    2.48    0.81
   6   8   0    1.02    1.23
  -7  -8   0    3.06    0.32
   7   8   0    3.48    1.63
   7  -8   1    0.20    0.85
  -7   8  -1    1.57    0.44
   6  -8   1    9.63    2.11
   6  -8   1    5.76    1.03
  -6   8  -1    8.20    1.03
  -6   8  -1    8.60    1.28
   5  -8   1    3.94    1.23
   5  -8   1    2.25    0.68
  -5   8  -1    2.84    0.58
   4  -8   1   30.28    2.53
   4  -8   1   31.03    2.04
  -4   8  -1   31.45    1.68
   3  -8   1   41.47    2.90
   3  -8   1   44.47    2.20
  -3   8  -1   56.53    2.71
  -3   8  -1   43.99    3.22
  -3   8  -1   45.64    2.14
   2  -8   1    4.79    1.12
   2  -8   1    5.22    0.68
   2  -8   1    4.23    0.79
  -2   8  -1    5.25    0.89
  -2   8  -1    5.48    0.69
   1  -8   1    0.76    0.27
   1  -8   1    0.71    0.43
   1  -8   1    1.16    0.65
  -1   8  -1    0.61    0.31
   0  -8   1   31.99    1.45
   0  -8   1   31.70    1.75
   0   8  -1   29.57    2.03
  -1  -8   1   10.81    0.84
  -1  -8   1    9.88    0.67
   1   8  -1   10.10    0.84
  -2  -8   1    5.08    0.49
   2   8  -1    4.97    0.73
  -3  -8   1   29.11    1.39
   3   8  -1   29.11    1.69
  -4  -8   1   19.50    1.08
   4   8  -1   16.83    1.28
  -5  -8   1    2.07    0.39
  -5  -8   1    2.34    0.76
   5   8  -1    0.52    1.06
  -6  -8   1    8.97    1.10
  -6  -8   1    5.35    0.60
   6   8  -1    5.49    1.80
   7   8  -1    1.74    1.33
   7  -8   2    2.59    0.92
  -7   8  -2    3.69    0.75
   6  -8   2    5.57    1.63
   6  -8   2    2.91    0.99
  -6   8  -2    4.83    0.80
   5  -8   2    1.11    0.76
   5  -8   2    1.89    1.00
  -5   8  -2    0.97    0.48
   4  -8   2   15.99    1.97
   4  -8   2   17.50    1.71
  -4   8  -2   20.12    1.28
   3  -8   2   17.74    1.92
   3  -8   2   18.98    1.65
   3  -8   2   17.57    1.19
  -3   8  -2   17.30    1.22
  -3   8  -2   19.63    2.06
   2  -8   2    6.13    1.33
   2  -8   2    5.34    0.96
   2  -8   2    5.51    0.61
  -2   8  -2    7.37    0.77
  -2   8  -2    7.16    0.94
   1  -8   2    5.85    1.15
   1  -8   2    4.84    0.89
   1  -8   2    4.96    0.62
  -1   8  -2    5.46    0.75
  -1   8  -2    6.13    0.79
   0  -8   2   52.25    2.18
   0  -8   2   49.94    2.59
   0   8  -2   53.64    2.41
  -1  -8   2   35.62    1.66
  -1  -8   2   34.33    1.84
   1   8  -2   38.52    1.96
  -2  -8   2    5.16    0.57
  -2  -8   2    6.08    0.67
   2   8  -2    6.05    0.90
  -3  -8   2    1.24    0.37
   3   8  -2    0.88    0.59
  -4  -8   2    0.13    0.31
   4   8  -2    0.02    0.50
  -5  -8   2    2.36    0.54
   5   8  -2    2.42    1.33
  -6  -8   2    2.07    0.54
  -6  -8   2    0.59    0.38
   6   8  -2   -0.10    1.00
   7   8  -2   -0.83    0.81
   6  -8   3    5.31    1.81
   6  -8   3    5.51    1.45
  -6   8  -3    4.08    0.77
   5  -8   3    1.67    1.14
   5  -8   3    0.15    0.65
  -5   8  -3    1.49    0.53
   4  -8   3    5.64    1.16
  -4   8  -3    4.85    0.78
   3  -8   3   19.21    2.11
   3  -8   3   21.42    1.88
  -3   8  -3   20.94    1.42
  -3   8  -3   24.00    2.33
   2  -8   3    4.08    1.23
   2  -8   3    1.20    0.69
   2  -8   3    2.79    0.52
  -2   8  -3    4.12    0.98
  -2   8  -3    2.06    0.59
   1  -8   3    0.70    0.59
   1  -8   3    0.41    0.73
   1  -8   3    1.49    0.38
  -1   8  -3    0.61    0.47
  -1   8  -3    1.04    0.46
   0  -8   3   51.26    2.97
   0  -8   3   55.58    2.76
   0  -8   3   57.34    3.05
   0   8  -3   60.84    2.84
   0   8  -3   69.96    2.72
  -1  -8   3   22.65    1.56
  -1  -8   3   25.52    1.46
   1   8  -3   26.62    1.71
  -2  -8   3   15.81    1.14
   2   8  -3   15.93    1.35
  -3  -8   3    0.71    0.35
  -3  -8   3    0.94    0.38
   3   8  -3    0.95    0.59
  -4  -8   3    1.38    0.44
   4   8  -3    0.68    0.54
   5   8  -3   -0.39    0.81
   6   8  -3    2.54    1.44
   6  -8   4    0.84    1.18
   6  -8   4    0.89    0.79
  -6   8  -4    0.24    0.45
   5  -8   4    0.65    0.91
   5  -8   4    0.77    0.90
  -5   8  -4    1.90    0.59
   4  -8   4    3.07    1.01
   4  -8   4    5.23    1.57
  -4   8  -4    3.98    0.81
   3  -8   4    1.74    0.72
   3  -8   4    2.30    1.12
  -3   8  -4    2.33    0.65
  -3   8  -4    2.47    1.14
   2  -8   4    5.69    1.47
   2  -8   4    4.66    1.07
  -2   8  -4    5.56    0.92
   1  -8   4    4.27    0.96
   1  -8   4    4.40    0.76
   1  -8   4    4.00    1.17
  -1   8  -4    3.18    0.75
   0  -8   4   49.49    3.00
   0  -8   4   56.02    2.50
   0  -8   4   58.95    3.19
   0   8  -4   54.16    2.87
   0   8  -4   61.03    2.65
  -1  -8   4   28.89    2.05
  -1  -8   4   24.66    1.79
  -1  -8   4   24.91    1.51
   1   8  -4   31.09    1.99
  -2  -8   4    2.02    0.65
  -2  -8   4    1.09    0.44
   2   8  -4    2.64    0.79
   3   8  -4    1.57    0.64
   4   8  -4    1.68    0.74
   5   8  -4    1.94    1.12
   5   8  -4    2.66    0.95
   6   8  -4    1.05    1.06
   7   8  -4    1.07    1.18
   5  -8   5   -0.38    0.78
   5  -8   5    0.85    1.01
  -5   8  -5    0.50    0.48
   4  -8   5   -0.10    0.76
   4  -8   5   -0.73    0.63
  -4   8  -5    0.52    0.46
   3  -8   5    2.34    0.84
   3  -8   5    3.50    1.21
  -3   8  -5    2.85    0.79
   2  -8   5    2.98    1.27
   2  -8   5    3.67    1.09
  -2   8  -5    3.12    0.83
   1  -8   5    1.02    0.77
   1  -8   5    0.72    0.57
  -1   8  -5    0.25    0.51
  -1   8  -5    0.94    0.53
   0  -8   5    4.72    1.14
   0  -8   5    3.43    0.95
   0   8  -5    4.70    1.08
   0   8  -5    5.36    0.90
  -1  -8   5   18.72    1.62
  -1  -8   5   20.18    1.87
   1   8  -5   23.43    1.31
   1   8  -5   22.22    1.86
  -2  -8   5    0.94    0.50
  -2  -8   5    1.46    0.66
   2   8  -5    1.40    0.76
   3   8  -5   -0.23    0.54
   5   8  -5    0.55    1.03
   5   8  -5    2.00    0.94
   6   8  -5   -1.36    0.87
   5  -8   6    1.49    0.90
  -5   8  -6    0.60    0.54
   4  -8   6    0.68    0.79
   4  -8   6    1.22    0.88
  -4   8  -6    0.65    0.52
   3  -8   6    0.04    1.07
   3  -8   6   -0.48    0.66
  -3   8  -6    0.72    0.61
   2  -8   6    0.00    0.65
   2  -8   6    1.86    0.94
  -2   8  -6    1.84    0.75
  -2   8  -6    0.85    0.83
   1  -8   6    0.76    0.70
   1  -8   6    1.04    0.90
   0  -8   6   11.69    1.54
   0   8  -6   14.41    1.26
   0   8  -6   13.56    2.11
  -1  -8   6    5.04    1.23
   1   8  -6    5.90    0.73
  -2  -8   6    1.57    0.84
   2   8  -6    0.89    0.68
  -3  -8   6    3.70    1.11
   3   8  -6    5.25    1.26
   4   8  -6    3.67    1.03
   5   8  -6    2.54    1.35
   6   8  -6   -1.23    0.99
  -4   8  -7    0.69    0.56
   3  -8   7   -0.54    0.53
  -3   8  -7    0.54    0.65
   2  -8   7    3.08    0.91
  -2   8  -7    0.30    0.97
  -2   8  -7    2.96    0.97
   1  -8   7    0.16    0.72
  -1   8  -7    0.44    0.73
   0  -8   7    2.39    0.91
   0   8  -7    2.60    0.64
   0   8  -7    2.22    0.69
  -1  -8   7    3.46    1.03
   1   8  -7    5.17    0.84
   1   8  -7    4.29    1.19
  -2  -8   7    1.38    0.90
   2   8  -7    1.99    0.93
  -3  -8   7    1.04    0.67
   3   8  -7    1.55    0.74
  -4  -8   7    0.31    0.55
   4   8  -7    0.36    0.61
   4   8  -7    1.01    1.06
  -5  -8   7    0.57    0.69
   5   8  -7   -1.76    0.84
   3  -8   8    0.07    0.84
  -3   8  -8   -0.37    0.55
   2  -8   8    0.85    0.79
  -2   8  -8   -1.25    0.48
   1  -8   8   -1.49    0.54
  -1   8  -8    0.77    0.62
  -1   8  -8    0.66    0.83
   0  -8   8    0.69    0.84
   0   8  -8    2.46    0.86
  -1  -8   8    0.50    0.72
   1   8  -8    0.83    0.55
   1   8  -8    0.16    0.69
  -2  -8   8    2.79    0.96
   2   8  -8    1.74    0.78
  -3  -8   8   -0.79    0.70
   3   8  -8   -1.19    0.68
   3   8  -8   -0.34    0.65
  -4  -8   8    0.45    0.73
   4   8  -8   -0.50    1.08
   4   8  -8    1.87    1.02
   1  -8   9    0.48    1.06
   0  -8   9    0.59    0.78
   0   8  -9   -1.23    0.90
  -1  -8   9    0.51    1.14
   1   8  -9    0.15    0.94
   1   8  -9    0.24    0.77
  -2  -8   9    0.23    0.77
   2   8  -9   -1.12    0.81
   2   8  -9    2.86    0.91
   2  -9  -8    0.64    0.55
  -2   9   8    1.36    1.02
   1  -9  -8    0.67    0.65
  -1   9   8    0.89    0.85
   0   9   8   -0.20    0.56
   1   9   8    1.01    0.79
   2   9   8   -0.35    0.29
   5  -9  -7    3.45    0.98
   4  -9  -7    1.55    0.84
   2  -9  -7    0.32    0.34
  -2   9   7   -0.46    0.63
   1  -9  -7    2.36    0.60
  -1   9   7    1.91    0.68
   0   9   7    2.04    0.64
   1   9   7    2.39    0.63
   2   9   7    0.79    0.27
   2   9   7    0.92    0.36
   2   9   7    1.45    0.75
   3   9   7   -0.49    0.63
   5  -9  -6   -0.74    0.62
   4  -9  -6    2.10    0.85
   2  -9  -6    1.63    0.45
   1  -9  -6    4.11    0.76
  -1   9   6    1.83    0.79
   0  -9  -6    2.24    0.75
   0   9   6    1.51    0.63
   1   9   6    3.84    0.58
   1   9   6    3.22    0.68
   2   9   6    5.00    0.41
   3   9   6    5.08    1.28
   4   9   6   -0.16    0.85
   6  -9  -5    1.10    0.74
  -6   9   5    0.72    0.90
   5  -9  -5    1.21    0.70
   4  -9  -5    5.48    1.30
   3  -9  -5    0.36    0.57
   2  -9  -5    1.39    0.38
  -2   9   5    1.58    0.75
   1  -9  -5    2.04    0.65
   0  -9  -5   18.80    1.57
   0   9   5   16.40    1.10
  -1  -9  -5    3.84    0.97
   1   9   5    4.45    0.65
   1   9   5    4.67    0.50
   2   9   5    9.39    0.53
   2   9   5    8.43    0.65
   4   9   5    6.63    1.59
   5   9   5   -1.23    0.84
   6  -9  -4    1.25    0.77
  -6   9   4    0.45    0.55
   5  -9  -4    1.30    0.83
  -5   9   4    0.51    0.48
   4  -9  -4    1.07    0.72
  -4   9   4    0.49    0.46
   3  -9  -4    4.62    0.96
  -3   9   4    5.09    0.84
   2  -9  -4    0.87    0.33
  -2   9   4    0.88    0.42
  -2   9   4    1.34    0.76
   1  -9  -4   22.48    1.48
  -1   9   4   21.17    1.30
   0  -9  -4   29.06    1.96
   0   9   4   32.38    1.55
  -1  -9  -4   18.11    1.59
   1   9   4   18.57    0.96
   2   9   4   12.73    0.63
   2   9   4   11.86    0.79
   4   9   4    1.19    0.95
   5   9   4    1.88    1.08
   6   9   4   -0.52    0.94
   7  -9  -3    0.87    1.00
  -7   9   3    1.57    0.63
   6  -9  -3    0.09    0.81
  -6   9   3    0.97    0.54
   5  -9  -3    1.94    1.48
  -5   9   3    3.01    0.69
   4  -9  -3    2.25    0.87
  -4   9   3    2.52    0.82
   3  -9  -3    2.44    0.84
  -3   9   3    2.58    0.64
   2  -9  -3    0.59    0.29
  -2   9   3    0.89    0.48
   1  -9  -3   13.69    1.05
  -1   9   3   11.83    0.89
   0  -9  -3   50.11    2.55
   0   9   3   53.16    2.24
  -1  -9  -3   10.80    1.36
   1   9   3    9.21    0.62
  -2  -9  -3   34.98    2.38
   2   9   3   39.10    1.51
   5   9   3    1.43    1.13
   6   9   3   -1.86    0.88
   7  -9  -2    1.98    0.98
  -7   9   2    0.40    0.42
   6  -9  -2    0.72    0.82
  -6   9   2   -0.16    0.47
  -5   9   2    0.15    0.36
   4  -9  -2   -0.16    0.55
  -4   9   2    0.56    0.42
   3  -9  -2    2.67    0.86
   3  -9  -2    3.32    0.46
  -3   9   2    3.61    0.67
   2  -9  -2    4.72    0.93
  -2   9   2    5.12    0.68
  -1   9   2   20.40    1.16
   0   9   2   63.62    2.52
   1   9   2   19.77    0.99
   2   9   2   11.68    0.71
   3   9   2   26.98    1.14
   5   9   2    0.06    1.10
   6   9   2   -0.14    0.92
   7  -9  -1    2.86    1.16
  -7   9   1    2.37    0.63
   6  -9  -1    1.37    0.86
  -6   9   1    1.04    0.46
   5  -9  -1    2.95    1.17
   5  -9  -1    2.29    0.51
  -5   9   1    2.85    0.64
   4  -9  -1    1.08    0.81
   4  -9  -1    1.04    0.36
  -4   9   1    0.81    0.38
   3  -9  -1    2.75    0.59
   3  -9  -1    3.33    1.02
  -3   9   1    2.95    0.59
   2  -9  -1    3.97    0.87
   2  -9  -1    3.44    0.61
  -2   9   1    4.06    0.62
   1  -9  -1    1.26    0.56
  -1   9   1    1.56    0.41
   0   9   1   11.74    0.93
  -1  -9  -1    2.82    0.44
   1   9   1    3.07    0.47
  -2  -9  -1    4.44    0.44
   2   9   1    4.15    0.55
  -3  -9  -1   16.39    0.79
   3   9   1   16.03    1.00
  -4  -9  -1    2.48    0.25
   5   9   1    0.59    1.04
   6   9   1    1.35    1.09
   7  -9   0    3.75    1.24
  -7   9   0    1.64    0.56
   6  -9   0    1.40    0.60
   6  -9   0    0.67    0.74
  -6   9   0    1.78    0.60
   5  -9   0    0.98    0.96
  -5   9   0    0.90    0.43
   4  -9   0    2.83    1.00
   4  -9   0    1.95    0.62
  -4   9   0    1.64    0.47
   3  -9   0    5.11    0.83
   3  -9   0    4.70    1.20
  -3   9   0    5.21    0.73
   2  -9   0   12.24    1.10
   2  -9   0   11.77    1.28
  -2   9   0   12.71    0.92
   1  -9   0   16.21    1.31
   1  -9   0   15.51    1.04
  -1   9   0   15.42    0.99
   0  -9   0    3.06    0.69
   0  -9   0    2.47    0.42
   0   9   0    1.87    0.42
  -1  -9   0   13.27    0.81
   1   9   0   14.49    0.93
  -2  -9   0   12.51    0.74
   2   9   0   11.90    0.92
  -3  -9   0    5.39    0.46
   3   9   0    5.22    0.74
  -4  -9   0    1.56    0.26
   4   9   0    2.00    0.46
  -5  -9   0    0.62    0.19
   5   9   0   -0.34    0.62
   6   9   0    1.06    1.07
   7  -9   1    0.96    0.69
  -7   9  -1    1.60    0.52
   6  -9   1    1.40    0.76
   6  -9   1    2.32    1.21
  -6   9  -1    2.50    0.59
   5  -9   1    1.31    0.66
   5  -9   1    0.28    0.59
  -5   9  -1    1.71    0.52
   4  -9   1    2.77    0.81
   4  -9   1    3.70    1.23
  -4   9  -1    2.64    0.59
   3  -9   1   14.98    1.74
   3  -9   1   16.21    1.47
  -3   9  -1   16.42    1.12
   2  -9   1    3.40    1.03
   2  -9   1    3.95    0.60
   2  -9   1    4.11    0.81
  -2   9  -1    3.54    0.60
   1  -9   1    2.59    0.48
   1  -9   1    2.65    0.82
  -1   9  -1    2.43    0.53
   0  -9   1   11.43    1.11
   0  -9   1   11.37    0.79
   0   9  -1   11.22    0.88
  -1  -9   1    1.42    0.34
  -1  -9   1    1.51    0.54
   1   9  -1    0.72    0.39
  -2  -9   1    3.35    0.47
   2   9  -1    4.26    1.21
  -3  -9   1    3.06    0.45
   3   9  -1    3.23    0.88
  -4  -9   1    0.98    0.29
   4   9  -1    0.97    0.66
  -5  -9   1    2.84    0.42
   5   9  -1    2.17    1.16
  -6  -9   1    2.04    0.34
  -6  -9   1    3.05    0.85
   6   9  -1    0.08    0.68
   7   9  -1    4.28    1.91
   6  -9   2    1.10    0.93
   6  -9   2    0.41    0.71
  -6   9  -2    1.04    0.50
   5  -9   2    0.68    0.88
   5  -9   2    0.75    0.57
  -5   9  -2    0.03    0.34
   4  -9   2    9.58    1.42
   4  -9   2    8.06    1.87
  -4   9  -2    8.09    0.90
   3  -9   2   27.18    2.41
   3  -9   2   29.96    2.15
  -3   9  -2   28.79    1.66
   2  -9   2   10.52    1.51
   2  -9   2   12.22    1.31
   2  -9   2   13.00    0.95
  -2   9  -2   12.18    1.01
  -2   9  -2   13.48    1.26
   1  -9   2   16.34    1.61
   1  -9   2   17.53    1.08
   1  -9   2   18.74    1.50
  -1   9  -2   19.24    1.26
   0  -9   2   56.71    2.98
   0  -9   2   66.13    2.66
   0   9  -2   61.65    2.80
  -1  -9   2   19.24    1.14
  -1  -9   2   20.66    1.43
   1   9  -2   22.52    1.46
  -2  -9   2    4.85    0.63
  -2  -9   2    5.93    0.83
   2   9  -2    5.18    0.87
  -3  -9   2    3.97    0.60
   3   9  -2    4.19    0.86
  -4  -9   2    0.79    0.37
   4   9  -2    0.61    0.52
  -5  -9   2    0.25    0.27
  -5  -9   2    0.80    0.49
   5   9  -2   -0.04    0.77
  -6  -9   2    0.43    0.39
   6   9  -2   -1.07    0.71
   7   9  -2    0.89    1.04
   6  -9   3   -0.43    0.68
   6  -9   3    0.78    0.93
  -6   9  -3    0.62    0.49
   5  -9   3    3.05    0.99
   5  -9   3    2.39    1.14
  -5   9  -3    2.14    0.68
   4  -9   3    7.16    1.71
   4  -9   3    8.36    1.43
   3  -9   3   14.17    1.87
   3  -9   3   17.91    1.80
  -3   9  -3   17.41    1.29
   2  -9   3   40.50    2.95
   2  -9   3   44.42    2.77
  -2   9  -3   50.08    2.98
  -2   9  -3   40.95    2.24
   1  -9   3    8.04    1.22
   1  -9   3    9.60    1.59
   1  -9   3    9.41    0.77
  -1   9  -3   10.20    0.99
  -1   9  -3   10.73    1.19
   0  -9   3   49.88    2.89
   0  -9   3   55.68    2.99
   0  -9   3   55.91    2.38
   0   9  -3   54.74    2.71
  -1  -9   3   11.53    1.17
  -1  -9   3   13.47    0.97
   1   9  -3   12.84    1.19
  -2  -9   3    0.48    0.30
  -2  -9   3    0.76    0.49
   2   9  -3    0.33    0.51
  -3  -9   3    3.15    0.61
  -3  -9   3    2.17    0.51
   3   9  -3    1.14    0.61
  -4  -9   3    2.87    0.62
  -4  -9   3    3.17    0.48
   4   9  -3    1.78    0.68
   5   9  -3    2.23    1.32
   5   9  -3    1.63    0.81
   6   9  -3    1.14    0.98
   7   9  -3    2.02    1.44
   6  -9   4   -0.37    0.79
   6  -9   4    0.84    1.10
  -6   9  -4    2.41    0.61
   5  -9   4    2.30    1.33
   5  -9   4    1.39    0.95
  -5   9  -4    2.99    0.69
   4  -9   4    1.10    0.89
   4  -9   4    1.27    0.96
  -4   9  -4    2.33    0.67
   3  -9   4   20.73    1.97
   3  -9   4   15.71    2.09
  -3   9  -4   21.86    1.55
   2  -9   4   12.91    1.58
   2  -9   4   13.59    1.72
  -2   9  -4   13.30    1.27
   1  -9   4   16.07    1.80
   1  -9   4   18.52    1.76
  -1   9  -4   18.83    1.47
  -1   9  -4   18.46    1.51
   0  -9   4   32.58    2.37
   0  -9   4   27.43    2.16
   0   9  -4   39.76    1.94
   0   9  -4   30.67    2.11
  -1  -9   4   17.66    1.54
  -1  -9   4   20.60    1.76
   1   9  -4   20.43    1.63
  -2  -9   4    1.64    0.62
   2   9  -4    2.40    0.73
  -3  -9   4    4.89    0.54
   3   9  -4    3.95    0.90
   4   9  -4    0.13    0.58
   5   9  -4    0.35    1.00
   5   9  -4    1.14    0.78
   6   9  -4    1.80    1.24
   5  -9   5    1.96    0.96
   5  -9   5    2.09    1.20
  -5   9  -5    2.58    0.62
   4  -9   5    7.64    1.56
   4  -9   5    8.91    2.11
  -4   9  -5    6.96    1.21
   3  -9   5    4.84    1.52
   3  -9   5    3.75    1.06
  -3   9  -5    4.67    0.93
   2  -9   5    9.96    1.86
   1  -9   5    3.69    1.15
   1  -9   5    4.92    1.14
  -1   9  -5    7.52    1.82
  -1   9  -5    5.07    1.01
   0  -9   5   16.99    1.85
   0  -9   5   16.19    1.67
   0   9  -5   18.62    1.54
   0   9  -5   16.46    1.55
  -1  -9   5    2.02    0.85
   1   9  -5    2.58    0.83
  -2  -9   5    1.93    0.67
  -2  -9   5    1.33    0.79
   2   9  -5    3.45    0.84
   3   9  -5    0.37    0.77
   4   9  -5    3.78    1.20
   5   9  -5    0.66    1.08
   5   9  -5    0.82    0.85
   6   9  -5   -0.36    0.92
   4  -9   6    0.30    0.84
   4  -9   6   -0.75    0.66
  -4   9  -6    1.43    0.72
   3  -9   6    4.24    1.13
   3  -9   6    2.63    1.37
  -3   9  -6    6.50    1.18
   2  -9   6    5.35    1.29
   2  -9   6    3.41    1.35
  -2   9  -6    4.86    1.09
   1  -9   6    3.66    1.20
   1  -9   6    4.53    1.24
  -1   9  -6    3.13    0.94
   0  -9   6    1.52    0.86
   0  -9   6    1.90    0.84
   0   9  -6    2.93    0.95
   0   9  -6    0.88    0.52
  -1  -9   6    2.73    0.97
  -1  -9   6    3.11    1.09
   1   9  -6    3.56    0.94
  -2  -9   6    0.82    0.65
   2   9  -6    2.38    0.90
  -3  -9   6    1.24    0.84
   3   9  -6    1.02    0.70
   4   9  -6    2.56    1.37
   4   9  -6    1.05    0.66
   5   9  -6    1.30    0.77
   5   9  -6   -0.20    0.84
   3  -9   7   -0.38    0.75
  -3   9  -7    0.61    0.57
   2  -9   7    1.40    0.77
  -2   9  -7    0.12    0.58
   1  -9   7    1.98    1.03
  -1   9  -7    1.65    0.73
   0  -9   7    2.23    0.83
   0   9  -7    2.89    0.86
  -1  -9   7    2.26    1.08
   1   9  -7    2.34    1.00
   1   9  -7    1.37    0.62
  -2  -9   7   -0.41    0.61
   2   9  -7    0.89    0.67
  -3  -9   7   -0.13    0.71
   3   9  -7    1.09    0.76
  -4  -9   7   -0.78    0.58
   4   9  -7    1.55    1.14
   4   9  -7    1.42    0.96
  -5  -9   7   -0.47    0.59
   5   9  -7    0.86    1.28
   2  -9   8   -1.12    0.62
  -2   9  -8    0.04    0.58
   1  -9   8    0.75    0.89
  -1   9  -8    0.59    0.79
   0  -9   8   -0.57    0.82
   0   9  -8    0.22    0.69
  -1  -9   8    0.13    0.75
   1   9  -8   -0.13    0.55
   1   9  -8    2.96    1.03
  -2  -9   8    2.39    1.04
   2   9  -8    4.05    1.16
  -3  -9   8    0.64    0.70
   3   9  -8    0.53    1.10
   1  10   8   -0.39    0.38
   1  10   8   -1.23    0.54
   4 -10  -7    0.83    0.77
   2 -10  -7    3.57    0.56
  -2  10   7    4.28    1.21
   1 -10  -7    0.09    0.50
  -1  10   7    0.22    0.76
   0  10   7    0.52    0.73
   0  10   7    1.07    0.44
   1  10   7    3.63    0.56
   2  10   7    1.90    0.80
   2  10   7    2.90    0.53
   2  10   7    1.76    0.33
   3  10   7    0.35    0.81
   5 -10  -6    2.71    1.01
   4 -10  -6    0.99    0.73
  -2  10   6    1.37    0.81
   1 -10  -6    8.16    1.16
   0 -10  -6    3.66    0.94
   0  10   6    1.83    0.74
   0  10   6    4.22    0.66
   1  10   6    0.86    0.35
   1  10   6    0.59    0.50
   2  10   6    0.00    0.18
   3  10   6    1.87    1.01
   4  10   6   -0.09    0.97
   6 -10  -5    1.58    0.87
  -6  10   5   -0.05    0.52
   5 -10  -5    0.59    0.72
  -5  10   5    0.89    0.61
   4 -10  -5   -0.29    0.60
  -4  10   5    0.62    0.43
   3 -10  -5    7.54    1.28
  -3  10   5    6.25    0.99
   2 -10  -5    3.42    0.57
  -2  10   5    2.83    0.90
  -2  10   5    3.05    0.67
   1 -10  -5    1.02    0.53
  -1  10   5    1.54    0.48
   0  10   5    7.87    0.75
   1  10   5   13.24    1.12
   1  10   5   14.31    0.89
   2  10   5   19.58    1.19
   2  10   5   20.72    0.92
   4  10   5    0.63    0.84
   5  10   5    0.30    1.06
   6 -10  -4    2.62    1.06
  -6  10   4    2.42    0.98
   5 -10  -4    2.80    1.00
  -5  10   4    2.98    0.74
   4 -10  -4    9.13    1.29
  -4  10   4    8.33    1.19
   3 -10  -4    2.77    0.85
  -3  10   4    1.48    0.57
   2 -10  -4    5.03    0.66
  -2  10   4    6.55    0.91
   1 -10  -4    9.86    1.02
  -1  10   4   11.96    0.94
   0 -10  -4   21.61    1.69
   0  10   4   24.26    1.28
  -1 -10  -4    8.93    1.30
   1  10   4    8.68    0.63
   2  10   4    5.09    0.41
   2  10   4    4.61    0.62
   4  10   4    0.17    0.82
   5  10   4    0.67    1.04
   6 -10  -3    3.44    1.14
  -6  10   3    2.51    0.67
   5 -10  -3    1.08    0.84
  -5  10   3    0.17    0.34
   4 -10  -3    1.13    1.09
  -4  10   3    1.17    0.52
   3 -10  -3   10.74    1.26
  -3  10   3   11.22    1.02
   2 -10  -3    0.86    0.57
   2 -10  -3    0.86    0.33
  -2  10   3    0.98    0.39
   1 -10  -3    8.14    0.89
  -1  10   3    8.40    0.77
   0 -10  -3   28.65    1.87
   0  10   3   32.21    1.51
  -1 -10  -3   29.93    2.01
   1  10   3   32.11    1.41
   2  10   3   17.48    0.90
   5  10   3    4.42    1.58
   6  10   3    0.32    1.00
   6 -10  -2    2.50    1.04
  -6  10   2    0.51    0.44
   5 -10  -2    4.88    1.31
  -5  10   2    4.11    0.77
   4 -10  -2   10.87    0.60
   4 -10  -2   10.43    1.48
  -4  10   2   11.81    1.04
   3 -10  -2    1.41    0.37
   3 -10  -2    1.40    0.72
  -3  10   2    1.46    0.48
   2 -10  -2    7.56    1.07
  -2  10   2    7.13    0.76
  -1  10   2   -0.35    0.27
   0  10   2   30.05    1.45
   1  10   2   47.77    1.98
   2  10   2    9.62    0.69
   3  10   2   12.57    0.75
   5  10   2    2.14    1.25
   6  10   2    0.29    0.97
   7 -10  -1    1.08    0.83
  -7  10   1    1.35    0.56
   6 -10  -1    2.00    1.03
  -6  10   1    0.58    0.48
   5 -10  -1    0.88    0.71
   5 -10  -1    0.10    0.33
  -5  10   1    0.35    0.37
   4 -10  -1    9.09    1.62
   4 -10  -1    9.31    0.91
  -4  10   1    9.36    1.60
   3 -10  -1    1.26    0.74
   3 -10  -1    1.36    0.49
  -3  10   1    0.61    0.35
   2 -10  -1    5.64    1.08
   2 -10  -1    4.05    0.67
  -2  10   1    4.80    0.68
   1 -10  -1    9.49    1.05
  -1  10   1    8.25    0.73
   0  10   1   56.88    2.36
  -1 -10  -1    4.42    0.58
   1  10   1    4.14    0.57
  -2 -10  -1    3.68    0.49
   2  10   1    3.32    0.52
  -3 -10  -1    4.44    0.42
   3  10   1    4.10    0.59
  -4 -10  -1   17.94    0.81
   4  10   1   16.89    0.97
   5  10   1    6.71    1.84
   6  10   1   -0.88    0.65
   6 -10   0    1.97    0.67
   6 -10   0    2.20    1.20
  -6  10   0    2.49    0.63
   5 -10   0    7.72    1.10
   5 -10   0    8.60    1.85
  -5  10   0    7.29    0.98
   4 -10   0   14.09    1.80
   4 -10   0   15.40    2.27
  -4  10   0   13.36    1.14
   3 -10   0    2.98    0.69
   3 -10   0    2.17    0.88
  -3  10   0    2.45    0.54
   2 -10   0    0.01    0.56
   2 -10   0   -0.13    0.32
  -2  10   0    0.73    0.38
   1 -10   0   48.29    2.21
   1 -10   0   42.94    2.45
  -1  10   0   50.10    2.16
   0 -10   0    0.26    0.33
   0 -10   0    0.20    0.46
   0  10   0    0.38    0.30
  -1 -10   0   46.21    2.00
   1  10   0   48.60    2.17
  -2 -10   0    0.73    0.28
   2  10   0    0.00    0.32
  -3 -10   0    3.08    0.41
   3  10   0    3.47    0.64
  -4 -10   0   12.44    0.72
   4  10   0   13.68    1.02
  -5 -10   0    7.32    0.50
  -6 -10   0    1.33    0.27
   6  10   0    1.95    0.99
   6 -10   1    0.70    0.55
   6 -10   1    1.75    1.04
  -6  10  -1    0.73    0.42
   5 -10   1    4.79    1.02
   5 -10   1   10.86    2.23
  -5  10  -1    5.92    0.90
   4 -10   1   16.55    1.60
   4 -10   1   15.05    2.07
   3 -10   1    6.14    1.43
   3 -10   1    5.79    1.01
  -3  10  -1    5.19    0.74
   2 -10   1    2.71    1.00
   2 -10   1    3.37    0.79
  -2  10  -1    2.92    0.58
   1 -10   1    3.52    0.95
   1 -10   1    4.00    0.62
  -1  10  -1    3.91    0.68
   0 -10   1   59.83    2.88
   0  10  -1   58.46    2.64
  -1 -10   1    9.52    0.99
  -1 -10   1    8.33    0.68
   1  10  -1    8.00    0.84
  -2 -10   1    4.43    0.55
   2  10  -1    3.33    0.69
  -3 -10   1    0.97    0.30
   3  10  -1    0.38    0.40
  -4 -10   1    9.12    0.68
   4  10  -1    9.57    1.00
  -5 -10   1    0.62    0.28
  -6 -10   1    1.69    0.33
   6  10  -1    0.75    0.87
   7  10  -1   -0.94    0.83
   6 -10   2    3.07    1.36
   6 -10   2    1.82    0.85
  -6  10  -2    2.34    0.68
   5 -10   2    2.35    1.37
   5 -10   2    3.71    0.98
  -5  10  -2    1.70    0.60
   4 -10   2    1.87    0.76
   4 -10   2    1.83    1.10
  -4  10  -2    1.63    0.54
   3 -10   2   10.23    1.83
   3 -10   2   11.35    1.36
  -3  10  -2   12.40    1.05
   2 -10   2    9.79    1.74
   2 -10   2    9.48    1.33
  -2  10  -2   10.55    1.00
   1 -10   2   49.00    2.90
   1 -10   2   49.11    2.20
   1 -10   2   45.36    2.66
  -1  10  -2   47.73    2.37
   0 -10   2   29.26    1.51
   0 -10   2   29.04    1.98
   0  10  -2   30.08    1.77
  -1 -10   2   -0.29    0.23
  -1 -10   2    0.48    0.55
   1  10  -2    0.68    0.45
  -2 -10   2    9.09    0.93
  -2 -10   2    6.70    0.66
   2  10  -2    6.41    1.00
  -3 -10   2    1.78    0.52
  -3 -10   2    1.18    0.33
   3  10  -2    0.78    0.51
  -4 -10   2   11.81    0.89
   4  10  -2   12.05    1.25
  -5 -10   2    5.85    0.64
  -5 -10   2    4.69    0.89
   5  10  -2    5.25    0.96
  -6 -10   2    2.10    0.50
  -6 -10   2    1.66    0.57
   6  10  -2    0.16    1.05
   6 -10   3   -0.65    0.82
   6 -10   3    1.06    1.12
  -6  10  -3   -0.11    0.37
   5 -10   3    5.29    1.63
   5 -10   3    3.67    1.08
  -5  10  -3    4.68    0.89
   4 -10   3    3.98    1.45
   4 -10   3    3.91    1.14
  -4  10  -3    4.33    0.80
   3 -10   3   11.21    2.06
   3 -10   3   10.04    1.57
  -3  10  -3    9.34    1.04
   2 -10   3   16.49    1.67
   2 -10   3   13.56    1.72
  -2  10  -3   17.18    1.32
   1 -10   3   32.32    2.26
   1 -10   3   30.83    2.38
  -1  10  -3   32.72    1.95
   0 -10   3   29.86    2.16
   0 -10   3   32.42    2.23
   0  10  -3   31.49    1.98
  -1 -10   3    8.30    1.13
  -1 -10   3    7.73    0.76
   1  10  -3    7.58    1.11
  -2 -10   3    1.02    0.31
  -2 -10   3    0.53    0.44
   2  10  -3    1.35    0.56
  -3 -10   3   11.42    0.97
   3  10  -3   11.79    1.28
  -4 -10   3    1.28    0.42
   4  10  -3    1.25    0.76
   5  10  -3    0.60    0.57
   6  10  -3    2.48    1.55
   5 -10   4   -0.09    0.76
   5 -10   4    2.61    1.24
  -5  10  -4    1.12    0.50
   4 -10   4    0.47    0.61
   4 -10   4    1.79    1.11
  -4  10  -4    1.37    0.57
   3 -10   4   16.10    1.89
   3 -10   4   10.88    2.08
  -3  10  -4   15.74    1.41
   2 -10   4    4.81    1.14
   2 -10   4    5.14    1.39
  -2  10  -4    6.24    1.01
   1 -10   4    8.00    1.40
   1 -10   4   11.35    1.50
  -1  10  -4    8.92    1.22
  -1  10  -4   10.70    1.13
   0 -10   4   23.31    1.92
   0 -10   4   18.63    1.76
   0  10  -4   22.09    1.70
  -1 -10   4   12.19    1.45
  -1 -10   4   10.83    1.26
   1  10  -4   11.41    1.48
  -2 -10   4    5.49    0.90
   2  10  -4    5.30    1.09
  -3 -10   4    2.62    0.57
   3  10  -4    1.02    0.62
   4  10  -4    5.51    1.06
   5  10  -4    1.65    0.76
   5  10  -4    2.92    1.52
   6  10  -4    0.83    1.14
   5 -10   5    0.97    0.98
   5 -10   5   -0.52    0.76
  -5  10  -5    2.31    0.69
   4 -10   5    1.20    0.81
   4 -10   5    0.56    0.82
  -4  10  -5    1.38    0.65
   3 -10   5    1.14    0.93
   3 -10   5    0.76    0.82
  -3  10  -5    2.55    0.80
   2 -10   5   15.79    2.68
   2 -10   5   21.21    2.12
  -2  10  -5   23.28    1.80
   1 -10   5   12.33    1.65
   1 -10   5   12.10    1.80
  -1  10  -5   13.86    1.43
   0 -10   5    7.07    1.44
   0  10  -5    8.58    1.01
   0  10  -5    7.73    1.99
  -1 -10   5    1.30    1.01
  -1 -10   5    2.78    0.91
  -2 -10   5    3.01    0.89
  -2 -10   5    3.94    0.83
   2  10  -5    4.27    1.11
   3  10  -5    7.23    1.36
   4  10  -5    0.14    0.48
   5  10  -5    0.81    0.60
   5  10  -5   -0.61    0.87
   4 -10   6    0.49    0.89
   4 -10   6    0.70    0.80
  -4  10  -6    0.11    0.50
   3 -10   6    3.73    1.31
   3 -10   6    3.03    1.10
  -3  10  -6    5.01    1.04
   2 -10   6    0.22    0.71
   2 -10   6    2.18    0.94
  -2  10  -6    0.45    0.60
   1 -10   6    2.04    0.84
   1 -10   6    0.69    0.68
  -1  10  -6    0.77    0.62
   0 -10   6    3.98    1.15
   0 -10   6    4.90    1.30
   0  10  -6    4.50    0.99
   0  10  -6    5.69    1.18
  -1 -10   6    8.29    1.59
  -1 -10   6   10.03    1.58
   1  10  -6   12.11    1.80
  -2 -10   6    1.27    0.80
   2  10  -6    1.98    0.91
  -3 -10   6   -0.22    0.58
   3  10  -6    0.75    0.63
   4  10  -6    2.17    0.78
   5  10  -6    1.20    1.12
   5  10  -6    2.73    0.94
  -3  10  -7    0.67    0.52
   2 -10   7    3.15    1.27
   2 -10   7   -0.11    0.90
  -2  10  -7    1.64    0.77
   1 -10   7    4.45    1.25
  -1  10  -7    1.87    0.77
   0 -10   7    0.69    0.67
   0  10  -7    0.96    0.80
  -1 -10   7    0.19    0.69
   1  10  -7   -0.55    0.49
  -2 -10   7    3.67    1.10
   2  10  -7    4.98    1.27
  -3 -10   7    1.50    0.92
   3  10  -7    1.28    0.91
  -4 -10   7    1.61    0.80
   4  10  -7   -0.18    1.07
   4  10  -7   -0.32    0.81
   1 -10   8    0.55    0.67
   0 -10   8    1.80    0.76
   0  10  -8    1.38    0.71
  -1 -10   8    2.64    1.02
   1  10  -8    0.08    0.57
  -2 -10   8   -0.61    0.68
   2  10  -8    1.15    0.85
   3  10  -8    1.67    0.94
  -1  11   8    0.44    0.53
   4 -11  -7   -0.82    0.61
  -4  11   7    0.46    0.57
   2 -11  -7   -0.08    0.45
  -2  11   7    1.35    0.57
   1 -11  -7   -0.51    0.82
  -1  11   7    0.05    0.91
  -1  11   7    1.03    0.47
   0  11   7    0.24    0.43
   1  11   7    2.40    0.84
   1  11   7    3.33    0.53
   2  11   7    2.31    0.35
   5 -11  -6    0.34    0.72
  -5  11   6    0.64    0.62
   4 -11  -6    2.23    0.87
  -4  11   6    1.40    0.64
   3 -11  -6   -0.25    0.60
  -3  11   6    0.31    0.53
  -2  11   6    1.09    0.54
   1 -11  -6    6.05    1.02
  -1  11   6    4.74    0.80
   0 -11  -6    1.70    0.94
   0  11   6    0.55    0.81
   0  11   6    2.80    0.57
   1  11   6    3.34    0.51
   1  11   6    2.29    0.66
   2  11   6    8.70    0.73
   2  11   6    7.14    0.52
   3  11   6    0.36    0.87
   4  11   6    5.74    2.48
   5 -11  -5    0.90    0.76
  -5  11   5    0.79    0.46
   4 -11  -5    0.61    0.72
  -4  11   5    0.11    0.48
   3 -11  -5    3.26    1.01
  -3  11   5    3.05    0.74
  -2  11   5    1.12    0.53
   1 -11  -5    0.88    0.57
  -1  11   5    0.18    0.33
   0 -11  -5    3.71    0.89
   0  11   5    4.15    0.60
   1  11   5    9.66    0.72
   2  11   5   12.99    0.71
   2  11   5   11.53    0.90
   4  11   5    0.97    0.96
   6 -11  -4    1.85    1.07
  -6  11   4   -0.21    0.52
   5 -11  -4    0.49    0.70
  -5  11   4   -0.57    0.42
   4 -11  -4    1.88    0.83
  -4  11   4    3.72    0.88
   3 -11  -4    0.31    0.63
  -3  11   4    0.32    0.51
   2 -11  -4    7.92    1.12
  -2  11   4    9.30    0.93
   1 -11  -4    3.74    0.72
  -1  11   4    4.81    0.69
   0  11   4    0.83    0.33
   1  11   4   26.63    1.30
   2  11   4   13.69    0.78
   5  11   4   -0.56    0.89
   6 -11  -3    1.24    0.79
   5 -11  -3    0.69    0.74
  -5  11   3    1.89    0.65
   4 -11  -3    0.17    0.47
  -4  11   3   -0.06    0.38
   3 -11  -3   26.96    1.23
   3 -11  -3   28.48    1.26
  -3  11   3   30.65    2.47
   2 -11  -3    1.80    0.44
   2 -11  -3    1.91    0.76
  -2  11   3    1.30    0.43
   1 -11  -3   13.69    1.19
  -1  11   3   14.44    1.00
   0 -11  -3   18.66    1.52
   0  11   3   20.11    1.14
  -1 -11  -3   33.50    2.21
   1  11   3   34.93    1.56
   2  11   3   41.45    1.77
   5  11   3    4.52    1.69
   6 -11  -2    1.88    0.84
  -6  11   2   -0.43    0.37
   5 -11  -2    1.29    0.78
  -5  11   2    0.28    0.40
   4 -11  -2    1.14    0.65
   4 -11  -2    0.05    0.21
  -4  11   2    0.05    0.35
   3 -11  -2    1.49    0.81
   3 -11  -2    1.47    0.39
  -3  11   2    1.43    0.47
   2 -11  -2   19.76    1.60
  -2  11   2   18.35    1.21
  -1  11   2    8.38    0.75
   0  11   2    9.90    0.78
   1  11   2   92.14    3.50
   2  11   2   14.80    0.94
   3  11   2    0.33    0.26
   5  11   2    0.93    1.07
   6  11   2   -0.77    0.87
   6 -11  -1    1.34    0.81
  -6  11   1    0.37    0.51
   5 -11  -1    7.87    1.68
   5 -11  -1    5.50    0.73
  -5  11   1    6.70    1.00
   4 -11  -1    2.89    1.03
   4 -11  -1    4.00    0.68
  -4  11   1    2.83    0.65
   3 -11  -1   18.54    1.36
   3 -11  -1   20.66    1.88
  -3  11   1   17.08    1.22
   2 -11  -1   10.54    1.56
   2 -11  -1    7.24    0.83
  -2  11   1    5.76    0.78
   1 -11  -1   44.73    2.40
  -1  11   1   38.34    1.92
   0  11   1   49.33    2.19
  -1 -11  -1  108.04    4.16
   1  11   1  114.00    4.22
  -2 -11  -1   29.62    1.44
   2  11   1   30.95    1.58
  -3 -11  -1    4.77    0.47
   3  11   1    5.31    0.70
   4  11   1    5.61    0.62
   6  11   1   -0.17    1.04
   6 -11   0    0.32    0.86
   6 -11   0   -0.44    0.49
  -6  11   0    0.16    0.44
   5 -11   0    2.12    0.66
   5 -11   0    2.85    1.14
  -5  11   0    2.93    0.67
   4 -11   0   -0.36    0.41
   4 -11   0    0.24    0.69
  -4  11   0   -0.33    0.22
   3 -11   0    2.06    0.87
   3 -11   0    1.69    0.67
  -3  11   0    2.16    0.51
   2 -11   0   21.96    1.58
   2 -11   0   22.47    1.88
  -2  11   0   22.42    1.36
   1 -11   0   54.90    2.93
   1 -11   0   55.06    2.54
  -1  11   0   57.74    2.53
   0 -11   0   70.22    2.98
   0 -11   0   73.67    3.33
   0  11   0   73.32    3.04
  -1 -11   0   53.00    2.30
   1  11   0   56.32    2.49
  -2 -11   0   23.10    1.18
   2  11   0   22.28    1.41
  -3 -11   0    2.04    0.36
   3  11   0    2.49    0.84
  -4 -11   0    0.11    0.19
   4  11   0    0.51    0.42
  -5 -11   0    3.39    0.42
   6  11   0    0.02    1.03
   6 -11   1    1.98    1.02
   6 -11   1   -0.40    0.69
  -6  11  -1    0.33    0.49
   5 -11   1    3.38    0.93
   5 -11   1    3.05    1.30
  -5  11  -1    3.01    0.66
   4 -11   1    6.23    1.18
   4 -11   1    6.80    1.65
  -4  11  -1    7.56    0.85
   3 -11   1    5.62    1.39
   3 -11   1    5.07    1.01
  -3  11  -1    3.98    0.74
   2 -11   1   29.14    1.99
   2 -11   1   27.50    2.20
  -2  11  -1   31.24    1.73
   1 -11   1  107.82    4.92
  -1  11  -1  112.82    4.42
   0 -11   1   50.73    2.71
   0 -11   1   52.75    2.29
   0  11  -1   48.51    2.41
  -1 -11   1   43.28    1.95
  -1 -11   1   42.88    2.25
   1  11  -1   41.79    2.18
  -2 -11   1    6.63    0.63
   2  11  -1    6.10    0.92
  -3 -11   1   18.54    1.06
   3  11  -1   19.02    1.42
  -4 -11   1    3.22    0.47
   4  11  -1    2.68    0.65
  -5 -11   1    4.84    0.57
   5  11  -1    5.90    0.98
   6  11  -1    0.92    0.95
   6 -11   2    1.86    1.19
   6 -11   2    0.89    0.80
  -6  11  -2    1.73    0.56
   5 -11   2    0.92    0.74
   5 -11   2    0.06    0.76
  -5  11  -2    1.29    0.51
   4 -11   2    0.74    0.71
   4 -11   2    0.58    0.81
  -4  11  -2    1.08    0.50
   3 -11   2    0.13    0.58
  -3  11  -2    0.51    0.40
   2 -11   2   12.79    1.63
   2 -11   2   12.53    1.38
  -2  11  -2   13.26    1.14
   1 -11   2   92.74    4.24
   1 -11   2   86.50    4.41
  -1  11  -2   92.26    3.90
   0 -11   2    9.64    1.27
   0  11  -2   10.48    1.06
  -1 -11   2    8.36    1.08
  -1 -11   2    9.53    0.77
   1  11  -2    9.56    1.22
  -2 -11   2   15.99    1.07
  -2 -11   2   18.49    1.34
   2  11  -2   18.76    1.45
  -3 -11   2    1.53    0.39
  -3 -11   2    2.47    0.62
   3  11  -2    1.31    0.60
  -4 -11   2    0.08    0.31
   4  11  -2    0.25    0.53
  -5 -11   2    1.22    0.39
   5  11  -2    1.56    0.65
   6  11  -2   -1.70    0.69
   5 -11   3    3.84    1.40
   5 -11   3    1.66    0.98
  -5  11  -3    2.79    0.74
   4 -11   3    2.62    0.98
   4 -11   3    3.39    1.16
  -4  11  -3    1.67    0.58
   3 -11   3    2.34    0.89
   3 -11   3    0.59    0.98
  -3  11  -3    0.59    0.47
   2 -11   3   34.36    2.78
   2 -11   3   38.05    2.65
  -2  11  -3   40.59    2.25
   1 -11   3   37.20    2.65
   1 -11   3   36.14    2.42
  -1  11  -3   33.58    2.12
   0 -11   3   20.74    1.82
   0 -11   3   18.74    1.74
   0  11  -3   20.57    1.55
  -1 -11   3   13.40    1.32
   1  11  -3   12.92    1.25
  -2 -11   3    1.86    0.62
   2  11  -3    0.83    0.59
  -3 -11   3   28.38    1.67
   3  11  -3   28.08    2.03
  -4 -11   3    0.45    0.37
   4  11  -3    0.36    0.72
  -5 -11   3    1.52    0.48
   5  11  -3    0.93    0.64
   5 -11   4    1.15    0.92
  -5  11  -4    1.42    0.57
   4 -11   4    3.05    1.32
   4 -11   4    0.59    0.80
  -4  11  -4    1.16    0.50
   3 -11   4    3.63    1.08
   3 -11   4    2.28    1.13
  -3  11  -4    2.65    0.72
   2 -11   4   14.39    3.07
   2 -11   4   12.16    2.19
  -2  11  -4   13.03    1.28
   1 -11   4   24.74    2.12
   1 -11   4   23.24    2.16
  -1  11  -4   22.97    2.10
   0 -11   4    1.10    0.58
   0 -11   4    1.01    0.67
   0  11  -4    0.37    0.58
  -1 -11   4    3.32    0.89
  -1 -11   4    5.18    1.13
   1  11  -4    6.44    1.13
  -2 -11   4    7.78    1.78
   2  11  -4   10.56    1.49
  -3 -11   4    0.88    0.46
   3  11  -4    1.64    0.73
   4  11  -4    1.69    0.76
   5  11  -4    0.77    0.74
   6  11  -4    1.06    1.18
   4 -11   5   -0.76    0.78
   4 -11   5    1.10    0.97
  -4  11  -5    1.60    0.59
   3 -11   5    3.48    1.36
   3 -11   5    2.70    1.05
  -3  11  -5    5.51    1.11
   2 -11   5   10.89    1.73
   2 -11   5   12.29    2.26
  -2  11  -5   12.90    1.39
   1 -11   5   10.15    1.82
   1 -11   5    5.94    1.34
  -1  11  -5   10.38    1.42
   0 -11   5    3.86    1.08
   0 -11   5    3.39    1.09
   0  11  -5    6.14    1.16
  -1 -11   5    0.75    0.67
  -1 -11   5    0.12    0.56
   1  11  -5   -0.01    0.53
  -2 -11   5    0.49    0.63
  -2 -11   5    0.87    0.55
   2  11  -5    1.15    0.68
  -3 -11   5    2.80    0.55
   3  11  -5    2.51    0.98
   4  11  -5    1.24    0.81
   5  11  -5   -1.04    0.70
   5  11  -5   -0.05    0.69
   4 -11   6    6.77    1.67
  -4  11  -6    6.30    1.64
   3 -11   6    2.96    1.15
   3 -11   6    4.20    1.43
  -3  11  -6    5.56    1.13
   2 -11   6    7.34    1.68
   2 -11   6    6.28    1.58
  -2  11  -6    8.46    1.43
   1 -11   6    2.19    0.97
  -1  11  -6    3.10    0.91
   0 -11   6    2.56    1.01
   0 -11   6    1.01    0.72
   0  11  -6    2.41    0.88
  -1 -11   6    3.54    1.02
  -1 -11   6    3.82    1.14
   1  11  -6    3.91    1.08
  -2 -11   6    0.92    0.62
  -2 -11   6    1.07    0.64
   2  11  -6    0.02    0.83
  -3 -11   6    0.52    0.67
   3  11  -6    0.06    0.60
   4  11  -6    2.69    1.01
   5  11  -6   -0.05    0.96
   2 -11   7    1.49    1.04
   2 -11   7    1.94    1.11
  -2  11  -7    1.92    0.84
   1 -11   7    3.22    1.08
   1 -11   7    0.98    0.98
  -1  11  -7    3.00    1.06
   0 -11   7    0.22    0.67
   0  11  -7    0.82    0.64
  -1 -11   7    0.48    0.75
   1  11  -7    0.38    0.57
  -2 -11   7   -0.22    0.60
   2  11  -7    0.37    0.53
  -3 -11   7    0.00    0.84
   3  11  -7    3.21    1.11
  -4 -11   7   -0.33    0.81
   4  11  -7   -0.77    0.88
   0 -11   8    3.30    1.11
   0  11  -8    5.69    1.36
  -1 -11   8    0.06    0.80
   1  11  -8   -1.07    0.58
  -2 -11   8    1.55    0.89
   2  11  -8    0.04    0.64
   3 -12  -7    1.14    0.80
  -3  12   7    2.61    0.75
  -2  12   7    0.67    0.53
  -1  12   7    0.85    0.57
   0  12   7    0.44    0.44
   1  12   7    8.56    0.77
   4 -12  -6    1.51    0.79
  -4  12   6    3.50    0.87
   3 -12  -6    0.37    0.76
  -3  12   6   -0.19    0.52
   2 -12  -6    2.23    0.55
  -2  12   6    2.52    0.71
   1 -12  -6    0.38    0.67
   0  12   6    6.80    0.70
   1  12   6    0.74    0.34
   2  12   6    1.24    0.30
   2  12   6    2.86    0.57
   5 -12  -5    4.70    1.08
  -5  12   5    2.80    0.89
   4 -12  -5    0.23    0.58
  -4  12   5   -0.40    0.45
   3 -12  -5    3.05    1.04
  -3  12   5    3.70    0.73
   2 -12  -5    0.06    0.41
  -2  12   5    1.08    0.49
   1 -12  -5    2.91    0.76
  -1  12   5    3.46    0.65
   0 -12  -5    1.55    0.65
   0  12   5    0.54    0.34
   1  12   5    2.94    0.47
   2  12   5    1.11    0.46
   2  12   5    0.62    0.27
   4  12   5    0.67    0.95
   5 -12  -4    1.91    0.96
  -5  12   4    0.88    0.52
   4 -12  -4    1.86    0.82
  -4  12   4    1.55    0.57
   3 -12  -4    2.41    0.82
  -3  12   4    2.21    0.58
   2 -12  -4   10.52    1.00
  -2  12   4   12.28    1.29
   1 -12  -4    1.03    0.54
  -1  12   4    0.84    0.39
   0 -12  -4    3.22    0.88
   0  12   4    3.07    0.55
   1  12   4    2.85    0.47
   2  12   4   16.11    0.92
   5  12   4    0.82    1.19
   6 -12  -3    2.98    1.11
  -6  12   3    1.51    0.56
   5 -12  -3    4.47    1.26
  -5  12   3    3.26    0.83
   4 -12  -3    1.54    0.85
  -4  12   3    1.37    0.56
   3 -12  -3   13.67    0.89
   3 -12  -3   16.76    1.63
   3 -12  -3   14.55    0.93
  -3  12   3   16.72    1.25
   2 -12  -3    2.19    0.83
   2 -12  -3    1.87    0.54
  -2  12   3    2.17    0.55
  -1  12   3    3.27    0.61
   0 -12  -3   10.77    1.35
   0  12   3    9.91    0.80
   1  12   3   43.67    1.93
   2  12   3    4.66    0.51
   3  12   3    9.84    0.62
   5  12   3    3.06    1.31
   6 -12  -2    3.00    1.06
  -6  12   2    2.26    0.76
   5 -12  -2    4.86    1.39
  -5  12   2    2.74    0.66
   4 -12  -2    2.09    0.93
   4 -12  -2    2.08    0.41
  -4  12   2    2.09    0.59
   3 -12  -2    3.78    0.65
   3 -12  -2    4.48    1.15
  -3  12   2    3.09    0.67
   2 -12  -2   41.90    2.56
  -2  12   2   42.92    2.11
   1 -12  -2    4.83    1.01
  -1  12   2    2.95    0.53
   0  12   2   38.50    1.83
   1  12   2   10.80    0.84
   2  12   2    8.67    0.80
   3  12   2    3.06    0.53
   6 -12  -1    1.95    1.06
  -6  12   1    3.16    0.80
   5 -12  -1    1.94    0.90
  -5  12   1    2.99    0.69
   4 -12  -1    2.95    0.66
   4 -12  -1    1.66    0.89
  -4  12   1    2.82    0.68
   3 -12  -1   30.53    2.37
   3 -12  -1   32.75    1.93
  -3  12   1   29.51    1.76
   2 -12  -1    7.70    1.32
   2 -12  -1    8.05    0.97
  -2  12   1    7.88    0.81
   1 -12  -1    7.84    1.03
  -1  12   1    7.19    0.71
   0  12   1   13.47    0.99
   1  12   1   37.22    1.86
  -2 -12  -1    4.55    0.52
   2  12   1    6.13    0.82
  -3 -12  -1    2.59    0.42
   3  12   1    4.11    0.67
   4  12   1    2.38    0.50
   6 -12   0    1.91    0.73
  -6  12   0    1.67    0.92
   5 -12   0    2.28    1.07
   5 -12   0    3.35    0.80
  -5  12   0    3.16    0.69
   4 -12   0    5.16    0.95
   4 -12   0    5.20    1.48
  -4  12   0    5.19    0.87
   3 -12   0    1.67    0.84
   3 -12   0    2.46    0.70
  -3  12   0    2.58    0.64
   2 -12   0   30.10    2.26
   2 -12   0   29.98    1.98
  -2  12   0   31.53    1.76
   1 -12   0    4.50    1.07
  -1  12   0    3.81    0.66
   0 -12   0   67.54    3.22
   0 -12   0   65.18    2.86
   0  12   0   66.43    2.92
  -1 -12   0    3.55    0.58
   1  12   0    3.65    0.66
  -2 -12   0   28.10    1.44
   2  12   0   30.80    1.76
  -3 -12   0    2.60    0.41
   3  12   0    2.78    0.67
  -4 -12   0    5.79    0.54
   4  12   0    6.10    0.90
  -5 -12   0    2.67    0.36
   6  12   0    1.15    1.44
   6 -12   1   -0.22    0.65
   6 -12   1    1.00    0.92
  -6  12  -1    0.42    0.42
   5 -12   1    1.67    0.96
   5 -12   1    1.17    0.69
  -5  12  -1    0.37    0.42
   4 -12   1    2.46    0.91
   4 -12   1    3.56    0.84
  -4  12  -1    1.09    0.44
   3 -12   1    2.04    1.06
   3 -12   1    2.66    0.82
  -3  12  -1    3.47    0.71
   2 -12   1    4.16    1.15
   2 -12   1    5.25    0.94
  -2  12  -1    4.81    0.79
   1 -12   1   38.44    2.49
  -1  12  -1   35.39    2.00
   0 -12   1    9.42    1.23
   0  12  -1   11.86    1.02
  -1 -12   1    7.19    0.71
  -1 -12   1    9.30    1.05
   1  12  -1    8.36    1.06
  -2 -12   1    8.15    0.72
  -2 -12   1   10.21    1.04
   2  12  -1    6.65    1.02
  -3 -12   1   30.95    1.51
   3  12  -1   28.95    1.90
  -4 -12   1    2.63    0.48
   4  12  -1    3.81    0.82
   5  12  -1    1.88    0.58
   6  12  -1    2.63    1.35
   5 -12   2    1.20    0.88
   5 -12   2    1.50    1.04
  -5  12  -2    1.01    0.46
   4 -12   2    0.87    0.65
   4 -12   2    2.35    1.09
  -4  12  -2    2.36    0.66
   3 -12   2    2.78    1.11
   3 -12   2    2.92    0.89
  -3  12  -2    2.54    0.67
   2 -12   2    7.02    1.18
   2 -12   2    9.21    1.73
   1 -12   2   10.24    1.41
   1 -12   2    7.36    1.16
  -1  12  -2    8.19    0.92
   0 -12   2   37.80    2.44
   0  12  -2   39.39    2.22
  -1 -12   2    4.02    0.91
   1  12  -2    4.65    0.87
  -2 -12   2   42.94    2.32
   2  12  -2   43.85    2.50
  -3 -12   2    4.26    0.87
   3  12  -2    4.67    0.95
  -4 -12   2    2.53    0.69
   4  12  -2    2.32    0.74
   5  12  -2    3.05    0.78
   6  12  -2    1.82    1.39
   5 -12   3    3.33    2.17
   5 -12   3    3.25    1.23
  -5  12  -3    4.72    0.95
   4 -12   3    1.84    1.01
   4 -12   3   -0.83    0.65
  -4  12  -3    0.15    0.37
   3 -12   3    9.12    1.56
   3 -12   3   10.76    2.09
  -3  12  -3   10.05    1.12
   2 -12   3    4.11    1.03
  -2  12  -3    5.83    1.02
   1 -12   3   42.71    2.77
   1 -12   3   41.70    2.92
  -1  12  -3   44.40    3.49
   0 -12   3    9.56    1.57
   0 -12   3    9.16    1.40
   0  12  -3   10.33    1.34
  -1 -12   3    3.30    0.92
   1  12  -3    3.33    0.83
  -2 -12   3    2.23    0.76
   2  12  -3    2.09    0.68
  -3 -12   3   16.57    1.34
   3  12  -3   16.30    1.62
  -4 -12   3    1.05    0.52
   4  12  -3    2.41    0.86
   5  12  -3    2.37    0.98
   6  12  -3    2.29    1.53
   5 -12   4   -0.56    0.71
   5 -12   4    3.12    1.41
  -5  12  -4    0.79    0.56
   4 -12   4    0.34    0.82
   4 -12   4    1.16    0.92
  -4  12  -4    0.20    0.46
   3 -12   4    3.01    1.28
   3 -12   4    1.99    0.99
  -3  12  -4    2.90    0.71
   2 -12   4   16.18    1.90
   2 -12   4   15.06    1.99
  -2  12  -4   14.91    1.45
   1 -12   4    2.19    0.91
   1 -12   4    3.74    1.21
  -1  12  -4    2.76    0.76
   0 -12   4    2.52    0.88
   0 -12   4    3.94    1.18
   0  12  -4    4.01    0.92
  -1 -12   4    1.20    0.72
  -1 -12   4    0.54    0.61
   1  12  -4    1.55    0.67
  -2 -12   4   10.60    1.24
   2  12  -4   12.49    1.40
  -3 -12   4    3.87    0.79
   3  12  -4    2.57    0.87
   4  12  -4    0.30    0.60
   5  12  -4    1.47    0.74
   4 -12   5    0.45    0.75
   4 -12   5    3.29    1.79
  -4  12  -5    1.04    0.62
   3 -12   5    4.58    1.47
   3 -12   5    4.72    1.21
  -3  12  -5    8.13    1.25
   2 -12   5    0.30    0.93
   2 -12   5   -0.73    0.53
  -2  12  -5    0.89    0.51
   1 -12   5    3.83    1.38
   1 -12   5    3.73    1.17
  -1  12  -5    1.83    0.69
   0 -12   5    0.53    0.63
   0 -12   5    0.76    0.72
   0  12  -5   -0.20    0.47
  -1 -12   5    3.02    0.92
  -1 -12   5    1.86    0.86
   1  12  -5    3.11    0.94
  -2 -12   5    0.10    0.56
  -2 -12   5    0.10    0.57
   2  12  -5    0.17    0.58
  -3 -12   5    3.70    0.71
   3  12  -5    1.52    0.82
   4  12  -5    1.80    0.81
   5  12  -5    4.87    1.37
   3 -12   6    0.09    0.77
   3 -12   6    0.36    0.74
   2 -12   6    1.01    0.95
   2 -12   6    1.60    1.02
  -2  12  -6   -0.82    0.59
   1 -12   6    0.29    0.70
   1 -12   6    0.58    0.96
  -1  12  -6    0.71    0.58
   0 -12   6    3.56    1.14
   0 -12   6    4.25    1.21
   0  12  -6    5.09    1.20
  -1 -12   6    1.07    0.74
  -1 -12   6    1.33    0.87
   1  12  -6   -0.83    0.56
  -2 -12   6    3.22    1.09
  -2 -12   6    3.00    0.89
   2  12  -6    2.76    1.05
  -3 -12   6   -0.57    0.57
   3  12  -6    0.57    0.75
   4  12  -6    0.15    0.68
   2 -12   7    0.17    0.83
   2 -12   7    0.94    0.70
  -2  12  -7    2.56    0.93
   1 -12   7    9.34    2.59
   1 -12   7    6.33    1.64
  -1  12  -7    6.60    2.17
   0 -12   7    0.64    0.85
   0 -12   7    0.56    1.23
   0  12  -7    0.22    0.70
  -1 -12   7    1.06    0.84
   1  12  -7    2.97    0.98
  -2 -12   7    1.00    1.07
  -3 -12   7    1.81    0.94
   3  12  -7    1.37    0.96
  -1  13   7    0.00    0.46
   3 -13  -6    0.53    0.84
  -3  13   6    1.16    0.58
   2 -13  -6    0.30    0.63
  -2  13   6    0.27    0.51
   1 -13  -6   -0.55    0.62
  -1  13   6    0.69    0.47
   0  13   6    0.38    0.33
   1  13   6    2.15    0.48
   1  13   6    3.08    0.96
   2  13   6    0.80    0.32
   4 -13  -5    2.34    0.90
  -4  13   5    2.75    0.75
   3 -13  -5    3.09    0.94
  -3  13   5    3.92    0.78
   2 -13  -5   -0.21    0.47
  -2  13   5    0.45    0.45
   0  13   5    3.24    0.60
   1  13   5    0.26    0.30
   2  13   5    8.54    0.97
   2  13   5    9.26    0.67
   5 -13  -4    2.11    1.01
  -5  13   4    0.53    0.47
   4 -13  -4    2.62    0.93
  -4  13   4    1.54    0.60
   3 -13  -4    0.29    0.67
  -3  13   4    0.93    0.53
   2 -13  -4    0.23    0.45
   2 -13  -4    0.16    0.66
  -2  13   4   -0.68    0.27
   1 -13  -4    5.59    0.99
  -1  13   4    7.90    0.81
   0  13   4    0.47    0.29
   1  13   4    3.18    0.54
   2  13   4    0.43    0.32
   5 -13  -3    0.58    0.94
   4 -13  -3    1.68    0.94
  -4  13   3    2.44    0.62
   3 -13  -3    7.38    1.39
   3 -13  -3    8.04    0.90
   3 -13  -3    8.35    0.79
  -3  13   3    8.56    0.91
   2 -13  -3    1.24    0.50
   2 -13  -3    1.14    0.79
  -2  13   3    1.22    0.40
  -1  13   3    0.10    0.24
   0 -13  -3    7.74    1.21
   0  13   3   10.14    0.83
   1  13   3    5.35    0.58
   2  13   3    3.31    0.60
   3  13   3    1.06    0.35
   5  13   3    1.71    1.28
   5 -13  -2    2.07    0.84
  -5  13   2    2.67    0.67
   4 -13  -2    0.27    0.70
   4 -13  -2    1.67    0.42
  -4  13   2    2.19    0.62
   3 -13  -2    0.01    0.36
   3 -13  -2    0.24    0.63
  -3  13   2    0.65    0.46
   2 -13  -2    2.70    0.88
   1 -13  -2    1.58    0.73
  -1  13   2    0.98    0.38
   0  13   2    2.14    0.51
   1  13   2   16.00    1.10
   2  13   2    0.49    0.33
   3  13   2    1.56    0.47
   5 -13  -1    1.44    0.93
   5 -13  -1    2.50    0.58
  -5  13   1    0.81    0.50
   4 -13  -1    1.25    0.79
   4 -13  -1    0.31    0.79
  -4  13   1    0.88    0.40
   3 -13  -1    3.56    1.05
   3 -13  -1    5.21    0.90
  -3  13   1    3.99    0.72
   2 -13  -1   12.45    1.46
   2 -13  -1   14.85    1.28
   1 -13  -1    2.41    0.83
  -1  13   1    2.09    0.55
   0 -13  -1   26.20    1.85
   0  13   1   23.44    1.45
   1  13   1    6.99    0.75
   2  13   1   14.05    1.10
   3  13   1    0.31    0.41
   4  13   1    3.62    0.62
   5 -13   0    0.88    0.93
   5 -13   0    3.91    0.90
  -5  13   0    3.21    0.72
   4 -13   0    0.80    0.56
   4 -13   0    0.62    0.80
  -4  13   0    0.48    0.36
   3 -13   0   -0.03    0.66
   3 -13   0    0.41    0.52
  -3  13   0    0.33    0.37
   2 -13   0    2.73    1.01
   2 -13   0    3.60    0.85
  -2  13   0    4.20    0.77
   1 -13   0   22.27    1.85
  -1  13   0   26.00    1.56
   0 -13   0    3.30    0.83
   0  13   0    3.07    0.64
  -1 -13   0   26.94    1.78
  -1 -13   0   23.37    1.40
   1  13   0   21.80    1.48
  -2 -13   0    3.82    0.59
   2  13   0    3.48    0.71
   3  13   0    0.47    0.45
  -4 -13   0   -0.13    0.24
   4  13   0    0.26    0.41
   5 -13   1    1.78    0.98
   5 -13   1    0.88    0.70
  -5  13  -1    0.20    0.41
   4 -13   1    4.54    0.99
   4 -13   1    2.53    1.01
  -4  13  -1    3.96    0.80
   3 -13   1    0.27    0.50
   3 -13   1   -0.52    0.70
  -3  13  -1    0.48    0.40
   2 -13   1   12.55    1.37
   2 -13   1   11.53    1.59
  -2  13  -1   14.93    1.23
   1 -13   1    4.26    0.88
   1 -13   1    5.82    1.21
  -1  13  -1    4.28    0.81
   0 -13   1   22.14    1.79
   0  13  -1   23.02    1.56
  -1 -13   1    2.48    0.77
   1  13  -1    2.29    0.65
  -2 -13   1   14.13    1.28
   2  13  -1   11.17    1.16
  -3 -13   1    3.96    0.58
   3  13  -1    4.65    0.89
  -4 -13   1    1.31    0.38
   4  13  -1    1.91    0.65
  -5 -13   1    1.13    0.40
   5  13  -1    0.81    0.66
   5 -13   2    0.29    1.04
   5 -13   2    0.94    0.77
  -5  13  -2    1.30    0.73
   4 -13   2    0.14    0.56
   4 -13   2    1.61    0.95
  -4  13  -2    0.35    0.34
   3 -13   2    2.26    1.10
   3 -13   2    0.94    0.79
  -3  13  -2    2.10    0.60
   2 -13   2    0.73    0.73
   2 -13   2    1.12    0.64
  -2  13  -2    0.41    0.41
   1 -13   2   15.06    1.79
   1 -13   2   15.30    1.59
  -1  13  -2   16.42    1.35
   0 -13   2    4.28    1.05
   0  13  -2    4.12    0.84
  -1 -13   2    1.42    0.67
   1  13  -2    0.39    0.51
  -2 -13   2    4.08    0.93
   2  13  -2    2.62    0.66
  -3 -13   2    1.28    0.62
   3  13  -2    0.22    0.53
  -4 -13   2    2.08    0.70
   4  13  -2    1.60    0.77
  -5 -13   2    0.84    0.64
   5  13  -2    1.68    0.70
   5 -13   3    3.46    1.28
   5 -13   3    0.93    1.00
  -5  13  -3    1.55    0.59
   4 -13   3    2.34    1.15
   4 -13   3    1.44    0.88
  -4  13  -3    1.84    0.59
   3 -13   3    1.47    0.77
   3 -13   3    0.18    0.70
  -3  13  -3    1.60    0.58
   2 -13   3    1.53    0.79
   2 -13   3    2.49    1.01
  -2  13  -3    4.14    0.93
   1 -13   3    4.01    1.23
   1 -13   3    3.31    1.15
  -1  13  -3    3.31    0.78
   0 -13   3    9.75    1.39
   0 -13   3    7.88    1.34
   0  13  -3    9.49    1.41
  -1 -13   3    0.88    0.60
   1  13  -3    0.60    0.65
  -2 -13   3    1.16    0.67
   2  13  -3    1.61    1.02
  -3 -13   3    8.14    1.10
  -4 -13   3    1.56    0.63
   4  13  -3    2.37    0.82
  -5 -13   3    3.13    0.58
   5  13  -3    1.58    0.88
   4 -13   4   -0.40    0.75
   4 -13   4    0.96    0.82
  -4  13  -4    0.84    0.49
   3 -13   4    0.41    0.78
   3 -13   4    2.26    1.01
  -3  13  -4    0.88    0.67
   2 -13   4    0.10    0.72
   2 -13   4    1.94    1.02
  -2  13  -4    1.33    0.63
   1 -13   4    2.90    0.96
   1 -13   4    2.51    1.82
  -1  13  -4    2.18    0.70
   0 -13   4    0.11    0.59
   0 -13   4   -0.06    0.53
   0  13  -4    0.89    0.62
  -1 -13   4    6.57    1.31
  -1 -13   4    9.11    1.22
   1  13  -4    7.17    1.28
  -2 -13   4    1.58    0.66
   2  13  -4   -0.12    0.45
  -3 -13   4    1.59    0.59
   3  13  -4    1.01    0.71
  -4 -13   4    2.78    0.58
   4  13  -4    1.40    0.89
   5  13  -4    0.21    0.87
   3 -13   5   -0.59    0.72
   3 -13   5   -0.46    0.59
  -3  13  -5    0.83    0.49
   2 -13   5   10.49    1.73
   2 -13   5    7.22    1.75
  -2  13  -5   11.55    1.69
   1 -13   5    0.74    0.71
   1 -13   5    0.12    0.66
  -1  13  -5    1.86    0.67
   0 -13   5    1.75    0.83
   0 -13   5    4.96    1.19
   0  13  -5    4.61    1.10
  -1 -13   5    0.58    0.62
  -1 -13   5    1.12    0.58
   1  13  -5   -0.13    0.66
  -2 -13   5   -0.02    0.77
  -2 -13   5    1.12    0.61
   2  13  -5   -0.05    0.46
  -3 -13   5    3.65    0.75
   3  13  -5    1.05    0.70
   4  13  -5    3.43    1.13
   2 -13   6    0.40    0.61
   2 -13   6   -0.10    0.97
  -2  13  -6    0.48    0.58
   1 -13   6    3.02    1.28
   1 -13   6    4.81    1.29
  -1  13  -6    2.31    0.84
   0 -13   6    0.47    1.00
   0 -13   6    0.33    0.69
   0  13  -6    1.72    0.76
  -1 -13   6    1.48    0.67
  -1 -13   6    1.38    0.80
   1  13  -6    1.12    0.83
  -2 -13   6    0.50    0.63
  -2 -13   6   -0.12    0.53
   2  13  -6    1.00    0.66
  -3 -13   6    0.44    1.09
   3  13  -6    0.48    0.71
   0 -13   7   -0.30    0.77
   0 -13   7    0.64    0.89
   0  13  -7   -0.57    0.67
  -1 -13   7    1.50    0.83
   1  13  -7    2.50    0.92
  -2  14   6    0.40    0.52
  -1  14   6    0.19    0.43
   0  14   6    0.84    0.38
   1  14   6    1.55    0.41
   3 -14  -5   -0.26    0.71
  -3  14   5   -0.29    0.35
   2 -14  -5    0.10    0.72
   2 -14  -5    0.19    0.59
  -2  14   5    0.43    0.44
   1 -14  -5    1.82    0.79
  -1  14   5    1.48    0.51
   0  14   5    0.94    0.39
   1  14   5    2.17    0.48
   4 -14  -4    1.02    0.80
  -4  14   4   -0.64    0.43
   3 -14  -4    4.27    1.19
  -3  14   4    3.61    0.77
   2 -14  -4    0.16    0.53
   2 -14  -4    1.06    0.77
  -2  14   4    1.57    0.51
   1 -14  -4    1.77    0.64
  -1  14   4    0.83    0.40
   0  14   4    3.03    0.56
   1  14   4    0.29    0.32
   2  14   4    0.59    0.36
   4 -14  -3    4.26    1.29
   3 -14  -3    2.62    0.87
   3 -14  -3    1.34    0.49
   3 -14  -3    2.30    0.53
  -3  14   3    2.79    0.68
   2 -14  -3    2.86    0.69
   2 -14  -3    5.14    1.18
  -2  14   3    4.40    0.77
  -1  14   3    0.56    0.47
   0  14   3    0.67    0.34
   1  14   3    2.18    0.51
   2  14   3    1.90    0.45
   3  14   3    2.85    0.49
   5 -14  -2    1.37    0.73
  -5  14   2    0.54    0.46
   4 -14  -2    0.17    0.42
   4 -14  -2    0.90    0.70
  -4  14   2    0.89    0.45
   3 -14  -2    3.70    1.12
  -3  14   2    3.52    0.75
   2 -14  -2    3.36    0.77
   2 -14  -2    3.77    1.13
  -2  14   2    3.96    0.71
   1 -14  -2    2.73    0.94
  -1  14   2    3.00    0.56
   0  14   2    4.17    0.71
   1  14   2    0.18    0.30
   2  14   2    1.73    0.50
   5 -14  -1    1.83    0.64
   5 -14  -1    1.92    1.13
  -5  14   1    3.74    0.82
   4 -14  -1    3.06    1.01
   4 -14  -1    2.10    0.72
  -4  14   1    3.29    0.69
   3 -14  -1    2.39    0.94
   3 -14  -1    2.23    0.69
  -3  14   1    1.36    0.52
   2 -14  -1    2.34    0.98
   2 -14  -1    0.99    0.54
  -2  14   1    1.06    0.41
   1 -14  -1    0.90    0.70
  -1  14   1    1.18    0.49
   0 -14  -1    0.84    0.63
   0  14   1    1.50    0.47
   1  14   1    1.89    0.52
   2  14   1    2.38    0.62
   3  14   1    3.69    0.72
   4  14   1    2.35    0.57
   5 -14   0    1.45    0.69
   5 -14   0    1.60    0.92
  -5  14   0    1.09    0.50
   4 -14   0    4.26    1.24
   4 -14   0    4.49    0.97
  -4  14   0    5.90    0.95
   3 -14   0    0.24    0.59
   3 -14   0   -0.29    0.51
  -3  14   0    0.38    0.39
   2 -14   0    1.75    0.65
   2 -14   0    2.30    0.97
  -2  14   0    1.24    0.52
   1 -14   0    6.20    1.30
  -1  14   0    6.11    1.10
   0 -14   0    1.30    0.93
   0  14   0    0.60    0.44
  -1 -14   0    4.80    1.02
   1  14   0    5.64    0.85
   2  14   0    2.45    0.63
  -3 -14   0    0.01    0.34
   3  14   0    0.55    0.46
   4  14   0    4.61    0.94
   5 -14   1    2.99    0.85
   5 -14   1    4.43    1.33
  -5  14  -1    2.15    0.69
   4 -14   1    3.58    1.00
   4 -14   1    4.86    1.52
  -4  14  -1    4.22    0.83
   3 -14   1    2.29    0.81
   3 -14   1    4.15    1.23
  -3  14  -1    3.72    0.75
   2 -14   1    1.44    0.72
   2 -14   1    2.87    1.04
  -2  14  -1    1.27    0.51
   1 -14   1    1.81    0.74
   1 -14   1    2.92    1.03
  -1  14  -1    1.51    0.58
   0 -14   1    1.43    0.71
   0  14  -1    0.63    0.45
  -1 -14   1    2.31    0.80
   1  14  -1    0.75    0.44
  -2 -14   1    2.77    0.81
   2  14  -1    1.66    0.67
  -3 -14   1    1.53    0.68
   3  14  -1    2.16    0.70
   4  14  -1    3.39    0.86
   5  14  -1    2.81    0.84
   4 -14   2    1.90    0.80
   4 -14   2    3.35    1.27
  -4  14  -2    3.75    0.85
   3 -14   2    0.91    0.88
  -3  14  -2    0.06    0.36
   2 -14   2    3.06    1.09
   2 -14   2    2.04    0.80
  -2  14  -2    0.36    0.54
   1 -14   2   -0.58    0.78
   1 -14   2    1.60    0.92
  -1  14  -2    1.00    0.55
   0 -14   2    5.14    1.22
   0  14  -2    5.01    0.98
  -1 -14   2    4.39    1.09
  -2 -14   2    3.47    0.95
   2  14  -2    3.24    0.78
  -3 -14   2    2.99    0.75
   3  14  -2    1.99    0.66
  -4 -14   2   -0.15    0.51
   4  14  -2    0.87    0.70
  -5 -14   2   -0.34    0.55
   5  14  -2   -0.90    0.67
   4 -14   3    1.14    0.81
  -4  14  -3    1.00    0.90
   3 -14   3    4.79    1.34
   3 -14   3    2.81    1.05
  -3  14  -3    3.12    0.83
   2 -14   3    3.17    0.91
   2 -14   3    3.89    1.30
  -2  14  -3    2.48    0.73
   1 -14   3    1.06    0.64
   1 -14   3    2.03    0.95
  -1  14  -3    1.33    0.56
   0 -14   3    0.40    0.72
   0 -14   3    1.15    0.77
   0  14  -3    1.24    0.66
  -1 -14   3    1.37    0.77
   1  14  -3    1.76    0.70
  -2 -14   3    4.78    1.05
   2  14  -3    4.86    1.04
  -3 -14   3    2.52    0.72
   3  14  -3    3.83    0.95
  -4 -14   3    4.82    0.93
   4  14  -3    2.00    0.85
   3 -14   4    1.14    0.84
   3 -14   4    1.59    0.95
  -3  14  -4    1.86    0.60
   2 -14   4   -0.23    0.64
   2 -14   4    2.32    1.14
  -2  14  -4    1.10    0.63
   1 -14   4    1.05    0.71
   1 -14   4    1.06    0.98
  -1  14  -4    0.83    0.61
   0 -14   4    1.35    0.71
   0 -14   4    2.40    1.01
   0  14  -4    2.75    0.86
  -1 -14   4    1.91    0.85
  -1 -14   4    0.72    0.69
   1  14  -4    0.87    0.68
  -2 -14   4    1.41    0.67
   2  14  -4    2.12    0.86
  -3 -14   4    5.61    1.05
   3  14  -4    5.42    1.24
  -4 -14   4    1.82    0.50
   4  14  -4    0.23    0.73
   3 -14   5    1.81    0.90
  -3  14  -5    2.16    0.82
   2 -14   5    5.31    1.33
   2 -14   5    5.09    1.59
  -2  14  -5    4.50    1.37
   1 -14   5    1.67    0.75
   1 -14   5    2.53    1.03
  -1  14  -5    2.84    0.84
   0 -14   5    1.82    0.90
   0 -14   5    0.67    0.67
   0  14  -5    1.66    0.75
  -1 -14   5    0.83    0.71
  -1 -14   5    2.55    0.98
   1  14  -5    1.63    0.79
  -2 -14   5    2.12    0.74
  -2 -14   5   -0.55    0.62
   2  14  -5    0.79    0.52
  -3 -14   5    1.47    0.75
   3  14  -5    1.21    0.67
   1 -14   6    1.32    0.90
   1 -14   6    2.57    1.07
  -1  14  -6    0.17    0.64
   0 -14   6    0.98    0.88
   0 -14   6    0.73    0.99
   0  14  -6    0.79    0.46
  -1 -14   6    1.54    0.70
  -1 -14   6    0.86    0.93
  -2 -14   6    0.79    0.76
  -2 -14   6    0.63    0.91
   2  14  -6   -1.48    0.84
   2 -15  -5    0.01    0.73
  -2  15   5    0.23    0.43
  -1  15   5    0.78    0.50
   0  15   5    1.23    0.55
   1  15   5    0.21    0.34
  -3  15   4    1.43    0.57
   2 -15  -4    0.36    0.71
   2 -15  -4    0.61    0.85
  -2  15   4    0.93    0.44
   1 -15  -4    1.34    0.82
  -1  15   4    2.46    0.59
   0  15   4    2.87    0.59
   1  15   4    0.63    0.38
   2  15   4    0.64    0.36
   4 -15  -3    3.13    1.16
  -4  15   3    3.59    0.79
   3 -15  -3    1.80    0.67
   3 -15  -3    2.05    0.88
   3 -15  -3    2.70    0.64
  -3  15   3    2.90    0.65
   2 -15  -3   -0.83    0.51
   2 -15  -3    0.73    0.64
  -2  15   3    1.22    0.54
   1 -15  -3    1.86    0.86
  -1  15   3    1.66    0.45
   0  15   3    0.69    0.43
   1  15   3    3.71    0.69
   2  15   3    2.31    0.53
   3  15   3    0.26    0.41
   4 -15  -2   -0.96    0.42
   3 -15  -2   -0.15    0.70
   3 -15  -2    0.70    0.54
  -3  15   2    0.28    0.39
   2 -15  -2    1.36    0.61
   2 -15  -2    0.53    0.73
  -2  15   2    1.17    0.49
   1 -15  -2    0.90    0.71
  -1  15   2    1.10    0.45
   0 -15  -2    5.88    1.23
   0  15   2    6.38    0.89
   1  15   2   -0.04    0.34
   2  15   2    0.79    0.43
   3  15   2    2.32    0.58
   4 -15  -1    2.80    0.71
   4 -15  -1    2.01    1.58
  -4  15   1    2.16    0.72
   3 -15  -1    0.80    0.59
   3 -15  -1    0.62    0.71
  -3  15   1    0.79    0.44
   2 -15  -1    4.65    0.90
   2 -15  -1    5.94    1.36
  -2  15   1    7.53    0.99
   1 -15  -1    0.01    0.65
  -1  15   1    0.47    0.43
   0 -15  -1    0.24    0.57
   0  15   1   -0.02    0.37
   1  15   1    2.16    0.58
   2  15   1    1.89    0.59
   3  15   1    0.16    0.43
   4  15   1    5.38    0.89
   4 -15   0    3.53    1.73
   4 -15   0    1.25    0.75
  -4  15   0    1.91    0.66
   3 -15   0    1.59    0.73
   3 -15   0    2.07    0.93
  -3  15   0    3.18    0.71
   2 -15   0    2.53    1.02
   2 -15   0    0.63    0.53
  -2  15   0    1.13    0.51
   1 -15   0    0.49    0.69
  -1  15   0    0.56    0.39
   0 -15   0    0.46    0.55
   0  15   0    0.39    0.37
  -1 -15   0    0.74    0.64
   1  15   0    1.15    0.51
  -2 -15   0   -0.15    0.59
   2  15   0    2.06    0.62
   3  15   0    2.13    0.69
   4  15   0    1.94    0.75
   4 -15   1    4.59    1.15
  -4  15  -1    6.53    1.35
   3 -15   1    1.10    0.62
   3 -15   1   -0.14    0.65
  -3  15  -1    0.47    0.46
   2 -15   1    1.31    0.90
   2 -15   1    2.31    0.83
  -2  15  -1    2.22    0.66
   1 -15   1    1.99    0.85
  -1  15  -1    0.65    0.51
   0 -15   1    0.24    0.67
   0  15  -1    1.89    0.57
  -1 -15   1   -0.72    0.54
   1  15  -1    0.42    0.44
  -2 -15   1    7.48    1.30
   2  15  -1    7.82    1.25
  -3 -15   1   -0.35    0.55
   3  15  -1    0.69    0.62
  -4 -15   1    3.57    0.98
   4  15  -1    5.11    1.08
   4 -15   2    1.62    1.06
   4 -15   2   -0.37    0.73
  -4  15  -2    0.70    0.50
   3 -15   2    4.12    1.24
   3 -15   2    1.07    0.77
  -3  15  -2    1.93    0.65
   2 -15   2    0.68    0.89
   2 -15   2    0.25    0.55
  -2  15  -2    0.20    0.38
   1 -15   2    1.15    0.80
   1 -15   2    0.06    0.55
  -1  15  -2    0.90    0.54
   0 -15   2    5.35    1.27
   0  15  -2    6.01    1.08
  -1 -15   2    0.83    0.65
   1  15  -2    0.74    0.57
  -2 -15   2    0.67    0.68
   2  15  -2    0.72    0.52
  -3 -15   2    0.85    0.70
   3  15  -2    0.47    0.55
  -4 -15   2   -0.22    0.53
   4  15  -2    0.45    0.57
   3 -15   3    2.85    1.10
   3 -15   3    0.36    0.74
   2 -15   3    3.96    1.18
   2 -15   3    2.94    1.00
  -2  15  -3    2.80    0.74
   1 -15   3    3.24    1.04
   1 -15   3    2.45    1.05
  -1  15  -3    5.00    0.95
   0 -15   3   -0.05    0.57
   0 -15   3    0.35    0.78
   0  15  -3    1.23    0.62
  -1 -15   3    2.64    0.90
   1  15  -3    1.25    0.69
  -2 -15   3    1.72    0.71
   2  15  -3    2.83    0.73
  -3 -15   3    2.94    0.84
   3  15  -3    3.76    1.01
  -4 -15   3    4.06    0.94
   4  15  -3    2.32    0.92
   3 -15   4    0.75    0.97
   3 -15   4    3.34    1.28
  -3  15  -4    4.63    1.03
   2 -15   4    0.01    0.72
   2 -15   4    0.41    0.75
  -2  15  -4   -0.20    0.81
   1 -15   4   -0.56    0.59
   1 -15   4    1.73    1.03
  -1  15  -4    1.24    0.53
   0 -15   4    2.90    1.06
   0 -15   4    1.63    0.81
   0  15  -4    1.17    0.64
  -1 -15   4    2.83    1.03
  -1 -15   4    3.80    1.03
   1  15  -4    2.87    0.90
  -2 -15   4    2.86    0.86
   2  15  -4    1.03    0.71
  -3 -15   4    3.43    0.81
   3  15  -4    3.36    1.01
   1 -15   5    0.57    0.85
   1 -15   5    1.75    0.81
  -1  15  -5    0.61    0.66
   0 -15   5    1.33    0.86
   0 -15   5    1.10    0.80
   0  15  -5    2.53    0.97
  -1 -15   5    2.04    0.92
   1  15  -5   -0.97    0.48
  -2 -15   5    3.04    0.80
   2  15  -5    2.16    0.87
   2 -16  -4    1.92    0.96
  -2  16   4    2.73    0.64
   1 -16  -4    1.43    1.04
  -1  16   4    2.28    0.59
   0  16   4    6.28    0.87
   1  16   4   -0.22    0.36
   3 -16  -3    0.48    0.68
   3 -16  -3    0.89    0.79
  -3  16   3    0.03    0.41
   2 -16  -3   -0.91    0.51
   2 -16  -3    0.85    0.81
  -2  16   3    0.22    0.40
   1 -16  -3    7.20    1.49
  -1  16   3    7.40    1.00
   0  16   3    2.69    0.61
   1  16   3    4.32    0.72
   2  16   3    0.69    0.50
   3 -16  -2    0.97    1.29
   3 -16  -2    0.71    0.60
  -3  16   2    0.94    0.46
   2 -16  -2    1.59    0.79
   2 -16  -2    0.69    0.57
  -2  16   2    1.27    0.49
   1 -16  -2    0.31    0.67
  -1  16   2    2.06    0.62
   0 -16  -2    6.52    1.34
   0  16   2    3.82    0.73
   1  16   2    1.29    0.50
   2  16   2    3.40    0.69
   3  16   2    0.25    0.53
   3 -16  -1    1.85    0.89
   3 -16  -1    0.66    0.59
  -3  16   1   -0.56    0.31
   2 -16  -1    1.18    0.80
   2 -16  -1   -0.20    0.47
  -2  16   1    1.33    0.52
   1 -16  -1    1.01    0.71
  -1  16   1    1.53    0.57
   0 -16  -1    0.84    0.78
   0  16   1    0.64    0.44
  -1 -16  -1    0.29    0.71
   1  16   1    0.85    0.63
   2  16   1    0.74    0.47
   3  16   1    6.86    1.02
   3 -16   0    0.06    0.80
   3 -16   0   -0.01    0.63
  -3  16   0    0.17    0.35
   2 -16   0    0.29    0.74
   2 -16   0    0.97    0.71
  -2  16   0    0.88    0.40
   1 -16   0    2.14    0.93
  -1  16   0    2.13    0.60
   0 -16   0    1.13    0.77
   0  16   0    1.26    0.58
  -1 -16   0    2.30    0.92
   1  16   0    2.35    0.63
  -2 -16   0    0.25    0.62
   2  16   0    0.67    0.60
   3  16   0    1.69    0.70
   3 -16   1    2.55    0.95
   3 -16   1    7.00    1.70
  -3  16  -1    4.55    1.43
   2 -16   1   -0.67    0.51
   2 -16   1    0.52    0.76
  -2  16  -1    0.20    0.41
   1 -16   1    1.05    0.67
   1 -16   1    1.42    0.73
  -1  16  -1    0.23    0.42
   0 -16   1    0.88    0.69
   0  16  -1    1.03    0.53
  -1 -16   1    2.05    0.79
   1  16  -1    1.27    0.61
  -2 -16   1    0.16    0.59
   2  16  -1    1.79    0.66
  -3 -16   1   -0.58    0.50
   3  16  -1   -0.45    0.45
   3 -16   2   -0.23    0.79
   3 -16   2    1.56    1.14
  -3  16  -2   -0.10    0.48
   2 -16   2    3.21    1.13
   2 -16   2    3.18    0.99
  -2  16  -2    2.83    0.74
   1 -16   2    1.30    0.73
   1 -16   2   -0.36    0.66
  -1  16  -2    0.02    0.43
   0 -16   2    6.70    1.44
   0  16  -2    5.53    1.16
  -1 -16   2    3.03    0.88
   1  16  -2    2.90    0.82
  -2 -16   2    2.81    0.91
   2  16  -2    1.16    0.61
   3  16  -2    0.36    0.66
   2 -16   3    0.68    0.72
   2 -16   3    0.36    0.83
  -2  16  -3    0.30    1.00
   1 -16   3    5.68    1.39
   1 -16   3    2.68    0.90
  -1  16  -3    3.84    0.99
   0 -16   3    3.01    1.02
   0 -16   3    2.28    0.89
   0  16  -3    2.03    0.69
  -1 -16   3    8.17    1.56
   1  16  -3    7.68    1.36
   2  16  -3   -0.27    0.47
  -3 -16   3    1.45    0.64
   3  16  -3    1.23    0.75
   1 -16   4    1.47    0.77
   1 -16   4   -1.20    0.44
  -1  16  -4    0.48    0.53
   0 -16   4    5.91    1.55
   0 -16   4    2.73    1.09
   0  16  -4    5.72    1.28
  -1 -16   4    2.36    0.93
  -1 -16   4    0.37    0.76
   1  16  -4    0.96    0.77
  -2 -16   4    4.08    0.97
   2  16  -4    1.38    0.75
   1 -17  -3    1.23    0.98
  -1  17   3    0.70    0.44
   0 -17  -3    0.24    0.86
   0  17   3    2.24    0.60
   1  17   3    2.55    0.66
   2 -17  -2   -0.39    0.60
   2 -17  -2    1.22    0.92
  -2  17   2    0.81    0.40
   1 -17  -2    1.19    0.97
  -1  17   2    3.08    0.72
   0 -17  -2    7.00    1.46
   0  17   2    5.30    0.89
   1  17   2    1.37    0.47
   2  17   2    2.77    0.61
   2 -17  -1    1.52    0.92
   2 -17  -1    0.43    0.59
  -2  17   1    0.78    0.45
   1 -17  -1    5.87    1.37
  -1  17   1    6.71    0.96
   0 -17  -1    1.00    0.81
   0  17   1    1.39    0.51
  -1 -17  -1    3.43    1.06
   1  17   1    6.77    1.04
  -2 -17  -1    0.47    0.84
   2 -17   0    3.68    1.76
   2 -17   0    2.14    0.89
  -2  17   0    2.24    0.65
   1 -17   0    2.20    1.00
   1 -17   0    1.70    0.88
  -1  17   0    3.27    0.83
   0 -17   0   12.34    1.56
   0  17   0   13.18    1.33
  -1 -17   0    1.78    0.91
   1  17   0    2.40    0.68
  -2 -17   0    2.56    0.85
   2  17   0    2.15    0.78
   2 -17   1    1.51    1.18
   2 -17   1    1.64    0.90
   1 -17   1    4.75    1.15
   1 -17   1    3.59    1.02
  -1  17  -1    7.22    1.17
   0 -17   1    1.86    0.67
   0  17  -1    0.13    0.48
  -1 -17   1    5.70    1.30
   1  17  -1    6.25    1.16
  -2 -17   1    1.49    0.79
   2  17  -1    1.92    0.73
   2 -17   2    1.01    0.72
  -2  17  -2    0.72    0.54
   1 -17   2    0.21    0.68
   1 -17   2    1.98    0.83
  -1  17  -2    0.89    0.59
   0 -17   2    4.21    1.15
   0 -17   2    5.20    1.29
   0  17  -2    6.66    1.16
  -1 -17   2    2.58    1.02
   1  17  -2    0.76    0.63
  -2 -17   2    0.64    0.66
   2  17  -2    1.94    0.80
   1 -17   3    3.62    1.01
   1 -17   3    1.29    0.88
  -1  17  -3    2.82    0.91
   0 -17   3    2.40    0.77
   0  17  -3    3.15    0.89
  -1 -17   3    2.79    0.98
   1  17  -3    0.83    0.62
   0 -18  -1   -0.23    0.73
   0  18   1    1.50    0.48
   1 -18   0   -0.48    0.55
   0 -18   0   -0.40    0.65
   0  18   0    0.89    0.52
   0 -18   1    1.60    0.73
   0  18  -1    2.21    0.76
   0   0   0    0.00    0.00
;
_shelx_hkl_checksum              1491
loop_
_space_group_symop_operation_xyz
'x, y, z'
'x+1/2, -y, z+1/2'
loop_
_atom_site_label
_atom_site_type_symbol
_atom_site_fract_x
_atom_site_fract_y
_atom_site_fract_z
_atom_site_U_iso_or_equiv
_atom_site_adp_type
_atom_site_occupancy
_atom_site_site_symmetry_order
_atom_site_calc_flag
_atom_site_refinement_flags_posn
_atom_site_refinement_flags_adp
_atom_site_refinement_flags_occupancy
_atom_site_disorder_assembly
_atom_site_disorder_group
N1 N 0.1177(4) 0.5429(2) 0.4425(4) 0.0555(9) Uani 1 1 d . . . . .
N2 N 0.3313(6) 0.5501(2) 0.4181(7) 0.0858(13) Uani 1 1 d . . . . .
H2A H 0.393433 0.605454 0.426712 0.103 Uiso 1 1 calc R U . . .
H2B H 0.400407 0.499226 0.394470 0.103 Uiso 1 1 calc R U . . .
C1 C 0.0448(5) 0.4471(2) 0.4712(5) 0.0452(8) Uani 1 1 d . . . . .
C2 C -0.1579(5) 0.4181(2) 0.4049(5) 0.0514(10) Uani 1 1 d . . . . .
H2C H -0.248342 0.462637 0.347299 0.062 Uiso 1 1 calc R U . . .
C3 C -0.2238(5) 0.3242(2) 0.4246(5) 0.0485(9) Uani 1 1 d . . . . .
H3A H -0.359295 0.306930 0.380220 0.058 Uiso 1 1 calc R U . . .
C4 C -0.0940(6) 0.2534(2) 0.5092(5) 0.0439(8) Uani 1 1 d . . . . .
C5 C 0.1027(6) 0.2851(3) 0.5757(5) 0.0514(9) Uani 1 1 d . . . . .
H5A H 0.192693 0.241326 0.635997 0.062 Uiso 1 1 calc R U . . .
C6 C 0.1716(5) 0.3788(2) 0.5565(5) 0.0509(9) Uani 1 1 d . . . . .
H6A H 0.306463 0.396080 0.602325 0.061 Uiso 1 1 calc R U . . .
C7 C -0.1582(6) 0.1460(2) 0.5142(5) 0.0509(9) Uani 1 1 d . . . . .
C8 C -0.3968(6) 0.1332(3) 0.5055(6) 0.0653(11) Uani 1 1 d . . . . .
H8A H -0.462131 0.163574 0.404051 0.098 Uiso 1 1 calc R U . . .
H8B H -0.430382 0.065366 0.503251 0.098 Uiso 1 1 calc R U . . .
H8C H -0.447866 0.162542 0.603820 0.098 Uiso 1 1 calc R U . . .
C9 C -0.0613(7) 0.0965(3) 0.6776(7) 0.0768(14) Uani 1 1 d . . . . .
H9A H 0.089157 0.103368 0.686603 0.115 Uiso 1 1 calc R U . . .
H9B H -0.114876 0.126136 0.774605 0.115 Uiso 1 1 calc R U . . .
H9C H -0.097392 0.028960 0.674036 0.115 Uiso 1 1 calc R U . . .
C10 C -0.0792(8) 0.0961(3) 0.3574(7) 0.0776(13) Uani 1 1 d . . . . .
H10A H 0.070743 0.103587 0.361051 0.116 Uiso 1 1 calc R U . . .
H10B H -0.113826 0.028464 0.358396 0.116 Uiso 1 1 calc R U . . .
H10C H -0.145522 0.125327 0.255109 0.116 Uiso 1 1 calc R U . . .
C11 C 0.0105(5) 0.6279(2) 0.4809(4) 0.0445(9) Uani 1 1 d . . . . .
C12 C 0.0817(6) 0.7175(3) 0.4303(5) 0.0577(10) Uani 1 1 d . . . . .
H12A H 0.199659 0.720766 0.370254 0.069 Uiso 1 1 calc R U . . .
C13 C -0.0206(7) 0.8019(3) 0.4681(6) 0.0657(12) Uani 1 1 d . . . . .
H13A H 0.029109 0.861223 0.432939 0.079 Uiso 1 1 calc R U . . .
C14 C -0.1945(7) 0.7991(3) 0.5568(6) 0.0607(11) Uani 1 1 d . . . . .
H14A H -0.263761 0.856036 0.580557 0.073 Uiso 1 1 calc R U . . .
C15 C -0.2655(6) 0.7114(3) 0.6103(5) 0.0567(10) Uani 1 1 d . . . . .
H15A H -0.382530 0.709119 0.671623 0.068 Uiso 1 1 calc R U . . .
C16 C -0.1645(5) 0.6266(3) 0.5737(5) 0.0495(9) Uani 1 1 d . . . . .
H16A H -0.213761 0.567811 0.611441 0.059 Uiso 1 1 calc R U . . .
loop_
_atom_site_aniso_label
_atom_site_aniso_U_11
_atom_site_aniso_U_22
_atom_site_aniso_U_33
_atom_site_aniso_U_23
_atom_site_aniso_U_13
_atom_site_aniso_U_12
N1 0.0425(17) 0.0404(17) 0.085(2) -0.0027(15) 0.0140(16) -0.0026(12)
N2 0.051(2) 0.0471(18) 0.165(4) -0.017(2) 0.039(2) -0.0022(15)
C1 0.044(2) 0.0371(17) 0.054(2) -0.0063(16) 0.0019(16) 0.0012(15)
C2 0.046(2) 0.040(2) 0.066(2) 0.0054(17) -0.0075(17) 0.0076(16)
C3 0.041(2) 0.0430(19) 0.059(2) -0.0003(17) -0.0074(17) 0.0009(15)
C4 0.0438(18) 0.0388(16) 0.0486(18) -0.0027(17) 0.0025(15) 0.0041(15)
C5 0.046(2) 0.0450(19) 0.061(2) -0.0006(17) -0.0061(17) 0.0082(16)
C6 0.0377(19) 0.048(2) 0.064(2) -0.0090(17) -0.0079(17) -0.0001(15)
C7 0.053(2) 0.0343(16) 0.064(2) -0.0011(17) 0.0010(18) 0.0005(15)
C8 0.064(3) 0.053(2) 0.078(3) 0.005(2) 0.004(2) -0.0132(19)
C9 0.079(3) 0.053(2) 0.095(4) 0.019(2) -0.008(3) 0.001(2)
C10 0.097(3) 0.049(2) 0.091(3) -0.015(2) 0.029(3) -0.001(2)
C11 0.043(2) 0.045(2) 0.044(2) -0.0018(16) -0.0041(16) -0.0010(14)
C12 0.064(2) 0.046(2) 0.065(3) 0.0025(19) 0.015(2) -0.0073(19)
C13 0.089(3) 0.040(2) 0.068(3) 0.0035(19) 0.010(2) -0.0054(19)
C14 0.071(3) 0.044(2) 0.067(3) -0.009(2) 0.005(2) 0.0104(19)
C15 0.056(2) 0.053(2) 0.060(3) -0.0026(19) 0.0045(19) 0.0020(17)
C16 0.052(2) 0.041(2) 0.055(2) 0.0006(16) 0.0071(18) -0.0050(15)
loop_
_atom_type_symbol
_atom_type_description
_atom_type_scat_dispersion_real
_atom_type_scat_dispersion_imag
_atom_type_scat_source
C C 0.0033 0.0016 'International Tables Vol C Tables 4.2.6.8 and 6.1.1.4'
H H 0.0000 0.0000 'International Tables Vol C Tables 4.2.6.8 and 6.1.1.4'
N N 0.0061 0.0033 'International Tables Vol C Tables 4.2.6.8 and 6.1.1.4'
loop_
_geom_angle_atom_site_label_1
_geom_angle_atom_site_label_2
_geom_angle_atom_site_label_3
_geom_angle
_geom_angle_site_symmetry_1
_geom_angle_site_symmetry_3
_geom_angle_publ_flag
N2 N1 C11 118.2(3) . . ?
N2 N1 C1 115.2(3) . . ?
C11 N1 C1 124.4(3) . . ?
C6 C1 C2 117.5(3) . . ?
C6 C1 N1 121.9(3) . . ?
C2 C1 N1 120.6(3) . . ?
C3 C2 C1 120.5(3) . . ?
C2 C3 C4 122.4(3) . . ?
C5 C4 C3 115.4(3) . . ?
C5 C4 C7 121.9(3) . . ?
C3 C4 C7 122.4(3) . . ?
C6 C5 C4 122.9(3) . . ?
C1 C6 C5 121.3(3) . . ?
C8 C7 C9 107.5(3) . . ?
C8 C7 C4 112.1(3) . . ?
C9 C7 C4 111.4(3) . . ?
C8 C7 C10 108.5(3) . . ?
C9 C7 C10 109.7(3) . . ?
C4 C7 C10 107.4(3) . . ?
C12 C11 C16 117.7(3) . . ?
C12 C11 N1 120.0(3) . . ?
C16 C11 N1 122.3(3) . . ?
C13 C12 C11 120.9(4) . . ?
C14 C13 C12 120.7(4) . . ?
C13 C14 C15 119.4(4) . . ?
C14 C15 C16 120.5(4) . . ?
C15 C16 C11 120.9(4) . . ?
loop_
_geom_bond_atom_site_label_1
_geom_bond_atom_site_label_2
_geom_bond_distance
_geom_bond_site_symmetry_2
_geom_bond_publ_flag
N1 N2 1.399(4) . ?
N1 C11 1.407(4) . ?
N1 C1 1.428(4) . ?
C1 C6 1.373(5) . ?
C1 C2 1.403(4) . ?
C2 C3 1.376(5) . ?
C3 C4 1.404(5) . ?
C4 C5 1.382(5) . ?
C4 C7 1.540(5) . ?
C5 C6 1.379(5) . ?
C7 C8 1.528(5) . ?
C7 C9 1.532(6) . ?
C7 C10 1.543(6) . ?
C11 C12 1.390(5) . ?
C11 C16 1.396(5) . ?
C12 C13 1.382(6) . ?
C13 C14 1.371(6) . ?
C14 C15 1.374(6) . ?
C15 C16 1.380(5) . ?
