#------------------------------------------------------------------------------
#$Date: 2020-03-25 02:28:25 +0200 (Wed, 25 Mar 2020) $
#$Revision: 249676 $
#$URL: file:///home/coder/svn-repositories/cod/cif/4/03/80/4038099.cif $
#------------------------------------------------------------------------------
#
# This file is available in the Crystallography Open Database (COD),
# http://www.crystallography.net/
#
# All data on this site have been placed in the public domain by the
# contributors.
#
data_4038099
loop_
_publ_author_name
'Blahun, Oleksandr P.'
'Rozhenko, Alexander B.'
'Rusanov, Eduard'
'Zhersh, Serhii'
'Tolmachev, Andrey A.'
'Volochnyuk, Dmitriy M.'
'Grygorenko, Oleksandr O.'
_publ_section_title
;
 Twisting and turning the sulfonamide bond: synthetic, quantum chemical
 and crystallographic study.
;
_journal_name_full               'The Journal of organic chemistry'
_journal_paper_doi               10.1021/acs.joc.9b03394
_journal_year                    2020
_chemical_formula_moiety         'C4 H7 N O2 S'
_chemical_formula_sum            'C4 H7 N O2 S'
_chemical_formula_weight         133.17
_space_group_crystal_system      orthorhombic
_space_group_IT_number           62
_space_group_name_Hall           '-P 2ac 2n'
_space_group_name_H-M_alt        'P n m a'
_atom_sites_solution_hydrogens   geom
_audit_creation_method           SHELXL-2016/4
_cell_angle_alpha                90
_cell_angle_beta                 90
_cell_angle_gamma                90
_cell_formula_units_Z            4
_cell_length_a                   9.7717(16)
_cell_length_b                   8.6052(11)
_cell_length_c                   6.3132(9)
_cell_measurement_reflns_used    572
_cell_measurement_temperature    123(2)
_cell_measurement_theta_max      27.72
_cell_measurement_theta_min      3.84
_cell_volume                     530.86(13)
_computing_cell_refinement       'Bruker SMART'
_computing_data_collection       'Bruker SMART'
_computing_data_reduction        'Bruker SAINT'
_computing_molecular_graphics    'Bruker SHELXTL'
_computing_publication_material  'Bruker SHELXTL'
_computing_structure_refinement  'SHELXL-2016/4 (Sheldrick, 2016)'
_computing_structure_solution    'Bruker SHELXTL'
_diffrn_ambient_temperature      123(2)
_diffrn_measured_fraction_theta_full 0.998
_diffrn_measured_fraction_theta_max 0.993
_diffrn_measurement_device_type  'CCD area detector'
_diffrn_measurement_method       'omega scans'
_diffrn_radiation_monochromator  graphite
_diffrn_radiation_source         'sealed tube'
_diffrn_radiation_type           MoK\a
_diffrn_radiation_wavelength     0.71073
_diffrn_reflns_av_R_equivalents  0.0464
_diffrn_reflns_av_unetI/netI     0.0341
_diffrn_reflns_Laue_measured_fraction_full 0.998
_diffrn_reflns_Laue_measured_fraction_max 0.993
_diffrn_reflns_limit_h_max       12
_diffrn_reflns_limit_h_min       -11
_diffrn_reflns_limit_k_max       10
_diffrn_reflns_limit_k_min       -11
_diffrn_reflns_limit_l_max       8
_diffrn_reflns_limit_l_min       -8
_diffrn_reflns_number            4088
_diffrn_reflns_point_group_measured_fraction_full 0.998
_diffrn_reflns_point_group_measured_fraction_max 0.993
_diffrn_reflns_theta_full        25.242
_diffrn_reflns_theta_max         28.284
_diffrn_reflns_theta_min         3.843
_exptl_absorpt_coefficient_mu    0.503
_exptl_absorpt_correction_T_max  0.95
_exptl_absorpt_correction_T_min  0.74
_exptl_absorpt_correction_type   multi-scan
_exptl_absorpt_process_details   SADABS
_exptl_crystal_colour            colourless
_exptl_crystal_density_diffrn    1.666
_exptl_crystal_description       prizm
_exptl_crystal_F_000             280
_exptl_crystal_size_max          0.340
_exptl_crystal_size_mid          0.200
_exptl_crystal_size_min          0.110
_refine_diff_density_max         0.345
_refine_diff_density_min         -0.471
_refine_diff_density_rms         0.075
_refine_ls_extinction_method     none
_refine_ls_goodness_of_fit_ref   1.057
_refine_ls_hydrogen_treatment    constr
_refine_ls_matrix_type           full
_refine_ls_number_parameters     43
_refine_ls_number_reflns         701
_refine_ls_number_restraints     0
_refine_ls_restrained_S_all      1.057
_refine_ls_R_factor_all          0.0447
_refine_ls_R_factor_gt           0.0360
_refine_ls_shift/su_max          0.001
_refine_ls_shift/su_mean         0.000
_refine_ls_structure_factor_coef Fsqd
_refine_ls_weighting_details
'w=1/[\s^2^(Fo^2^)+(0.0525P)^2^+0.1606P] where P=(Fo^2^+2Fc^2^)/3'
_refine_ls_weighting_scheme      calc
_refine_ls_wR_factor_gt          0.0900
_refine_ls_wR_factor_ref         0.0949
_reflns_Friedel_coverage         0.000
_reflns_number_gt                586
_reflns_number_total             701
_reflns_threshold_expression     'I > 2\s(I)'
_cod_data_source_file            jo9b03394_si_002.cif
_cod_data_source_block           xr92
_cod_database_code               4038099
_shelx_shelxl_version_number     2016/4
_shelx_space_group_comment
;
The symmetry employed for this shelxl refinement is uniquely defined
by the following loop, which should always be used as a source of
symmetry information in preference to the above space-group names.
They are only intended as comments.
;
_shelx_estimated_absorpt_t_min   0.848
_shelx_estimated_absorpt_t_max   0.947
_shelx_res_file
;
TITL xr92 in Pnma
 xr92.res created by SHELXL-2016/4 at 18:02:25 on 07-Sep-2018
CELL 0.71073   9.7717   8.6052   6.3132  90.000  90.000  90.000
ZERR    4.00   0.0016   0.0011   0.0009   0.000   0.000   0.000
LATT 1
SYMM 0.5-X, -Y, 0.5+Z
SYMM -X, 0.5+Y, -Z
SYMM 0.5+X, 0.5-Y, 0.5-Z
SFAC C  H  N  O  S
UNIT 16  28  4  8  4
L.S. 4
ACTA
BOND
FMAP 2
PLAN 20
SIZE 0.11 0.20 0.34
TEMP -150
WGHT    0.052500    0.160600
FVAR       0.28074
MOLE 1
S1    5    0.349669    0.250000    0.213759    10.50000    0.01614    0.01733 =
         0.01402    0.00000   -0.00038    0.00000
O1    4    0.364682    0.392613    0.328894    11.00000    0.02739    0.02332 =
         0.02180   -0.00825   -0.00128    0.00064
N1    3    0.459891    0.250000    0.009116    10.50000    0.01599    0.01739 =
         0.01708    0.00000    0.00130    0.00000
C1    1    0.390535    0.370654   -0.136188    11.00000    0.02242    0.02163 =
         0.01876    0.00528   -0.00030   -0.00182
AFIX  23
H1A   2    0.442773    0.394966   -0.266400    11.00000   -1.20000
H1B   2    0.361060    0.466546   -0.062530    11.00000   -1.20000
AFIX   0
C2    1    0.275359    0.250000   -0.168080    10.50000    0.01931    0.02194 =
         0.01488    0.00000   -0.00321    0.00000
AFIX  13
H2    2    0.221591    0.250000   -0.302853    10.50000   -1.20000
AFIX   0

C3    1    0.199934    0.250000    0.045046    10.50000    0.01342    0.02119 =
         0.02030    0.00000   -0.00186    0.00000
AFIX  23
H3A   2    0.143141    0.155828    0.064722    10.50000   -1.20000
H3B   2    0.143141    0.344172    0.064722    10.50000   -1.20000

AFIX   0
HKLF 4




REM  xr92 in Pnma
REM R1 =  0.0360 for     586 Fo > 4sig(Fo)  and  0.0447 for all     701 data
REM     43 parameters refined using      0 restraints

END

WGHT      0.0553      0.1442

REM Highest difference peak  0.345,  deepest hole -0.471,  1-sigma level  0.075
Q1    1   0.4025  0.2500  0.1074  10.50000  0.05    0.34
Q2    1   0.2755  0.2500  0.1215  10.50000  0.05    0.34
Q3    1   0.2407  0.2500 -0.0672  10.50000  0.05    0.34
Q4    1   0.3258  0.3115 -0.1671  11.00000  0.05    0.24
Q5    1   0.3991  0.3309  0.2831  11.00000  0.05    0.23
Q6    1   0.4048  0.4582 -0.0894  11.00000  0.05    0.22
Q7    1   0.4589  0.5503 -0.1348  11.00000  0.05    0.21
Q8    1   0.4330  0.4541  0.2900  11.00000  0.05    0.21
Q9    1   0.3578  0.3960  0.2011  11.00000  0.05    0.19
Q10   1   0.4362  0.3006 -0.0574  11.00000  0.05    0.18
Q11   1   0.4856  0.3127 -0.2566  11.00000  0.05    0.18
Q12   1   0.2333  0.5098  0.1381  11.00000  0.05    0.18
Q13   1   0.1392  0.2500  0.2720  10.50000  0.05    0.18
Q14   1   0.3430  0.4730  0.2473  11.00000  0.05    0.18
Q15   1   0.4967  0.2500  0.0952  10.50000  0.05    0.18
Q16   1   0.2666  0.4656 -0.1445  11.00000  0.05    0.17
Q17   1   0.1731  0.3627  0.2676  11.00000  0.05    0.17
Q18   1   0.2984  0.3608  0.2843  11.00000  0.05    0.17
Q19   1   0.3613  0.3751  0.4268  11.00000  0.05    0.17
Q20   1   0.2195  0.3761  0.0533  11.00000  0.05    0.17
;
_shelx_res_checksum              85704
_shelx_hkl_file
;
   0   0   1   -0.11    0.12
   0   0   1   -0.37    0.09
   0   0  -1   -0.26    0.10
   0   0  -1   -0.18    0.11
   0   0   2  185.14    5.37
   0   0   2  194.21    5.23
   0   0  -2  192.73    5.19
   0   0  -2  191.42    5.37
   0   0   3   -0.23    0.21
   0   0   3    0.02    0.20
   0   0   4    0.99    0.42
   0   0   4    2.35    0.60
   0   0  -5   -0.06    0.36
   0   0   5   -0.06    0.36
   0   0   5    0.07    0.31
   0   0   6   33.87    2.13
   0   0  -6   33.44    2.09
   0   0  -7    0.12    0.43
   0   0   7   -0.14    0.53
   0   0  -8    2.25    0.80
   0   0   8    0.14    0.73
   0   0  -8    1.32    0.59
   0  -1   0   -0.89    0.07
   0   1   0   -0.92    0.10
   0   1   0   -1.10    0.03
   0  -1   0   -0.93    0.10
   0   1   1  179.89    4.65
   0   1  -1  180.45    4.85
   0   1  -1  183.58    4.76
   0  -1   1  173.46    4.76
   0  -1   1  181.06    4.86
   0  -1  -1  179.51    4.62
   0   1   1  181.06    4.87
   0  -1  -1  170.27    4.86
   0   1  -2   -0.21    0.17
   0  -1   2   -0.09    0.19
   0  -1  -2   -0.12    0.12
   0  -1  -2    0.04    0.21
   0   1  -2   -0.04    0.19
   0   1   2   -0.10    0.14
   0  -1  -2    0.02    0.21
   0  -1   2    0.04    0.20
   0  -1  -3   40.36    1.58
   0  -1   3   41.16    1.81
   0   1   3   40.98    1.63
   0  -1  -3   40.21    1.82
   0  -1   3   39.78    1.76
   0  -1  -4   -0.12    0.27
   0  -1   4    0.11    0.21
   0   1   4   -0.35    0.18
   0  -1   4    0.08    0.27
   0  -1   5   38.74    2.21
   0  -1   5   42.95    2.24
   0  -1  -5   43.97    2.32
   0   1   5   43.23    2.12
   0   1   6    0.06    0.36
   0  -1   6   -0.10    0.45
   0  -1   6   -0.05    0.41
   0  -1  -6   -0.02    0.46
   0   1   7    6.98    1.23
   0   1  -7    8.34    1.28
   0  -1  -7    5.13    1.07
   0  -1  -7    7.28    0.99
   0  -1   7    5.03    1.16
   0  -1  -8    1.51    0.72
   0  -1   8   -0.21    0.64
   0  -1  -8   -0.03    0.36
   0   1  -8    0.79    0.51
   0  -2   0  781.31   18.78
   0   2   0  754.25   19.11
   0  -2   0  704.14   19.12
   0  -2   1   -0.06    0.16
   0   2  -1   -0.03    0.18
   0  -2  -1    0.14    0.24
   0  -2   1   -0.10    0.21
   0   2  -1    0.25    0.27
   0   2   1    0.10    0.21
   0  -2  -1    0.01    0.08
   0  -2   2   12.45    0.83
   0   2   2   13.90    0.89
   0  -2  -2   12.19    0.86
   0  -2  -2   13.47    0.58
   0   2  -2   13.12    0.87
   0  -2  -2   12.03    0.54
   0   2  -2   13.61    0.86
   0  -2   2   13.19    0.89
   0  -2   3   -0.04    0.22
   0   2   3   -0.02    0.17
   0  -2   3   -0.19    0.20
   0  -2  -3    0.17    0.28
   0  -2  -3   -0.15    0.17
   0  -2   4   61.82    2.70
   0  -2  -4   65.00    2.75
   0   2   4   59.95    2.29
   0  -2   4   60.16    2.59
   0  -2  -5   -0.25    0.35
   0  -2   5    0.28    0.39
   0  -2   5   -0.15    0.33
   0   2   5   -0.11    0.30
   0  -2   6    1.45    0.65
   0   2   6    0.67    0.53
   0  -2  -6    1.11    0.59
   0  -2  -6    0.75    0.38
   0  -2   6    0.64    0.58
   0  -2   7    0.18    0.55
   0  -2   7    0.40    0.52
   0  -2  -7    0.46    0.39
   0  -2  -7    0.44    0.50
   0   2  -8    2.01    0.69
   0  -2   8    0.81    0.81
   0  -2  -8    0.78    0.66
   0  -3   0   -0.25    0.15
   0   3   0   -0.35    0.08
   0   3   0   -0.43    0.22
   0  -3   0   -0.44    0.26
   0   3   1   16.75    0.55
   0  -3  -1   16.07    0.55
   0  -3   1   17.70    0.93
   0   3   1   18.93    1.03
   0   3  -1   18.21    1.03
   0   3  -1   16.14    0.90
   0  -3  -1   15.71    1.01
   0  -3   1   15.69    0.99
   0  -3  -2   -0.03    0.09
   0  -3  -2   -0.19    0.08
   0  -3   2   -0.14    0.23
   0  -3   2   -0.05    0.24
   0  -3  -2    0.02    0.26
   0  -3  -3    5.47    0.84
   0  -3   3    3.82    0.65
   0  -3  -3    3.73    0.34
   0  -3   3    3.67    0.71
   0  -3  -3    3.97    0.39
   0  -3  -4    0.23    0.26
   0  -3  -4    0.04    0.39
   0  -3   4   -0.16    0.25
   0  -3   4   -0.13    0.27
   0  -3  -4    0.09    0.19
   0  -3   5   56.35    2.75
   0  -3  -5   57.15    2.11
   0  -3   5   57.82    2.94
   0  -3  -5   61.80    3.03
   0  -3   6    0.01    0.43
   0  -3  -6    0.06    0.25
   0  -3  -6   -0.03    0.50
   0  -3   6    0.20    0.56
   0  -3  -7    5.17    1.22
   0  -3   7    5.70    1.35
   0  -3   7    5.10    1.14
   0  -3   8   -0.35    0.71
   0  -3   8    0.00    0.81
   0   3  -8    1.07    0.48
   0  -3  -8   -0.21    0.60
   0  -4   0   26.06    1.46
   0  -4   0   27.89    1.13
   0  -4   1   -0.34    0.30
   0   4   1    0.16    0.13
   0  -4  -1    0.07    0.35
   0   4  -1   -0.11    0.21
   0  -4  -1   -0.02    0.10
   0  -4   1   -0.27    0.17
   0  -4   2    1.65    0.46
   0  -4  -2    2.20    0.57
   0  -4   2    1.71    0.50
   0  -4  -3   -0.20    0.35
   0  -4  -3   -0.04    0.11
   0  -4  -3   -0.19    0.10
   0  -4   3    0.05    0.27
   0  -4   3    0.03    0.30
   0  -4   4  126.54    4.62
   0  -4   4  133.48    4.84
   0  -4  -4  127.16    4.82
   0  -4  -4  129.12    3.58
   0  -4  -4  133.70    3.67
   0  -4  -5    0.04    0.25
   0  -4  -5    0.58    0.58
   0  -4   5   -0.38    0.33
   0  -4   5    0.02    0.38
   0  -4   6    4.97    1.00
   0  -4   6    3.65    1.02
   0  -4  -6    6.69    1.32
   0  -4   7    0.88    0.63
   0  -4   7    0.10    0.77
   0  -4  -7    0.69    0.67
   0  -5   0    0.29    0.44
   0  -5   0   -0.13    0.17
   0   5   0    0.14    0.15
   0  -5  -1   72.21    3.01
   0  -5  -1   73.67    2.13
   0  -5   1   71.23    2.95
   0  -5   1   74.36    2.66
   0   5   1   76.55    2.14
   0  -5   2   -0.27    0.21
   0  -5  -2   -0.07    0.39
   0  -5   2    0.15    0.37
   0  -5  -3   11.38    1.32
   0  -5   3   12.39    1.28
   0  -5   3   13.37    1.21
   0  -5   4   -0.10    0.41
   0  -5   4   -0.32    0.25
   0  -5  -4   -0.02    0.47
   0  -5  -5   11.89    1.61
   0  -5   5   16.40    1.45
   0  -5   5   13.18    1.66
   0  -5  -6    0.09    0.58
   0  -5   6   -0.28    0.46
   0  -5   6    0.28    0.53
   0  -5   7   -0.25    0.49
   0  -5  -7    0.59    0.78
   0  -5   7   -0.26    0.55
   0  -6   0  286.81    8.69
   0  -6   0  288.89    7.68
   0   6   0  274.56    7.60
   0  -6  -1   -0.57    0.41
   0  -6  -1   -0.03    0.15
   0  -6   1    0.09    0.25
   0  -6   1    0.29    0.49
   0   6   1   -0.05    0.18
   0  -6   2   38.26    2.13
   0  -6   2   35.52    1.92
   0  -6  -2   35.94    2.16
   0  -6   3   -0.16    0.30
   0  -6   3   -0.04    0.39
   0  -6  -3    0.23    0.55
   0  -6   4   27.47    2.01
   0  -6   4   29.14    1.98
   0  -6  -4   25.44    2.02
   0  -6  -5    0.27    0.60
   0  -6   5   -0.28    0.47
   0  -6   5    0.37    0.54
   0  -6   6    5.14    1.19
   0  -6   6    4.63    1.27
   0  -6  -6    3.68    1.20
   0  -6   7    0.54    0.70
   0  -7   0   -0.01    0.27
   0  -7   0    0.76    0.61
   0  -7   1   76.61    2.97
   0  -7  -1   77.47    3.58
   0  -7  -1   76.38    2.37
   0  -7   1   77.90    3.53
   0  -7   2    0.13    0.53
   0  -7   2    0.04    0.33
   0  -7  -2    0.17    0.57
   0  -7  -3   21.58    2.04
   0  -7   3   19.69    1.70
   0  -7   3   16.14    1.66
   0  -7   4   -0.30    0.41
   0  -7   4    0.53    0.46
   0  -7  -4    0.38    0.62
   0  -7  -5   10.64    1.79
   0  -7   5    9.21    1.44
   0  -7   5    8.74    1.60
   0  -7   6    1.00    0.86
   0  -7  -6    1.06    0.92
   0  -7   6    0.28    0.72
   0  -8   0  251.30    7.12
   0  -8   0  248.15    8.42
   0  -8   1   -0.53    0.51
   0  -8  -1   -0.78    0.54
   0  -8   1    0.13    0.36
   0  -8  -2   18.20    1.99
   0  -8   2   21.87    1.87
   0  -8   2   20.72    1.57
   0  -8   3    0.07    0.48
   0  -8   3    0.40    0.56
   0  -8  -3    0.96    0.73
   0  -8  -4   -0.03    0.75
   0  -8   4    1.71    0.84
   0  -8   4    1.52    0.81
   0  -8   5    0.04    0.51
   0  -8  -5    0.18    0.73
   0  -8   5   -0.24    0.63
   0  -8   6    6.62    1.49
   0  -9   0    0.09    0.73
   0  -9  -1    5.45    1.39
   0  -9   1    8.87    1.61
   0  -9   1    7.13    1.07
   0  -9  -2   -0.51    0.64
   0  -9   2    0.21    0.62
   0  -9   2   -0.02    0.47
   0  -9   3   11.04    1.67
   0  -9   3   11.28    1.63
   0  -9  -3    6.96    1.50
   0  -9   4    0.66    0.68
   0  -9  -4    0.09    0.76
   0  -9   4   -0.46    0.63
   0  -9   5   30.09    2.53
   0  -9   5   25.21    2.75
   0 -10   0   37.94    2.93
   0 -10  -1    0.59    0.89
   0 -10   1   -0.16    0.74
   0 -10   2    3.26    1.12
   0 -10  -2    1.85    1.15
   0 -10  -3    0.35    0.98
   0 -10   3   -0.02    0.63
   0 -10   3    0.84    0.77
   0 -10   4   11.10    1.90
   0 -10   4   14.36    2.06
   0 -11   0    0.03    1.00
   0 -11   1    7.46    1.81
   0 -11  -1    6.47    1.71
   0 -11  -2   -0.28    1.03
   0 -11   2    1.14    0.89
   1   0   0   -0.10    0.02
  -1   0   0   -0.03    0.06
  -1   0   0   -0.04    0.05
   1   0   0   -0.07    0.06
  -1   0  -1   70.57    2.01
  -1   0   1   71.00    2.03
   1   0  -1   70.10    2.03
   1   0   1   68.88    2.05
   1   0  -1   68.58    2.07
  -1   0  -1   71.34    2.05
   1   0  -1   72.13    2.17
  -1   0   1   72.43    2.17
  -1   0  -1   69.45    2.01
  -1   0   2  106.46    3.26
   1   0   2  109.50    3.24
  -1   0  -2  113.37    3.23
   1   0   2  107.94    3.24
   1   0  -2  108.86    3.23
  -1   0  -2  113.36    3.26
  -1   0   2  103.69    3.38
  -1   0  -2  110.26    3.24
   1   0  -2  109.11    3.41
  -1   0   3    2.47    0.49
   1   0   3    3.62    0.54
  -1   0  -3    2.32    0.47
  -1   0   3    2.99    0.57
   1   0   3    3.12    0.54
  -1   0  -4   16.37    1.14
  -1   0   4   15.82    1.17
   1   0   4   15.48    1.11
  -1   0   4   16.74    1.25
  -1   0   5    8.51    1.18
  -1   0  -5    7.92    1.03
  -1   0   5   10.46    1.18
   1   0   5    9.56    1.13
   1   0  -6   57.88    2.94
  -1   0   6   61.46    3.02
  -1   0   6   59.69    3.09
  -1   0  -6   57.36    2.86
   1   0   6   60.76    2.95
  -1   0   7    0.43    0.65
  -1   0  -7    0.50    0.47
   1   0  -7    0.80    0.55
   1   0  -7    0.15    0.37
   1   0   7    0.19    0.52
   1   0  -8   24.99    1.85
   1   0   8   29.73    2.39
   1   0  -8   27.38    2.23
   1  -1   0   -0.09    0.09
   1   1   0   -0.06    0.12
   1  -1   0    0.10    0.09
  -1   1   0   -0.09    0.07
  -1  -1   0   -0.19    0.10
  -1  -1   0   -0.13    0.07
  -1   1   0   -0.03    0.10
   1   1   0   -0.19    0.06
   1  -1  -1  161.38    4.56
  -1  -1  -1  166.29    4.28
   1   1   1  173.21    4.57
   1   1   1  161.97    4.30
  -1  -1   1  163.00    4.49
   1  -1  -1  162.28    4.31
  -1   1  -1  167.56    4.43
  -1   1  -1  162.76    4.46
  -1  -1   1  162.32    4.63
   1  -1   1  165.80    4.50
   1  -1   1  162.29    4.43
  -1  -1  -1  169.18    4.57
   1   1  -1  166.29    4.63
   1  -1  -1  167.45    4.59
   1   1  -1  165.79    4.47
  -1   1   1  167.92    4.31
   1  -1   2   54.15    1.86
   1  -1  -2   55.58    2.07
  -1  -1   2   52.95    2.03
  -1   1   2   52.78    2.02
  -1   1  -2   52.69    1.95
  -1  -1  -2   54.16    1.95
   1  -1  -2   56.94    2.05
   1   1  -2   58.59    2.09
   1   1   2   56.50    1.79
  -1   1  -2   58.39    1.90
  -1  -1  -2   56.71    1.77
  -1  -1   2   56.13    2.03
   1   1  -2   56.30    1.99
   1  -1   2   55.56    2.01
   1  -1  -2   56.53    1.78
   1   1   2   56.23    1.97
   1  -1  -2   54.11    1.81
   1  -1  -3    7.82    0.61
  -1  -1   3    6.60    0.75
  -1  -1   3    8.93    0.86
   1  -1   3    7.59    0.68
   1  -1  -3    7.00    0.81
  -1  -1  -3    8.09    0.72
   1   1   3    8.01    0.64
  -1   1   3    8.01    0.68
  -1  -1  -3    8.57    0.66
  -1   1   3    6.31    0.77
   1  -1  -3    8.37    0.66
   1  -1   3    8.96    0.87
  -1   1  -3    7.85    0.69
  -1  -1   4    0.54    0.37
   1  -1   4    0.27    0.30
   1  -1  -4    0.19    0.26
   1  -1  -4    0.56    0.38
  -1   1   4    0.21    0.28
  -1  -1  -4    0.47    0.36
  -1   1   4    0.63    0.41
   1   1   4    0.68    0.32
   1  -1   4   -0.02    0.23
  -1  -1   4    0.27    0.35
   1   1   5   20.49    1.39
   1  -1   5   22.89    1.53
  -1  -1  -5   21.26    1.52
   1  -1   5   23.08    1.61
   1  -1  -5   21.44    1.61
   1  -1  -5   22.03    1.31
  -1  -1   5   21.09    1.58
  -1  -1   5   25.04    1.70
  -1   1   5   19.48    1.42
  -1   1  -6   20.48    1.52
   1  -1   6   23.97    1.83
   1  -1  -6   21.55    1.77
   1  -1  -6   22.71    1.45
   1  -1   6   19.95    1.62
  -1  -1   6   23.72    1.82
  -1  -1  -6   22.77    1.70
  -1  -1   6   20.94    1.77
   1   1   6   22.41    1.63
  -1  -1  -7   11.27    1.51
   1   1  -7   11.41    1.34
   1  -1  -7   10.42    1.52
   1   1  -7   14.13    1.61
   1  -1  -7   12.69    1.28
   1  -1   7   12.05    1.64
  -1  -1   7   12.33    1.73
  -1  -1   7   11.54    1.67
  -1   1  -7   10.41    1.36
   1   1   7    9.94    1.37
   1   1  -8    9.75    1.48
  -1   1  -8   12.88    1.62
   1   1  -8   11.26    1.45
  -1  -1   8   15.76    2.05
   1  -1   8   12.15    1.86
  -1  -1  -8   14.75    1.83
   1  -1  -8   14.11    1.45
   1  -1  -8   14.10    1.85
   1  -2   0   -0.25    0.18
  -1  -2   0   -0.26    0.28
   1   2   0   -0.02    0.10
  -1   2   0   -0.19    0.17
   1   2   0   -0.15    0.12
  -1   2   0   -0.01    0.18
   1   2   0    0.10    0.28
   1  -2   0   -0.20    0.22
   1  -2   1   45.68    1.65
   1   2  -1   46.09    1.62
  -1  -2  -1   45.60    1.27
   1   2   1   47.77    1.73
  -1  -2   1   43.85    1.62
  -1  -2   1   43.68    1.73
  -1  -2  -1   44.33    1.71
   1  -2  -1   43.28    1.65
   1  -2  -1   46.14    1.40
  -1   2  -1   46.20    1.55
   1   2   1   44.42    1.29
  -1   2   1   47.01    1.67
  -1   2  -1   45.78    1.64
   1   2  -1   48.34    1.78
   1  -2   1   46.02    1.56
   1  -2  -2   29.46    1.42
  -1  -2  -2   28.66    1.38
  -1  -2   2   32.21    1.46
  -1   2  -2   31.27    1.28
  -1  -2  -2   31.27    1.03
   1   2   2   30.11    1.04
   1  -2  -2   30.40    1.09
   1  -2  -2   30.85    1.13
   1  -2   2   31.88    1.46
   1   2   2   30.83    1.41
   1  -2   2   29.67    1.26
   1   2  -2   30.82    1.46
  -1  -2   2   32.03    1.47
  -1  -2  -3    9.03    0.89
   1  -2   3    9.93    0.97
   1   2   3    8.49    0.59
  -1  -2  -3    8.32    0.58
  -1  -2   3    5.13    0.74
   1  -2  -3    8.79    0.63
   1  -2  -3    8.63    0.59
   1  -2   3    9.11    0.73
   1  -2  -3    7.72    0.87
  -1  -2   3    6.89    0.82
   1  -2   4    4.36    0.82
   1  -2  -4    5.87    0.93
   1  -2   4    5.57    0.79
  -1  -2   4    6.32    0.95
   1   2   4    5.78    0.66
  -1  -2   4    6.83    0.96
   1  -2  -4    4.94    0.59
  -1  -2  -4    4.76    0.81
  -1  -2  -5   41.81    2.30
   1   2   5   41.13    1.96
  -1  -2   5   43.77    2.35
   1  -2  -5   43.33    2.43
  -1  -2   5   38.74    2.33
   1  -2  -5   42.66    1.85
   1  -2   5   42.44    2.19
   1  -2   5   40.97    2.31
  -1  -2  -6   41.22    2.48
  -1  -2   6   42.22    2.52
  -1  -2   6   40.04    2.56
   1   2   6   45.27    2.24
   1  -2   6   39.15    2.31
   1  -2  -6   39.32    1.93
   1  -2  -6   42.76    2.60
   1  -2   6   40.06    2.51
   1  -2  -7    2.08    0.57
  -1  -2   7    3.00    1.06
  -1  -2   7    0.56    0.68
   1  -2   7    0.97    0.74
  -1   2  -7    3.87    0.83
  -1  -2  -7    2.05    0.81
   1  -2  -7    4.20    1.06
   1  -2   7    3.21    0.99
  -1   2  -8   11.09    1.47
   1   2  -8    9.34    1.40
  -1  -2  -8   10.82    1.77
  -1  -2   8    8.75    1.66
   1  -2   8   15.81    2.17
   1  -2  -8   13.72    2.00
   1   2  -8   10.28    1.42
  -1  -2   8   10.23    1.80
  -1   3   0    0.01    0.19
  -1   3   0    0.09    0.17
  -1  -3   0    0.13    0.29
  -1  -3   0   -0.05    0.13
   1  -3   0    0.00    0.23
   1  -3   0   -0.04    0.15
   1   3   0   -0.17    0.22
   1   3   0    0.05    0.07
   1   3   1  102.47    2.85
  -1   3   1  110.35    3.36
   1   3   1  105.62    3.39
  -1  -3  -1  102.33    3.41
   1   3  -1   99.64    3.14
  -1   3  -1  102.43    3.17
   1  -3  -1  100.08    3.32
  -1   3  -1  106.46    3.19
   1   3  -1  107.72    3.42
   1  -3   1  104.27    3.24
  -1  -3   1  101.25    3.16
   1  -3  -1  104.10    2.85
  -1  -3   1   96.64    3.38
  -1   3   1  102.52    2.82
   1  -3   1   96.50    3.17
  -1   3  -2  115.07    3.58
  -1   3   2  117.13    3.10
   1  -3  -2  111.29    3.11
  -1  -3   2  112.05    3.82
   1  -3   2  114.58    3.73
  -1  -3  -2  110.48    3.79
  -1  -3   2  115.27    3.71
   1  -3  -2  112.22    3.78
   1  -3   2  114.57    3.60
   1  -3  -3   70.43    2.24
   1   3   3   71.78    2.14
   1  -3  -3   71.45    2.20
   1  -3   3   67.26    2.83
   1  -3   3   70.38    2.63
  -1  -3  -3   75.67    2.90
  -1  -3   3   70.39    2.85
   1  -3  -3   67.43    2.86
  -1  -3   3   70.64    2.87
  -1  -3  -3   75.15    2.13
   1  -3  -4   45.84    2.41
  -1  -3  -4   47.49    2.33
   1  -3   4   41.86    2.31
  -1  -3   4   44.12    2.33
  -1  -3  -4   47.28    1.72
   1   3   4   45.44    1.74
  -1  -3   4   47.72    2.35
   1  -3  -4   47.26    1.73
   1  -3   4   47.70    2.16
   1  -3  -5   80.63    3.67
  -1  -3  -5   79.30    3.52
  -1  -3   5   80.11    3.48
   1  -3  -5   79.94    2.73
  -1  -3   5   80.48    3.64
   1  -3   5   70.78    3.44
   1  -3   5   79.83    3.28
   1   3   5   77.87    2.82
  -1  -3  -6    6.66    0.74
  -1  -3   6    6.65    1.31
   1  -3   6    6.77    1.15
   1  -3  -6    7.65    0.84
   1  -3   6    9.52    1.52
   1  -3  -6    5.87    1.23
   1   3   6    7.07    0.94
  -1  -3  -6    6.28    1.19
  -1  -3   6    8.10    1.36
   1  -3  -7   18.41    2.14
   1  -3   7   16.15    1.79
  -1  -3   7   14.66    1.87
   1  -3   7   13.55    1.89
  -1  -3  -7   18.39    2.04
  -1  -3   7   14.87    2.08
  -1  -3   8    0.87    0.90
  -1  -3  -8    1.32    0.90
   1  -3  -8    1.33    0.88
  -1  -3   8    1.38    0.91
   1  -3   8    1.04    0.80
  -1   3  -8    2.24    0.69
   1  -3   8    0.57    0.85
   1   3  -8    0.91    0.63
   1  -4   0   -0.07    0.17
  -1   4   0    0.25    0.22
   1   4   0    0.04    0.11
   1  -4   0    0.00    0.30
  -1  -4   0    0.01    0.36
  -1  -4   0    0.00    0.14
   1   4   1   28.41    0.86
   1  -4   1   27.00    1.42
   1  -4   1   28.03    1.37
  -1  -4  -1   25.95    1.54
   1   4   1   28.32    0.87
   1  -4  -1   29.60    1.07
  -1  -4   1   29.57    1.36
   1  -4  -1   27.72    1.51
  -1   4   1   29.80    1.07
  -1  -4   1   27.69    1.55
   1   4  -1   29.56    1.36
  -1   4  -1   29.57    1.43
   1  -4   2  103.92    3.63
   1  -4  -2  107.76    3.83
  -1   4   2  110.60    2.94
   1  -4   2  111.03    3.74
   1  -4  -2  112.10    2.99
  -1  -4  -2  104.86    3.86
  -1  -4   2  111.56    3.90
  -1  -4   2  108.05    3.69
  -1  -4   3    5.20    0.84
  -1  -4  -3    7.77    1.05
   1  -4  -3    6.91    0.48
  -1  -4   3    5.90    0.89
   1  -4  -3    5.04    0.88
   1  -4   3    5.55    0.87
   1  -4   3    5.34    0.76
   1  -4  -3    6.72    0.47
  -1  -4  -4   33.46    1.15
  -1  -4  -4   33.94    2.06
   1  -4   4   36.39    1.91
  -1  -4   4   34.05    2.01
   1  -4  -4   33.83    1.39
   1  -4   4   34.41    2.11
  -1  -4   4   35.60    2.14
  -1  -4  -4   35.71    1.25
   1  -4  -4   34.62    2.12
   1  -4  -4   30.70    1.29
   1  -4  -5   51.33    1.93
  -1  -4   5   48.38    2.83
  -1  -4   5   52.05    2.77
   1  -4   5   51.69    2.54
  -1  -4  -5   50.21    2.79
   1  -4   5   52.57    2.87
   1  -4  -5   56.53    3.00
  -1  -4   6   12.84    1.77
  -1  -4  -6   21.55    1.88
   1  -4  -6   21.08    2.16
   1  -4   6   18.93    1.61
   1  -4   6   19.72    2.11
  -1  -4   6   16.46    1.80
  -1  -4  -7    6.15    1.31
  -1  -4   7    4.70    1.31
   1  -4   7    5.52    1.39
   1  -4   7    5.97    1.21
  -1  -4   7    7.52    1.47
   1  -4  -7    4.86    1.19
   1  -5   0    0.07    0.38
  -1  -5   0    0.12    0.42
  -1   5   0    0.18    0.23
  -1  -5   0   -0.18    0.17
   1  -5   0   -0.02    0.20
   1   5   0   -0.13    0.15
   1   5   1   24.91    0.87
   1  -5  -1   26.85    1.62
   1   5   1   25.22    0.84
  -1  -5   1   26.43    1.64
   1  -5  -1   24.19    1.03
  -1  -5   1   25.72    1.34
   1  -5   1   26.00    1.54
   1  -5   1   27.56    1.41
  -1  -5  -1   23.25    1.60
  -1   5   1   27.03    1.06
   1  -5   2   30.81    1.70
   1  -5  -2   30.50    1.04
  -1  -5   2   30.75    1.68
   1  -5  -2   30.52    1.82
   1  -5   2   34.65    1.78
  -1   5   2   32.81    1.02
  -1  -5  -2   28.94    1.84
  -1  -5   2   30.83    1.84
   1  -5  -3   11.88    0.53
  -1  -5   3    9.31    1.18
   1  -5   3   10.02    1.08
  -1  -5   3   13.86    1.37
  -1  -5  -3   11.48    1.33
   1  -5   3   12.68    1.33
   1  -5  -3    9.38    1.20
   1  -5  -3   11.34    0.51
   1  -5  -4   17.31    1.55
   1  -5   4   15.43    1.62
  -1  -5   4   18.64    1.74
  -1  -5  -4   17.47    1.73
   1  -5   4   15.86    1.29
  -1  -5   4   16.24    1.45
   1  -5   5   33.32    2.37
   1  -5   5   37.99    2.23
  -1  -5   5   35.70    2.46
   1  -5  -5   34.55    2.45
  -1  -5  -5   37.38    2.45
  -1  -5   5   39.21    2.43
   1  -5   6    3.12    0.93
   1  -5  -6    3.51    1.11
   1  -5   6    2.65    0.84
  -1  -5   6    2.83    0.86
  -1  -5   6    0.69    0.67
  -1  -5  -6    1.88    0.92
   1  -5   7   11.18    1.60
  -1  -5  -7   16.11    2.20
   1  -5  -7   16.51    2.29
  -1  -5   7   15.90    2.00
  -1  -5   7   12.65    2.04
   1  -5   7   11.25    1.90
  -1  -6   0    0.33    0.50
   1   6   0    0.11    0.27
  -1  -6   0   -0.18    0.20
   1  -6   0   -0.15    0.23
   1  -6   0   -0.30    0.46
  -1  -6  -1    5.29    1.06
   1  -6  -1    3.63    0.84
   1  -6   1    3.46    0.67
   1   6   1    3.87    0.32
   1   6   1    3.61    0.35
   1  -6   1    3.58    0.81
   1  -6  -1    3.12    0.43
  -1   6   1    3.57    0.45
  -1  -6   1    5.38    1.02
  -1  -6   1    3.34    0.62
   1  -6  -2    1.26    0.63
  -1   6   2    0.65    0.15
   1  -6   2    0.25    0.36
  -1  -6  -2    0.47    0.57
   1  -6   2    0.64    0.48
   1  -6  -2    0.61    0.17
  -1  -6   2    0.34    0.36
  -1  -6   2   -0.03    0.43
   1  -6  -3    0.38    0.52
  -1  -6   3    0.23    0.42
  -1  -6  -3    1.63    0.75
   1  -6   3    1.48    0.58
   1  -6   3    1.59    0.58
  -1  -6   3    0.74    0.55
   1  -6   4    0.34    0.42
   1  -6   4   -0.03    0.45
  -1  -6   4    0.13    0.48
  -1  -6   4    0.08    0.48
  -1  -6  -4   -0.59    0.44
   1  -6  -4   -0.08    0.51
  -1  -6  -5   10.54    1.59
   1  -6   5    9.67    1.38
  -1  -6   5   12.82    1.81
   1  -6   5    8.15    1.42
  -1  -6   5    8.93    1.44
   1  -6  -5    8.59    1.48
  -1  -6   6   21.15    2.41
   1  -6   6   19.65    2.31
   1  -6  -6   15.70    2.11
   1  -6   6   15.13    1.73
  -1  -6  -6   14.26    1.99
  -1  -6   6   18.83    2.07
  -1  -6  -7    2.04    1.09
  -1  -6   7    4.30    1.28
   1  -7   0   -0.03    0.31
   1  -7   0   -0.09    0.50
  -1  -7   0    0.26    0.65
  -1  -7   0   -0.16    0.27
   1  -7   1    8.00    0.98
   1   7   1    7.86    0.48
   1  -7  -1    6.93    0.62
  -1  -7  -1    9.00    1.41
   1  -7  -1   10.21    1.39
   1  -7   1    8.54    1.26
  -1  -7   1    8.04    1.27
  -1  -7   1    6.99    0.91
  -1  -7   2    2.83    0.77
  -1  -7   2    3.67    0.96
  -1  -7  -2    1.96    0.88
   1  -7   2    4.15    0.96
   1  -7  -2    1.96    0.76
   1  -7   2    2.15    0.66
   1  -7  -3    1.26    0.69
  -1  -7   3    2.90    0.86
  -1  -7   3    2.20    0.78
   1  -7   3    2.46    0.78
  -1  -7  -3    2.06    0.86
   1  -7   3    1.22    0.60
  -1  -7   4    0.97    0.67
   1  -7  -4    0.14    0.55
   1  -7   4    0.16    0.49
  -1  -7   4    0.48    0.56
   1  -7   4    0.41    0.39
  -1  -7  -4   -0.70    0.47
   1  -7  -5   10.80    1.79
   1  -7   5   10.35    1.69
  -1  -7  -5   10.91    1.81
  -1  -7   5    9.83    1.70
  -1  -7   5    8.63    1.45
   1  -7   5    8.90    1.38
   1  -7  -6    8.71    1.82
  -1  -7   6    7.64    1.62
  -1  -7  -6   11.70    2.02
  -1  -7   6    9.69    1.66
   1  -7   6    9.93    1.86
  -1  -8   0   -0.15    0.31
   1  -8   0   -0.34    0.62
   1  -8   0    0.29    0.36
  -1  -8   0   -0.22    0.51
  -1  -8   1    8.08    1.00
   1  -8   1    4.53    0.81
  -1  -8  -1    6.33    1.25
  -1  -8   1   10.26    1.57
   1  -8  -1    7.80    1.40
   1  -8   1    6.25    1.27
   1  -8   2    1.52    0.61
  -1  -8   2    1.13    0.61
  -1  -8  -2    0.33    0.64
   1  -8   2    1.39    0.63
  -1  -8   2    1.86    0.81
   1  -8  -2    1.05    0.82
  -1  -8   3    2.56    0.86
  -1  -8  -3    0.23    0.68
   1  -8   3    1.99    0.81
   1  -8   3    1.71    0.71
   1  -8  -3    1.48    0.82
  -1  -8   3    1.07    0.67
  -1  -8  -4    0.73    0.85
   1  -8  -4    0.16    0.72
   1  -8   4    0.94    0.62
   1  -8   4    0.13    0.62
  -1  -8   4    0.77    0.55
  -1  -8   4   -0.09    0.56
  -1  -8   5    5.63    1.25
  -1  -8  -5    5.97    1.53
   1  -8   5    7.31    1.37
   1  -8  -5    7.28    1.60
   1  -8   5    6.96    1.50
  -1  -8   5    5.78    1.37
  -1  -8   6   19.31    2.32
  -1  -9   0    0.24    0.78
   1  -9   0   -0.16    0.68
   1  -9   1   15.31    1.83
  -1  -9   1   15.64    1.33
  -1  -9  -1   11.54    1.81
  -1  -9   1   18.15    2.12
   1  -9   1   17.06    1.38
   1  -9  -1   17.61    2.06
  -1  -9   2    0.07    0.52
  -1  -9   2    0.57    0.71
   1  -9   2    0.43    0.55
   1  -9  -2    0.28    0.69
   1  -9   2    0.32    0.58
  -1  -9  -2   -0.72    0.63
  -1  -9   3   15.66    1.79
  -1  -9  -3   12.75    1.96
   1  -9   3   15.23    1.87
  -1  -9   3   16.93    2.09
   1  -9   3   16.51    1.89
   1  -9  -3   13.60    2.04
  -1  -9   4    3.26    1.08
   1  -9   4    5.10    1.19
   1  -9  -4    5.62    1.47
  -1  -9   4    3.72    1.14
  -1  -9  -4    1.85    1.06
   1  -9   4    4.04    1.17
  -1  -9   5   11.71    1.87
  -1  -9   5   12.99    1.99
   1  -9   5   17.56    2.33
  -1 -10   0   -0.38    0.65
   1 -10   0   -0.35    0.68
  -1 -10  -1    5.75    1.53
   1 -10   1    5.72    1.39
   1 -10  -1    3.44    1.29
  -1 -10   1    5.95    1.49
  -1 -10  -2    4.05    1.41
   1 -10   2    4.01    1.18
  -1 -10   2    4.42    1.31
   1 -10  -2    4.84    1.45
  -1 -10  -3    8.29    1.88
   1 -10   3    6.00    1.30
  -1 -10   3    9.26    1.76
   1 -10  -3    5.10    1.49
  -1 -10   3    6.65    1.37
   1 -10   3    7.42    1.56
  -1 -10   4    4.63    1.37
  -1 -10   4    4.75    1.37
   1 -10   4    2.65    1.07
   1 -11   0    0.00    0.94
  -1 -11   0   -0.43    0.80
   1 -11  -1    3.62    1.44
   1 -11   1    5.97    1.54
  -1 -11   1    4.28    1.41
  -1 -11  -1    7.73    1.84
   1 -11   2    7.52    1.63
   1 -11  -2    5.33    1.70
  -1 -11   2    7.58    1.69
  -2   0   0   76.28    2.16
   2   0   0   75.83    2.24
  -2   0   0   72.26    2.21
   2   0  -1  221.48    5.95
   2   0   1  231.71    5.94
  -2   0  -1  230.22    5.97
  -2   0  -1  227.07    5.96
  -2   0   1  222.02    5.93
   2   0   1  219.64    5.98
  -2   0   1  229.31    6.17
   2   0  -1  221.86    6.15
  -2   0  -2   51.87    1.84
  -2   0   2   48.71    1.95
  -2   0  -2   50.83    1.70
   2   0   2   50.61    1.85
   2   0  -2   51.71    1.82
  -2   0  -2   49.09    1.68
   2   0  -2   50.61    1.88
   2   0  -2   53.36    2.01
  -2   0  -3  183.57    5.38
  -2   0  -3  190.11    5.41
  -2   0   3  183.00    5.74
   2   0  -3  189.76    5.39
   2   0   3  187.21    5.48
  -2   0   4    1.19    0.50
  -2   0  -4    1.32    0.43
   2   0   4    1.24    0.42
   2   0  -4    1.06    0.42
   2   0   5    2.14    0.65
  -2   0  -5    1.24    0.48
  -2   0   5    1.55    0.61
   2   0  -5    2.00    0.57
   2   0  -6    0.28    0.40
  -2   0   6    0.57    0.58
  -2   0  -6    0.57    0.44
   2   0   6   -0.51    0.25
   2   0  -6    0.49    0.46
   2   0  -7    7.44    1.15
   2   0   7    5.55    1.10
   2   0  -7    6.97    1.27
  -2   0  -7    7.53    1.21
  -2   0  -8    7.04    1.26
   2   0   8    6.48    1.37
   2   0  -8    7.43    1.46
   2   0  -8    5.22    1.08
   2  -1   0 1000.00   24.86
   2  -1   0  960.80   24.84
  -2  -1   0  922.48   24.45
   2   1   0  953.35   23.73
  -2  -1   0  978.99   23.67
   2  -1   0  949.29   23.79
   2   1   0  960.43   24.44
   2   1   1   11.98    0.67
   2   1  -1    9.91    0.72
  -2   1  -1   10.91    0.41
  -2   1  -1   10.49    0.70
  -2   1   1   11.26    0.66
   2  -1  -1   11.26    0.66
   2  -1  -1   11.71    0.65
  -2   1   1   11.86    0.63
   2   1  -1   10.35    0.68
  -2  -1   1   10.18    0.64
   2   1   1   10.91    0.60
  -2  -1  -1   11.29    0.60
   2  -1   1   10.62    0.40
   2   1  -1   10.12    0.64
  -2  -1   1   10.34    0.72
   2  -1   1   10.35    0.70
  -2  -1  -1   10.61    0.65
   2   1  -2  268.82    7.13
  -2  -1   2  251.21    7.31
  -2   1  -2  265.79    7.08
   2   1   2  257.93    6.86
   2  -1   2  247.56    7.08
  -2   1  -2  261.65    6.89
  -2  -1  -2  260.11    6.82
   2   1  -2  259.82    7.01
   2  -1   2  252.88    6.89
   2  -1  -2  257.80    7.27
  -2  -1  -2  254.87    7.08
  -2   1   2  258.12    7.28
   2  -1  -2  259.79    6.95
  -2   1   2  269.61    6.89
   2  -1  -2  262.82    6.88
   2   1   2  256.36    7.08
  -2  -1  -3    0.76    0.32
   2   1   3    0.98    0.34
   2  -1  -3    1.11    0.34
  -2   1   3    0.41    0.34
  -2   1  -3    0.91    0.30
  -2  -1   3    0.97    0.39
   2   1  -3    1.01    0.35
  -2  -1  -3    1.26    0.37
  -2  -1   3    1.13    0.43
   2  -1   3    1.15    0.34
   2  -1   3    0.73    0.36
  -2   1   4    0.30    0.36
   2  -1  -4    0.38    0.43
   2   1   4    1.00    0.39
   2   1  -4    0.29    0.33
  -2   1  -4    0.69    0.34
   2  -1   4    1.36    0.49
   2  -1  -4    0.46    0.30
  -2  -1  -4    1.28    0.46
  -2  -1   4    0.46    0.36
  -2  -1   4    0.66    0.39
   2  -1   4    0.78    0.35
  -2   1   5    5.91    1.08
   2   1  -5    7.90    1.03
  -2  -1   5    6.10    1.04
  -2  -1   5    7.63    1.18
   2   1   5    7.72    0.99
  -2   1  -5    6.72    0.89
   2  -1   5    9.12    1.21
   2  -1  -5    5.73    1.01
  -2  -1  -5    7.92    1.04
   2  -1  -5    8.19    0.94
  -2  -1  -6    7.93    1.16
  -2  -1   6   11.41    1.54
   2  -1  -6    8.40    1.30
   2   1   6    9.61    1.19
  -2  -1   6    9.93    1.42
  -2   1  -6   10.01    1.17
   2   1  -6    8.58    1.13
   2  -1   6    8.56    1.30
   2  -1  -6    9.68    1.09
   2   1  -7    0.52    0.53
  -2  -1  -7    0.86    0.58
  -2  -1   7   -0.15    0.61
   2   1   7   -0.15    0.46
  -2   1  -7    0.70    0.46
   2  -1  -7    0.13    0.39
   2  -1  -7    0.52    0.60
   2  -1   7    0.62    0.56
   2   1  -8    1.54    0.69
   2   1  -8    0.35    0.54
   2  -1  -8    0.86    0.66
  -2   1  -8    0.67    0.62
   2  -1   8   -0.40    0.68
  -2  -1  -8    0.39    0.61
   2  -1  -8   -0.01    0.50
   2   2   0   57.56    1.80
  -2  -2   0   58.44    2.10
  -2   2   0   60.43    1.83
  -2   2   0   57.66    1.93
   2  -2   0   57.87    1.85
  -2  -2   0   59.54    1.80
   2  -2   0   58.51    1.96
   2   2  -1   62.72    2.22
  -2  -2   1   56.85    2.15
  -2   2   1   58.39    1.85
   2  -2   1   58.90    1.77
  -2  -2  -1   57.55    1.70
   2   2  -1   56.83    1.93
  -2   2  -1   57.60    2.04
   2  -2  -1   58.83    2.01
   2  -2  -1   55.68    1.85
   2  -2   1   57.66    2.06
  -2  -2  -1   60.10    2.11
   2   2   1   55.89    1.73
  -2   2   1   56.84    1.97
   2   2  -1   56.78    2.01
   2   2   1   62.29    2.11
  -2   2  -1   58.97    1.75
   2  -2  -1   53.67    1.97
  -2   2   2   47.76    1.63
   2   2  -2   45.98    1.83
   2  -2   2   44.80    1.92
   2  -2  -2   43.94    1.91
   2   2   2   50.85    1.94
  -2  -2   2   47.49    1.95
   2  -2  -2   49.16    1.67
  -2  -2  -2   47.93    1.90
   2  -2   2   45.86    1.60
  -2  -2  -2   47.16    1.53
  -2  -2   2   44.51    1.97
  -2   2  -2   47.94    1.61
   2   2   2   45.90    1.54
   2  -2  -3   53.78    1.92
  -2  -2   3   49.33    2.31
  -2  -2   3   55.41    2.36
   2  -2   3   54.28    1.99
  -2  -2  -3   53.73    2.20
  -2   2  -3   54.38    2.00
   2   2   3   52.36    1.88
  -2  -2  -3   55.19    1.88
   2  -2   3   50.83    2.29
   2  -2  -3   53.59    2.00
   2  -2  -3   52.52    2.36
   2  -2   4    0.42    0.35
   2  -2  -4    0.29    0.42
  -2  -2   4    0.29    0.38
  -2  -2   4    0.14    0.32
  -2  -2  -4    0.88    0.45
   2   2   4    0.41    0.27
   2  -2   4    0.35    0.32
   2  -2  -4    0.73    0.34
  -2  -2   5    9.77    1.29
   2  -2   5   10.82    1.31
   2  -2  -5   11.58    1.42
   2  -2   5   13.83    1.17
  -2  -2   5   12.55    1.43
   2  -2  -5   12.95    0.98
  -2  -2  -5   11.16    1.22
   2   2   5   12.31    1.10
   2  -2  -6    0.15    0.46
   2   2  -6    0.79    0.49
  -2   2  -6    0.82    0.42
  -2  -2  -6    0.47    0.48
   2  -2   6    1.21    0.57
  -2  -2   6    0.44    0.52
   2   2   6    0.06    0.43
   2  -2  -6    0.94    0.44
  -2  -2   6    0.32    0.53
   2  -2   6    0.44    0.37
  -2  -2   7    1.84    0.86
  -2  -2   7    1.45    0.81
   2   2  -7    1.41    0.62
   2  -2   7    1.61    0.79
  -2   2  -7    2.67    0.73
   2  -2  -7    0.82    0.49
   2  -2  -7    2.19    0.81
  -2  -2  -7    2.19    0.83
  -2  -2  -8    4.37    1.13
  -2  -2   8    5.09    1.47
   2  -2  -8    3.10    1.00
   2  -2   8    5.99    1.47
   2   2  -8    4.73    1.05
  -2   3   0   18.07    0.90
  -2  -3   0   17.24    1.10
  -2   3   0   18.10    0.93
   2  -3   0   17.52    0.93
   2   3   0   17.84    0.80
   2   3   0   17.68    0.84
   2  -3   0   17.54    0.94
  -2   3   1    4.64    0.55
  -2  -3   1    3.83    0.55
   2   3   1    4.00    0.33
  -2   3  -1    4.12    0.44
   2  -3  -1    4.15    0.45
  -2  -3  -1    2.61    0.56
   2   3  -1    3.68    0.48
   2  -3  -1    4.80    0.60
  -2  -3   1    2.62    0.55
  -2   3   1    4.50    0.45
   2   3  -1    4.00    0.54
   2  -3   1    4.27    0.49
  -2  -3  -1    3.51    0.28
   2  -3   1    3.12    0.52
  -2  -3  -2    7.82    0.85
  -2  -3   2    8.23    0.92
   2  -3  -2    9.59    0.62
  -2  -3   2    7.86    0.84
  -2   3  -2    9.72    0.70
   2  -3  -2    9.37    0.84
   2   3   2   10.08    0.47
   2  -3   2   10.12    0.69
   2  -3   2   10.58    0.98
  -2  -3  -2    9.34    0.46
   2  -3  -3    0.87    0.31
   2  -3   3    0.71    0.31
  -2   3  -3    1.01    0.37
   2   3   3    0.68    0.22
  -2  -3  -3    1.15    0.48
  -2  -3   3    0.47    0.32
  -2  -3  -3    0.95    0.26
   2  -3  -3    0.40    0.38
   2  -3  -3    0.62    0.29
  -2  -3   3    1.53    0.51
   2  -3   3    0.75    0.45
  -2  -3  -4   74.69    2.47
   2  -3  -4   75.32    2.57
  -2  -3   4   72.04    3.23
   2  -3   4   70.53    3.20
   2   3   4   76.78    2.51
   2  -3   4   78.31    2.87
  -2  -3  -4   76.22    3.15
   2  -3  -4   71.93    3.26
  -2  -3   4   77.72    3.31
   2   3   5   11.50    0.89
   2  -3  -5    9.57    0.84
  -2  -3  -5   12.02    1.39
   2  -3  -5   11.67    1.43
  -2  -3   5   11.10    1.44
  -2  -3   5    9.97    1.34
   2  -3   5   10.20    1.35
   2  -3   5   10.72    1.13
   2  -3  -6   11.53    1.68
  -2  -3   6   12.21    1.69
   2  -3  -6    9.59    0.98
   2  -3   6    8.07    1.31
  -2  -3  -6    8.76    1.34
   2  -3   6    9.12    1.21
  -2  -3   6    9.29    1.45
   2  -3   7    0.76    0.65
  -2  -3  -7    0.62    0.60
   2  -3   7    0.35    0.57
  -2  -3   7    1.26    0.88
   2   3  -7    0.31    0.46
  -2   3  -7    1.53    0.53
   2  -3  -7    1.16    0.77
  -2  -3   7    0.51    0.61
  -2  -3   8   -0.58    0.75
   2  -3   8    0.20    0.86
   2   3  -8   -0.16    0.48
  -2  -3  -8    0.36    0.74
   2  -4   0   36.14    1.52
   2  -4   0   36.38    1.64
   2   4   0   35.24    1.33
  -2   4   0   37.05    1.57
  -2  -4   0   37.02    1.86
  -2   4   0   34.93    1.48
  -2  -4   1   31.26    1.46
   2   4  -1   32.16    1.39
   2   4   1   31.11    1.07
  -2   4  -1   31.43    1.41
   2  -4  -1   31.85    1.31
  -2  -4  -1   33.31    1.77
   2  -4   1   34.97    1.58
   2  -4   1   31.50    1.48
  -2  -4   1   31.32    1.74
   2  -4  -1   30.70    1.57
   2   4   1   31.13    1.06
  -2  -4  -2   26.01    1.63
  -2  -4   2   28.83    1.57
  -2  -4   2   30.36    1.73
   2  -4  -2   26.64    1.55
   2  -4   2   30.38    1.43
   2  -4  -2   28.30    1.18
   2  -4   2   27.22    1.57
  -2   4  -2   27.78    1.36
  -2   4   2   28.91    1.13
  -2  -4  -3   21.97    1.50
  -2  -4   3   18.23    1.40
   2  -4  -3   19.74    0.99
  -2  -4   3   18.33    1.45
   2  -4  -3   18.54    0.95
   2  -4   3   20.57    1.47
   2  -4   3   20.66    1.21
   2  -4  -3   20.06    1.45
   2  -4  -4    0.23    0.29
   2  -4   4    0.32    0.34
   2  -4   4    0.81    0.54
  -2  -4   4   -0.23    0.41
   2  -4  -4    0.63    0.55
  -2  -4  -4    0.67    0.51
   2   4   4    0.44    0.23
  -2  -4   4    0.62    0.46
  -2  -4   5    6.59    1.26
   2  -4  -5    6.25    1.26
   2  -4  -5    8.31    0.80
   2  -4   5    8.08    1.34
  -2  -4  -5    8.80    1.31
   2  -4   5    8.01    1.04
  -2  -4   5    8.14    1.33
  -2  -4   6   -0.23    0.60
   2  -4   6    0.91    0.58
  -2  -4  -6   -0.03    0.47
  -2  -4   6    0.62    0.62
   2  -4   6    0.13    0.38
   2  -4  -6    0.24    0.62
  -2  -4   7   12.37    2.05
   2  -4   7    8.91    1.70
  -2  -4  -7   10.74    1.74
   2   4  -7    9.86    1.54
  -2  -4   7    6.96    1.46
   2  -4  -7   11.93    1.95
   2  -5   0   20.93    1.35
  -2  -5   0   18.14    1.42
   2   5   0   21.88    0.99
   2  -5   0   20.49    1.15
   2  -5  -1    0.15    0.21
   2  -5   1    0.09    0.27
  -2  -5   1   -0.14    0.21
   2  -5   1    0.23    0.38
  -2  -5  -1    0.68    0.51
  -2  -5   1   -0.11    0.39
   2  -5  -1   -0.35    0.32
   2   5   1   -0.28    0.12
  -2   5   1   -0.06    0.21
   2   5   1   -0.09    0.13
  -2  -5   2   27.82    1.59
  -2   5   2   25.35    1.06
   2  -5   2   25.86    1.47
  -2  -5   2   24.01    1.68
   2  -5  -2   24.29    1.61
   2  -5  -2   24.05    1.10
  -2  -5  -2   25.85    1.73
   2  -5   2   27.11    1.61
   2  -5  -3    1.34    0.62
   2  -5   3    1.69    0.50
   2  -5  -3    1.84    0.38
  -2  -5   3    2.48    0.72
  -2  -5  -3    1.83    0.69
  -2  -5   3    0.65    0.48
   2  -5  -3    2.38    0.40
   2  -5   3    2.39    0.69
   2  -5   4   47.93    2.29
  -2  -5  -4   41.21    2.51
   2  -5  -4   47.38    1.76
   2  -5  -4   51.69    2.78
  -2  -5   4   50.39    2.74
  -2  -5   4   49.39    2.70
   2  -5   4   49.81    2.72
   2  -5   5    9.41    1.50
  -2  -5   5    7.33    1.35
   2  -5   5    8.46    1.09
   2  -5  -5    7.28    1.32
  -2  -5   5    8.92    1.39
  -2  -5  -5    8.05    1.34
  -2  -5   6    1.62    0.72
  -2  -5   6    2.83    1.13
   2  -5   6    1.78    0.74
   2  -5  -6    2.98    1.05
   2  -5   6    2.23    0.96
  -2  -5  -6    2.25    0.92
  -2  -5   7    1.32    0.86
  -2  -5   7    0.35    0.80
   2   5  -7    0.11    0.52
   2  -5  -7   -0.03    0.69
  -2  -5  -7   -0.22    0.71
   2  -5   7   -0.54    0.57
   2   6   0   17.79    0.94
   2  -6   0   19.63    1.44
  -2  -6   0   15.96    1.58
   2  -6   0   17.37    1.12
   2   6   0   17.88    1.03
   2  -6   1  101.30    3.86
   2  -6  -1  106.58    3.31
   2   6   1  104.08    2.94
  -2   6   1  109.29    3.28
  -2  -6   1   99.14    4.12
   2  -6  -1  107.42    4.05
   2   6  -1  106.71    3.45
  -2  -6  -1   99.32    4.17
   2   6   1  103.88    2.91
   2  -6   1  107.25    3.74
  -2  -6   1  107.76    3.62
   2  -6  -2   12.42    1.38
   2  -6   2   15.12    1.26
   2  -6  -2   15.29    0.84
   2  -6   2   14.59    1.25
  -2   6   2   16.13    0.81
  -2  -6   2   16.90    1.64
  -2  -6   2   15.88    1.27
  -2  -6  -2   13.38    1.51
  -2  -6   3   31.96    2.00
   2  -6  -3   32.09    1.20
  -2  -6  -3   26.68    2.02
   2  -6   3   29.35    1.95
  -2  -6   3   28.16    2.05
   2  -6   3   31.74    1.83
   2  -6  -3   27.31    1.97
   2  -6  -4    0.55    0.59
  -2  -6  -4    0.16    0.56
  -2  -6   4    1.14    0.64
   2  -6   4    0.92    0.64
   2  -6   4    0.63    0.45
  -2  -6   4    1.07    0.57
  -2  -6   5    0.06    0.48
   2  -6   5    0.08    0.55
   2  -6   5    0.50    0.54
   2  -6  -5   -0.06    0.54
  -2  -6   5   -0.21    0.54
  -2  -6  -5   -0.17    0.53
   2  -6  -6    0.15    0.77
  -2  -6   6   -0.20    0.62
  -2  -6  -6   -0.28    0.62
   2  -6   6   -0.15    0.65
  -2  -6   6    0.63    0.81
  -2  -6  -7    1.08    1.02
  -2  -6   7    2.11    1.03
   2  -7   0  159.22    5.78
  -2  -7   0  168.13    6.12
   2  -7   0  170.51    5.18
   2   7   0  166.30    4.78
  -2  -7   1    2.63    0.88
   2   7  -1    3.90    0.65
   2  -7  -1    2.54    0.84
   2  -7  -1    3.60    0.57
   2   7   1    3.47    0.36
  -2  -7  -1    3.38    1.02
   2  -7   1    3.61    0.90
  -2  -7   1    3.56    0.72
   2  -7   1    4.35    0.82
  -2  -7   2   62.34    3.21
  -2  -7  -2   65.87    3.34
   2  -7   2   60.97    2.88
  -2  -7   2   65.18    2.88
   2  -7  -2   55.03    3.00
   2  -7   2   61.93    2.90
   2  -7   3    0.71    0.47
   2  -7   3    1.17    0.61
   2  -7  -3    0.64    0.66
  -2  -7   3    0.27    0.52
  -2  -7   3    0.98    0.63
  -2  -7  -3    0.35    0.67
   2  -7   4    1.29    0.58
   2  -7  -4    0.73    0.77
   2  -7   4    0.14    0.53
  -2  -7  -4    1.23    0.83
  -2  -7   4    0.33    0.56
  -2  -7   4    1.12    0.72
  -2  -7  -5    2.04    1.00
  -2  -7   5    2.06    0.89
  -2  -7   5    3.03    1.02
   2  -7   5    2.17    0.95
   2  -7  -5    2.29    0.96
   2  -7   6    7.95    1.69
  -2  -7  -6    6.82    1.59
  -2  -7   6    5.86    1.59
  -2  -7   6    6.99    1.58
   2  -7  -6    4.60    1.47
   2  -8   0    8.07    0.96
  -2  -8   0    7.18    1.41
   2   8   0    6.42    0.68
   2  -8   0    5.64    1.19
   2  -8   1   24.23    1.66
   2  -8  -1   25.26    2.05
   2   8  -1   24.85    1.43
  -2  -8  -1   27.87    2.25
  -2  -8   1   27.04    2.18
   2  -8   1   25.63    1.95
  -2  -8  -2    5.25    1.26
  -2  -8   2    8.49    1.22
   2  -8  -2    6.43    1.29
  -2  -8   2    8.29    1.50
   2  -8   2    7.21    1.18
   2  -8   2    7.80    1.24
   2  -8  -3   25.12    2.15
  -2  -8   3   25.67    2.01
   2  -8   3   25.95    1.99
   2  -8   3   28.73    2.02
  -2  -8  -3   18.51    2.16
  -2  -8   3   25.83    2.17
   2  -8   4   -0.35    0.48
  -2  -8   4   -0.18    0.59
   2  -8   4    0.71    0.58
  -2  -8   4    0.05    0.50
  -2  -8  -4    0.23    0.73
   2  -8  -4   -0.31    0.57
  -2  -8   5    4.31    1.12
  -2  -8  -5    2.95    1.18
   2  -8  -5    2.10    1.10
   2  -8   5    4.78    1.34
  -2  -8   5    1.77    0.93
   2  -9   0   41.44    2.76
  -2  -9   0   42.20    2.98
   2  -9   1    0.37    0.45
  -2  -9  -1   -0.01    0.62
   2  -9   1    1.84    0.87
   2  -9  -1    1.35    0.93
  -2  -9   1   -0.44    0.55
   2   9  -2   17.71    1.38
  -2  -9   2   18.60    1.75
   2  -9   2   18.42    1.61
  -2  -9  -2   17.45    2.22
   2  -9   2   13.89    1.71
  -2  -9   2   17.50    2.07
   2  -9  -2   15.69    1.99
   2   9  -3    0.87    0.53
  -2  -9   3    0.77    0.74
  -2  -9   3   -0.42    0.54
   2  -9  -3   -0.41    0.73
   2  -9   3    0.39    0.66
   2  -9   3    0.53    0.65
  -2  -9  -3   -0.18    0.76
  -2  -9   4   -0.17    0.70
   2  -9   4    0.90    0.83
  -2  -9  -4   -0.81    0.77
  -2  -9   4    2.18    0.99
   2   9  -4    0.79    0.59
   2  -9  -4    0.73    0.87
  -2  -9   5    3.24    1.19
   2  -9   5    2.25    1.10
   2   9  -5    2.65    0.83
  -2  -9   5    0.99    0.99
   2 -10   0    1.53    1.02
  -2 -10   0    3.93    1.37
  -2 -10  -1    2.80    1.23
   2 -10  -1    0.93    1.03
   2 -10   1    2.12    0.97
  -2 -10   1    2.75    0.97
  -2 -10   2    2.33    1.08
  -2 -10  -2    5.46    1.55
   2 -10  -2    4.30    1.40
   2 -10   2    2.45    0.95
  -2 -10  -3    8.11    1.90
  -2 -10   3    8.94    1.52
   2 -10  -3   12.29    2.12
  -2 -10   3    7.03    1.60
   2  10  -3    8.38    1.26
   2 -10   3   10.50    1.67
  -2 -11   0    1.35    1.17
   2 -11   0    1.70    1.24
   2 -11  -1   -1.01    0.80
  -2 -11  -1   -0.57    0.85
  -2 -11   1    0.34    0.96
   2 -11   1    0.74    0.90
  -2 -11   2    5.84    1.58
   2 -11  -2    3.97    1.47
   3   0   0    0.30    0.24
  -3   0   0    0.16    0.21
   3   0   0    0.03    0.08
  -3   0   0   -0.13    0.14
  -3   0  -1   43.34    1.60
   3   0   1   40.71    1.59
   3   0  -1   40.97    1.59
  -3   0  -1   40.19    1.30
   3   0   1   42.80    1.31
  -3   0   1   41.03    1.55
   3   0  -1   40.11    1.58
  -3   0   1   40.21    1.57
  -3   0  -2   66.54    2.29
   3   0   2   64.70    2.32
   3   0  -2   62.81    2.26
  -3   0   2   66.15    2.43
  -3   0  -2   61.96    2.01
  -3   0  -2   64.82    2.01
   3   0  -3   43.29    1.84
   3   0   3   43.69    1.91
  -3   0  -3   42.75    1.66
  -3   0   3   43.54    2.04
  -3   0  -3   40.18    1.63
   3   0   4    0.12    0.27
  -3   0   4   -0.01    0.34
  -3   0  -4   -0.06    0.21
   3   0  -4   -0.53    0.18
  -3   0   5    3.57    0.90
   3   0  -5    4.27    0.78
   3   0   5    4.62    0.85
  -3   0  -5    5.82    0.83
   3   0  -6   11.12    1.26
   3   0   6    9.61    1.28
  -3   0  -6    9.80    1.17
  -3   0   6   12.96    1.70
   3   0  -7   24.60    1.99
   3   0  -7   25.62    1.82
   3   0   7   23.08    1.94
  -3   0   7   24.58    2.20
  -3   0  -7   21.50    1.73
   3   0  -8    4.22    0.96
   3   0  -8    7.00    1.40
   3   0   8    3.40    1.07
   3  -1   0    0.19    0.24
  -3  -1   0    0.03    0.21
   3   1   0    0.10    0.21
  -3  -1   0   -0.11    0.16
   3   1   0    0.02    0.24
   3  -1   0    0.04    0.12
  -3   1   0   -0.13    0.10
  -3   1   0    0.01    0.21
  -3  -1   1    5.62    0.55
  -3  -1   1    3.84    0.52
   3   1  -1    4.56    0.56
   3   1   1    4.84    0.50
   3  -1  -1    4.35    0.47
  -3   1   1    3.34    0.44
   3   1   1    5.06    0.48
  -3   1   1    4.34    0.47
  -3  -1  -1    3.47    0.42
  -3  -1  -1    3.32    0.43
   3  -1  -1    3.22    0.46
  -3   1  -1    4.82    0.55
   3  -1   1    5.00    0.58
   3   1  -1    4.37    0.50
   3   1   2   45.83    1.75
   3   1  -2   48.06    1.86
  -3  -1   2   43.25    1.93
  -3   1  -2   44.69    1.42
  -3  -1  -2   47.66    1.74
   3  -1   2   44.62    1.89
   3   1   2   47.48    1.73
  -3  -1  -2   45.88    1.72
   3  -1  -2   47.13    1.79
  -3   1   2   46.00    1.91
  -3   1  -2   44.74    1.43
   3  -1   3    4.97    0.76
  -3   1  -3    4.90    0.49
   3   1  -3    4.71    0.70
  -3   1  -3    4.66    0.49
  -3   1   3    3.49    0.68
  -3  -1   3    3.85    0.72
   3  -1  -3    3.14    0.54
   3   1   3    3.88    0.59
  -3  -1  -3    3.91    0.57
   3   1  -4   16.88    1.20
   3   1   4   15.68    1.10
   3  -1  -4   14.76    1.07
  -3   1  -4   15.68    0.99
   3  -1   4   16.88    1.29
  -3  -1   4   15.25    1.28
  -3  -1  -4   13.72    1.06
  -3   1   4   16.28    1.34
   3   1   5    0.76    0.37
   3  -1  -5    0.20    0.45
  -3   1   5    0.84    0.53
   3  -1   5    0.60    0.43
  -3   1  -5    0.22    0.34
   3  -1  -5    0.38    0.38
  -3  -1   5    0.36    0.49
   3   1  -5   -0.15    0.31
  -3  -1  -5    0.03    0.32
   3  -1   6   22.99    1.79
  -3  -1   6   21.18    1.85
   3   1   6   22.88    1.63
   3  -1  -6   22.23    1.55
  -3   1  -6   19.24    1.41
  -3  -1  -6   20.48    1.57
   3   1  -6   20.44    1.60
   3  -1  -6   22.54    1.85
  -3  -1  -7   -0.42    0.41
   3  -1  -7   -0.37    0.36
   3  -1   7   -0.07    0.47
   3   1   7    0.25    0.52
  -3   1  -7    0.13    0.40
   3  -1  -7    0.86    0.57
  -3  -1   7    0.53    0.70
   3   1  -7    0.13    0.47
  -3  -1   8   42.45    3.13
   3  -1   8   43.05    2.97
   3  -1  -8   39.42    2.40
  -3  -1  -8   34.86    2.48
   3   1  -8   39.80    2.73
   3   1  -8   34.62    2.40
  -3  -2   0   -0.27    0.23
   3  -2   0    0.02    0.15
  -3  -2   0   -0.07    0.16
   3  -2   0   -0.02    0.14
  -3   2   0    0.01    0.21
   3  -2   0   -0.21    0.19
   3   2   0   -0.50    0.19
   3   2   0   -0.14    0.17
   3  -2  -1   10.88    0.71
   3  -2  -1   11.14    0.75
   3  -2  -1    9.88    0.69
   3   2   1    9.99    0.64
   3  -2   1   10.27    0.43
   3   2  -1   10.57    0.79
  -3  -2   1   10.15    0.71
   3  -2   1   10.55    0.79
  -3  -2  -1   10.18    0.80
  -3  -2  -1   10.67    0.62
  -3   2   1   10.34    0.71
  -3   2  -1    9.51    0.40
   3   2  -1   10.16    0.72
   3   2   1   11.31    0.79
  -3  -2   1    9.98    0.80
  -3  -2   2   17.55    1.17
   3  -2  -2   16.06    0.94
  -3   2   2   17.43    0.96
   3  -2  -2   16.32    1.07
  -3   2  -2   17.28    0.72
   3   2  -2   14.85    0.97
   3  -2   2   16.61    0.69
   3   2   2   16.90    0.88
  -3  -2  -2   16.59    0.85
  -3  -2  -2   16.81    1.05
   3  -2   2   14.48    1.07
   3  -2   3  151.02    4.30
   3   2  -3  154.66    4.73
   3  -2   3  145.70    4.86
   3   2   3  144.74    4.33
  -3   2  -3  143.44    4.27
  -3  -2  -3  151.53    4.32
   3  -2  -3  149.66    4.44
  -3  -2  -3  145.78    4.69
   3  -2  -3  148.04    4.95
  -3  -2   3  146.93    4.99
  -3  -2   4   14.90    1.33
   3  -2  -4   15.26    1.37
   3   2   4   16.76    1.07
   3  -2  -4   18.40    1.14
  -3  -2  -4   15.47    1.20
   3  -2   4   15.58    1.34
   3  -2   4   16.58    1.06
   3   2  -4   19.02    1.31
   3   2  -5   33.90    1.98
  -3  -2   5   34.23    2.19
  -3   2  -5   30.86    1.63
   3  -2  -5   33.23    2.20
   3  -2  -5   34.05    1.74
  -3  -2  -5   31.73    1.90
   3   2   5   31.67    1.71
   3  -2   5   31.40    2.08
   3   2   6    3.11    0.71
  -3  -2  -6    2.57    0.80
   3  -2  -6    3.35    0.94
  -3  -2   6    2.04    0.79
   3   2  -6    3.50    0.87
   3  -2  -6    3.12    0.70
   3  -2   6    5.01    1.06
  -3   2  -6    2.67    0.63
  -3  -2  -7   21.83    1.84
   3  -2  -7   22.01    1.61
   3   2  -7   23.99    1.89
   3  -2   7   21.68    2.24
   3  -2  -7   25.24    2.18
  -3  -2   7   23.99    2.19
   3  -2   8   -0.21    0.66
  -3  -2  -8    1.32    0.75
  -3  -2   8    0.91    1.05
   3   2  -8    0.36    0.56
  -3  -3   0    0.03    0.33
  -3   3   0   -0.03    0.15
  -3  -3   0    0.16    0.18
   3  -3   0   -0.04    0.21
   3   3   0   -0.03    0.20
   3  -3   0    0.09    0.27
  -3   3   1    0.09    0.24
   3   3  -1   -0.06    0.20
   3  -3  -1   -0.40    0.18
   3  -3   1   -0.33    0.20
   3  -3  -1   -0.08    0.24
   3  -3   1   -0.01    0.21
  -3   3   1    0.02    0.19
  -3  -3  -1    0.45    0.17
  -3  -3   1    1.81    0.47
   3  -3  -1    0.01    0.24
   3   3   1    0.35    0.21
  -3   3  -1   -0.09    0.15
  -3  -3  -1    0.70    0.41
   3  -3  -2   72.21    2.51
  -3  -3   2   73.16    3.00
  -3   3   2   78.24    2.52
   3  -3   2   70.81    2.87
   3   3   2   78.35    2.35
   3   3  -2   78.33    2.76
  -3   3  -2   74.98    2.35
   3  -3   2   74.04    2.35
  -3  -3  -2   80.62    2.96
   3  -3  -2   78.59    2.90
  -3  -3  -2   79.35    2.30
  -3  -3  -3    0.02    0.33
  -3  -3  -3   -0.03    0.22
   3  -3   3    0.28    0.22
   3   3   3    0.01    0.20
  -3   3  -3    0.29    0.27
   3  -3   3    0.08    0.30
  -3  -3   3   -0.03    0.34
   3   3  -3    0.47    0.35
   3  -3  -3   -0.01    0.34
   3  -3  -3   -0.15    0.25
   3  -3  -4  102.44    3.35
   3   3  -4   96.90    3.73
  -3  -3   4   98.85    3.99
   3   3   4  100.40    3.20
  -3  -3  -4   95.44    3.75
  -3  -3   4   94.38    4.00
   3  -3  -4  102.77    4.08
   3  -3   4   98.13    3.98
   3  -3   4   99.85    3.36
   3  -3  -5   18.17    1.82
  -3  -3   5   21.09    1.77
   3   3   5   18.19    1.19
  -3  -3   5   17.93    1.80
   3   3  -5   19.17    1.52
   3  -3   5   17.90    1.81
   3  -3   5   17.77    1.27
   3  -3  -5   18.80    1.23
  -3  -3  -5   18.78    1.52
  -3   3  -6   12.84    1.06
   3  -3   6   13.44    1.37
   3  -3  -6   11.61    1.63
  -3  -3   6   13.68    1.77
   3  -3  -6   12.56    1.09
   3   3  -6   10.93    1.39
   3  -3   6   15.32    1.85
  -3  -3  -6   14.52    1.62
  -3  -3   7    1.82    0.85
   3   3  -7    4.25    1.07
  -3  -3  -7    3.69    1.05
   3  -3  -7    3.28    1.06
   3  -3   7    2.16    0.95
   3   4   0    0.02    0.19
  -3   4   0   -0.06    0.18
   3   4   0   -0.21    0.18
   3  -4   0    0.11    0.28
  -3  -4   0    0.10    0.36
   3  -4   0   -0.07    0.23
  -3   4  -1    0.29    0.25
   3  -4  -1    0.64    0.35
  -3  -4  -1   -0.35    0.37
   3  -4  -1   -0.11    0.23
   3  -4   1    0.03    0.28
   3  -4   1    0.27    0.32
   3   4   1    0.01    0.17
   3   4  -1    0.31    0.27
   3   4   1    0.15    0.21
  -3  -4   1    0.18    0.33
  -3   4  -2   77.87    2.61
   3  -4  -2   75.16    3.03
  -3  -4  -2   82.58    3.25
   3  -4   2   85.06    3.19
   3   4   2   78.23    2.31
  -3   4   2   82.38    2.61
   3  -4   2   79.32    2.66
  -3  -4  -2   79.75    2.24
   3   4  -2   77.77    2.88
  -3  -4   2   78.53    3.28
   3  -4  -2   80.56    2.67
  -3  -4   3  129.75    4.73
   3  -4   3  127.23    4.58
   3   4  -3  114.84    4.20
  -3   4  -3  125.95    3.90
  -3  -4  -3  129.19    3.40
  -3  -4   3  114.12    4.39
  -3  -4  -3  127.88    4.55
   3  -4  -3  130.38    4.61
   3  -4   3  123.14    3.89
   3  -4  -3  126.00    3.83
   3   4   3  122.81    3.44
   3  -4  -4   35.97    2.28
  -3  -4  -4   39.33    2.25
  -3  -4   4   38.08    2.32
   3  -4   4   35.74    2.26
   3  -4  -4   41.17    1.75
   3   4   4   40.29    1.48
   3   4  -4   36.92    2.11
  -3  -4   4   42.29    2.41
   3  -4   4   39.81    1.83
   3  -4  -5   42.08    1.89
  -3  -4  -5   38.91    2.39
   3  -4   5   43.52    2.11
  -3  -4   5   37.97    2.53
   3  -4   5   39.55    2.59
  -3  -4   5   42.92    2.64
   3  -4  -5   40.50    2.62
   3   4  -5   44.81    2.44
   3   4  -6    0.45    0.49
  -3  -4   6    0.27    0.62
   3  -4   6   -0.53    0.48
  -3  -4   6   -0.12    0.48
  -3  -4  -6    0.08    0.53
   3  -4  -6    1.55    0.84
   3   4  -7   22.56    1.96
  -3  -4  -7   26.66    2.27
  -3  -4   7   18.54    2.25
   3  -4  -7   23.03    2.47
   3  -4   7   19.16    2.32
   3  -5   0   -0.22    0.33
   3   5   0    0.22    0.24
   3  -5   0    0.22    0.27
   3   5   0   -0.01    0.21
  -3  -5   0   -0.18    0.38
   3   5   1    0.72    0.25
  -3  -5   1    0.54    0.45
   3  -5   1    1.19    0.47
   3  -5  -1    0.63    0.34
   3   5  -1    1.37    0.43
   3  -5  -1    1.37    0.54
   3  -5   1    0.32    0.36
   3   5   1    0.97    0.28
  -3  -5  -1    1.62    0.65
  -3  -5   2   18.16    1.50
   3  -5  -2   17.68    1.36
   3   5   2   18.02    0.64
   3  -5   2   16.69    1.33
   3   5  -2   18.18    1.22
  -3  -5  -2   15.80    1.45
   3  -5   2   17.96    1.14
   3  -5  -2   17.53    1.03
   3  -5  -3    5.62    0.66
   3   5  -3    6.10    0.95
  -3  -5   3    4.72    1.00
   3  -5  -3    4.37    0.93
   3  -5   3    4.83    0.69
  -3  -5  -3    7.03    1.16
   3  -5   3    5.35    1.00
  -3  -5   3    4.59    0.95
   3  -5   4   45.09    2.05
   3  -5   4   43.23    2.57
  -3  -5   4   44.70    2.63
  -3  -5  -4   41.89    2.48
  -3  -5   4   39.75    2.47
   3   5  -4   42.56    2.33
   3  -5  -4   41.43    1.79
   3  -5  -4   42.30    2.57
   3  -5   5    7.16    1.35
  -3  -5   5    6.32    1.30
   3  -5  -5    6.01    1.25
  -3  -5   5    6.08    1.33
   3  -5   5    6.51    0.94
   3   5  -5    6.20    1.08
  -3  -5  -5    5.01    1.15
   3  -5   6    6.36    1.39
   3   5  -6    6.97    1.23
  -3  -5   6    5.45    1.39
  -3  -5  -6    5.90    1.26
   3  -5  -6    5.45    1.36
  -3  -5   6    6.02    1.32
   3   5  -7    4.73    1.22
  -3  -5  -7    4.83    1.36
   3  -5   7    3.21    1.14
   3  -5  -7    1.14    0.93
  -3  -5   7    4.18    1.26
  -3  -6   0    1.03    0.70
   3  -6   0    0.28    0.34
   3   6   0    0.02    0.25
   3  -6   0   -0.11    0.43
  -3  -6   1    4.57    1.02
   3  -6  -1    4.96    0.96
   3  -6   1    5.62    0.90
   3  -6  -1    5.16    0.70
   3  -6   1    4.01    0.78
  -3  -6  -1    4.25    1.02
   3   6   1    5.35    0.50
   3   6   1    4.18    0.46
   3   6  -1    3.78    0.64
   3  -6  -2    0.83    0.40
   3   6  -2    1.78    0.56
   3  -6  -2    1.26    0.59
  -3  -6  -2    1.61    0.76
   3  -6   2    0.54    0.42
   3  -6   2    0.69    0.50
  -3  -6   2    0.63    0.58
   3   6  -3   19.14    1.42
   3  -6   3   19.91    1.63
   3  -6   3   17.56    1.30
   3  -6  -3   21.47    1.15
  -3  -6  -3   18.74    1.70
  -3  -6   3   20.96    1.65
  -3  -6   3   18.72    1.70
   3  -6  -3   18.78    1.64
   3   6  -4    3.19    0.81
  -3  -6   4    3.90    0.95
   3  -6  -4    3.30    0.90
  -3  -6   4    2.33    0.80
  -3  -6  -4    3.61    1.04
   3  -6   4    4.24    0.80
   3  -6   4    3.08    0.86
  -3  -6  -5    8.52    1.54
   3  -6   5    8.04    1.53
  -3  -6   5    9.69    1.65
  -3  -6   5    9.27    1.52
   3  -6  -5    6.76    1.39
   3   6  -5    7.63    1.29
  -3  -6   6    0.89    0.74
   3   6  -6    1.12    0.61
   3  -6  -6    0.30    0.65
  -3  -6  -6    0.29    0.72
  -3  -6   6    0.55    0.85
   3  -6   6    0.25    0.75
  -3  -7   0   -0.02    0.48
   3   7   0    0.11    0.27
   3  -7   0   -0.37    0.30
   3  -7   0    0.99    0.65
  -3  -7  -1    0.07    0.64
   3  -7   1    0.27    0.44
  -3  -7   1    0.51    0.63
   3  -7  -1    0.15    0.34
   3  -7   1   -0.09    0.54
   3   7  -1    0.25    0.33
   3  -7  -1   -0.42    0.53
   3  -7   2    2.82    0.80
  -3  -7  -2    2.34    0.94
   3  -7   2    3.11    0.75
  -3  -7   2    2.61    0.89
   3  -7  -2    4.00    0.63
   3  -7  -2    4.20    1.05
   3   7  -2    3.20    0.70
   3  -7   3    0.26    0.49
   3  -7   3    1.62    0.59
  -3  -7   3    0.93    0.63
  -3  -7  -3    0.34    0.73
   3   7  -3    1.38    0.58
  -3  -7   3    3.65    1.01
   3  -7  -3    2.58    0.89
   3  -7   4    5.90    1.21
   3   7  -4    6.35    1.15
   3  -7  -4    7.52    1.47
  -3  -7  -4    4.73    1.23
  -3  -7   4    7.30    1.37
  -3  -7   4    6.35    1.29
   3   7  -5    0.10    0.47
   3  -7   5    0.29    0.66
  -3  -7   5    0.24    0.52
  -3  -7   5   -0.72    0.57
  -3  -7  -5   -0.29    0.62
   3  -7  -5   -0.17    0.62
   3  -7  -6    5.97    1.61
   3   7  -6   11.01    1.68
   3  -7   6    9.13    1.74
  -3  -7  -6    5.84    1.52
  -3  -7   6   10.14    1.81
  -3  -8   0    0.88    0.81
   3  -8   0    0.19    0.42
   3  -8   0   -0.05    0.58
  -3  -8   1    0.66    0.69
   3  -8   1    0.85    0.55
   3  -8  -1    1.09    0.74
   3   8  -1    0.76    0.40
   3  -8   1    0.46    0.65
  -3  -8  -1   -0.64    0.66
   3  -8  -1    0.51    0.40
   3  -8  -2    3.10    1.06
  -3  -8   2    2.18    0.93
  -3  -8  -2    1.97    1.00
   3   8  -2    2.33    0.64
   3  -8   2    2.12    0.79
   3  -8   2    2.65    0.84
  -3  -8  -3   22.37    2.33
   3   8  -3   22.79    1.66
   3  -8   3   21.93    1.89
   3  -8   3   22.81    1.76
  -3  -8   3   20.99    2.26
   3  -8  -3   22.92    2.27
   3  -8  -4    1.94    0.91
   3   8  -4    2.30    0.82
  -3  -8  -4   -0.14    0.66
  -3  -8   4    1.08    0.69
   3  -8   4    1.00    0.75
  -3  -8  -5    4.14    1.34
  -3  -8   5    6.57    1.46
   3  -8   5    5.93    1.47
   3   8  -5    7.21    1.31
   3  -8  -5    3.45    1.34
   3  -9   0   -0.55    0.59
  -3  -9   0    0.22    0.70
  -3  -9   1    2.63    1.06
  -3  -9  -1    1.95    1.05
   3  -9   1    1.20    0.86
   3  -9  -1    1.13    0.97
   3  -9   1    2.13    0.71
   3   9  -2    0.45    0.53
   3  -9   2    0.07    0.51
  -3  -9   2   -0.06    0.57
   3  -9  -2    0.64    0.81
   3  -9   2    0.80    0.73
  -3  -9  -2    0.12    0.85
   3  -9   3    1.35    0.77
  -3  -9  -3    1.06    0.99
   3   9  -3    2.19    0.73
   3  -9  -3    1.06    0.93
  -3  -9   3    2.26    0.91
   3  -9  -4   18.10    2.36
  -3  -9   4   12.52    1.99
   3   9  -4   14.46    1.67
   3  -9   4   20.19    2.30
  -3  -9  -4   13.48    2.12
  -3 -10   0    0.28    0.86
   3 -10   0   -0.23    0.77
   3 -10   1   -0.16    0.73
  -3 -10  -1   -0.24    0.74
   3 -10  -1   -0.67    0.76
  -3 -10   1   -0.05    0.77
  -3 -10   2    2.59    1.06
   3 -10  -2    2.32    1.22
   3 -10   2    3.25    0.99
  -3 -10  -2    1.29    1.13
   3 -10  -3   26.19    2.75
   3 -10   3   32.87    2.54
  -3 -10  -3   23.14    2.78
  -3 -10   3   30.94    2.79
  -3 -11   0    0.29    0.90
   3 -11   0   -0.71    0.81
   3 -11  -1   -1.04    0.87
   4   0   0  475.26   12.37
  -4   0   0  475.69   12.36
   4   0   1   86.36    2.43
   4   0  -1   77.26    2.77
  -4   0   1   79.27    2.72
  -4   0  -1   81.54    2.40
   4   0  -1   86.75    2.80
   4   0   1   83.41    2.82
  -4   0  -2  182.47    4.98
   4   0   2  173.16    5.36
   4   0  -2  182.04    5.35
  -4   0   2  181.73    5.51
   4   0   2  185.41    4.95
  -4   0  -3   41.73    1.63
   4   0  -3   43.79    1.95
   4   0   3   43.60    2.01
  -4   0  -3   42.49    1.62
  -4   0   3   42.00    2.10
  -4   0   4    6.00    1.00
   4   0  -4    6.09    0.87
   4   0   4    7.65    1.02
  -4   0  -4    6.57    0.72
  -4   0  -5    1.46    0.49
  -4   0   5    0.35    0.44
   4   0  -5    1.33    0.50
   4   0   5    1.16    0.57
   4   0  -6    0.25    0.44
  -4   0   6    1.85    0.85
   4   0   6    1.03    0.61
  -4   0  -6    0.66    0.45
  -4   0   7    3.72    1.11
   4   0  -7    2.83    0.83
   4   0   7    1.52    0.80
   4   0  -7    4.06    1.02
   4   0  -8    0.27    0.56
   4   0   8    0.71    0.77
   4   1   0    0.33    0.27
  -4  -1   0    0.20    0.23
   4  -1   0    0.23    0.28
   4  -1   0   -0.06    0.14
   4   1   0    0.29    0.27
  -4   1   0    0.26    0.15
  -4  -1   1  183.77    5.47
   4   1   1  192.23    5.27
  -4  -1  -1  181.94    5.22
   4  -1  -1  178.17    5.35
   4   1   1  184.29    5.31
   4  -1  -1  191.94    5.35
   4  -1   1  176.16    5.43
   4   1  -1  192.12    5.40
   4   1  -1  190.96    5.52
  -4  -1  -1  193.34    5.28
  -4   1   1  178.53    5.28
   4   1  -2  147.93    4.39
   4   1   2  142.61    4.28
   4   1   2  133.61    4.11
  -4   1  -2  139.50    3.75
  -4   1   2  136.14    4.41
   4  -1  -2  139.30    4.30
  -4   1  -2  138.51    3.73
  -4  -1   2  141.11    4.54
   4  -1   2  132.31    4.42
  -4  -1  -2  142.24    4.16
  -4  -1   3   69.49    2.90
  -4  -1  -3   65.57    2.44
  -4   1   3   66.77    2.82
  -4   1  -3   68.24    2.16
   4  -1   3   68.26    2.80
   4   1  -3   66.18    2.66
   4  -1  -3   70.60    2.63
  -4   1  -3   68.13    2.17
   4   1   3   68.15    2.59
  -4   1  -4    0.00    0.22
  -4  -1   4   -0.11    0.33
  -4   1   4    0.12    0.37
   4   1  -4   -0.01    0.32
   4  -1   4    0.14    0.34
  -4  -1  -4   -0.08    0.31
   4  -1  -4   -0.12    0.29
   4   1   4    0.02    0.29
   4  -1  -5    0.19    0.42
  -4  -1   5    0.76    0.52
  -4  -1  -5    0.04    0.35
  -4   1   5    0.37    0.52
   4   1   5    0.05    0.38
   4   1  -5    0.48    0.45
  -4   1  -5    0.31    0.31
   4  -1   5    0.18    0.37
   4   1  -6    0.55    0.45
   4   1   6    0.67    0.55
   4  -1   6    0.72    0.56
  -4   1   6    0.26    0.60
   4  -1  -6    0.59    0.54
  -4   1  -6    0.92    0.47
  -4  -1  -6    0.17    0.40
  -4  -1   6    0.03    0.50
   4  -1  -6    0.01    0.41
   4  -1  -7    3.27    0.86
   4   1  -7    2.81    0.84
   4  -1   7    5.68    1.30
  -4  -1   7    5.78    1.37
   4   1   7    3.87    0.99
  -4  -1  -7    3.75    0.94
   4  -1  -7    4.52    1.06
   4  -2   0   -0.16    0.26
   4   2   0    0.01    0.25
  -4  -2   0    0.03    0.28
   4  -2   0    0.12    0.14
   4  -2   0   -0.06    0.14
   4   2   0   -0.43    0.26
   4  -2  -1   10.71    0.73
   4  -2   1   10.46    0.88
  -4  -2  -1   11.25    0.75
   4   2   1   10.24    0.75
   4  -2  -1   10.00    0.72
  -4  -2  -1   13.64    0.94
   4   2  -1    9.07    0.77
   4  -2  -1   10.86    0.84
   4   2   1   10.00    0.84
  -4  -2   1   10.65    0.90
   4  -2  -2   58.32    2.23
   4   2  -2   53.88    2.25
  -4  -2   2   55.74    2.44
  -4  -2  -2   60.30    2.10
  -4  -2  -2   57.25    2.27
   4  -2  -2   62.11    2.39
   4  -2   2   54.44    2.40
   4   2   2   55.29    2.09
   4   2  -3   32.16    1.72
   4  -2   3   33.04    1.87
  -4   2  -3   33.01    1.23
   4  -2  -3   31.96    1.83
  -4  -2   3   37.97    2.00
  -4   2  -3   31.47    1.19
  -4   2   3   34.22    1.85
   4   2   3   33.39    1.56
  -4  -2  -3   34.42    1.69
   4  -2  -3   35.80    1.67
   4   2   4   10.68    1.00
   4  -2  -4    8.08    1.14
  -4  -2  -4    9.50    1.02
   4  -2  -4   10.66    1.05
  -4  -2   4    7.83    1.12
  -4   2  -4   10.03    0.76
   4  -2   4   10.54    1.26
  -4   2  -4    9.71    0.70
   4   2  -4   12.19    1.25
  -4   2  -5    0.44    0.29
   4  -2   5    1.11    0.57
   4   2  -5    0.08    0.42
   4   2   5    0.08    0.32
   4  -2  -5    0.73    0.44
  -4  -2  -5   -0.11    0.40
   4  -2  -5    0.69    0.53
  -4  -2   5    0.77    0.56
  -4  -2   6    7.89    1.38
   4  -2  -6    6.51    1.26
   4  -2   6    9.15    1.50
   4   2  -6   10.03    1.35
   4   2   6    8.97    1.18
   4  -2  -6    8.28    1.08
  -4  -2  -6    7.89    1.16
  -4  -2   7    2.81    1.12
   4  -2   7    2.73    1.00
  -4  -2  -7    3.34    0.96
   4  -2  -7    4.43    1.20
   4   2  -7    3.52    0.95
   4  -2  -7    3.54    0.86
   4  -3   0    1.70    0.34
   4   3   0    2.80    0.49
   4  -3   0    1.05    0.40
   4  -3   0    2.14    0.38
  -4  -3   0    1.83    0.55
  -4  -3  -1   26.91    1.16
   4  -3  -1   24.00    1.26
   4  -3  -1   26.16    1.37
   4  -3  -1   29.53    1.36
  -4   3  -1   25.49    0.91
  -4  -3   1   22.69    1.47
  -4  -3  -1   27.34    1.52
   4   3   1   25.61    1.21
   4   3  -1   25.53    1.32
   4  -3   1   28.10    1.54
   4  -3   1   27.63    0.99
   4  -3  -2   92.07    3.33
   4   3  -2   95.97    3.29
   4  -3  -2   91.25    3.13
  -4   3  -2   95.68    2.60
  -4  -3   2   92.96    3.57
  -4  -3  -2   89.61    3.38
   4  -3   2   90.35    3.45
   4   3   2   92.47    2.93
  -4  -3  -2   95.52    2.88
   4  -3   2   89.05    2.59
  -4  -3  -3   11.22    1.14
  -4  -3  -3   11.51    0.83
   4  -3   3   12.37    1.30
  -4  -3   3   10.62    1.22
   4  -3  -3   10.01    1.13
   4   3   3   11.91    0.84
   4  -3   3   12.93    0.69
  -4   3  -3   12.60    0.73
   4   3  -3   12.14    1.04
   4  -3  -3   14.38    1.02
   4  -3   4    0.36    0.29
   4  -3  -4    0.72    0.41
   4   3   4    0.04    0.29
   4   3  -4   -0.25    0.37
   4  -3  -4   -0.08    0.41
  -4  -3   4    0.02    0.42
  -4  -3  -4    0.52    0.50
   4  -3   4   -0.22    0.41
  -4  -3   5    3.29    0.91
  -4  -3  -5    2.37    0.75
  -4   3  -5    3.01    0.55
   4   3  -5    4.13    0.94
   4  -3   5    1.67    0.66
   4  -3  -5    2.80    0.67
   4   3   5    2.03    0.55
   4  -3  -5    3.02    0.84
  -4  -3  -6    2.30    0.80
   4  -3   6    3.27    1.02
  -4  -3   6    1.24    0.75
   4   3  -6    1.52    0.67
   4  -3  -6    1.36    0.73
   4  -3  -6    1.86    0.65
   4  -3   7    1.65    0.93
   4  -3  -7    3.98    1.22
  -4  -3   7    2.83    1.06
  -4  -3  -7    5.57    1.23
   4   3  -7    3.36    0.99
  -4   4   0   68.26    2.32
  -4  -4   0   67.47    2.88
   4  -4   0   67.59    2.44
   4  -4   0   68.60    2.66
   4   4   0   67.76    2.40
  -4  -4  -1    0.34    0.47
  -4  -4   1   -0.08    0.35
   4  -4   1   -0.02    0.32
  -4   4  -1    0.01    0.17
  -4  -4  -1    0.23    0.21
   4  -4  -1   -0.13    0.27
   4  -4   1    0.01    0.25
   4   4  -1    0.12    0.25
   4   4   1    0.27    0.25
   4  -4  -1   -0.14    0.26
   4  -4  -2   12.64    0.95
  -4   4  -2   12.14    0.71
   4  -4   2   12.21    0.70
   4   4  -2   11.61    0.99
  -4  -4   2    9.27    1.16
   4   4   2   12.00    0.76
  -4  -4  -2   12.57    0.71
   4  -4   2   12.04    1.26
  -4  -4  -2   13.29    1.29
   4  -4  -2   12.30    1.04
   4  -4  -3   27.87    1.48
   4   4  -3   26.29    1.65
  -4  -4  -3   28.14    1.19
   4   4   3   28.49    1.23
   4  -4   3   28.25    1.87
  -4   4  -3   26.97    1.25
  -4  -4  -3   29.25    1.84
   4  -4   3   27.48    1.22
   4  -4  -3   30.00    1.85
  -4  -4   3   31.97    2.02
  -4  -4  -4   49.10    2.58
   4   4  -4   44.99    2.42
  -4  -4   4   48.82    2.75
   4  -4  -4   47.35    2.66
   4   4   4   47.46    1.83
   4  -4   4   51.30    1.98
   4  -4  -4   48.68    2.12
   4  -4   4   47.21    2.69
   4  -4  -5    5.61    1.18
  -4  -4   5    4.97    1.11
  -4  -4  -5    5.34    1.09
   4  -4   5    2.47    0.85
   4   4  -5    5.36    1.06
   4  -4  -5    4.86    0.82
   4   4  -6   33.51    2.31
   4  -4   6   32.27    2.53
  -4  -4  -6   30.66    2.24
   4  -4  -6   32.07    2.53
  -4  -4   6   30.50    2.44
  -4  -4  -7    4.13    1.19
  -4  -4   7    4.56    1.33
   4  -4   7    3.16    1.17
   4   4  -7    2.56    0.93
   4  -4  -7    4.46    1.31
   4  -5   0   10.73    0.99
   4   5   0    9.32    0.82
   4  -5   0    9.18    1.00
  -4  -5   0   10.17    1.28
   4   5  -1   62.52    2.48
   4  -5   1   62.89    2.75
   4   5   1   64.56    2.21
  -4  -5  -1   58.81    2.92
   4   5   1   65.97    2.27
   4  -5  -1   64.08    2.67
   4  -5  -1   66.63    2.58
  -4  -5   1   65.29    3.03
   4  -5   1   67.20    2.47
  -4   5  -1   69.16    2.36
  -4   5  -2   62.68    2.21
   4   5   2   57.21    1.96
   4  -5   2   62.57    2.27
  -4  -5   2   58.92    2.96
  -4  -5  -2   61.27    2.95
   4  -5   2   63.06    2.87
   4   5  -2   62.13    2.57
   4  -5  -2   58.02    2.69
   4  -5  -2   62.34    2.41
   4   5  -3   17.61    1.38
   4  -5   3   23.03    1.74
   4  -5  -3   17.34    1.46
  -4  -5  -3   19.67    1.66
  -4  -5   3   19.33    1.70
   4  -5   3   18.19    1.07
   4  -5  -3   18.98    1.23
   4   5  -4    0.34    0.47
   4  -5   4    0.58    0.55
  -4  -5  -4    0.55    0.56
   4  -5   4   -0.17    0.23
  -4  -5   4    0.05    0.42
   4  -5  -4    1.15    0.67
   4  -5  -4   -0.21    0.32
  -4  -5  -5   -0.45    0.53
   4  -5   5    0.51    0.56
  -4  -5   5    0.32    0.50
   4  -5  -5    0.63    0.63
   4   5  -5    0.24    0.49
   4  -5  -6    0.23    0.64
  -4  -5  -6    0.22    0.71
   4   5  -6    1.19    0.72
  -4  -5   6    0.90    0.74
   4  -5   6    0.71    0.73
  -4  -5  -7   -0.42    0.68
  -4  -5   7   -0.01    0.77
  -4  -6   0   26.00    1.93
   4  -6   0   25.80    1.54
   4  -6   0   20.34    1.49
   4   6   0   20.70    1.19
   4  -6  -1    9.77    1.18
  -4  -6  -1   10.53    1.44
   4   6  -1   11.57    0.97
   4  -6   1   12.38    1.11
   4  -6   1   11.71    1.26
   4  -6  -1   13.38    1.08
   4   6   1   12.43    0.80
  -4  -6   1   12.87    1.51
   4   6  -2   47.36    2.28
  -4  -6  -2   51.18    2.87
   4  -6   2   51.29    2.20
   4  -6  -2   50.40    2.59
   4  -6  -2   55.59    2.25
   4  -6   2   50.73    2.64
   4  -6   3   17.80    1.20
  -4  -6  -3   20.12    1.78
   4  -6  -3   18.48    1.64
   4  -6   3   15.41    1.70
  -4  -6   3   18.42    1.91
   4   6  -3   18.92    1.48
   4  -6  -3   22.44    1.29
   4  -6   4    3.93    1.02
   4   6  -4    6.10    1.12
  -4  -6   4    3.93    1.09
  -4  -6  -4    1.93    0.86
   4  -6  -4    4.39    1.06
  -4  -6  -5   -0.22    0.58
  -4  -6   5    0.12    0.44
   4  -6  -5   -0.20    0.59
   4  -6   5    0.54    0.68
   4   6  -5    0.29    0.42
  -4  -6  -6    0.11    0.76
   4  -6  -6    3.01    1.15
  -4  -6   6    1.66    0.84
   4  -6   6    1.62    1.06
   4   6  -6    1.08    0.73
   4  -7   0    5.31    0.92
   4  -7   0    4.35    0.92
   4   7   0    4.20    0.65
  -4  -7   0    4.31    1.14
   4   7  -1   63.87    2.59
   4  -7   1   65.79    2.99
  -4  -7   1   62.16    3.36
   4  -7  -1   65.39    2.70
   4  -7  -1   66.08    3.10
   4  -7   1   62.44    2.86
  -4  -7  -1   62.79    3.39
  -4  -7   2   32.23    2.41
  -4  -7  -2   33.36    2.47
   4  -7   2   38.59    2.01
   4  -7  -2   42.55    1.94
   4  -7  -2   36.05    2.32
   4   7  -2   37.55    2.00
   4  -7   2   37.89    2.33
   4  -7   3   22.34    1.89
   4   7  -3   22.57    1.66
  -4  -7  -3   23.48    2.10
  -4  -7   3   23.72    2.02
   4  -7  -3   22.65    1.92
   4  -7   4    0.30    0.57
   4   7  -4   -0.20    0.46
  -4  -7  -4   -0.74    0.47
   4  -7  -4   -0.81    0.50
  -4  -7   4    0.21    0.60
   4  -7   5    0.55    0.64
   4   7  -5    0.83    0.54
  -4  -7  -5   -0.39    0.69
  -4  -7   5    0.47    0.72
   4  -7  -5   -0.33    0.60
   4   7  -6    0.51    0.71
   4  -7  -6   -0.12    0.87
  -4  -7  -6   -0.56    0.80
  -4  -7   6    0.21    0.80
   4  -8   0   43.07    2.27
   4  -8   0   38.01    2.43
  -4  -8   0   38.04    2.74
  -4  -8   1    9.59    1.62
   4  -8   1   12.66    1.44
   4  -8  -1   11.95    1.58
   4  -8   1   13.80    1.50
   4   8  -1   12.30    1.09
  -4  -8  -1    8.88    1.58
   4  -8  -1   13.74    1.27
  -4  -8   2   30.64    2.40
   4  -8  -2   28.36    2.21
   4   8  -2   30.04    1.83
   4  -8   2   29.30    2.13
  -4  -8  -2   30.03    2.47
   4  -8   3    6.80    1.33
   4  -8  -3   10.57    1.69
   4   8  -3    7.95    1.26
  -4  -8   3    8.91    1.66
  -4  -8  -3    8.37    1.61
  -4  -8  -4   -0.18    0.76
   4   8  -4    0.31    0.49
  -4  -8   4    0.56    0.74
   4  -8   4    1.19    0.75
   4  -8  -4    0.32    0.81
  -4  -8   5    0.35    0.60
   4  -8  -5    0.22    0.91
  -4  -8  -5    0.68    1.03
   4   8  -5    0.81    0.70
   4  -8   5    0.32    0.77
   4  -9   0   -0.69    0.72
  -4  -9   0   -0.40    0.59
  -4  -9   1    8.07    1.66
   4  -9  -1    9.05    1.60
  -4  -9  -1    6.00    1.50
   4  -9   1    6.18    1.29
   4  -9   1    7.73    1.26
   4   9  -2   15.88    1.41
   4  -9  -2   22.53    2.31
  -4  -9   2   19.95    2.31
  -4  -9  -2   19.53    2.41
   4  -9   2   21.88    2.10
   4  -9   3   11.64    1.71
  -4  -9  -3    6.76    1.63
   4   9  -3   12.08    1.43
   4  -9  -3    8.70    1.69
  -4  -9   3   12.66    1.98
  -4  -9  -4    0.37    0.98
   4  -9  -4   -0.12    0.90
   4  -9   4    0.42    0.80
  -4  -9   4    1.03    0.81
   4   9  -4    1.72    0.79
   4 -10   0    0.10    0.73
  -4 -10   0    0.44    0.91
   4 -10  -1    0.89    1.00
  -4 -10  -1    1.40    1.12
  -4 -10   1    1.56    0.97
   4 -10   2    6.96    1.36
  -4 -10  -2    6.19    1.65
   4 -10  -2    6.46    1.58
  -4 -10   2    4.74    1.29
   4 -10   3    4.30    1.25
   4 -10  -3    3.68    1.41
  -4 -10   3    4.47    1.39
   5   0   0    0.07    0.13
   5   0   0    0.09    0.29
  -5   0   0    0.12    0.17
   5   0  -1    8.31    0.87
  -5   0  -1    6.80    0.48
  -5   0   1    6.81    0.70
   5   0   1    7.62    0.85
   5   0  -1    8.38    0.79
   5   0   1    7.95    0.54
  -5   0  -2    5.45    0.47
   5   0   2    5.31    0.42
   5   0  -2    4.72    0.75
   5   0   2    4.15    0.70
  -5   0   2    5.36    0.76
   5   0   3    3.72    0.74
  -5   0   3    4.93    0.85
  -5   0  -3    4.39    0.53
  -5   0  -3    3.74    0.45
   5   0  -3    4.20    0.76
  -5   0  -4    7.99    0.78
  -5   0   4    5.78    1.01
   5   0   4    6.40    0.99
   5   0  -4    7.81    1.05
   5   0  -5   10.36    1.26
   5   0   5   12.65    1.41
  -5   0   5    9.67    1.39
  -5   0  -5   11.53    0.97
  -5   0   6   28.79    2.28
   5   0  -6   26.64    1.90
   5   0   6   26.12    1.97
   5   0  -7   -0.18    0.48
   5   0  -7    1.04    0.60
  -5   0   7    0.03    0.64
   5   0   7    1.21    0.65
  -5   1   0   -0.07    0.14
   5   1   0   -0.02    0.24
  -5  -1   0   -0.12    0.20
   5   1   0   -0.03    0.28
   5  -1   0   -0.19    0.24
   5  -1   0    0.16    0.19
   5   1  -1    8.87    0.90
  -5   1   1    9.85    0.72
  -5  -1   1    9.32    0.79
   5   1   1    7.21    0.80
   5  -1  -1   11.40    0.93
   5  -1  -1    9.56    0.73
   5  -1   1    9.31    0.96
  -5  -1  -1    9.61    0.72
  -5   1   2    5.01    0.70
   5  -1   2    5.46    0.82
   5   1  -2    5.69    0.79
  -5  -1  -2    6.38    0.64
   5   1   2    4.64    0.72
  -5  -1   2    3.90    0.69
   5  -1  -2    4.80    0.73
   5   1   2    5.95    0.59
   5   1   3   13.48    1.07
  -5  -1  -3   13.24    0.95
  -5   1   3   13.82    1.17
  -5   1  -3   13.17    0.64
   5  -1   3   13.63    1.17
  -5   1  -3   12.53    0.67
  -5  -1   3   12.83    1.16
   5  -1  -3   13.76    1.10
   5   1  -3   12.69    1.10
  -5  -1   4    4.60    0.95
   5  -1  -4    4.10    0.77
   5   1  -4    5.00    0.90
   5  -1   4    4.21    0.88
  -5   1  -4    3.74    0.50
   5   1   4    4.74    0.86
  -5  -1  -4    3.68    0.67
  -5   1   4    4.54    0.92
   5   1   5    5.61    0.99
  -5   1   5    6.20    1.19
   5  -1   5    3.64    0.89
   5   1  -5    5.05    0.95
   5  -1  -5    4.33    0.86
  -5  -1  -5    5.97    0.87
  -5   1  -5    6.05    0.73
  -5  -1   5    8.08    1.34
   5  -1   6    7.19    1.34
   5   1  -6    5.54    1.10
  -5   1   6    3.97    1.06
   5  -1  -6    5.74    1.14
   5   1   6    4.84    1.01
   5  -1  -6    5.79    1.03
  -5  -1  -6    7.62    1.11
  -5  -1   6    6.41    1.33
  -5  -1   7   38.46    2.92
   5  -1  -7   35.90    2.34
   5   1   7   40.18    2.54
   5   1  -7   34.72    2.43
   5  -1   7   41.05    2.79
   5  -1  -7   41.49    2.81
   5  -2   0    0.16    0.16
   5  -2   0    0.23    0.34
   5  -2   0   -0.04    0.15
  -5  -2   0    0.04    0.25
   5   2   0    0.06    0.29
  -5  -2  -1    0.52    0.37
   5   2   1    0.59    0.34
   5  -2   1    0.52    0.39
   5   2  -1    0.43    0.34
   5  -2  -1    0.57    0.28
  -5  -2   1    0.78    0.39
   5  -2  -1    0.84    0.40
   5  -2  -1    0.41    0.27
   5  -2  -2   38.66    1.85
  -5  -2   2   41.79    2.05
  -5   2   2   38.86    1.83
   5   2   2   39.95    1.79
  -5  -2  -2   39.10    1.81
   5  -2   2   38.19    2.02
   5  -2  -2   37.49    1.85
   5   2  -2   38.78    1.89
   5  -2  -3    1.49    0.54
   5   2   3    2.27    0.56
  -5  -2   3    0.30    0.39
   5   2  -3    2.34    0.60
  -5   2  -3    2.18    0.21
  -5  -2  -3    1.63    0.53
  -5   2   3    1.74    0.55
   5  -2   3    0.74    0.42
   5  -2  -3    2.33    0.59
   5  -2  -4   48.07    2.59
   5  -2  -4   49.80    2.33
  -5   2   4   52.88    2.67
  -5   2  -4   46.85    1.73
   5  -2   4   52.85    2.71
   5   2  -4   49.29    2.49
   5   2   4   47.56    2.22
  -5  -2  -4   54.53    2.38
  -5  -2   4   50.24    2.70
  -5  -2   5    0.50    0.56
   5  -2  -5    0.73    0.53
   5   2   5    0.57    0.49
   5  -2  -5    1.08    0.55
  -5  -2  -5    0.41    0.48
   5   2  -5    0.87    0.56
   5  -2   5    0.85    0.57
   5   2   6   30.30    1.96
   5   2  -6   26.99    2.03
  -5  -2   6   25.92    2.23
   5  -2   6   28.16    2.21
   5  -2  -6   23.20    2.07
  -5  -2  -6   27.56    1.90
   5  -2  -6   28.42    1.88
   5  -2  -7    1.04    0.80
   5  -2   7    0.16    0.75
  -5  -2   7    0.45    0.74
   5   2  -7    0.10    0.60
   5  -2  -7    0.62    0.59
  -5  -3   0   -0.09    0.32
   5  -3   0    0.04    0.19
   5  -3   0    0.42    0.23
   5  -3   0    0.16    0.33
   5   3   0    0.20    0.28
   5  -3   1    0.06    0.35
   5  -3  -1    0.13    0.24
   5   3  -1   -0.15    0.27
  -5  -3  -1   -0.35    0.35
   5   3   1   -0.32    0.24
  -5  -3   1    0.27    0.38
   5  -3   1   -0.08    0.11
   5  -3  -1   -0.55    0.24
   5  -3  -2   46.59    2.13
   5  -3   2   49.41    2.38
   5  -3  -2   43.54    2.06
  -5  -3  -2   48.70    2.25
  -5  -3   2   46.55    2.36
   5   3  -2   45.46    2.14
   5   3   2   47.13    1.93
   5   3   3   82.85    2.99
  -5  -3  -3   85.37    3.39
   5  -3  -3   88.19    3.53
   5   3  -3   88.13    3.42
  -5  -3   3   87.29    3.69
   5  -3  -3   86.34    3.22
   5   3  -4    4.09    0.89
   5   3   4    3.60    0.67
  -5  -3   4    3.22    0.87
  -5  -3  -4    3.65    0.82
   5  -3  -4    3.62    0.79
   5  -3  -4    3.88    0.95
   5  -3   4    2.95    0.83
   5   3   5   33.77    1.81
   5  -3  -5   35.37    2.38
   5  -3  -5   31.45    1.86
   5   3  -5   32.41    2.12
  -5  -3  -5   26.85    1.89
  -5  -3   5   29.34    2.25
   5  -3   5   30.07    2.27
   5   3  -6    0.30    0.52
   5  -3  -6    0.02    0.45
  -5  -3  -6   -0.05    0.54
   5  -3  -6    0.52    0.62
  -5  -3   6    0.32    0.66
   5  -3   6    0.73    0.61
  -5  -3   7   31.91    2.71
   5  -3   7   28.95    2.54
   5  -3  -7   29.65    2.51
   5   3  -7   31.93    2.41
  -5  -3  -7   30.59    2.30
   5  -4   0    0.07    0.29
   5  -4   0   -0.24    0.27
   5   4   0   -0.07    0.30
  -5  -4   0    0.21    0.43
   5  -4   0    0.22    0.26
   5   4  -1    0.40    0.33
  -5  -4  -1    1.26    0.62
   5   4   1    0.62    0.36
   5  -4  -1    0.78    0.38
   5  -4  -1    0.61    0.42
   5  -4   1    0.86    0.30
  -5  -4   1    0.06    0.38
   5  -4   1    0.72    0.46
   5   4  -2   73.09    2.96
   5  -4   2   73.43    2.13
   5  -4  -2   73.21    2.99
   5  -4  -2   77.60    2.94
   5   4   2   71.57    2.58
   5  -4   2   76.80    3.27
  -5  -4  -2   79.99    3.28
  -5  -4   2   79.45    3.40
   5   4   3    7.52    0.74
  -5  -4   3    5.76    1.09
   5  -4   3    6.45    1.13
   5  -4  -3    5.99    0.84
   5   4  -3    6.08    0.99
  -5  -4  -3    5.84    1.05
   5  -4  -3    7.03    1.09
   5  -4  -4   79.49    3.73
   5   4   4   83.49    2.91
   5  -4  -4   84.18    3.22
   5  -4   4   81.90    3.87
   5   4  -4   85.10    3.59
  -5  -4  -4   84.98    3.62
  -5  -4   5    1.04    0.69
   5  -4  -5    0.45    0.58
   5  -4   5    1.01    0.66
   5  -4  -5    0.27    0.48
  -5  -4  -5   -0.25    0.50
   5   4  -5    1.00    0.65
   5  -4  -6   18.60    2.21
  -5  -4  -6   13.85    1.67
  -5  -4   6   15.11    1.99
   5  -4   6   18.14    2.20
   5   4  -6   15.23    1.81
   5  -4  -7    8.94    1.83
  -5  -4   7    4.12    1.27
  -5  -4  -7    3.17    1.13
   5  -4   7    3.36    1.19
   5   5   0   -0.15    0.25
  -5  -5   0    0.06    0.48
   5  -5   0   -0.10    0.34
   5  -5   0    0.63    0.44
  -5  -5   1    0.95    0.57
   5  -5  -1    0.80    0.45
   5  -5  -1    1.60    0.53
   5  -5   1    0.40    0.38
  -5  -5  -1    1.29    0.72
   5   5  -1    1.81    0.56
  -5   5  -1    1.25    0.33
   5  -5   1    1.19    0.57
   5   5   1    1.19    0.44
   5   5  -2   22.32    1.49
   5  -5  -2   19.35    1.45
  -5  -5   2   17.58    1.60
   5  -5   2   19.39    0.97
  -5  -5  -2   21.42    1.73
   5  -5   2   20.08    1.60
   5   5   2   19.19    1.07
   5  -5  -2   21.30    1.39
   5   5  -3   23.28    1.65
  -5  -5   3   24.29    1.94
   5  -5  -3   25.14    1.53
   5  -5  -3   24.53    1.77
   5  -5   3   25.63    1.94
  -5  -5  -3   25.52    1.90
   5  -5  -4    0.29    0.47
  -5  -5  -4    0.46    0.66
   5   5  -4    0.14    0.47
   5  -5  -4    1.05    0.51
   5  -5   4    1.07    0.64
  -5  -5   4    1.23    0.68
  -5  -5   5   12.68    1.85
   5   5  -5   10.56    1.45
   5  -5   5   15.44    2.03
  -5  -5  -5   10.20    1.54
   5  -5  -5   12.21    1.75
  -5  -5  -6   -0.25    0.74
   5  -5   6    0.64    0.72
  -5  -5   6   -0.22    0.66
   5  -5  -6    0.80    0.85
   5   5  -6    0.54    0.70
   5  -6   0   -0.15    0.48
   5  -6   0    0.12    0.40
   5   6   0   -0.35    0.29
  -5  -6   0    0.23    0.54
  -5  -6  -1    0.17    0.65
   5   6   1   -0.34    0.29
   5  -6   1   -0.36    0.36
   5  -6  -1    0.48    0.44
   5   6  -1    0.23    0.35
   5  -6   1    0.45    0.46
  -5  -6   1    0.32    0.53
   5  -6  -1    0.39    0.51
   5   6  -2    2.80    0.72
   5  -6  -2    3.54    0.75
  -5  -6  -2    4.11    1.08
   5  -6   2    4.43    0.97
   5  -6   2    3.75    0.59
   5  -6  -2    4.39    0.98
  -5  -6   2    3.79    0.99
   5   6  -3    8.90    1.20
   5  -6  -3    8.02    0.95
  -5  -6  -3    7.76    1.37
   5  -6   3    7.80    1.31
  -5  -6   3    9.29    1.51
   5  -6  -3    8.60    1.35
   5  -6  -4   11.97    1.63
  -5  -6   4   19.38    2.07
  -5  -6  -4   16.55    1.87
   5  -6   4   17.02    1.97
   5   6  -4   15.57    1.66
   5   6  -5    1.40    0.72
   5  -6   5    0.69    0.76
   5  -6  -5    1.47    0.80
  -5  -6  -5    1.76    0.96
  -5  -6   5    2.44    1.00
   5  -6  -6   14.09    2.13
   5  -6   6    9.66    1.80
  -5  -6   6   14.39    2.13
  -5  -6  -6    9.91    1.72
   5   6  -6    9.84    1.61
   5   7   0   -0.46    0.31
   5  -7   0   -0.43    0.32
  -5  -7   0    0.04    0.60
   5  -7   0   -0.19    0.54
   5  -7   1    4.38    0.87
   5   7  -1    3.92    0.77
   5  -7  -1    4.80    0.91
  -5  -7  -1    5.97    1.31
   5  -7   1    4.11    0.92
  -5  -7   1    2.88    0.94
   5  -7  -1    4.19    0.96
   5  -7  -2    1.72    0.80
  -5  -7  -2    1.94    0.96
   5  -7  -2    1.20    0.53
   5  -7   2    0.62    0.59
  -5  -7   2    1.97    0.87
   5   7  -2   -0.14    0.40
   5  -7   3    3.72    1.09
   5   7  -3    3.93    0.91
   5  -7  -3    3.18    0.92
  -5  -7  -3    2.00    0.97
  -5  -7   3    2.37    0.90
  -5  -7  -4    2.22    1.05
   5   7  -4    2.63    0.87
  -5  -7   4    1.77    0.84
   5  -7   4    0.92    0.70
   5  -7  -4    1.61    0.95
  -5  -7   5    2.83    1.14
   5   7  -5    2.27    0.93
   5  -7  -5    0.89    0.89
  -5  -7  -5    0.76    0.89
   5  -7   5    1.34    0.89
   5  -8   0   -1.25    0.58
  -5  -8   0    0.46    0.71
   5  -8   0    0.36    0.51
   5   8  -1    1.92    0.65
   5  -8  -1    1.24    0.80
  -5  -8  -1    3.95    1.19
   5  -8  -1    0.80    0.55
  -5  -8   1    1.58    0.90
   5  -8   1    1.34    0.71
   5  -8  -2    0.25    0.72
   5   8  -2    0.67    0.53
   5  -8   2    0.01    0.54
  -5  -8  -2   -0.55    0.72
  -5  -8   2    0.41    0.65
  -5  -8   3    0.56    0.57
  -5  -8  -3   -1.08    0.65
   5   8  -3   -0.16    0.45
   5  -8  -3   -0.40    0.61
   5  -8   3   -0.04    0.57
   5  -8  -4    6.29    1.40
  -5  -8  -4   11.99    2.02
   5   8  -4   11.51    1.60
  -5  -8   4    7.77    1.57
   5  -8   4   11.35    1.87
   5  -8  -5    2.00    1.15
  -5  -8  -5   -0.13    0.99
   5   8  -5    0.89    0.79
  -5  -9   0   -0.17    0.78
   5  -9  -1   -0.21    0.78
   5  -9   1   -0.14    0.51
  -5  -9  -1    0.22    0.84
  -5  -9   1    0.41    0.73
   5  -9  -2   -0.17    0.76
   5  -9   2   -0.41    0.58
  -5  -9  -2   -1.04    0.64
  -5  -9   2    1.82    0.97
   5  -9   3   19.98    2.23
   5   9  -3   12.78    1.57
  -5  -9   3   12.67    2.04
  -5  -9  -3   13.77    2.17
   5  -9  -3   10.92    1.82
   5  -9   4    0.13    0.75
   5  -9  -4    1.01    0.99
   5   9  -4    0.77    0.73
  -5 -10   0   -0.07    0.89
  -5 -10  -1   -0.23    0.88
  -5 -10   1    0.82    1.03
  -5 -10   2   14.12    2.23
   5 -10   2    8.43    1.60
  -5 -10  -2   12.98    2.28
   5 -10  -2   10.39    1.93
   6   0   0   37.30    1.70
  -6   0   0   51.69    1.79
   6   0   0   48.94    2.19
   6   0   1  103.09    3.02
  -6   0   1   95.80    3.32
   6   0   1   96.36    3.57
   6   0  -1  103.35    3.64
  -6   0  -1   95.63    2.93
   6   0  -2   27.71    1.68
  -6   0   2   24.83    1.51
   6   0   2   29.93    1.72
  -6   0  -2   26.55    1.08
   6   0   2   31.48    1.13
   6   0   3   26.94    1.74
  -6   0  -3   27.95    1.22
  -6   0  -3   27.60    1.15
   6   0  -3   27.50    1.72
  -6   0   3   28.22    1.75
   6   0   4   25.37    1.79
  -6   0  -4   26.15    1.33
   6   0  -4   26.23    1.75
  -6   0   4   23.81    1.79
   6   0  -5    0.14    0.48
   6   0   5    0.68    0.56
  -6   0   5    1.03    0.60
   6   0  -6    1.50    0.68
   6   0   6    1.23    0.73
  -6   0   6    1.36    0.81
   6   0   7   11.62    1.70
   6   0  -7   11.89    1.77
  -6   0   7   10.58    1.86
   6   0  -7   13.63    1.74
   6   1   0   81.95    3.12
   6  -1   0   80.42    3.17
   6  -1   0   86.11    2.67
  -6   1   0   83.19    2.59
  -6  -1   0   81.60    2.86
   6   1   1  127.72    4.22
   6   1  -1  126.61    4.26
   6  -1   1  126.53    4.31
  -6   1   1  125.13    3.91
  -6   1  -1  122.49    3.34
  -6  -1  -1  118.32    3.78
   6  -1  -1  128.93    4.29
  -6  -1   1  118.47    4.06
  -6  -1   2   42.45    2.10
   6  -1   2   42.32    2.20
  -6  -1  -2   41.81    1.73
  -6   1   2   43.87    2.01
   6   1   2   48.42    1.80
   6  -1  -2   40.17    2.08
   6   1   2   41.69    2.06
   6   1  -2   40.57    2.10
   6  -1   3   12.10    1.33
  -6  -1  -3   11.88    0.94
  -6  -1   3   12.44    1.30
   6   1   3   13.52    1.16
  -6   1   3   10.42    1.18
   6   1  -3   13.94    1.22
   6  -1  -3   10.55    1.18
  -6  -1  -4    0.39    0.44
   6  -1   4    1.11    0.59
  -6   1   4    0.30    0.44
  -6  -1   4   -0.12    0.37
   6   1  -4    0.36    0.42
   6  -1  -4    1.13    0.57
   6   1   4    1.38    0.57
   6   1   5    0.04    0.44
  -6  -1  -5    0.62    0.47
   6  -1  -5    0.31    0.48
   6   1  -5    0.37    0.51
  -6   1   5    0.09    0.45
  -6  -1   5   -0.07    0.43
   6  -1   5    0.36    0.53
   6  -1  -6    1.54    0.69
  -6  -1   6    0.05    0.59
  -6   1   6    1.65    0.85
   6  -1  -6    0.68    0.61
   6   1   6    0.75    0.57
   6   1  -6    0.56    0.57
   6  -1   6    0.87    0.64
   6  -1   7    2.31    0.90
   6  -1  -7    0.35    0.64
   6  -1  -7    1.54    0.72
   6   1  -7    1.23    0.81
  -6  -1   7    1.83    1.07
   6   2   0   33.96    1.75
   6  -2   0   32.68    1.83
  -6  -2   0   33.87    1.69
   6  -2   0   32.03    1.26
   6  -2   0   35.07    1.32
   6  -2  -1   27.38    1.34
   6   2   1   26.40    1.52
   6   2  -1   27.24    1.60
  -6  -2   1   27.36    1.59
   6  -2   1   27.56    1.72
   6  -2  -1   27.19    1.63
  -6  -2  -1   26.79    1.44
   6  -2   2   17.98    1.45
   6  -2  -2   20.59    1.40
  -6  -2   2   19.26    1.40
   6   2  -2   19.61    1.39
  -6  -2  -2   18.16    1.22
   6  -2  -2   21.07    1.32
   6   2   2   18.61    1.28
  -6   2   2   19.84    1.28
   6   2  -3    2.37    0.67
   6  -2   3    5.53    1.02
   6  -2  -3    4.03    0.82
  -6  -2   3    2.94    0.77
  -6   2   3    4.25    0.83
  -6  -2  -3    3.74    0.75
   6   2   3    3.45    0.73
   6  -2  -3    3.75    0.80
   6  -2   4   12.54    1.52
  -6  -2  -4   18.79    1.35
  -6  -2   4   19.98    1.66
   6   2  -4   17.30    1.46
   6   2   4   19.34    1.43
   6  -2  -4   18.55    1.52
  -6   2   4   19.67    1.61
   6  -2  -4   15.34    1.34
   6  -2  -5    4.02    0.92
  -6  -2   5    3.51    0.98
   6  -2  -5    3.23    0.89
  -6  -2  -5    4.33    0.90
   6   2  -5    4.09    0.94
   6   2   5    4.10    0.89
   6  -2   5    3.47    1.00
   6  -2   6    1.56    0.86
   6  -2  -6    4.30    1.16
  -6  -2   6    2.57    1.00
   6   2  -6    4.92    1.14
   6  -2  -6    1.97    0.78
   6   2  -7    1.63    0.83
  -6  -2   7    1.44    0.89
   6  -2   7    1.53    0.90
   6  -2  -7    1.01    0.72
   6  -2  -7    0.53    0.65
  -6  -3   0   18.53    1.34
   6  -3   0   20.37    0.98
   6  -3   0   20.20    1.40
   6  -3   0   20.80    0.98
   6   3   0   18.26    1.26
   6  -3   1   20.08    1.49
   6  -3  -1   20.06    1.15
  -6  -3  -1   20.20    1.39
   6   3  -1   21.07    1.39
   6  -3  -1   21.36    1.46
  -6  -3   1   17.88    1.38
   6   3   1   20.50    1.30
  -6  -3  -2    2.34    0.69
   6   3   2    3.53    0.66
   6   3  -2    3.11    0.75
   6  -3  -2    4.84    0.77
  -6  -3   2    2.73    0.73
   6  -3  -2    3.68    0.76
   6  -3   2    3.52    0.86
   6  -3  -3   20.01    1.44
   6   3  -3   16.88    1.39
   6   3   3   19.53    1.31
  -6  -3   3   21.86    1.68
   6  -3  -3   19.39    1.47
   6  -3   3   18.11    1.60
  -6  -3  -3   17.87    1.41
   6  -3   4   20.24    1.74
  -6  -3  -4   21.04    1.60
   6   3  -4   19.45    1.61
   6  -3  -4   21.59    1.54
   6  -3  -4   17.60    1.59
   6   3   4   21.34    1.43
  -6  -3   4   19.81    1.75
   6  -3  -5   14.82    1.76
   6  -3   5    9.42    1.59
   6   3  -5   13.32    1.64
   6  -3  -5   13.47    1.44
  -6  -3  -5   10.38    1.33
  -6  -3   5   13.90    1.84
   6   3   5    9.75    1.20
   6  -3  -6   21.78    1.75
   6  -3  -6   28.26    2.32
  -6  -3  -6   22.81    1.89
   6   3  -6   25.18    2.10
  -6  -3   6   26.27    2.34
   6  -3   6   26.22    2.27
   6  -3  -7    0.47    0.63
   6  -3   7    0.33    0.78
   6   4   0   32.75    1.73
   6  -4   0   32.96    1.95
  -6  -4   0   34.88    2.02
   6  -4   0   33.59    1.45
   6  -4   0   36.03    1.53
   6   4   1   15.82    1.12
   6  -4   1   14.75    0.65
   6  -4  -1   12.73    1.01
   6   4  -1   15.39    1.22
  -6  -4  -1   14.66    1.45
   6  -4  -1   16.89    1.30
  -6  -4   1   12.50    1.36
   6  -4   1   11.92    1.31
   6  -4  -2   13.00    1.15
   6  -4  -2   12.47    1.26
  -6  -4  -2   15.55    1.39
  -6  -4   2   16.50    1.42
   6   4  -2   12.16    1.25
   6   4   2   13.34    1.02
   6  -4   2   12.16    1.41
   6   4  -3    0.94    0.56
   6   4   3   -0.04    0.29
   6  -4  -3    0.04    0.44
  -6  -4   3    0.36    0.46
   6  -4   3   -0.20    0.41
  -6  -4  -3    0.38    0.60
   6  -4  -3    0.03    0.43
   6  -4  -4    9.10    1.17
  -6  -4  -4    8.14    1.29
  -6  -4   4   10.70    1.54
   6  -4  -4    9.68    1.43
   6  -4   4    7.79    1.34
   6   4  -4   11.27    1.45
   6  -4  -5    1.22    0.66
   6  -4  -5    0.86    0.66
  -6  -4  -5    1.52    0.78
  -6  -4   5    4.57    1.20
   6   4  -5    1.59    0.79
   6  -4   5    0.84    0.75
   6  -4   6    3.26    1.05
  -6  -4   6    2.53    1.01
   6   4  -6    4.35    1.14
   6  -4  -6    3.59    1.07
  -6  -4  -6    1.23    0.82
   6   5   0   -0.16    0.34
  -6  -5   0   -0.24    0.42
   6  -5   0   -0.40    0.31
   6  -5   0   -0.19    0.34
   6   5  -1   24.39    1.55
   6  -5  -1   23.71    1.49
  -6  -5  -1   23.42    1.83
   6  -5  -1   26.04    1.69
  -6  -5   1   24.46    1.85
   6   5   1   23.29    1.39
   6  -5   1   22.12    1.68
   6  -5   1   23.60    1.14
   6  -5  -2    8.28    1.07
   6  -5   2    6.72    1.17
   6   5   2    7.00    0.81
   6  -5  -2    7.29    1.02
  -6  -5   2    5.50    1.06
  -6  -5  -2    5.59    1.12
   6   5  -2    7.30    1.04
   6   5  -3   18.27    1.50
   6  -5  -3   18.12    1.54
  -6  -5  -3   16.97    1.74
   6  -5  -3   17.11    1.39
  -6  -5   3   16.73    1.82
   6  -5   3   18.49    1.86
   6  -5  -4   13.78    1.70
   6   5  -4   11.55    1.48
   6  -5   4   10.35    1.57
  -6  -5  -4   10.61    1.51
  -6  -5   4   10.92    1.63
   6  -5  -4   10.40    1.21
   6  -5   5    7.18    1.48
   6   5  -5    5.00    1.08
  -6  -5  -5    7.53    1.40
   6  -5  -5    6.94    1.41
  -6  -5   5    8.16    1.56
   6  -5   6   13.93    2.20
  -6  -5   6   11.98    2.02
  -6  -5  -6   11.37    1.72
   6  -5  -6   10.16    1.73
   6   5  -6   12.32    1.82
   6  -6   0   34.79    1.86
   6   6   0   30.70    1.72
   6  -6   0   33.01    2.05
  -6  -6   0   32.96    2.29
   6  -6  -1   48.16    2.45
  -6  -6   1   51.48    2.86
   6  -6  -1   46.42    2.35
   6   6   1   45.27    2.05
  -6  -6  -1   42.98    2.70
   6   6  -1   47.18    2.30
   6  -6   1   46.01    2.56
  -6  -6  -2   15.77    1.78
   6  -6  -2   16.07    1.34
   6  -6  -2   16.63    1.44
  -6  -6   2   16.31    1.87
   6  -6   2   17.97    1.82
   6   6  -2   16.06    1.38
  -6  -6  -3    4.92    1.24
   6   6  -3    6.47    1.17
   6  -6   3    4.66    1.16
   6  -6  -3    5.29    1.11
  -6  -6   3    3.05    0.91
   6  -6  -3    7.02    1.04
   6  -6   4    5.75    1.29
   6   6  -4    8.40    1.38
  -6  -6   4    7.52    1.48
   6  -6  -4    8.32    1.46
  -6  -6  -4    9.26    1.56
   6  -6  -5    0.17    0.75
  -6  -6  -5   -0.38    0.75
   6   6  -5   -0.37    0.54
  -6  -6   5    0.48    0.77
   6  -6   5    0.41    0.78
   6  -6  -6    0.09    0.71
  -6  -6  -6   -0.40    0.86
   6   7   0   34.17    1.87
   6  -7   0   36.13    2.10
   6  -7   0   37.83    2.26
  -6  -7   0   33.81    2.49
  -6  -7   1   40.74    2.77
   6  -7   1   45.54    2.65
  -6  -7  -1   48.36    2.99
   6   7  -1   45.40    2.29
   6  -7  -1   44.34    2.46
   6  -7  -1   45.57    2.45
   6  -7  -2   19.65    1.50
   6   7  -2   17.89    1.50
   6  -7  -2   16.68    1.70
  -6  -7   2   16.41    2.00
  -6  -7  -2   19.15    2.13
   6  -7   2   21.20    2.06
  -6  -7  -3    6.83    1.49
   6   7  -3   10.36    1.41
   6  -7  -3    6.30    1.24
  -6  -7   3    8.01    1.55
   6  -7   3    9.40    1.62
  -6  -7   4    0.73    0.74
   6  -7   4    1.13    0.87
   6  -7  -4    1.20    0.86
  -6  -7  -4   -0.31    0.72
   6   7  -4    0.59    0.68
   6   7  -5   -0.30    0.66
  -6  -7   5   -0.14    0.62
   6  -7   5    0.29    0.75
  -6  -7  -5   -1.00    0.71
   6  -7  -5   -0.02    0.81
  -6  -8   0   13.91    1.98
   6  -8   0   10.26    1.40
  -6  -8  -1    9.49    1.66
   6   8  -1   13.06    1.34
   6  -8   1   13.84    1.69
  -6  -8   1   14.00    2.00
   6  -8  -1   14.57    1.67
   6  -8  -1   17.03    1.66
   6   8  -2    6.70    1.08
   6  -8  -2   10.31    1.58
  -6  -8   2    9.43    1.78
   6  -8   2    8.03    1.50
  -6  -8  -2    9.25    1.72
  -6  -8   3    3.97    1.13
   6  -8  -3    5.67    1.34
   6  -8   3    5.45    1.33
  -6  -8  -3    2.16    1.11
   6   8  -3    3.59    0.92
  -6  -8  -4    8.37    1.76
   6  -8  -4   10.80    1.86
   6  -8   4    8.48    1.76
   6   8  -4    8.40    1.47
  -6  -8   4   11.14    1.97
  -6  -9   0    5.60    1.47
  -6  -9  -1   20.26    2.51
  -6  -9   1   23.79    2.59
   6  -9   1   24.50    2.08
   6  -9  -2    3.85    1.32
   6  -9   2    3.92    1.14
  -6  -9   2    4.78    1.39
  -6  -9  -2    2.92    1.24
  -6  -9  -3    1.86    1.23
   6   9  -3    3.22    0.98
   6  -9   3    4.04    1.23
   6  -9  -3    3.12    1.25
   7   0   0   -0.08    0.34
   7   0   0    0.02    0.41
  -7   0   0    0.14    0.23
   7   0   1    0.33    0.32
  -7   0   1    0.15    0.26
   7   0   1    0.14    0.37
   7   0  -1   -0.23    0.35
  -7   0  -1    0.05    0.18
  -7   0   2   54.80    2.44
  -7   0  -2   52.39    1.75
   7   0  -2   52.21    2.59
   7   0   2   52.49    2.59
   7   0   2   56.32    1.79
  -7   0  -3    2.91    0.41
  -7   0   3    1.80    0.59
   7   0  -3    2.24    0.71
   7   0   3    3.43    0.81
   7   0   4    6.30    1.13
  -7   0   4    5.79    1.07
   7   0  -4    5.86    1.07
  -7   0   5    4.34    1.04
   7   0   5    7.36    1.27
   7   0  -5    4.81    1.01
   7   0  -6    0.87    0.65
  -7   0   6    1.40    0.83
   7   0   6    0.92    0.62
   7   0   7   27.00    2.59
   7   0  -7   29.49    2.37
  -7  -1   0   -0.13    0.21
   7  -1   0   -0.04    0.28
   7  -1   0    0.15    0.38
   7   1   0    0.18    0.38
  -7   1   0   -0.02    0.20
   7  -1  -1    5.22    0.93
  -7  -1  -1    5.97    0.67
   7   1  -1    6.18    0.97
   7  -1   1    4.90    0.93
  -7  -1   1    5.51    0.77
  -7   1   1    5.48    0.69
   7  -1   1    5.60    0.42
   7   1   1    5.90    0.93
  -7   1  -1    5.38    0.35
   7   1   2    4.78    0.92
  -7  -1  -2    5.97    0.66
  -7  -1   2    4.98    0.86
   7   1  -2    5.38    0.94
  -7   1   2    5.62    0.82
   7  -1   2    5.74    1.03
   7  -1  -2    4.72    0.93
   7   1   2    5.79    0.66
   7   1  -3    8.20    1.17
   7  -1  -3    9.51    1.21
  -7   1   3    6.87    1.00
   7  -1   3    5.00    0.97
  -7  -1   3    8.84    1.19
  -7  -1  -3    9.51    0.85
   7   1   3    7.57    1.07
   7   1   4    7.75    1.14
  -7  -1   4   11.49    1.47
   7   1  -4   13.46    1.53
   7  -1   4   10.25    1.41
  -7   1   4    7.88    1.21
   7  -1  -4    8.37    1.23
   7  -1  -5   11.89    1.49
  -7   1   5   16.94    1.82
   7   1  -5   16.58    1.76
   7  -1   5   10.53    1.47
  -7  -1   5   13.00    1.72
   7   1   5   19.13    1.77
  -7  -1   6   30.31    2.47
   7  -1  -6   31.53    2.25
   7  -1  -6   29.82    2.29
   7   1   6   30.84    2.27
   7  -1   6   26.17    2.23
   7   1  -6   28.29    2.21
  -7   1   6   27.16    2.34
   7   1  -7    3.17    1.13
   7  -1   7    3.04    1.12
   7  -1  -7    3.20    1.06
   7   2   0   -0.27    0.34
   7  -2   0    0.21    0.25
  -7  -2   0   -0.24    0.26
   7  -2   0   -0.30    0.30
   7  -2   0    0.07    0.18
   7   2  -1    3.17    0.76
  -7  -2  -1    4.09    0.69
   7  -2   1    3.23    0.83
   7   2   1    3.03    0.72
  -7   2   1    3.31    0.56
  -7  -2   1    2.84    0.66
   7  -2  -1    2.35    0.70
   7  -2  -1    3.28    0.56
   7  -2  -2    5.92    1.02
  -7  -2  -2    4.22    0.72
   7  -2   2    4.64    0.96
   7   2  -2    4.66    0.91
   7   2   2    4.43    0.83
   7  -2  -2    6.10    0.82
  -7   2   2    5.58    0.82
  -7  -2   2    4.36    0.85
   7   2   3    6.60    0.96
  -7   2   3    9.82    1.18
   7  -2  -3    6.99    1.10
   7  -2  -3    8.86    1.13
  -7  -2  -3    9.59    1.03
   7  -2   3    8.07    1.27
  -7  -2   3    7.10    1.12
   7   2  -3    8.16    1.20
  -7  -2  -4    0.82    0.56
   7  -2   4    0.57    0.49
  -7  -2   4    0.23    0.47
   7   2   4    0.29    0.40
  -7   2   4    0.85    0.57
   7  -2  -4    1.16    0.62
   7  -2  -4    1.01    0.55
   7   2  -4    0.57    0.60
   7   2  -5   22.64    1.88
   7   2   5   21.02    1.63
  -7  -2   5   20.77    1.88
   7  -2  -5   17.31    1.71
   7  -2  -5   18.97    1.72
   7  -2   5   20.13    2.09
   7   2  -6    4.52    1.10
   7  -2   6    4.91    1.18
   7  -2  -6    3.12    0.98
  -7  -2   6    4.50    1.18
   7  -2  -6    6.22    1.34
   7  -3   0    0.32    0.45
  -7  -3   0   -0.22    0.36
   7  -3   0    0.17    0.22
   7  -3   0    0.12    0.22
   7   3   0   -0.24    0.35
  -7  -3   1   17.73    1.38
   7  -3  -1   16.33    1.40
   7   3  -1   15.82    1.35
   7   3   1   16.92    1.30
   7  -3  -1   15.20    1.03
  -7  -3  -1   15.88    1.29
   7  -3   1   17.62    1.64
   7   3   2   67.77    2.81
   7   3  -2   62.08    2.94
   7  -3   2   62.84    3.15
  -7  -3  -2   69.92    2.91
  -7  -3   2   68.08    3.12
   7  -3  -2   65.24    2.75
   7  -3  -2   66.53    2.99
   7  -3   3    1.69    0.74
  -7  -3  -3    2.59    0.76
   7   3   3    2.17    0.60
   7   3  -3    0.63    0.49
   7  -3  -3    1.64    0.60
   7  -3  -3    1.19    0.62
  -7  -3   3    1.19    0.61
   7   3  -4   49.61    2.75
  -7  -3  -4   50.38    2.57
   7   3   4   49.09    2.41
   7  -3  -4   45.78    2.65
   7  -3  -4   46.25    2.52
   7  -3   4   51.39    2.99
  -7  -3   4   45.64    2.82
  -7  -3  -5    2.38    0.88
   7   3  -5    1.89    0.86
   7  -3  -5    2.33    0.87
   7  -3   5    1.63    0.82
  -7  -3   5    1.25    0.75
   7  -3  -5    1.04    0.67
   7   3  -6   28.42    2.31
  -7  -3   6   27.34    2.44
   7  -3  -6   25.08    1.98
   7  -3   6   21.19    2.39
   7  -3  -6   26.86    2.30
   7   4   0   -0.57    0.34
   7  -4   0   -0.01    0.29
   7  -4   0   -0.05    0.42
  -7  -4   0    0.09    0.43
   7   4  -1   13.07    1.35
   7  -4   1    9.51    1.31
  -7  -4  -1   14.51    1.45
  -7  -4   1   11.55    1.40
   7  -4  -1   15.71    1.49
   7   4   1   11.64    1.15
   7  -4  -1   10.95    0.94
   7   4   2    1.97    0.61
  -7  -4   2    3.31    0.87
  -7  -4  -2    3.56    0.91
   7   4  -2    2.13    0.69
   7  -4  -2    2.80    0.67
   7  -4  -2    3.81    0.89
   7  -4   2    3.37    0.94
   7  -4   3   13.34    1.63
   7   4  -3   19.33    1.59
  -7  -4  -3   18.22    1.61
  -7  -4   3   20.51    1.77
   7  -4  -3   20.15    1.55
   7   4   3   18.88    1.36
   7  -4  -3   18.72    1.51
   7  -4  -4    0.31    0.46
  -7  -4   4    0.21    0.54
  -7  -4  -4    0.49    0.71
   7  -4   4   -0.03    0.55
   7  -4  -4    0.21    0.59
   7   4  -4    0.25    0.54
  -7  -4   5   24.31    2.44
   7  -4  -5   22.02    1.75
   7  -4   5   16.72    2.00
   7  -4  -5   18.38    2.03
   7   4  -5   20.16    2.08
  -7  -4  -5   20.29    1.84
   7   4  -6   16.27    2.05
   7  -4  -6   17.02    2.19
   7  -4   6   13.40    2.10
  -7  -4   6   17.12    2.35
  -7  -5   0    0.20    0.52
   7  -5   0   -0.09    0.43
   7   5   0   -0.53    0.36
   7  -5   0   -0.77    0.31
  -7  -5   1   12.91    1.53
   7  -5  -1    9.95    1.25
   7  -5  -1   14.94    1.19
   7  -5   1   18.36    1.75
   7   5  -1   13.83    1.38
  -7  -5  -1   14.46    1.61
   7   5   1   12.28    1.20
   7  -5   2   23.46    1.91
   7  -5  -2   24.02    1.65
   7   5   2   22.51    1.45
  -7  -5   2   24.43    1.95
   7   5  -2   24.09    1.73
   7  -5  -2   21.65    1.65
  -7  -5  -2   28.41    2.02
   7  -5  -3   -0.21    0.47
  -7  -5  -3   -1.02    0.42
   7  -5  -3    0.27    0.50
  -7  -5   3   -0.29    0.30
   7  -5   3    0.20    0.52
   7   5  -3   -0.14    0.50
  -7  -5  -4   15.77    1.78
   7   5  -4   17.28    1.79
  -7  -5   4   24.73    2.12
   7  -5   4   12.18    1.75
   7  -5  -4   19.89    1.79
   7  -5  -4   18.37    1.57
   7  -5  -5    3.43    1.07
  -7  -5  -5    3.62    1.14
   7   5  -5    2.05    0.93
   7  -5   5    2.15    1.02
  -7  -5   5    3.80    1.14
   7  -5  -6   18.76    2.37
   7  -6   0    0.01    0.46
  -7  -6   0   -0.22    0.54
   7   6   0   -0.09    0.42
   7   6   1    0.25    0.51
   7  -6  -1    0.34    0.54
  -7  -6   1    0.57    0.56
   7   6  -1    0.38    0.50
  -7  -6  -1    0.70    0.68
   7  -6  -1    0.23    0.55
   7  -6   1    1.29    0.68
  -7  -6  -2    2.88    1.04
   7   6  -2    2.05    0.73
   7  -6  -2    3.47    0.90
  -7  -6   2    3.15    0.95
   7  -6  -2    4.64    0.97
   7  -6   2    5.15    1.17
   7   6  -3   -0.25    0.48
  -7  -6   3    0.39    0.51
  -7  -6  -3    0.18    0.73
   7  -6   3    0.04    0.58
   7  -6  -3   -0.39    0.52
   7  -6  -3    0.46    0.54
   7   6  -4    0.92    0.67
  -7  -6  -4    0.13    0.86
   7  -6   4    0.76    0.84
   7  -6  -4    1.17    0.68
  -7  -6   4    1.70    0.86
   7  -6  -5    4.26    1.25
  -7  -6  -5    3.38    1.27
   7   6  -5    5.74    1.33
  -7  -6   5    5.62    1.42
   7  -6   5    5.92    1.51
   7  -7   0    0.50    0.61
  -7  -7   0   -0.13    0.52
   7   7   0   -0.03    0.53
   7   7  -1    2.64    0.82
   7  -7   1    3.98    1.05
  -7  -7   1    2.13    0.88
   7  -7  -1    4.81    1.05
  -7  -7  -1    2.46    0.97
  -7  -7  -2    1.73    0.94
   7  -7  -2    1.60    0.71
  -7  -7   2    1.52    0.75
   7  -7  -2    0.76    0.76
   7  -7   2    2.40    0.91
   7   7  -2    2.34    0.79
   7   7  -3    2.66    0.91
  -7  -7   3    2.26    0.92
  -7  -7  -3    1.23    0.92
   7  -7  -3    1.72    0.94
   7  -7   3    1.54    0.92
  -7  -7   4    1.43    0.91
  -7  -7  -4    2.11    1.13
   7  -7   4    2.87    1.19
   7   7  -4    1.81    0.91
   7  -7  -4    2.28    1.03
   7  -8   0    0.13    0.57
  -7  -8   0    0.14    0.68
   7  -8  -1    0.11    0.59
  -7  -8  -1    0.22    0.74
   7  -8   1    0.84    0.72
  -7  -8   1    0.81    0.70
   7  -8   2   16.84    2.04
  -7  -8   2   15.64    2.18
   7   8  -2   11.44    1.47
  -7  -8  -2   14.86    2.16
  -7  -8  -3   -0.78    0.77
   7  -8   3    0.34    0.76
   7   8  -3    0.39    0.69
   7  -8  -3    0.46    0.84
  -7  -8   3    1.34    0.84
  -7  -9   0    0.61    0.81
   7  -9   1    0.71    0.78
  -7  -9   1    1.53    0.89
  -7  -9  -1   -0.61    0.76
   7  -9   2    8.16    1.61
  -7  -9   2    6.99    1.61
  -7  -9  -2   11.99    2.12
   8   0   0   43.26    2.36
  -8   0   0   40.06    1.74
  -8   0  -1  124.11    3.65
  -8   0   1  123.58    4.11
   8   0   1  115.83    4.54
   8   0  -2   34.66    2.16
  -8   0   2   33.12    1.86
   8   0   2   31.50    2.07
   8   0   3    9.11    1.34
  -8   0   3    9.39    1.20
   8   0  -3    8.06    1.21
   8   0   4    8.56    1.34
   8   0  -4    8.07    1.31
  -8   0   4   10.42    1.44
  -8   0   5    0.47    0.57
   8   0  -5   -0.34    0.50
   8   0   5    0.39    0.53
  -8   0   6    2.61    0.98
   8   0   6    2.60    0.99
   8   0  -6    3.27    1.08
   8   1   0   59.31    2.82
  -8   1   0   60.26    2.09
   8  -1   0   52.88    2.79
  -8  -1   0   56.20    2.32
   8   1  -1    5.37    1.01
   8  -1  -1    4.45    0.94
   8  -1   1    6.27    1.10
  -8   1   1    5.06    0.71
   8   1   1    5.51    1.03
  -8  -1   1    5.27    0.83
  -8  -1  -1    5.44    0.66
   8   1  -2   12.21    1.43
  -8  -1   2   10.62    1.18
  -8  -1  -2   10.64    0.81
   8   1   2   10.87    1.31
  -8   1   2    7.88    0.98
   8  -1  -2    8.79    1.21
   8  -1   2   10.16    1.32
   8   1  -3   13.83    1.60
   8   1   3    8.19    1.16
  -8   1   3   11.29    1.29
   8  -1   3   10.27    1.43
   8  -1  -3   11.69    1.42
  -8  -1   3    9.99    1.28
   8   1  -4   41.92    2.58
   8  -1   4   40.23    2.60
  -8  -1   4   40.79    2.53
   8   1   4   42.70    2.49
  -8   1   4   40.89    2.49
   8  -1  -4   39.94    2.49
   8  -1   5    0.56    0.59
  -8   1   5    0.13    0.50
   8  -1  -5    0.01    0.57
   8   1   5    0.19    0.53
   8   1  -5    0.35    0.62
  -8  -1   5   -0.29    0.48
  -8   1   6    0.75    0.81
   8  -1   6    0.30    0.70
   8   1  -6    0.07    0.63
   8  -1  -6    0.09    0.64
  -8  -1   6    0.78    0.74
   8   1   6   -0.25    0.68
   8  -1  -6    1.20    0.58
  -8  -2   0    0.36    0.36
   8   2   0    0.50    0.52
   8  -2   0   -0.40    0.43
   8  -2   0    0.50    0.25
   8   2   1   54.64    2.71
  -8  -2   1   56.24    2.60
   8  -2  -1   55.79    2.26
  -8  -2  -1   57.31    2.41
   8   2  -1   57.25    2.81
   8  -2  -1   59.38    2.88
   8  -2   1   57.83    2.94
  -8  -2   2   11.90    1.31
  -8  -2  -2   11.14    1.00
   8  -2  -2   14.46    1.52
   8   2   2   10.33    1.25
   8   2  -2    9.95    1.30
   8  -2   2   15.01    1.65
   8  -2  -2   12.73    1.05
  -8   2   2   12.26    1.09
   8  -2  -3   15.28    1.61
   8   2  -3   13.71    1.56
   8   2   3   11.42    1.32
  -8  -2  -3   13.08    1.13
   8  -2  -3   12.08    1.28
   8  -2   3   15.72    1.78
  -8  -2   3   13.17    1.49
  -8   2   3   12.38    1.32
   8  -2  -4   -0.07    0.47
   8  -2   4    0.16    0.51
  -8   2   4   -0.06    0.39
   8   2   4    0.07    0.48
   8  -2  -4    0.05    0.33
  -8  -2   4   -0.11    0.44
   8   2  -4   -0.45    0.49
   8  -2   5    4.40    1.17
  -8  -2   5    5.03    1.16
   8   2   5    5.26    1.06
   8   2  -5    4.59    1.13
   8  -2  -5    4.69    1.06
   8  -2  -5    3.58    0.94
   8  -2  -6    0.27    0.71
   8  -2   6    0.67    0.82
  -8  -2   6    1.06    0.82
   8  -2  -6    1.25    0.77
   8   2  -6    0.46    0.73
   8   3   0   48.21    2.50
  -8  -3   0   46.30    2.40
   8  -3   0   52.96    2.72
   8   3   1    0.22    0.43
   8  -3  -1    0.35    0.53
  -8  -3   1   -0.07    0.38
   8   3  -1    0.06    0.42
   8  -3   1    0.25    0.50
  -8  -3  -1    0.41    0.42
   8  -3  -1    0.42    0.37
   8  -3  -2    3.77    0.76
   8  -3  -2    2.43    0.79
   8   3  -2    4.05    0.92
   8  -3   2    1.51    0.69
  -8  -3   2    3.00    0.78
   8   3   2    3.46    0.83
  -8  -3  -2    2.90    0.73
   8   3  -3    1.46    0.74
  -8  -3  -3    0.95    0.61
   8   3   3    1.37    0.60
   8  -3   3    1.34    0.72
   8  -3  -3    1.93    0.66
   8  -3  -3    0.90    0.64
  -8  -3   3    2.09    0.79
   8   3   4   23.24    1.70
  -8  -3   4   22.73    1.96
   8  -3  -4   21.60    1.76
   8  -3  -4   18.58    1.66
   8   3  -4   25.20    2.00
   8  -3   4   15.53    1.85
   8  -3  -5    0.80    0.65
   8  -3  -5    1.11    0.65
  -8  -3   5    0.50    0.62
   8   3  -5    0.25    0.67
   8  -3   5    0.20    0.65
   8  -3   6    3.21    1.16
   8   3  -6    2.32    1.00
   8  -3  -6    1.92    0.93
  -8  -3   6    2.88    1.09
   8  -3  -6    1.71    0.92
   8   4   0   16.75    1.44
  -8  -4   0   19.04    1.55
   8  -4   0   15.02    1.63
   8  -4   1   16.51    1.73
   8   4   1   19.40    1.48
  -8  -4   1   17.26    1.53
   8  -4  -1   15.06    1.61
   8  -4  -1   19.75    1.26
   8   4  -1   18.80    1.57
  -8  -4  -1   18.16    1.51
   8   4   2    4.11    0.85
  -8  -4  -2    2.95    0.87
  -8  -4   2    5.16    1.06
   8   4  -2    3.08    0.84
   8  -4  -2    3.90    0.96
   8  -4   2    4.09    1.05
   8  -4  -2    2.85    0.71
   8  -4   3   18.70    2.05
   8  -4  -3   18.48    1.57
   8  -4  -3   18.40    1.76
   8   4   3   19.51    1.52
  -8  -4  -3   18.54    1.65
   8   4  -3   19.96    1.93
  -8  -4   3   20.01    1.99
  -8  -4  -4    3.19    0.99
   8  -4  -4    4.44    1.06
   8   4  -4    5.64    1.23
   8  -4   4    5.42    1.31
   8  -4  -4    3.43    0.96
  -8  -4   4    3.60    1.07
   8  -4  -5   13.77    1.64
   8  -4  -5   13.59    1.75
  -8  -4   5   14.84    2.03
   8   4  -5   13.78    1.87
   8  -4   5   15.30    2.21
   8   5   0   63.53    2.90
   8  -5   0   58.64    3.12
  -8  -5   0   61.56    3.17
  -8  -5   1    1.09    0.66
   8  -5  -1    1.10    0.62
  -8  -5  -1    1.92    0.77
   8   5  -1    1.08    0.63
   8   5   1    1.74    0.68
   8  -5   1    2.72    0.89
   8   5  -2    2.33    0.79
   8  -5  -2    5.57    1.11
   8  -5   2    5.41    1.17
   8   5   2    5.51    0.94
  -8  -5   2    3.89    0.98
   8  -5  -2    4.28    0.92
  -8  -5  -2    5.95    1.17
   8  -5  -3    4.01    0.99
  -8  -5  -3    4.55    1.11
   8  -5   3    2.03    0.91
   8  -5  -3    2.81    0.80
  -8  -5   3    2.77    0.87
   8   5  -3    3.17    0.96
   8   5  -4   17.71    2.02
   8  -5  -4   15.46    1.68
   8  -5  -4   13.00    1.70
   8  -5   4   15.89    2.19
  -8  -5  -4   17.57    1.94
  -8  -5   4   18.04    2.18
   8  -5   5    0.43    0.90
   8  -5  -5    0.61    0.74
   8   5  -5    0.33    0.79
  -8  -5   5    0.51    0.72
  -8  -6   0    3.79    1.03
   8   6   0    2.48    0.74
   8  -6   0    2.49    0.87
  -8  -6   1   41.82    2.74
   8   6   1   39.35    2.19
  -8  -6  -1   43.82    2.77
   8   6  -1   47.64    2.54
   8  -6  -1   39.92    2.51
   8  -6   1   40.47    2.66
   8   6  -2   15.73    1.66
  -8  -6   2   12.46    1.72
   8  -6  -2   11.73    1.49
  -8  -6  -2   14.83    1.83
   8  -6   2   11.81    1.64
  -8  -6  -3   10.52    1.69
   8  -6  -3    9.25    1.45
   8  -6   3   13.55    1.98
   8  -6  -3    9.58    1.39
   8   6  -3    9.46    1.52
  -8  -6   4    0.89    0.68
   8  -6   4   -0.14    0.67
   8  -6  -4   -0.20    0.72
   8   6  -4   -0.51    0.62
  -8  -6  -4   -0.27    0.76
  -8  -7   0   36.57    2.66
   8  -7   0   35.84    2.50
   8  -7  -1    5.69    1.24
   8  -7   1    4.59    1.12
  -8  -7  -1    4.38    1.14
   8   7  -1    3.39    0.93
  -8  -7   1    6.02    1.34
   8  -7  -2    5.12    1.13
   8   7  -2    4.90    1.16
  -8  -7  -2    5.01    1.33
  -8  -7   2    4.56    1.13
   8  -7   2    4.27    1.15
  -8  -7   3    6.56    1.48
   8   7  -3    4.75    1.15
  -8  -7  -3    5.84    1.49
   8  -7   3    5.87    1.35
  -8  -7  -4   15.25    2.11
   8   7  -4   13.17    1.80
   8  -7  -4   15.02    1.94
  -8  -8   0    4.91    1.41
   8  -8   0    8.23    1.50
   8  -8   1   40.80    2.85
  -8  -8  -1   42.65    3.08
  -8  -8   1   39.18    2.95
   8  -8  -1   37.43    2.57
   8   8  -2    6.13    1.27
   8  -8   2    9.87    1.71
  -8  -8  -2    9.53    1.85
  -8  -8   2    6.97    1.53
   8  -8   3    2.99    1.21
   8   8  -3    3.00    1.02
  -8  -8  -3    2.54    1.23
   9   0   0   -0.07    0.46
  -9   0   0    0.18    0.24
  -9   0   1    0.04    0.26
   9   0   1   -0.02    0.44
   9   0  -1    0.24    0.54
   9   0   2    1.79    0.72
   9   0  -2    1.16    0.73
  -9   0   2    0.85    0.50
  -9   0   3    3.26    0.80
   9   0  -3    2.54    0.87
   9   0   3    3.66    1.02
  -9   0   4    4.66    1.09
   9   0   4    3.33    1.00
   9   0  -4    2.94    0.97
   9   0   5   17.61    2.08
   9   0  -5   15.51    1.93
  -9   0   5   13.05    1.72
   9   0   6    4.99    1.31
   9   0  -6    5.00    1.30
  -9   0   6    6.87    1.52
   9   1   0   -0.24    0.41
  -9  -1   0    0.36    0.34
   9  -1   0   -0.08    0.47
  -9   1   0    0.03    0.27
  -9   1   1    0.28    0.32
  -9  -1  -1    0.20    0.26
  -9  -1   1    0.39    0.34
   9  -1  -1    0.09    0.54
   9   1  -1   -0.32    0.43
   9  -1   1    0.00    0.45
   9   1   1    0.18    0.50
  -9  -1   2   23.36    1.65
   9  -1  -2   25.60    1.97
   9   1  -2   23.39    1.91
  -9   1   2   25.29    1.60
   9   1   2   23.84    1.86
   9  -1  -3   -0.14    0.52
   9  -1   3    1.31    0.68
   9   1   3    1.24    0.65
   9   1  -3    0.71    0.65
  -9   1   3    0.67    0.50
  -9  -1   3    0.76    0.54
  -9  -1   4   13.15    1.63
  -9   1   4   13.49    1.61
   9  -1  -4   15.03    1.78
   9  -1   4   13.38    1.77
   9   1  -4   11.97    1.67
   9   1   4   17.55    1.87
  -9  -1   5   13.51    1.88
   9  -1  -5   11.36    1.70
   9   1  -5   12.19    1.74
   9   1   5   13.14    1.75
  -9   1   5   11.44    1.65
   9  -1   5    9.18    1.59
  -9  -1   6    3.24    1.11
  -9   1   6    4.42    1.24
   9  -1  -6    3.63    1.00
   9  -1  -6    5.19    1.34
   9  -1   6    2.27    0.99
   9  -2   0    0.22    0.52
  -9  -2   0    0.32    0.31
   9   2   0    0.09    0.46
  -9  -2  -1    2.43    0.60
   9   2   1    1.54    0.71
   9  -2  -1    1.50    0.43
   9  -2   1    2.43    0.76
   9   2  -1    2.19    0.78
  -9  -2   1    1.06    0.50
   9  -2  -1    2.92    0.90
  -9  -2   2    5.20    1.00
   9  -2   2    4.51    1.04
   9   2   2    2.40    0.78
  -9   2   2    4.16    0.80
   9   2  -2    2.63    0.86
   9  -2  -2    4.47    0.80
   9  -2  -2    5.40    1.13
   9   2   3    0.67    0.56
   9  -2  -3    0.79    0.65
   9  -2  -3    1.01    0.54
  -9   2   3    0.70    0.53
  -9  -2   3    0.31    0.47
   9   2  -3    0.74    0.66
   9  -2   3    0.38    0.56
   9   2  -4   12.03    1.66
   9  -2   4   18.61    2.15
   9  -2  -4   15.95    1.67
   9   2   4   15.34    1.69
   9  -2  -4   17.54    1.86
  -9  -2   4   22.36    2.12
  -9   2   4   15.65    1.70
   9   2  -5    9.07    1.64
   9  -2  -5    6.52    1.36
   9   2   5    8.19    1.45
   9  -2   5    6.37    1.39
  -9  -2   5    5.68    1.28
   9  -2  -5    8.50    1.39
  -9  -3   0    0.81    0.46
   9   3   0   -0.25    0.42
   9  -3   0    0.05    0.51
   9  -3   1    4.04    1.00
   9   3   1    6.57    1.17
   9   3  -1    6.02    1.11
  -9  -3   1    4.51    0.90
  -9  -3  -1    6.54    1.01
   9  -3  -1    4.03    0.98
   9   3   2   -0.18    0.48
   9  -3   2    0.18    0.54
  -9  -3  -2    0.48    0.45
   9   3  -2    1.16    0.69
   9  -3  -2    0.16    0.38
   9  -3  -2    1.78    0.78
  -9  -3   2    0.57    0.49
   9  -3  -3   24.70    1.78
   9   3   3   23.43    1.81
   9   3  -3   22.57    1.95
  -9  -3   3   21.30    1.87
   9  -3   3   28.58    2.28
   9  -3  -3   21.71    1.87
  -9  -3   4    2.78    0.92
   9   3  -4    4.82    1.22
   9  -3   4    2.16    0.87
   9  -3  -4    3.12    0.98
   9  -3  -4    4.45    1.05
   9   3   4    5.52    1.12
  -9  -3   5   27.61    2.38
   9  -3   5   15.35    2.07
   9  -3  -5   20.80    2.10
   9  -3  -5   20.59    1.88
   9  -4   0   -0.40    0.46
   9   4   0   -0.20    0.41
  -9  -4   0    0.57    0.47
   9  -4  -1    9.15    1.46
  -9  -4  -1    8.88    1.26
   9   4   1    6.87    1.20
   9  -4   1    6.96    1.29
  -9  -4   1    8.53    1.29
   9   4  -1    6.53    1.15
   9  -4  -2    9.58    1.46
  -9  -4  -2    8.95    1.28
   9   4   2    7.30    1.18
   9  -4   2    7.94    1.46
   9   4  -2    7.70    1.34
  -9  -4   2   10.73    1.51
   9   4  -3   -0.25    0.60
   9   4   3    1.31    0.66
   9  -4  -3    0.65    0.69
  -9  -4   3    0.68    0.55
   9  -4  -3    1.14    0.64
   9  -4   3    1.56    0.85
   9   4  -4   31.25    2.44
   9  -4  -4   21.95    1.97
   9  -4  -4   28.63    2.14
   9  -4   4   24.80    2.64
  -9  -4   4   29.40    2.40
   9  -4  -5    2.37    0.94
   9  -4   5    3.17    1.22
   9  -4  -5    1.25    0.89
  -9  -4   5    3.35    1.13
   9   4  -5    1.75    0.93
   9   5   0    0.78    0.62
   9  -5   0    0.00    0.60
  -9  -5   0    0.25    0.51
  -9  -5   1    3.90    0.97
  -9  -5  -1    2.57    0.86
   9  -5   1    1.25    0.79
   9   5   1    1.70    0.75
   9   5  -1    0.98    0.69
   9  -5  -1    2.64    0.95
   9  -5  -2   -0.11    0.55
  -9  -5  -2    1.04    0.69
  -9  -5   2    0.31    0.50
   9   5  -2    0.95    0.71
   9   5   2    0.44    0.56
   9  -5   2    1.07    0.68
   9   5  -3    8.38    1.46
   9  -5  -3    7.87    1.37
  -9  -5  -3    7.24    1.42
  -9  -5   3    9.42    1.61
   9   5  -4    4.18    1.22
   9  -5  -4    2.49    0.96
   9  -5   4    4.82    1.41
   9  -5  -4    4.38    1.15
  -9  -5   4    3.06    1.06
  -9  -6   0    0.19    0.61
   9   6   0   -0.14    0.57
   9  -6   0    0.02    0.59
  -9  -6  -1    2.70    0.94
   9  -6  -1    2.39    0.93
   9   6  -1    1.69    0.86
  -9  -6   1    2.59    0.89
   9  -6   1    2.90    0.99
  -9  -6  -2   -0.06    0.60
  -9  -6   2   -0.32    0.44
   9  -6   2    0.69    0.69
   9  -6  -2    0.19    0.70
   9   6  -2   -0.30    0.63
   9  -6  -3   -0.04    0.60
  -9  -6   3    0.44    0.66
  -9  -6  -3   -0.10    0.72
   9   6  -3   -0.43    0.70
   9  -6   3   -0.17    0.68
  -9  -6   4    3.40    1.11
   9   6  -4    4.52    1.35
  -9  -7   0    1.46    0.77
   9  -7   0    0.17    0.64
   9   7  -1   -0.04    0.65
  -9  -7   1    0.81    0.64
   9  -7   1    0.36    0.67
  -9  -7  -1    0.51    0.70
   9  -7  -1    0.02    0.59
   9  -7  -2   10.20    1.57
   9  -7   2   11.40    1.82
   9   7  -2    9.28    1.52
  -9  -7  -2   10.48    1.76
  -9  -7   2    9.48    1.65
  -9  -7  -3    0.20    0.78
   9   7  -3   -0.15    0.74
   9  -7   3    0.52    0.90
   9  -8   0    0.45    0.77
  -9  -8   0   -0.73    0.56
  -9  -8  -1   -0.43    0.77
  -9  -8   1    0.56    0.71
   9  -8  -1    0.42    0.75
   9  -8   1    0.80    0.83
 -10   0   1   -0.11    0.30
  10   0   1    0.01    0.45
  10   0  -1   -0.37    0.57
 -10   0   2   29.84    1.85
  10   0  -2   22.74    2.04
  10   0   2   28.73    2.19
  10   0   3    1.44    0.77
 -10   0   3    0.63    0.51
  10   0  -3   -0.37    0.53
  10   0  -4   13.26    1.82
  10   0   4   20.69    2.18
 -10   0   4   18.64    1.92
  10   0   5    1.18    0.79
  10   0  -5   -0.02    0.70
 -10   0   5    0.41    0.67
 -10  -1   0   19.27    1.28
  10  -1   0   18.17    1.92
  10   1   0   13.44    1.62
  10  -1   1   50.05    2.94
  10  -1  -1   52.06    3.00
  10   1   1   45.86    2.80
 -10  -1   1   48.40    2.38
  10   1   2   -0.08    0.47
  10  -1   2    0.42    0.59
 -10   1   2    0.28    0.41
  10  -1  -2    0.48    0.65
  10   1  -2    0.27    0.67
 -10  -1   2    0.54    0.42
 -10  -1   3   17.20    1.74
  10   1   3   19.96    2.04
  10  -1   3   15.18    1.93
 -10   1   3   16.44    1.48
  10   1  -3   19.59    2.08
  10  -1  -3    9.83    1.53
 -10   1   4    0.75    0.61
  10   1   4    0.69    0.70
  10  -1   4    1.18    0.83
  10  -1  -4    1.87    0.94
 -10  -1   4    0.44    0.57
  10   1  -4    0.63    0.77
  10   1  -5   -0.13    0.72
  10  -1  -5    1.73    0.58
  10  -1   5    0.01    0.68
  10   1   5    0.87    0.68
 -10  -1   5   -0.32    0.65
  10  -1  -5   -0.14    0.78
 -10   1   5    0.74    0.77
  10   2   0   23.91    1.95
 -10  -2   0   22.71    1.54
  10  -2   0   23.62    2.03
  10  -2  -1    2.77    0.97
  10   2  -1    2.50    0.91
  10  -2   1    1.81    0.82
 -10  -2   1    2.07    0.64
  10   2   1    2.45    0.90
  10   2   2   16.79    1.79
  10  -2   2   11.76    1.64
  10   2  -2   12.52    1.62
 -10  -2   2   18.09    1.54
  10  -2  -2   14.55    1.74
  10  -2  -3    1.18    0.57
  10   2  -3    0.08    0.69
  10  -2   3   -0.09    0.58
  10  -2  -3    0.43    0.70
 -10  -2   3   -0.17    0.43
  10   2   3    0.16    0.45
  10  -2  -4    9.23    1.54
  10   2   4   12.87    1.70
  10   2  -4   10.85    1.72
  10  -2   4   11.20    1.81
  10  -2  -4   11.73    1.46
 -10  -2   4   12.55    1.73
  10  -2  -5   -0.41    0.70
  10  -2  -5    1.44    0.72
  10  -2   5    1.67    1.02
 -10  -2   5    0.90    0.70
 -10  -3   0    0.94    0.55
  10   3   0    0.96    0.68
  10  -3   0    1.45    0.81
  10  -3  -1    6.24    1.26
  10  -3   1    7.97    1.45
 -10  -3   1    7.31    1.15
  10   3   1    8.82    1.34
 -10  -3  -1    8.84    1.13
  10   3  -1    7.28    1.33
  10   3   2    1.66    0.74
  10   3  -2    1.57    0.84
  10  -3   2    1.74    0.84
  10  -3  -2    2.05    0.84
 -10  -3   2    1.63    0.67
  10   3   3   26.31    2.06
  10   3  -3   27.08    2.26
  10  -3  -3   20.78    2.15
  10  -3   3   21.47    2.32
 -10  -3   3   26.17    2.09
  10  -3  -4    1.72    0.73
  10  -3  -4    1.51    0.89
  10   3  -4    2.16    0.96
  10  -3   4    2.11    1.05
 -10  -3   4    0.98    0.67
  10   4   0   23.30    1.93
  10  -4   0   24.85    2.15
 -10  -4   0   27.83    1.94
  10   4   1    1.89    0.83
  10  -4  -1    3.19    1.00
  10  -4   1    3.41    1.07
 -10  -4   1    3.50    0.88
  10   4  -1    3.33    1.02
 -10  -4  -1    2.30    0.74
  10   4   2   16.38    1.72
 -10  -4   2   10.36    1.51
  10  -4   2   14.47    2.03
  10   4  -2   15.89    1.94
  10  -4  -2   15.75    1.93
  10  -4  -3    2.27    0.95
  10   4  -3    0.44    0.77
  10  -4   3    1.17    0.79
 -10  -4   3    1.80    0.74
  10  -4  -4    4.45    1.27
 -10  -4   4    3.62    1.11
  10   4  -4    3.78    1.24
  10  -4   4    3.49    1.16
 -10  -5   0    0.94    0.58
  10  -5   0    1.21    0.78
  10   5   0   -0.12    0.64
  10  -5   1    8.46    1.63
  10   5   1    9.02    1.39
 -10  -5   1    7.38    1.29
 -10  -5  -1   11.45    1.57
  10   5  -1    7.61    1.37
  10  -5  -1   10.43    1.70
  10  -5  -2    0.63    0.73
  10   5  -2    0.54    0.74
  10  -5   2   -0.01    0.69
 -10  -5   2    1.14    0.74
  10   5  -3   25.60    2.50
  10  -5   3   20.13    2.49
  10  -5  -3   19.91    2.13
 -10  -5   3   25.06    2.46
 -10  -6   0   25.94    2.21
  10   6   0   23.91    2.00
  10  -6   0   23.01    2.35
 -10  -6   1    1.04    0.67
  10  -6  -1    1.09    0.83
 -10  -6  -1    0.44    0.66
  10   6  -1   -0.61    0.60
  10  -6   1    0.12    0.70
  10   6  -2   18.59    2.10
  10  -6  -2   14.82    1.93
 -10  -6   2   20.57    2.30
 -10  -6  -2   14.40    1.86
  10  -6   2   21.51    2.50
 -10  -6   3   -0.18    0.59
  10   6  -3    0.15    0.79
  10  -6  -3    0.23    0.68
  10  -7   0   12.55    1.88
 -10  -7   0   10.18    1.69
 -10  -7   1   19.09    2.25
  10  -7  -1   19.94    2.25
  10  -7   1   22.35    2.45
 -10  -7  -1   25.56    2.28
  11   0   0    0.53    0.70
  11   0  -1    0.90    0.80
  11   0   1    1.16    0.77
  11   0  -2    9.24    1.56
  11   0   2    7.38    1.34
  11   0   3    0.24    0.52
  11   0  -3   -0.32    0.68
 -11   0   3    0.65    0.58
  11   0   4   24.45    2.49
  11   0  -4   22.42    2.46
 -11   0   4   14.49    1.77
  11  -1   0   -0.17    0.56
  11   1   0   -0.46    0.59
  11  -1   1    3.52    1.11
  11   1   1    2.05    0.89
  11  -1  -1    2.13    1.01
  11   1  -1    2.33    0.97
  11  -1   2    0.28    0.63
  11   1  -2    0.37    0.63
  11   1   2   -0.89    0.40
  11  -1  -2   -0.18    0.57
 -11  -1   2   -0.04    0.42
  11   1  -3    4.17    1.19
  11  -1  -3    6.88    1.49
  11   1   3    6.23    1.36
 -11  -1   3    6.01    1.19
  11  -1   3    3.63    1.11
  11   1   4    0.85    0.84
  11  -1  -4   -0.61    0.68
  11  -1   4    0.27    0.63
 -11  -1   4    0.34    0.60
 -11   1   4   -0.22    0.59
  11   1  -4   -0.44    0.77
  11   2   0    0.32    0.65
  11  -2   0    0.48    0.73
  11  -2   1    8.88    1.66
  11   2   1    7.87    1.48
  11   2  -1    8.01    1.54
  11  -2  -1    9.72    1.72
  11  -2  -2    0.19    0.72
  11  -2   2    1.50    0.93
  11   2   2    2.14    0.96
 -11  -2   2    1.13    0.58
  11   2  -2    0.71    0.90
  11  -2   3    2.35    1.08
  11   2  -3    3.06    1.14
  11  -2  -3    3.15    1.10
 -11  -2   3    2.77    0.90
  11   2   3    2.53    0.90
 -11  -2   4   12.91    1.80
  11  -2  -4   13.01    2.02
  11   2   4   12.64    1.84
  11  -2   4   15.48    2.26
  11  -3   0   -0.05    0.61
  11   3   0    0.43    0.75
  11  -3   1   -0.22    0.66
  11   3  -1   -0.62    0.54
  11   3   1   -0.19    0.58
  11  -3  -1    1.16    0.78
 -11  -3   1   -0.09    0.38
  11   3   2    3.93    1.10
  11  -3   2    3.17    1.16
 -11  -3   2    4.59    1.07
  11  -3  -2    2.70    1.06
  11   3  -2    2.73    1.04
 -11  -3   3   13.74    1.75
  11   3   3   15.79    1.93
  11  -3  -3   15.48    2.06
  11  -3   3   10.52    1.74
  11   3  -3   10.22    1.68
  11  -4   0   -0.41    0.70
  11   4   0   -0.73    0.61
 -11  -4   1   16.37    1.79
  11  -4  -1   11.63    1.78
  11   4  -1   16.93    2.03
  11   4   1   10.96    1.61
  11  -4   1   12.53    1.88
  11  -4   2    0.33    0.75
  11   4  -2    0.60    0.75
 -11  -4   2    1.03    0.63
  11  -4  -2    0.90    0.82
  11   4   2    0.94    0.81
  11   4  -3    8.48    1.64
 -11  -4   3    7.25    1.43
  11  -4  -3    8.69    1.68
  11   5   0   -0.28    0.67
  11  -5   0   -0.28    0.68
 -11  -5   0    0.72    0.54
  11  -5   1    0.49    0.81
 -11  -5   1    0.96    0.62
  11   5   1    0.26    0.74
  11  -5  -1    0.30    0.79
  11   5  -1   -0.07    0.74
  11  -5  -2    1.21    0.98
  11  -5   2    0.57    0.89
  11   5  -2   -0.33    0.71
 -11  -5   2    1.40    0.72
  11  -6   0    0.20    0.80
 -11  -6   0    1.33    0.67
  12   0  -1   28.24    2.50
  12   0   1   37.09    2.78
  12   0   2    5.38    1.33
  12   0  -2    6.15    1.47
  12   0   3    2.83    1.12
  12  -1   0   16.51    2.13
  12   1   0   30.24    2.47
  12  -1   1    0.91    0.83
  12   1   1    1.36    0.94
  12   1  -1    1.98    1.09
  12  -1  -1    0.58    0.84
  12   1   2   12.96    2.00
  12   1  -2   16.30    2.20
  12  -1  -2   16.21    2.20
  12  -1   2   12.42    1.96
  12  -1   3    1.86    1.09
  12   1   3    2.10    0.99
  12  -2   0   -0.17    0.74
  12   2   0   -0.25    0.72
  12   2  -1    9.12    1.66
  12  -2  -1    6.88    1.50
  12   2   1    6.86    1.48
  12  -2   1    8.76    1.71
  12  -2  -2   13.06    2.06
  12   2   2    8.41    1.62
  12  -2   2    6.26    1.51
  12   2  -2    6.88    1.52
  12  -3   0   23.70    2.57
  12   3   0   18.50    2.15
  12   3  -1    4.15    1.30
  12  -3  -1    3.86    1.27
  12  -3   1    5.39    1.48
  12   3   1    3.48    1.11
  12   3  -2    5.09    1.38
  12  -3  -2    6.56    1.59
  12   3   2    5.35    1.31
  12   4   0    0.28    0.80
  12   4   1    1.48    0.91
  12  -4  -1    0.49    0.89
  12   4  -1    0.08    0.73
   0   0   0    0.00    0.00
;
_shelx_hkl_checksum              9912
loop_
_space_group_symop_operation_xyz
'x, y, z'
'-x+1/2, -y, z+1/2'
'-x, y+1/2, -z'
'x+1/2, -y+1/2, -z+1/2'
'-x, -y, -z'
'x-1/2, y, -z-1/2'
'x, -y-1/2, z'
'-x-1/2, y-1/2, z-1/2'
loop_
_atom_site_label
_atom_site_type_symbol
_atom_site_fract_x
_atom_site_fract_y
_atom_site_fract_z
_atom_site_U_iso_or_equiv
_atom_site_adp_type
_atom_site_occupancy
_atom_site_site_symmetry_order
_atom_site_calc_flag
_atom_site_refinement_flags_posn
_atom_site_refinement_flags_adp
_atom_site_refinement_flags_occupancy
_atom_site_disorder_assembly
_atom_site_disorder_group
S1 S 0.34967(6) 0.250000 0.21376(9) 0.0158(2) Uani 1 2 d S T P . .
O1 O 0.36468(14) 0.39261(17) 0.3289(2) 0.0242(4) Uani 1 1 d . . . . .
N1 N 0.4599(2) 0.250000 0.0091(3) 0.0168(5) Uani 1 2 d S T P . .
C1 C 0.3905(2) 0.3707(2) -0.1362(3) 0.0209(4) Uani 1 1 d . . . . .
H1A H 0.442773 0.394966 -0.266400 0.025 Uiso 1 1 calc R U . . .
H1B H 0.361060 0.466546 -0.062530 0.025 Uiso 1 1 calc R U . . .
C2 C 0.2754(3) 0.250000 -0.1681(4) 0.0187(6) Uani 1 2 d S T P . .
H2 H 0.221591 0.250000 -0.302853 0.022 Uiso 1 2 calc R U P . .
C3 C 0.1999(3) 0.250000 0.0450(4) 0.0183(5) Uani 1 2 d S T P . .
H3A H 0.143141 0.155828 0.064722 0.022 Uiso 0.5 1 calc R U P . .
H3B H 0.143141 0.344172 0.064722 0.022 Uiso 0.5 1 calc R U P . .
loop_
_atom_site_aniso_label
_atom_site_aniso_U_11
_atom_site_aniso_U_22
_atom_site_aniso_U_33
_atom_site_aniso_U_23
_atom_site_aniso_U_13
_atom_site_aniso_U_12
S1 0.0161(3) 0.0173(4) 0.0140(3) 0.000 -0.0004(2) 0.000
O1 0.0274(8) 0.0233(8) 0.0218(6) -0.0082(6) -0.0013(6) 0.0006(6)
N1 0.0160(11) 0.0174(11) 0.0171(10) 0.000 0.0013(8) 0.000
C1 0.0224(10) 0.0216(10) 0.0188(9) 0.0053(7) -0.0003(7) -0.0018(8)
C2 0.0193(13) 0.0219(14) 0.0149(11) 0.000 -0.0032(10) 0.000
C3 0.0134(12) 0.0212(13) 0.0203(12) 0.000 -0.0019(9) 0.000
loop_
_atom_type_symbol
_atom_type_description
_atom_type_scat_dispersion_real
_atom_type_scat_dispersion_imag
_atom_type_scat_source
C C 0.0033 0.0016 'International Tables Vol C Tables 4.2.6.8 and 6.1.1.4'
H H 0.0000 0.0000 'International Tables Vol C Tables 4.2.6.8 and 6.1.1.4'
N N 0.0061 0.0033 'International Tables Vol C Tables 4.2.6.8 and 6.1.1.4'
O O 0.0106 0.0060 'International Tables Vol C Tables 4.2.6.8 and 6.1.1.4'
S S 0.1246 0.1234 'International Tables Vol C Tables 4.2.6.8 and 6.1.1.4'
loop_
_geom_angle_atom_site_label_1
_geom_angle_atom_site_label_2
_geom_angle_atom_site_label_3
_geom_angle
_geom_angle_site_symmetry_1
_geom_angle_site_symmetry_3
_geom_angle_publ_flag
O1 S1 O1 117.72(12) 7_565 . ?
O1 S1 N1 108.90(7) 7_565 . ?
O1 S1 N1 108.90(7) . . ?
O1 S1 C3 112.40(7) 7_565 . ?
O1 S1 C3 112.40(7) . . ?
N1 S1 C3 93.76(11) . . ?
C1 N1 C1 84.62(18) 7_565 . ?
C1 N1 S1 100.11(12) 7_565 . ?
C1 N1 S1 100.11(12) . . ?
N1 C1 C2 86.86(14) . . ?
C3 C2 C1 103.64(16) . . ?
C3 C2 C1 103.64(16) . 7_565 ?
C1 C2 C1 84.5(2) . 7_565 ?
C2 C3 S1 97.34(17) . . ?
loop_
_geom_bond_atom_site_label_1
_geom_bond_atom_site_label_2
_geom_bond_distance
_geom_bond_site_symmetry_2
_geom_bond_publ_flag
S1 O1 1.4338(14) 7_565 ?
S1 O1 1.4338(14) . ?
S1 N1 1.682(2) . ?
S1 C3 1.810(3) . ?
N1 C1 1.542(2) 7_565 ?
N1 C1 1.542(2) . ?
C1 C2 1.544(3) . ?
C2 C3 1.534(4) . ?
C2 C1 1.544(3) 7_565 ?
