#------------------------------------------------------------------------------
#$Date: 2020-05-17 02:33:33 +0300 (Sun, 17 May 2020) $
#$Revision: 252123 $
#$URL: file:///home/coder/svn-repositories/cod/cif/4/03/83/4038387.cif $
#------------------------------------------------------------------------------
#
# This file is available in the Crystallography Open Database (COD),
# http://www.crystallography.net/
#
# All data on this site have been placed in the public domain by the
# contributors.
#
data_4038387
loop_
_publ_author_name
'Chang, Meng-Yang'
'Tsai, Yu-Lin'
'Chen, Hsing-Yin'
_publ_section_title
;
 CuBr<sub>2</sub>-Mediated One-Pot Synthesis of Sulfonyl
 9-Fluorenylidenes.
;
_journal_name_full               'The Journal of organic chemistry'
_journal_paper_doi               10.1021/acs.joc.0c00035
_journal_year                    2020
_chemical_formula_sum            'C15 H14 O4 S2'
_chemical_formula_weight         322.38
_space_group_crystal_system      triclinic
_space_group_IT_number           2
_space_group_name_Hall           '-P 1'
_space_group_name_H-M_alt        'P -1'
_atom_sites_solution_hydrogens   geom
_audit_creation_method           SHELXL-2014/6
_cell_angle_alpha                79.873(4)
_cell_angle_beta                 75.377(4)
_cell_angle_gamma                85.646(4)
_cell_formula_units_Z            2
_cell_length_a                   8.6178(7)
_cell_length_b                   9.0183(7)
_cell_length_c                   9.6399(8)
_cell_measurement_reflns_used    6181
_cell_measurement_temperature    100(2)
_cell_measurement_theta_max      26.3624
_cell_measurement_theta_min      2.2128
_cell_volume                     713.24(10)
_computing_cell_refinement       'SAINT V8.34A (Bruker AXS Inc., 2013)'
_computing_data_collection       'Bruker APEX2'
_computing_data_reduction        'SAINT V8.34A (Bruker AXS Inc., 2013)'
_computing_molecular_graphics    'Bruker SHELXTL'
_computing_publication_material  'Bruker SHELXTL'
_computing_structure_refinement  'SHELXL-2014/6 (Sheldrick, 2014)'
_diffrn_ambient_temperature      100(2)
_diffrn_detector_area_resol_mean 8.3333
_diffrn_measured_fraction_theta_full 0.968
_diffrn_measured_fraction_theta_max 0.959
_diffrn_measurement_device_type  'Bruker APEX-II CCD'
_diffrn_measurement_method       '\f and \w scans'
_diffrn_radiation_type           MoK\a
_diffrn_radiation_wavelength     0.71073
_diffrn_reflns_av_R_equivalents  0.0244
_diffrn_reflns_av_unetI/netI     0.0262
_diffrn_reflns_Laue_measured_fraction_full 0.968
_diffrn_reflns_Laue_measured_fraction_max 0.959
_diffrn_reflns_limit_h_max       10
_diffrn_reflns_limit_h_min       -10
_diffrn_reflns_limit_k_max       10
_diffrn_reflns_limit_k_min       -11
_diffrn_reflns_limit_l_max       12
_diffrn_reflns_limit_l_min       -11
_diffrn_reflns_number            9509
_diffrn_reflns_point_group_measured_fraction_full 0.968
_diffrn_reflns_point_group_measured_fraction_max 0.959
_diffrn_reflns_theta_full        25.242
_diffrn_reflns_theta_max         26.392
_diffrn_reflns_theta_min         2.213
_exptl_absorpt_coefficient_mu    0.386
_exptl_absorpt_correction_T_max  0.7454
_exptl_absorpt_correction_T_min  0.6515
_exptl_absorpt_correction_type   multi-scan
_exptl_absorpt_process_details   'SADABS V2014/4 (Bruker AXS Inc.)'
_exptl_crystal_colour            red
_exptl_crystal_density_diffrn    1.501
_exptl_crystal_density_meas      ?
_exptl_crystal_density_method    'not measured'
_exptl_crystal_description       tabullar
_exptl_crystal_F_000             336
_exptl_crystal_size_max          0.20
_exptl_crystal_size_mid          0.19
_exptl_crystal_size_min          0.08
_refine_diff_density_max         0.531
_refine_diff_density_min         -0.323
_refine_diff_density_rms         0.056
_refine_ls_extinction_method     none
_refine_ls_goodness_of_fit_ref   1.040
_refine_ls_hydrogen_treatment    constr
_refine_ls_matrix_type           full
_refine_ls_number_parameters     193
_refine_ls_number_reflns         2792
_refine_ls_number_restraints     0
_refine_ls_restrained_S_all      1.040
_refine_ls_R_factor_all          0.0360
_refine_ls_R_factor_gt           0.0321
_refine_ls_shift/su_max          0.001
_refine_ls_shift/su_mean         0.000
_refine_ls_structure_factor_coef Fsqd
_refine_ls_weighting_details
'w=1/[\s^2^(Fo^2^)+(0.0362P)^2^+0.5505P] where P=(Fo^2^+2Fc^2^)/3'
_refine_ls_weighting_scheme      calc
_refine_ls_wR_factor_gt          0.0793
_refine_ls_wR_factor_ref         0.0824
_reflns_Friedel_coverage         0.000
_reflns_number_gt                2524
_reflns_number_total             2792
_reflns_threshold_expression     'I > 2\s(I)'
_cod_data_source_file            jo0c00035_si_001.cif
_cod_data_source_block           181023lt_0m
_cod_depositor_comments
;
The following automatic conversions were performed:

data item '_exptl_crystal_density_meas' value 'not measured' was
changed to '?' -- the value is perceived as not measured.

Automatic conversion script
Id: cif_fix_values 7556 2019-12-06 15:28:31Z antanas 
;
_cod_database_code               4038387
_shelx_space_group_comment
;
The symmetry employed for this shelxl refinement is uniquely defined
by the following loop, which should always be used as a source of
symmetry information in preference to the above space-group names.
They are only intended as comments.
;
_shelxl_version_number           2014/6
_shelx_res_file
;
TITL 181023lt_0m in P-1
CELL 0.71073 8.6178 9.0183 9.6399 79.873 75.377 85.646
ZERR 2.00 0.0007 0.0007 0.0008 0.004 0.004 0.004
LATT 1
SFAC C H O S
UNIT 30 28 8 4
TEMP -173.000
ACTA
L.S. 4
FMAP 2
PLAN 5
BOND $H
WGHT    0.036200    0.550500
FVAR       0.89168
S1    4    0.451499    0.807209    0.743900    11.00000    0.01192    0.01672 =
         0.01358   -0.00024    0.00086    0.00014
S2    4    0.704662    0.510211    0.892908    11.00000    0.01541    0.01808 =
         0.01639    0.00190   -0.00092   -0.00091
O1    3    1.392686    0.798436    0.264971    11.00000    0.01202    0.02325 =
         0.02356   -0.00098    0.00333    0.00106
O2    3    1.173930    0.975220    0.180882    11.00000    0.01655    0.02230 =
         0.01794    0.00223    0.00309    0.00113
O3    3    0.341523    0.912759    0.684152    11.00000    0.01535    0.02957 =
         0.02192    0.00489   -0.00001    0.00319
O4    3    0.411628    0.650038    0.780028    11.00000    0.01947    0.02008 =
         0.02056   -0.00247   -0.00014   -0.00411
C1    1    1.519568    0.703178    0.305620    11.00000    0.01375    0.02850 =
         0.02766   -0.00414   -0.00001    0.00165
AFIX 137
H5    2    1.523011    0.712508    0.404553    11.00000   -1.50000
H1    2    1.622026    0.733398    0.238254    11.00000   -1.50000
H4    2    1.500673    0.598306    0.301926    11.00000   -1.50000
AFIX   0
C2    1    1.241066    0.777690    0.353171    11.00000    0.01258    0.01962 =
         0.01748   -0.00657    0.00257   -0.00217
C3    1    1.202832    0.670886    0.478122    11.00000    0.01414    0.01830 =
         0.01929   -0.00501   -0.00258    0.00216
AFIX  43
H10   2    1.282913    0.603507    0.507840    11.00000   -1.20000
AFIX   0
C4    1    1.043671    0.665062    0.558964    11.00000    0.01563    0.01666 =
         0.01482   -0.00426   -0.00197   -0.00095
C5    1    0.926633    0.765314    0.515247    11.00000    0.01347    0.01761 =
         0.01373   -0.00467    0.00027   -0.00070
C6    1    0.769358    0.739206    0.624286    11.00000    0.01471    0.01762 =
         0.01295   -0.00452   -0.00082   -0.00211
C7    1    0.637923    0.827910    0.618399    11.00000    0.01452    0.01815 =
         0.01185   -0.00050    0.00073   -0.00129
AFIX  43
H13   2    0.646932    0.908818    0.539334    11.00000   -1.20000
AFIX   0
C8    1    0.476240    0.866674    0.900988    11.00000    0.02118    0.02119 =
         0.01614   -0.00507    0.00227   -0.00274
AFIX 137
H2    2    0.372166    0.868874    0.971425    11.00000   -1.50000
H3    2    0.519856    0.967827    0.875305    11.00000   -1.50000
H14   2    0.550486    0.796460    0.943779    11.00000   -1.50000
AFIX   0
C9    1    1.121705    0.876952    0.308062    11.00000    0.01650    0.01851 =
         0.01325   -0.00238    0.00095   -0.00248
C10   1    1.059719    1.086232    0.140219    11.00000    0.02038    0.02158 =
         0.01681    0.00164   -0.00132   -0.00044
AFIX 137
H8    2    0.971150    1.036554    0.122118    11.00000   -1.50000
H6    2    1.111519    1.153366    0.051748    11.00000   -1.50000
H7    2    1.017969    1.145098    0.218833    11.00000   -1.50000
AFIX   0
C11   1    0.963425    0.872341    0.390108    11.00000    0.01462    0.01877 =
         0.01532   -0.00344   -0.00098    0.00068
AFIX  43
H9    2    0.883153    0.940221    0.361424    11.00000   -1.20000
AFIX   0
C12   1    0.965321    0.569312    0.694997    11.00000    0.01491    0.01618 =
         0.01784   -0.00531   -0.00192   -0.00055
C13   1    1.009002    0.454695    0.799613    11.00000    0.01683    0.01924 =
         0.02224   -0.00213   -0.00416    0.00258
AFIX  43
H12   2    1.114441    0.412138    0.792507    11.00000   -1.20000
AFIX   0
C14   1    0.879615    0.412643    0.912886    11.00000    0.02068    0.02037 =
         0.02178    0.00222   -0.00602    0.00080
AFIX  43
H11   2    0.885846    0.337489    0.993964    11.00000   -1.20000
AFIX   0
C15   1    0.803709    0.611476    0.730694    11.00000    0.01454    0.01619 =
         0.01470   -0.00298   -0.00071   -0.00108
HKLF 4 1 1 0 0 0 1 0 0 0 1

REM  181023lt_0m in P-1
REM R1 =  0.0321 for    2524 Fo > 4sig(Fo)  and  0.0360 for all    2792 data
REM    193 parameters refined using      0 restraints

END

WGHT      0.0362      0.5515

REM Highest difference peak  0.531,  deepest hole -0.323,  1-sigma level  0.056
Q1    1   0.9219  0.2626  1.0083  11.00000  0.05    0.53
Q2    1   0.8860  0.5938  0.7215  11.00000  0.05    0.38
Q3    1   0.7913  0.4773  0.9323  11.00000  0.05    0.37
Q4    1   0.4718  0.8448  0.8249  11.00000  0.05    0.35
Q5    1   0.3722  0.8386  0.7009  11.00000  0.05    0.32
;
_shelx_res_checksum              33070
_shelx_hkl_file
;
  -1   0   0 24.9529 1.07585   5
  -1   0   0 24.5319 1.05878   5
  -1   0   0 24.9526 1.14299   1
  -1   0   0 24.0388 1.12294   2
  -1   0   0 24.4155 1.10999   1
   1   0   0 25.9487 1.12597   1
   1   0   0 25.3510 1.14443   1
   1   0   0 27.0478 1.09197   5
  -2   0   0 873.182 26.1221   2
  -2   0   0 895.849 26.1960   1
  -2   0   0 890.165 26.0954   1
  -2   0   0 903.506 26.0037   5
  -2   0   0 899.202 25.9747   5
   2   0   0 892.298 26.0108   5
   2   0   0 879.219 25.9763   5
   2   0   0 857.798 26.0919   1
   2   0   0 926.109 26.2190   1
  -3   0   0 17.7788 1.61065   2
  -3   0   0 16.3348 1.57672   1
  -3   0   0 16.7291 1.47986   1
  -3   0   0 15.9823 1.45799   5
  -3   0   0 16.4973 1.42801   5
   3   0   0 16.0829 1.54989   1
   3   0   0 18.0100 1.65859   1
   3   0   0 15.3932 1.33815   5
   3   0   0 15.3369 1.35346   5
  -4   0   0 105.501 4.47812   1
  -4   0   0 101.175 4.30309   1
  -4   0   0 93.8270 4.02847   5
  -4   0   0 104.710 4.41029   2
  -4   0   0 105.112 4.17595   5
   4   0   0 101.795 4.17723   5
   4   0   0 106.928 4.25763   5
   4   0   0 100.909 4.43284   1
  -5   0   0 15.6528 1.83427   1
  -5   0   0 17.9708 2.09442   1
  -5   0   0 12.2859 1.55066   5
  -5   0   0 18.5614 2.06280   2
   5   0   0 17.7549 2.03582   1
   5   0   0 20.2460 2.08958   5
   5   0   0 16.2707 1.82910   5
  -6   0   0 1.89701 0.86812   5
  -6   0   0 2.12574 0.92257   1
  -6   0   0 3.69512 1.27319   1
  -6   0   0 0.77674 0.88487   2
   6   0   0 2.35970 1.13139   1
   6   0   0 0.97721 0.90900   5
   6   0   0 1.22186 0.85181   5
  -7   0   0 11.3362 2.14315   2
  -7   0   0 10.2243 1.89380   1
   7   0   0 9.99518 1.86053   5
   7   0   0 10.0105 1.99825   1
   7   0   0 7.43180 1.63892   5
  -8   0   0 132.717 6.63900   1
  -8   0   0 130.958 6.52670   2
   8   0   0 131.292 6.38503   5
   8   0   0 132.333 7.01663   1
  -9   0   0 3.47809 1.63517   1
  -9   0   0 4.38180 1.71700   2
 -10   0   0 4.58032 1.57074   2
 -10   0   0 3.50639 1.77311   1
 -10   1   0 462.774 16.7363   2
 -10   1   0 434.034 16.7766   1
  -9   1   0 5.24534 1.68622   2
  -9   1   0 2.34962 1.49855   1
   8  -1   0 17.9012 2.56248   5
   8  -1   0 10.4606 2.24395   1
  -8   1   0 16.2684 2.58479   1
  -8   1   0 12.8480 2.33417   2
   7  -1   0 200.504 8.53516   1
   7  -1   0 195.105 7.98553   5
   7  -1   0 203.066 8.05844   5
  -7   1   0 206.145 8.28812   1
  -7   1   0 192.654 8.06434   2
   6  -1   0 286.510 10.6810   1
   6  -1   0 280.183 10.1356   5
   6  -1   0 294.787 10.2419   5
  -6   1   0 293.577 10.3380   2
  -6   1   0 274.487 10.5684   1
  -6   1   0 293.954 10.4137   1
   5  -1   0 -0.2180 0.64266   5
   5  -1   0 0.92070 0.77963   1
   5  -1   0 0.58843 0.68623   5
  -5   1   0 1.44962 0.78377   1
  -5   1   0 1.01050 0.72243   2
  -5   1   0 0.49352 0.65258   1
   4  -1   0 77.6088 3.45422   5
   4  -1   0 81.5505 3.49283   5
   4  -1   0 82.9445 3.76151   1
  -4   1   0 85.0733 3.75917   1
  -4   1   0 79.8917 3.57720   1
  -4   1   0 83.7494 3.60348   2
   3  -1   0 1408.13 40.4213   5
   3  -1   0 1366.47 40.6744   1
   3  -1   0 1318.63 40.5238   1
   3  -1   0 1408.12 40.4092   5
   3  -1   0 1310.38 40.5806   2
  -3   1   0 1459.29 40.7040   1
  -3   1   0 1417.02 40.3443   5
  -3   1   0 1374.43 40.4878   2
  -3   1   0 1421.48 40.5587   1
   2  -1   0 2077.49 59.0068   5
   2  -1   0 1987.61 58.2694   1
   2  -1   0 1989.18 58.2984   2
   2  -1   0 2146.86 59.9382   1
   2  -1   0 2005.13 58.5322   5
  -2   1   0 2032.42 58.7186   2
  -2   1   0 2017.21 60.1123   1
  -2   1   0 2001.42 58.9953   1
  -2   1   0 1998.91 58.0945   5
   1  -1   0 1572.65 44.0716   1
   1  -1   0 1501.13 43.5674   1
   1  -1   0 1474.47 43.2714   2
  -1   1   0 1409.13 43.6905   1
  -1   1   0 1551.29 43.7634   1
   0  -1   0 14.5536 1.37629   4
   0  -1   0 16.0829 0.62300   1
   0  -1   0 14.4295 0.61873   1
   0  -1   0 14.7201 0.61746   1
   0   1   0 15.8539 1.43504   4
   0   1   0 13.8869 0.61183   1
   0   1   0 14.4448 0.61317   1
  -1  -1   0 47.7398 1.99286   1
  -1  -1   0 48.0277 1.91635   5
  -1  -1   0 51.9422 2.05529   1
  -1  -1   0 51.2210 1.93615   5
   1   1   0 50.7163 2.02571   1
   1   1   0 48.3666 2.02925   1
   1   1   0 49.9595 1.93142   5
   1   1   0 49.6565 1.91773   5
  -2  -1   0 115.750 4.08864   5
  -2  -1   0 123.071 4.15061   5
  -2  -1   0 115.484 4.20622   1
  -2  -1   0 113.221 4.25153   1
   2   1   0 119.388 4.12590   5
   2   1   0 115.846 4.27196   1
   2   1   0 111.196 4.05694   5
   2   1   0 118.251 4.22222   1
  -3  -1   0 14.7685 1.45006   1
  -3  -1   0 18.6824 1.83126   1
  -3  -1   0 19.7674 1.71527   5
  -3  -1   0 12.9322 1.32471   5
   3   1   0 14.9716 1.52449   1
   3   1   0 14.5899 1.33708   5
   3   1   0 15.0526 1.57632   1
   3   1   0 19.3594 1.68946   5
  -4  -1   0 2613.31 76.1000   1
  -4  -1   0 2567.05 75.8085   5
  -4  -1   0 2581.00 76.2661   1
  -4  -1   0 2619.02 75.9129   5
  -4  -1   0 2671.99 76.2335   2
   4   1   0 2577.80 76.1159   1
   4   1   0 2712.84 75.9692   5
   4   1   0 2583.77 76.2821   1
   4   1   0 2625.46 75.8682   5
  -5  -1   0 113.415 4.97003   5
  -5  -1   0 124.227 5.02926   5
  -5  -1   0 113.714 5.27002   2
  -5  -1   0 124.041 5.44144   1
  -5  -1   0 118.102 5.18063   1
   5   1   0 115.103 5.01425   5
   5   1   0 116.965 5.03284   5
   5   1   0 117.999 5.38607   1
  -6  -1   0 131.139 6.05572   2
  -6  -1   0 125.587 5.55445   5
  -6  -1   0 133.118 5.96052   1
   6   1   0 123.201 5.64092   5
   6   1   0 134.624 5.76847   5
   6   1   0 133.129 6.18168   1
  -7  -1   0 248.870 9.82368   2
  -7  -1   0 246.713 9.68297   1
   7   1   0 232.166 9.90950   1
   7   1   0 229.386 9.30952   5
  -8  -1   0 0.53579 1.10598   1
  -8  -1   0 0.52871 1.06982   2
   8   1   0 0.95600 1.33284   1
  -9  -1   0 30.8680 3.72891   1
  -9  -1   0 31.4070 3.71963   2
   9   1   0 29.2087 3.66313   1
 -10  -1   0 166.125 8.69128   1
 -10   2   0 221.124 9.49966   2
 -10   2   0 212.549 9.82728   1
   9  -2   0 179.322 9.48038   5
  -9   2   0 197.138 8.48170   2
  -9   2   0 206.105 8.91272   1
   8  -2   0 27.8656 3.07187   5
  -8   2   0 31.1863 3.24790   1
  -8   2   0 37.4503 3.47993   2
   7  -2   0 23.2215 2.90056   1
   7  -2   0 29.6377 3.05986   5
   7  -2   0 26.7051 2.84078   5
  -7   2   0 26.4328 2.90694   1
  -7   2   0 30.2682 3.07101   2
   6  -2   0 1423.45 41.6394   5
   6  -2   0 1373.82 41.5581   5
   6  -2   0 1390.75 42.0946   1
  -6   2   0 1370.46 42.0233   1
  -6   2   0 1403.19 41.7279   1
  -6   2   0 1379.86 41.4929   2
   5  -2   0 232.953 8.60148   1
   5  -2   0 242.238 8.25877   5
   5  -2   0 240.785 8.27548   5
  -5   2   0 229.227 8.16228   2
  -5   2   0 234.889 8.55542   1
  -5   2   0 228.087 8.29515   1
   4  -2   0 281.030 9.14292   5
   4  -2   0 275.726 9.47026   1
   4  -2   0 293.402 9.21427   5
  -4   2   0 267.333 9.07669   2
  -4   2   0 277.748 9.44487   1
  -4   2   0 283.596 9.26898   1
   3  -2   0 970.293 28.9304   1
   3  -2   0 1003.17 28.7701   5
   3  -2   0 997.786 29.0592   1
  -3   2   0 961.532 28.8300   1
  -3   2   0 976.814 28.7067   2
   2  -2   0 81.2704 2.95481   1
   2  -2   0 78.8590 2.93960   2
   2  -2   0 88.6927 3.05921   1
  -2   2   0 84.9833 2.92172   1
  -2   2   0 85.4190 5.72999   4
  -2   2   0 84.8500 3.01660   1
   1  -2   0 772.973 26.4247   4
  -1   2   0 838.730 26.7736   4
   0  -2   0 213.527 6.51007   1
   0  -2   0 214.143 6.51461   1
   0  -2   0 230.459 8.99212   4
   0   2   0 208.962 6.49279   1
   0   2   0 222.677 8.85328   4
   0   2   0 209.501 6.50168   1
  -1  -2   0 2610.82 76.6143   5
  -1  -2   0 2712.92 76.6917   1
  -1  -2   0 2613.62 76.4503   5
  -1  -2   0 2705.51 77.3050   1
   1   2   0 2610.16 76.2313   1
   1   2   0 2667.52 76.1767   5
   1   2   0 2656.58 77.1455   1
   1   2   0 2688.07 76.7724   5
  -2  -2   0 1938.46 56.2900   1
  -2  -2   0 1982.79 56.0875   5
  -2  -2   0 1946.75 56.2285   1
  -2  -2   0 1905.78 56.0114   5
   2   2   0 1872.95 56.1968   1
   2   2   0 2064.89 56.0729   5
   2   2   0 1878.15 55.9720   5
   2   2   0 1921.71 56.3057   1
  -3  -2   0 337.685 10.5762   5
  -3  -2   0 334.669 10.7587   1
  -3  -2   0 320.782 10.4925   5
  -3  -2   0 318.586 10.7908   1
   3   2   0 329.777 10.7554   1
   3   2   0 323.092 10.8092   1
   3   2   0 324.331 10.5117   5
   3   2   0 318.636 10.4622   5
  -4  -2   0 349.163 12.1220   1
  -4  -2   0 354.812 12.0293   1
  -4  -2   0 355.068 11.7598   5
  -4  -2   0 379.029 11.9045   5
   4   2   0 359.232 12.0812   1
   4   2   0 341.061 11.6629   5
   4   2   0 372.551 11.8259   5
   4   2   0 356.846 12.1892   1
  -5  -2   0 248.262 8.85028   1
  -5  -2   0 232.470 8.44644   5
  -5  -2   0 229.502 8.84616   2
  -5  -2   0 227.625 8.49038   5
   5   2   0 230.213 8.40241   5
   5   2   0 237.077 8.98036   1
   5   2   0 219.344 8.39224   5
  -6  -2   0 38.2733 3.50576   1
  -6  -2   0 29.9347 2.89923   5
  -6  -2   0 38.7650 3.54888   2
  -6  -2   0 22.9992 2.50045   5
   6   2   0 26.9093 2.65422   5
   6   2   0 26.6030 2.63722   5
   6   2   0 31.4339 3.21888   1
  -7  -2   0 655.344 22.3736   2
  -7  -2   0 686.107 22.3331   1
   7   2   0 662.130 21.8711   5
   7   2   0 671.950 22.5936   1
  -8  -2   0 218.031 9.64505   1
  -8  -2   0 226.191 9.87505   2
   8   2   0 221.031 9.97577   1
  -9  -2   0 19.0710 3.15712   1
   9   2   0 13.3523 2.95366   1
 -10  -2   0 105.708 6.87785   1
   9  -3   0 29.8655 3.40993   5
  -9   3   0 30.3100 8.29400   4
  -9   3   0 31.4882 3.21477   2
  -9   3   0 28.9835 3.30070   1
   8  -3   0 100.674 5.29729   5
  -8   3   0 104.530 5.38597   1
  -8   3   0 101.600 5.04062   2
   7  -3   0 50.7309 3.41441   5
   7  -3   0 50.5309 3.34993   5
  -7   3   0 50.4951 3.09892   2
  -7   3   0 52.5457 3.38653   1
   6  -3   0 87.0552 4.11343   5
   6  -3   0 80.5465 4.04376   5
   6  -3   0 84.9551 4.41683   1
  -6   3   0 81.1818 4.33541   1
  -6   3   0 83.4339 4.08275   1
  -6   3   0 83.7827 3.84517   2
   5  -3   0 1359.47 40.3280   5
   5  -3   0 1336.65 40.7313   1
   5  -3   0 1395.49 40.3733   5
  -5   3   0 1377.28 40.0770   2
  -5   3   0 1355.60 40.3992   1
   4  -3   0 62.0191 2.89697   1
   4  -3   0 57.0238 2.63116   5
   4  -3   0 53.0568 2.53226   5
  -4   3   0 56.5529 6.23203   4
  -4   3   0 53.7663 2.75472   1
  -4   3   0 53.0196 2.59054   1
   3  -3   0 725.239 21.8696   5
   3  -3   0 749.446 22.1751   1
  -3   3   0 728.425 22.0772   1
  -3   3   0 736.936 21.9426   1
  -3   3   0 784.898 28.3226   4
  -2   3   0 178.210 9.80324   4
   1  -3   0 261.410 12.0196   4
  -1   3   0 274.315 12.1980   4
   0  -3   0 1245.92 37.6833   1
   0  -3   0 1319.61 41.8391   4
   0  -3   0 1307.03 37.7385   1
   0   3   0 1298.46 37.7075   1
   0   3   0 1307.16 37.7135   1
   0   3   0 1375.07 41.6331   4
  -1  -3   0 829.780 24.2588   5
  -1  -3   0 854.853 27.8683   4
  -1  -3   0 818.470 24.2363   5
  -1  -3   0 834.618 24.4813   1
  -1  -3   0 817.217 24.4535   1
   1   3   0 822.206 24.4956   1
  -2  -3   0 57.2867 2.57243   5
  -2  -3   0 61.1587 2.62471   5
  -2  -3   0 55.2050 2.70112   1
  -2  -3   0 58.1224 2.77106   1
   2   3   0 56.8681 2.75636   1
   2   3   0 56.5151 2.44692   5
   2   3   0 56.3393 2.78232   1
   2   3   0 61.7752 2.52938   5
  -3  -3   0 730.002 22.3620   1
  -3  -3   0 718.314 22.0691   5
  -3  -3   0 754.260 22.1504   5
   3   3   0 707.361 22.3203   1
   3   3   0 724.299 22.4387   1
   3   3   0 745.031 22.0373   5
   3   3   0 712.980 21.9542   5
  -4  -3   0 32.2749 2.36569   1
  -4  -3   0 35.2384 2.32739   5
   4   3   0 33.1947 2.44775   1
   4   3   0 29.2017 2.75929   1
   4   3   0 34.1616 2.23652   5
   4   3   0 33.3413 2.17797   5
  -5  -3   0 0.98660 0.81756   5
  -5  -3   0 0.30006 0.60211   1
  -5  -3   0 0.96096 0.75059   5
   5   3   0 -0.4314 0.65179   1
   5   3   0 0.47834 0.65832   5
   5   3   0 1.04383 0.70058   5
  -6  -3   0 19.2148 2.74471   1
  -6  -3   0 21.7509 2.48930   5
  -6  -3   0 17.5518 2.54777   2
  -6  -3   0 12.5801 1.91549   5
   6   3   0 16.1001 2.08402   5
   6   3   0 16.5154 2.41526   1
   6   3   0 15.1325 2.16825   5
  -7  -3   0 479.634 16.7914   1
  -7  -3   0 468.373 16.9173   2
   7   3   0 465.352 17.0303   1
  -8  -3   0 54.0536 4.89853   1
   8   3   0 51.8663 5.03574   1
  -9  -3   0 21.8612 3.50788   1
   9   3   0 16.4128 3.03021   1
 -10  -3   0 11.7990 2.94724   1
  10   3   0 9.22100 2.55269   1
   9  -4   0 0.79975 1.44978   5
  -9   4   0 0.39252 3.57222   4
  -9   4   0 2.67935 1.46045   1
   8  -4   0 206.704 8.50076   5
  -8   4   0 179.847 15.8861   4
  -8   4   0 222.913 8.50359   1
   7  -4   0 20.8546 2.46599   5
   7  -4   0 23.0733 2.44752   5
  -7   4   0 24.4022 2.56161   1
  -7   4   0 21.6557 6.45314   4
   6  -4   0 487.969 16.0277   5
   6  -4   0 504.296 16.0906   5
  -6   4   0 493.734 15.9534   1
  -6   4   0 503.561 25.2692   4
   5  -4   0 57.3804 2.87408   5
   5  -4   0 52.9980 3.04590   1
   5  -4   0 55.1016 2.84826   5
  -5   4   0 57.8602 7.39151   4
  -5   4   0 53.7920 2.78748   1
  -5   4   0 60.4592 3.12048   1
   4  -4   0 28.1468 1.89814   1
   4  -4   0 27.4701 1.68527   5
  -4   4   0 27.6712 1.80170   1
  -4   4   0 33.6578 6.18703   4
  -4   4   0 29.5607 1.69385   1
  -3   4   0 265.633 14.3623   4
  -2   4   0 1199.85 41.7229   4
  -1   4   0 321.616 14.9773   4
   0  -4   0 4.23754 0.68619   1
   0  -4   0 4.02390 0.62038   1
   0   4   0 3.60477 1.85936   4
   0   4   0 4.47118 0.68249   1
  -1  -4   0 16.5994 1.17419   5
  -1  -4   0 15.1418 1.45151   1
  -1  -4   0 18.0570 1.33707   1
  -1  -4   0 16.1193 1.17197   5
   1   4   0 18.2843 1.34531   1
  -2  -4   0 225.704 7.83811   5
  -2  -4   0 227.412 7.81486   5
  -2  -4   0 238.631 8.11370   1
   2   4   0 237.682 7.62394   5
   2   4   0 237.207 8.19462   1
   2   4   0 245.529 8.17666   1
  -3  -4   0 42.7658 2.50820   5
  -3  -4   0 44.1992 2.68666   1
  -3  -4   0 42.1873 2.49187   5
   3   4   0 45.6495 2.38772   5
   3   4   0 46.5761 2.75935   1
   3   4   0 44.9249 2.78539   1
  -4  -4   0 1246.13 37.8661   5
  -4  -4   0 1270.29 38.2930   1
  -4  -4   0 1242.07 37.9450   5
   4   4   0 1244.46 37.7332   5
   4   4   0 1311.73 38.5163   1
   4   4   0 1282.40 38.3944   1
  -5  -4   0 646.866 21.0884   1
  -5  -4   0 667.773 20.7540   5
   5   4   0 634.569 20.5073   5
   5   4   0 634.636 21.2416   1
  -6  -4   0 277.018 10.6053   5
  -6  -4   0 289.711 11.0705   1
   6   4   0 289.012 11.3045   1
  -7  -4   0 164.383 7.79602   1
   7   4   0 163.977 8.11472   1
  -8  -4   0 25.9067 3.49896   1
   8   4   0 39.9058 4.83362   1
  -9  -4   0 106.595 6.62218   1
   9   4   0 108.506 6.91207   1
   9  -5   0 23.2010 3.14664   5
  -9   5   0 15.7692 6.91875   4
  -9   5   0 18.6959 2.47301   1
   8  -5   0 4.26281 1.53687   5
  -8   5   0 5.93278 1.48291   1
  -8   5   0 2.42373 3.80741   4
   7  -5   0 14.1275 2.00057   5
   7  -5   0 19.0190 2.36748   5
  -7   5   0 9.75126 4.63516   4
  -7   5   0 15.1984 1.92743   1
   6  -5   0 152.258 6.23405   5
   6  -5   0 159.460 6.37378   5
  -6   5   0 164.086 6.14234   1
  -6   5   0 157.797 13.7302   4
   5  -5   0 1266.03 37.4770   5
   5  -5   0 1217.53 37.7774   1
  -5   5   0 1314.70 48.9203   4
  -5   5   0 1281.09 37.6018   1
  -5   5   0 1262.99 37.2610   1
   4  -5   0 51.7924 2.55142   1
  -4   5   0 45.8073 7.89245   4
  -3   5   0 107.284 9.37093   4
  -2   5   0 121.391 9.32839   4
  -1   5   0 -0.0447 1.30259   4
   0  -5   0 7.65700 0.95298   1
   0   5   0 8.07616 2.84907   4
  -1  -5   0 347.453 10.9603   5
  -1  -5   0 359.736 11.2562   1
  -1  -5   0 348.315 10.9304   5
   1   5   0 343.982 11.2101   1
   1   5   0 350.594 11.2246   1
  -2  -5   0 180.744 6.30244   5
  -2  -5   0 166.490 6.22856   5
  -2  -5   0 172.856 6.51780   1
   2   5   0 173.350 6.52364   1
   2   5   0 179.918 6.60326   1
  -3  -5   0 1215.07 36.1639   5
  -3  -5   0 1241.82 36.5941   1
  -3  -5   0 1212.43 36.2157   5
   3   5   0 1197.89 36.5554   1
   3   5   0 1192.10 36.5786   1
  -4  -5   0 97.0949 4.82630   1
  -4  -5   0 97.1361 4.59442   5
  -4  -5   0 99.7068 4.68822   5
   4   5   0 95.5309 4.92606   1
   4   5   0 92.0815 4.82322   1
  -5  -5   0 6.17895 1.47486   5
  -5  -5   0 2.87822 1.23716   1
  -5  -5   0 5.28946 1.38293   5
   5   5   0 5.41942 1.68748   1
   5   5   0 4.17244 1.64554   1
  -6  -5   0 21.8457 2.95718   1
  -6  -5   0 24.2277 2.94007   5
   6   5   0 25.8334 3.33763   1
  -7  -5   0 8.01484 1.98261   1
   7   5   0 9.47706 2.47884   1
  -8  -5   0 3.05786 1.62129   1
   8   5   0 0.80715 1.59831   1
  -9  -5   0 97.7653 6.66362   1
   9   5   0 119.600 7.62444   1
   8  -6   0 235.636 9.31859   5
  -8   6   0 235.389 8.68198   1
  -8   6   0 207.266 18.9352   4
   7  -6   0 19.6331 2.49123   5
   7  -6   0 18.9845 2.34899   5
  -7   6   0 11.9542 5.95704   4
   6  -6   0 41.3462 2.78632   5
   6  -6   0 44.6886 2.81843   5
  -6   6   0 40.3412 8.91501   4
   5  -6   0 273.575 9.32836   5
  -5   6   0 284.119 18.7915   4
  -4   6   0 129.851 11.6933   4
  -3   6   0 63.7601 7.83405   4
  -2   6   0 169.742 12.2770   4
  -1   6   0 1350.26 47.6369   4
   0   6   0 215.326 12.7588   4
  -1  -6   0 59.0612 2.86368   1
  -1  -6   0 52.1795 2.61248   5
  -1  -6   0 51.3634 2.60163   5
   1   6   0 58.4824 2.87112   1
   1   6   0 58.3103 2.85410   1
  -2  -6   0 223.484 8.10651   1
  -2  -6   0 222.376 7.87565   5
  -2  -6   0 221.177 7.83080   5
   2   6   0 225.693 8.16849   1
  -3  -6   0 59.6719 3.50005   1
  -3  -6   0 62.3769 3.37335   5
  -3  -6   0 57.3534 3.27428   5
   3   6   0 66.8213 3.71129   1
   3   6   0 58.5683 3.54134   1
  -4  -6   0 11.8512 1.92790   1
  -4  -6   0 10.0637 1.65939   5
  -4  -6   0 9.88988 1.75038   5
   4   6   0 9.43801 1.87973   1
   4   6   0 8.29840 1.82880   1
  -5  -6   0 240.449 9.32434   5
  -5  -6   0 228.448 9.57785   1
  -5  -6   0 228.860 11.9168   5
   5   6   0 248.489 9.98342   1
  -6  -6   0 2.42596 0.98850   5
  -6  -6   0 1.32177 1.29870   1
   6   6   0 3.21875 1.57297   1
  -7  -6   0 414.004 15.8811   1
   7   6   0 439.089 16.5088   1
   8   6   0 6.32699 2.52786   1
   7  -7   0 201.732 8.03983   5
   7  -7   0 191.324 7.87046   5
  -7   7   0 194.804 18.1303   4
   6  -7   0 0.25265 0.86683   5
   6  -7   0 0.56765 1.00236   5
  -6   7   0 -0.4492 3.09825   4
  -5   7   0 126.060 12.9453   4
  -4   7   0 318.036 20.0806   4
  -3   7   0 350.946 20.6319   4
  -2   7   0 7.84617 3.84547   4
  -1   7   0 99.2485 9.47524   4
   0  -7   0 320.276 14.4152   3
  -1  -7   0 442.412 14.6242   1
  -1  -7   0 456.333 14.4376   5
  -1  -7   0 461.526 14.5258   5
   1   7   0 476.189 14.6808   1
   1   7   0 453.398 14.6132   1
  -2  -7   0 266.595 9.19336   5
  -2  -7   0 251.072 9.35738   1
  -2  -7   0 261.633 9.21140   5
   2   7   0 255.371 9.37854   1
   2   7   0 270.573 9.49481   1
  -3  -7   0 4.79876 1.21744   5
  -3  -7   0 7.12705 1.53455   5
  -3  -7   0 5.81874 1.39096   1
   3   7   0 4.53984 1.38002   1
  -4  -7   0 285.331 10.7536   1
  -4  -7   0 278.310 10.3399   5
  -4  -7   0 268.744 10.3552   5
   4   7   0 278.477 10.8266   1
  -5  -7   0 297.499 11.2651   5
   5   7   0 296.896 11.8138   1
  -6  -7   0 352.306 15.6359   5
   6   7   0 375.779 14.4055   1
   7   7   0 6.43469 2.42152   1
   8   7   0 100.883 6.99676   1
   6  -8   0 65.6808 3.69235   5
  -6   8   0 70.2141 12.7073   4
  -5   8   0 30.3464 8.66712   4
  -4   8   0 64.8438 11.8380   4
  -3   8   0 59.3744 10.5902   4
  -2   8   0 817.009 35.5573   4
  -1   8   0 179.576 13.7724   4
   0  -8   0 -0.3301 1.47229   3
  -1  -8   0 19.8317 2.05943   5
  -1  -8   0 21.3492 2.10918   5
   1   8   0 20.7092 2.37377   1
  -2  -8   0 77.3772 4.01245   5
  -2  -8   0 75.9607 4.06448   5
   2   8   0 78.7588 4.15710   1
  -3  -8   0 -1.2417 0.99224   5
  -3  -8   0 0.30374 0.91257   5
   3   8   0 -0.8526 0.90699   1
  -4  -8   0 131.160 6.28470   5
   4   8   0 135.349 6.64028   1
  -5  -8   0 178.431 8.13299   5
   5   8   0 189.899 8.68162   1
   6   8   0 94.5563 6.16173   1
   7   8   0 15.5772 3.08906   1
  -5   9   0 162.280 16.6242   4
  -4   9   0 -0.4110 2.74054   4
  -3   9   0 0.69742 3.33126   4
  -2   9   0 6.24443 4.13478   4
  -1   9   0 348.033 20.9440   4
   0  -9   0 8.33111 1.40591   5
  -1  -9   0 5.19939 1.37261   5
  -1  -9   0 4.99472 1.40744   5
  -2  -9   0 413.546 14.3970   5
  -2  -9   0 430.213 14.5906   5
   2   9   0 435.340 14.5071   1
  -3  -9   0 0.99539 1.19910   5
  -3  -9   0 1.87186 1.28141   5
   3   9   0 3.15209 1.40772   1
  -4  -9   0 0.68615 1.24151   5
   4   9   0 1.29387 1.40221   1
  -5  -9   0 4.21684 1.95789   5
   5   9   0 6.87182 2.17094   1
   6   9   0 15.8159 3.15755   1
  -4  10   0 1.72265 3.64998   4
  -3  10   0 23.9176 7.59223   4
  -2  10   0 35.9795 9.40731   4
   0 -10   0 147.091 6.08301   5
  -1 -10   0 2.39482 1.46357   5
  -1 -10   0 0.98177 1.27041   5
  -2 -10   0 0.24839 1.19128   5
  -2 -10   0 2.04138 1.56313   5
  -3 -10   0 113.725 5.81462   5
   3  10   0 108.475 5.79927   1
  -4 -10   0 -0.6485 1.37793   5
   4  10   0 -1.5320 1.12022   1
   0 -11   0 3.98732 1.73440   5
  -1 -11   0 68.7428 4.23918   5
  -1 -11   0 57.8698 4.28810   5
   4  10  -1 227.714 10.1105   1
  -4 -10   1 227.896 9.94436   5
   3  10  -1 50.5086 4.55051   1
  -3 -10   1 36.8844 3.92288   5
   2  10  -1 6.74257 1.98046   1
  -2 -10   1 10.5800 2.13971   5
  -1 -10   1 145.016 6.74471   5
  -1 -10   1 143.369 6.56192   5
   0 -10   1 70.5039 4.09431   5
   0 -10   1 70.2494 4.30296   5
   1 -10   1 2.13547 1.18203   5
   1 -10   1 -0.4903 1.33306   5
  -2  10  -1 -2.8000 3.13116   4
  -3  10  -1 33.6432 8.83968   4
  -4  10  -1 76.5411 13.6278   4
   5   9  -1 70.3997 6.22292   1
   4   9  -1 153.300 7.56180   1
  -4  -9   1 134.732 6.94492   5
   3   9  -1 26.6306 3.34785   1
  -3  -9   1 25.1042 2.98785   5
   2   9  -1 0.67505 1.19625   1
  -2  -9   1 1.14157 1.09710   5
  -2  -9   1 1.11465 1.36733   5
   1   9  -1 154.577 6.70691   1
  -1  -9   1 164.056 7.03463   5
  -1  -9   1 169.259 6.87138   5
   0  -9   1 318.618 11.1021   5
   0  -9   1 310.931 10.9522   5
  -1   9  -1 5.59261 3.97662   4
   1  -9   1 3.67197 1.12834   5
   1  -9   1 3.77781 1.22337   5
  -2   9  -1 118.015 12.4736   4
  -3   9  -1 59.7485 10.7360   4
  -4   9  -1 0.13952 3.15819   4
  -5   9  -1 3.01271 4.07193   4
   7   8  -1 82.5305 6.34990   1
   6   8  -1 114.008 6.96603   1
   5   8  -1 113.231 6.63481   1
  -5  -8   1 108.713 6.17326   5
   4   8  -1 1.10196 1.37238   1
  -4  -8   1 2.09455 1.36577   5
   3   8  -1 0.01469 0.95514   1
  -3  -8   1 -0.2089 1.00431   5
  -3  -8   1 0.01434 1.01732   5
   2   8  -1 84.5923 4.59992   1
  -2  -8   1 83.6500 4.41682   5
  -2  -8   1 82.0938 4.50369   5
   1   8  -1 337.013 11.7139   1
  -1  -8   1 328.301 11.5667   5
  -1  -8   1 337.553 11.4927   5
   0   8  -1 2.44634 0.92877   1
   0  -8   1 1.63260 0.87360   5
   0  -8   1 1.43893 0.92484   5
  -1   8  -1 684.594 31.1640   4
  -2   8  -1 28.8704 6.60934   4
  -3   8  -1 66.5746 10.6968   4
  -4   8  -1 88.3104 11.3812   4
  -5   8  -1 16.0506 6.25258   4
   5  -8   1 25.8069 2.32691   5
  -6   8  -1 263.785 21.3083   4
   6  -8   1 292.217 10.1758   5
   7   7  -1 0.93741 1.63655   1
   6   7  -1 61.0390 5.80464   1
   5   7  -1 152.525 7.74487   1
  -5  -7   1 156.653 7.32962   5
   4   7  -1 281.288 11.0760   1
  -4  -7   1 277.888 10.5519   5
   3   7  -1 15.1029 2.24269   1
  -3  -7   1 12.8698 2.00209   5
  -3  -7   1 10.1052 1.89160   5
  -3  -7   1 12.1072 2.11272   1
   2   7  -1 105.199 5.02027   1
  -2  -7   1 99.8629 4.74804   5
  -2  -7   1 100.785 4.70670   5
  -2  -7   1 97.9393 4.84637   1
   1   7  -1 221.998 8.15512   1
   1   7  -1 211.138 8.07443   1
  -1  -7   1 213.084 7.79817   5
  -1  -7   1 215.559 8.06268   1
  -1  -7   1 218.861 7.94737   5
   0   7  -1 1.68102 0.88001   1
   0   7  -1 4.36500 2.99417   4
   0   7  -1 1.63082 0.84725   1
   0  -7   1 1.70409 0.88713   1
   0  -7   1 1.99319 0.83731   5
   0  -7   1 1.62792 0.79268   5
  -1   7  -1 1.99832 2.37405   4
   1  -7   1 1.68273 0.72646   1
  -2   7  -1 229.033 15.5714   4
  -3   7  -1 410.127 22.7838   4
  -4   7  -1 65.6695 11.2867   4
  -5   7  -1 10.5253 5.12302   4
   5  -7   1 9.81936 1.47199   5
  -6   7  -1 39.0325 9.96136   4
   6  -7   1 40.8981 2.89438   5
  -7   7  -1 3.83566 4.46096   4
   7  -7   1 3.62046 1.49643   5
   7  -7   1 3.54847 1.46612   5
   8   6  -1 0.32669 1.68064   1
   7   6  -1 82.1208 5.87856   1
  -7  -6   1 88.3221 5.68657   1
   6   6  -1 23.2521 3.45108   1
  -6  -6   1 28.7207 3.69086   1
   5   6  -1 1045.52 33.0149   1
  -5  -6   1 1026.97 32.2770   5
  -5  -6   1 1019.24 32.7440   1
   4   6  -1 632.848 21.3888   1
  -4  -6   1 652.556 21.3586   1
  -4  -6   1 649.601 20.8339   5
  -4  -6   1 640.640 20.9425   5
   3   6  -1 250.487 9.83512   1
   3   6  -1 270.803 10.0560   1
  -3  -6   1 264.103 9.64349   5
  -3  -6   1 264.077 9.54343   5
  -3  -6   1 264.812 9.92062   1
   2   6  -1 11.5586 1.77837   1
   2   6  -1 12.8270 1.86247   1
  -2  -6   1 14.0702 1.77513   5
  -2  -6   1 13.9451 1.94525   1
  -2  -6   1 12.0090 1.63738   5
   1   6  -1 15.7546 1.86593   1
  -1  -6   1 15.0500 1.65266   5
  -1  -6   1 15.3101 1.88829   1
  -1  -6   1 13.9966 1.59355   5
   0   6  -1 302.552 15.6035   4
   0   6  -1 297.120 9.84677   1
   0   6  -1 300.109 9.84569   1
   0  -6   1 287.099 9.84856   1
   0  -6   1 297.522 9.68223   5
   0  -6   1 284.335 9.51785   5
  -1   6  -1 341.323 18.1951   4
   1  -6   1 385.417 11.7860   1
  -2   6  -1 175.922 12.5022   4
  -3   6  -1 147.829 11.9067   4
  -4   6  -1 19.9019 5.52829   4
   4  -6   1 25.8975 1.79319   5
  -5   6  -1 257.003 17.8293   4
   5  -6   1 240.779 8.52894   5
  -6   6  -1 20.7005 6.69599   4
  -6   6  -1 25.7149 2.20496   1
   6  -6   1 23.6410 2.40290   5
  -7   6  -1 134.974 14.3857   4
  -7   6  -1 142.650 5.94284   1
   7  -6   1 157.775 6.56691   5
   7  -6   1 141.075 6.38409   5
  -8   6  -1 137.536 15.4943   4
  -8   6  -1 143.897 6.27264   1
   8  -6   1 147.011 6.81199   5
   9   5  -1 38.9794 5.09199   1
  -9  -5   1 34.9699 4.75300   1
   8   5  -1 17.8174 3.35629   1
  -8  -5   1 12.3511 2.69878   1
   7   5  -1 178.888 8.96657   1
  -7  -5   1 176.076 8.61166   1
   6   5  -1 923.223 30.5572   1
  -6  -5   1 948.958 30.3209   1
   5   5  -1 181.018 8.09242   1
  -5  -5   1 170.571 8.21888   5
  -5  -5   1 190.093 7.65130   5
  -5  -5   1 179.318 7.94509   1
   4   5  -1 46.8520 3.42543   1
   4   5  -1 42.3709 3.79438   1
  -4  -5   1 41.7710 3.16389   1
  -4  -5   1 45.6463 3.05623   5
  -4  -5   1 46.0058 3.11246   5
   3   5  -1 7.76961 1.60694   1
   3   5  -1 8.22099 1.58432   1
  -3  -5   1 6.38660 1.26151   5
  -3  -5   1 9.23995 1.62202   1
  -3  -5   1 9.26927 1.49408   5
   2   5  -1 339.814 11.6791   1
   2   5  -1 334.424 11.7105   1
  -2  -5   1 347.230 11.3726   5
  -2  -5   1 356.871 11.7457   1
  -2  -5   1 342.805 11.4423   5
   1   5  -1 678.111 20.7826   1
   1   5  -1 670.548 20.7929   1
  -1  -5   1 673.945 20.8107   1
  -1  -5   1 679.578 20.5527   5
  -1  -5   1 668.136 20.4399   5
   0   5  -1 315.175 14.8286   4
   0   5  -1 304.347 9.97911   1
   0   5  -1 305.409 10.0167   1
   0  -5   1 306.144 9.85396   5
   0  -5   1 305.697 10.0674   1
   0  -5   1 307.412 9.73201   5
  -1   5  -1 83.9665 3.29578   1
  -1   5  -1 77.5669 3.24800   1
  -1   5  -1 88.5702 7.56608   4
   1  -5   1 79.6498 3.36421   1
   1  -5   1 80.8496 3.07515   5
  -2   5  -1 403.962 12.4285   1
  -2   5  -1 417.230 19.5709   4
   2  -5   1 395.564 12.6078   1
  -3   5  -1 24.5763 1.58913   1
  -3   5  -1 23.1182 5.23795   4
   3  -5   1 26.8314 1.76503   1
  -4   5  -1 1.97470 0.67886   1
  -4   5  -1 1.33952 2.34687   4
  -4   5  -1 1.64255 0.71313   1
   4  -5   1 1.72709 0.68750   5
   4  -5   1 2.81060 0.83272   1
  -5   5  -1 161.917 6.13964   1
  -5   5  -1 159.508 5.83123   1
  -5   5  -1 141.875 12.5434   4
   5  -5   1 151.346 6.15891   1
   5  -5   1 158.371 5.94773   5
  -6   5  -1 603.607 18.8590   1
  -6   5  -1 586.230 30.0830   4
   6  -5   1 604.519 19.0772   5
   6  -5   1 605.520 19.0704   5
  -7   5  -1 2.44256 1.04494   1
  -7   5  -1 0.93070 3.44505   4
   7  -5   1 2.17528 1.09613   5
   7  -5   1 5.17206 1.51195   5
  -8   5  -1 10.3307 6.00580   4
  -8   5  -1 18.9523 2.41896   1
   8  -5   1 13.5555 2.30812   5
  -9   5  -1 10.9173 2.13002   1
  -9   5  -1 9.00930 6.01632   4
   9  -5   1 13.4691 2.50651   5
   9   4  -1 205.544 10.2896   1
  -9  -4   1 191.556 9.73006   1
   8   4  -1 212.298 10.1440   1
  -8  -4   1 200.373 9.51556   1
   7   4  -1 11.6892 2.52021   1
  -7  -4   1 14.7669 2.55896   1
   6   4  -1 29.8319 3.65056   1
  -6  -4   1 37.1686 3.60116   5
  -6  -4   1 29.3192 3.33810   1
   5   4  -1 86.9619 4.40918   5
   5   4  -1 93.5087 5.05809   1
  -5  -4   1 90.6846 4.57830   5
  -5  -4   1 81.6006 4.52552   5
  -5  -4   1 85.6721 4.80463   1
   4   4  -1 152.832 6.54777   1
   4   4  -1 143.068 5.97604   5
   4   4  -1 145.355 6.54703   1
  -4  -4   1 158.673 6.54300   1
  -4  -4   1 142.495 6.08111   5
  -4  -4   1 146.997 6.15774   5
   3   4  -1 395.624 13.6394   1
   3   4  -1 404.122 13.2221   5
   3   4  -1 415.102 13.8318   1
  -3  -4   1 396.131 13.3163   5
  -3  -4   1 421.662 13.7311   1
  -3  -4   1 422.189 13.4831   5
   2   4  -1 1887.25 55.5895   1
   2   4  -1 1905.66 55.6418   1
   2   4  -1 1866.38 55.0402   5
  -2  -4   1 1923.37 55.2681   5
  -2  -4   1 1909.71 55.3134   5
  -2  -4   1 1868.55 55.5411   1
   1   4  -1 900.317 27.2351   1
   1   4  -1 933.192 27.2794   1
  -1  -4   1 904.198 27.2531   1
  -1  -4   1 932.286 27.0277   5
  -1  -4   1 872.846 26.8799   5
   0   4  -1 15.4885 3.28304   4
   0   4  -1 11.3398 1.26266   1
   0   4  -1 13.4115 1.31644   1
   0  -4   1 12.4766 1.14432   5
   0  -4   1 17.6238 1.55098   1
   0  -4   1 15.7857 1.10457   5
  -1   4  -1 -1.8950 0.39242   1
  -1   4  -1 -1.9261 1.16518   4
  -1   4  -1 -1.8729 0.34677   1
   1  -4   1 -1.7954 0.39463   1
  -2   4  -1 15.7000 1.34590   1
  -2   4  -1 14.5185 1.11777   1
  -2   4  -1 25.7331 4.77478   4
   2  -4   1 14.5266 1.39203   1
  -3   4  -1 3132.02 95.8427   4
  -3   4  -1 2971.24 86.9958   1
  -3   4  -1 3010.34 87.2082   1
   3  -4   1 3002.10 87.2653   1
   3  -4   1 3039.94 86.9717   5
  -4   4  -1 71.3500 7.56952   4
  -4   4  -1 62.9714 3.05783   1
  -4   4  -1 63.5819 2.89732   1
   4  -4   1 63.8091 2.88546   5
   4  -4   1 64.5361 3.13326   1
  -5   4  -1 4.75033 1.15920   1
  -5   4  -1 2.82103 2.87368   4
  -5   4  -1 2.74881 0.87468   1
   5  -4   1 3.52531 1.02757   1
   5  -4   1 3.75413 0.95979   5
  -6   4  -1 173.215 6.82476   1
  -6   4  -1 185.862 14.3025   4
   6  -4   1 185.143 6.97716   5
   6  -4   1 171.289 6.84488   5
   6  -4   1 180.438 7.36235   1
  -7   4  -1 28.8438 7.56283   4
  -7   4  -1 30.3518 2.86416   1
   7  -4   1 33.8682 3.13619   5
   7  -4   1 30.7254 3.06295   5
  -8   4  -1 20.0830 6.83895   4
  -8   4  -1 35.8602 3.29734   1
   8  -4   1 35.0172 3.34826   5
  -9   4  -1 12.1140 2.28232   1
  -9   4  -1 11.3193 5.92816   4
   9  -4   1 13.4064 2.53501   5
   9   3  -1 10.4917 2.91903   1
  -9  -3   1 12.7380 3.12859   1
   8   3  -1 11.3620 2.42374   1
  -8  -3   1 14.5284 2.64254   1
   7   3  -1 1.97791 1.58728   1
  -7  -3   1 0.72683 1.21040   1
   6   3  -1 39.3098 4.26598   5
   6   3  -1 42.4608 3.01971   5
   6   3  -1 40.5553 4.15551   1
  -6  -3   1 45.9289 3.49017   1
  -6  -3   1 40.1309 2.96965   5
   5   3  -1 327.194 11.8940   5
   5   3  -1 365.094 12.7182   1
   5   3  -1 341.148 12.0335   5
  -5  -3   1 343.657 12.4070   1
  -5  -3   1 333.449 12.0990   5
  -5  -3   1 363.756 12.1295   5
   4   3  -1 2310.73 66.6329   5
   4   3  -1 2156.31 66.9176   1
   4   3  -1 2225.17 66.4652   5
   4   3  -1 2283.81 67.1935   1
  -4  -3   1 2262.22 66.5699   5
  -4  -3   1 2325.03 66.7303   5
  -4  -3   1 2358.29 67.0554   1
   3   3  -1 152.349 5.57873   5
   3   3  -1 153.548 5.64926   5
   3   3  -1 144.901 5.89933   1
   3   3  -1 151.204 6.00978   1
  -3  -3   1 121.041 5.44817   5
  -3  -3   1 155.533 5.69200   5
  -3  -3   1 150.149 5.90700   1
   2   3  -1 557.849 16.5783   5
   2   3  -1 518.348 16.4321   5
   2   3  -1 551.735 16.9188   1
   2   3  -1 553.438 16.9639   1
  -2  -3   1 548.234 16.8962   1
  -2  -3   1 519.796 16.5505   5
  -2  -3   1 520.054 16.8186   1
  -2  -3   1 538.370 16.6574   5
  -2  -3   1 548.474 19.2614   4
   1   3  -1 654.860 20.1029   1
   1   3  -1 669.085 20.1108   1
   1   3  -1 640.152 19.6358   5
   1   3  -1 655.348 19.7218   5
  -1  -3   1 657.543 20.1037   1
  -1  -3   1 669.685 19.9085   5
  -1  -3   1 666.324 19.8123   5
  -1  -3   1 651.579 20.0890   1
  -1  -3   1 723.605 23.2735   4
   0   3  -1 2.47710 1.39648   4
   0   3  -1 2.92196 0.61829   1
   0   3  -1 3.99196 0.71688   1
   0  -3   1 2.39558 1.38308   4
   0  -3   1 3.86301 0.75541   1
   0  -3   1 4.45597 0.71848   1
   0  -3   1 3.32403 0.58076   5
   0  -3   1 2.42728 0.52801   5
  -1   3  -1 71.5766 2.77076   1
  -1   3  -1 77.6792 5.68980   4
  -1   3  -1 67.9757 2.71150   1
   1  -3   1 70.3769 2.81929   1
   1  -3   1 68.0957 2.58989   5
   1  -3   1 67.7299 2.65504   1
  -2   3  -1 332.670 10.3233   1
  -2   3  -1 341.553 10.4750   1
  -2   3  -1 343.552 15.1923   4
   2  -3   1 344.587 10.2198   5
   2  -3   1 325.702 10.2337   5
   2  -3   1 340.793 10.5130   1
   2  -3   1 331.312 10.3511   1
  -3   3  -1 260.302 13.2750   4
  -3   3  -1 239.032 7.96667   1
  -3   3  -1 245.447 8.17738   1
   3  -3   1 253.779 8.24137   1
   3  -3   1 245.121 7.89883   5
  -4   3  -1 248.235 8.06018   1
  -4   3  -1 230.146 7.82904   2
   4  -3   1 239.122 7.96849   5
   4  -3   1 239.598 8.33020   1
  -5   3  -1 51.9086 2.68148   2
  -5   3  -1 53.6951 3.05732   1
  -5   3  -1 50.7065 2.80272   1
   5  -3   1 53.9892 3.08466   1
   5  -3   1 50.3263 2.74547   5
   5  -3   1 52.8769 2.80235   5
  -6   3  -1 5.96661 1.45787   1
  -6   3  -1 9.13989 1.53922   1
  -6   3  -1 7.75912 1.27015   2
   6  -3   1 6.24292 1.34370   5
   6  -3   1 6.72766 1.61209   1
   6  -3   1 7.17972 1.50263   5
  -7   3  -1 917.495 28.9465   1
  -7   3  -1 954.422 28.7079   2
   7  -3   1 905.088 28.9264   5
   7  -3   1 955.673 29.0151   5
  -8   3  -1 194.065 8.13214   1
  -8   3  -1 187.264 7.80032   2
   8  -3   1 201.605 8.21323   5
  -9   3  -1 230.642 9.56999   1
  -9   3  -1 218.324 9.08486   2
   9  -3   1 233.020 9.62049   5
 -10   3  -1 58.3119 4.15490   2
 -10   3  -1 50.4986 4.77462   1
 -10  -2   1 188.841 9.75003   1
   9   2  -1 3.45546 1.98495   1
  -9  -2   1 7.19861 2.32372   1
   8   2  -1 2.00067 1.42691   1
  -8  -2   1 3.93977 1.64466   1
  -8  -2   1 2.62227 1.69755   2
   7   2  -1 680.330 22.5147   1
  -7  -2   1 642.003 22.1345   2
  -7  -2   1 644.489 21.9950   1
   6   2  -1 64.2061 3.94402   5
   6   2  -1 69.3907 4.40494   1
   6   2  -1 67.4073 3.90413   5
  -6  -2   1 61.7344 4.54258   5
  -6  -2   1 69.6444 3.88632   5
  -6  -2   1 74.4865 4.34782   1
   5   2  -1 36.3904 3.36739   1
   5   2  -1 28.5534 2.67427   5
   5   2  -1 35.2218 3.03270   5
  -5  -2   1 33.3354 3.02825   5
  -5  -2   1 29.6614 2.77627   1
  -5  -2   1 24.6940 2.51488   5
   4   2  -1 144.697 6.25383   1
   4   2  -1 146.942 6.32965   1
   4   2  -1 158.190 6.00531   5
   4   2  -1 153.436 6.03301   5
  -4  -2   1 155.014 5.99191   5
  -4  -2   1 161.257 6.14535   5
  -4  -2   1 157.401 6.32492   1
   3   2  -1 93.9309 4.31700   1
   3   2  -1 97.4909 4.07911   5
   3   2  -1 95.3148 4.28349   1
   3   2  -1 94.0138 4.01963   5
  -3  -2   1 96.2953 4.24685   1
  -3  -2   1 96.5905 4.05854   5
  -3  -2   1 100.927 4.33516   1
  -3  -2   1 97.9762 4.12289   5
   2   2  -1 0.41141 0.58828   1
   2   2  -1 0.60456 0.52857   5
   2   2  -1 1.39416 0.56404   5
   2   2  -1 1.41904 0.68141   1
  -2  -2   1 0.60218 0.63995   1
  -2  -2   1 0.48896 0.57870   1
  -2  -2   1 1.16364 0.56987   5
   1   2  -1 1.76264 0.57525   1
   1   2  -1 1.86829 0.49430   5
   1   2  -1 2.66110 0.65724   1
   1   2  -1 1.96575 0.47112   5
  -1  -2   1 3.13286 0.66957   1
  -1  -2   1 2.00168 0.57920   1
  -1  -2   1 1.91264 0.52526   1
  -1  -2   1 6.05155 1.39909   4
  -1  -2   1 2.30302 0.56303   5
  -1  -2   1 2.93488 0.62568   5
   0   2  -1 3263.48 98.6892   1
   0   2  -1 3453.87 98.2619   5
   0   2  -1 3248.08 97.5936   5
   0   2  -1 3383.72 99.1959   1
   0   2  -1 3725.41 105.532   4
   0  -2   1 3263.05 97.8525   5
   0  -2   1 3476.91 98.5047   1
   0  -2   1 3617.59 101.656   4
   0  -2   1 3276.75 98.0829   1
   0  -2   1 3350.83 98.7810   5
  -1   2  -1 792.622 23.1152   1
  -1   2  -1 868.984 26.6618   4
   1  -2   1 800.991 23.2279   1
   1  -2   1 753.048 23.0092   5
   1  -2   1 805.279 22.9796   5
   1  -2   1 786.353 23.0938   1
   1  -2   1 735.509 23.1059   2
  -2   2  -1 16.2065 1.03239   2
  -2   2  -1 16.1549 1.04315   1
   2  -2   1 15.5589 0.97506   5
   2  -2   1 12.7558 0.99188   2
   2  -2   1 15.0059 1.12148   1
   2  -2   1 15.4014 1.02681   1
  -3   2  -1 8.25359 1.01792   1
  -3   2  -1 8.57439 0.84975   5
  -3   2  -1 10.0819 1.22213   1
  -3   2  -1 8.74672 1.04206   2
   3  -2   1 9.56272 1.17622   1
   3  -2   1 9.27548 1.02949   5
   3  -2   1 10.3092 1.25252   1
  -4   2  -1 599.267 19.0308   1
  -4   2  -1 607.451 18.7285   2
  -4   2  -1 626.929 18.8366   1
   4  -2   1 619.106 18.7156   5
   4  -2   1 625.249 19.1380   1
  -5   2  -1 1802.96 51.3492   1
  -5   2  -1 1731.74 51.1565   2
  -5   2  -1 1736.83 51.6117   1
   5  -2   1 1785.37 51.2036   5
   5  -2   1 1673.66 51.5667   1
   5  -2   1 1731.52 51.1400   5
  -6   2  -1 455.500 14.7792   2
  -6   2  -1 462.971 14.9683   1
  -6   2  -1 418.943 15.1015   1
   6  -2   1 457.471 15.2873   1
   6  -2   1 465.206 14.8579   5
   6  -2   1 441.999 14.7242   5
  -7   2  -1 976.176 30.3480   1
  -7   2  -1 971.271 30.1466   2
   7  -2   1 971.138 30.2553   5
   7  -2   1 975.908 30.2079   5
   7  -2   1 984.964 30.8204   1
  -8   2  -1 153.157 6.80589   2
  -8   2  -1 154.003 7.03340   1
   8  -2   1 146.243 6.82025   5
  -9   2  -1 79.5609 4.89417   2
  -9   2  -1 83.4016 5.15046   1
   9  -2   1 71.7552 4.97777   5
 -10   2  -1 10.9291 2.65148   1
 -10   2  -1 10.8030 2.05916   2
 -10  -1   1 410.533 16.4033   1
   9   1  -1 134.088 8.33298   1
  -9  -1   1 142.357 7.39868   2
  -9  -1   1 134.034 7.37674   1
   8   1  -1 242.996 10.8352   1
  -8  -1   1 252.657 10.5943   1
  -8  -1   1 261.266 10.7758   2
   7   1  -1 428.170 15.2567   5
   7   1  -1 435.502 15.8732   1
  -7  -1   1 451.299 15.7918   2
  -7  -1   1 435.598 15.5246   1
   6   1  -1 45.1273 3.02950   5
   6   1  -1 50.6389 3.57481   1
   6   1  -1 47.4199 3.16838   5
  -6  -1   1 44.8709 3.33958   2
  -6  -1   1 44.6378 3.02079   5
  -6  -1   1 46.9890 3.28948   1
   5   1  -1 84.4123 4.09073   5
   5   1  -1 93.8197 4.60668   1
   5   1  -1 78.0989 4.06577   5
  -5  -1   1 84.8928 4.31614   1
  -5  -1   1 85.8747 4.40878   1
  -5  -1   1 90.0570 4.11615   5
  -5  -1   1 85.0223 4.13898   5
   4   1  -1 1.17329 0.62100   5
   4   1  -1 0.30807 0.55013   5
   4   1  -1 -0.0749 0.57369   1
  -4  -1   1 0.30366 0.55185   1
  -4  -1   1 0.60610 0.53467   1
  -4  -1   1 -0.2641 0.57886   5
  -4  -1   1 -1.3207 0.38676   5
   3   1  -1 14.3740 1.47629   5
   3   1  -1 18.8526 1.85554   1
   3   1  -1 19.4764 2.06309   1
   3   1  -1 21.7430 1.95033   5
  -3  -1   1 15.8572 1.76148   1
  -3  -1   1 18.9694 1.82926   1
  -3  -1   1 16.6121 1.59901   5
  -3  -1   1 17.3947 1.64161   5
   2   1  -1 1903.82 54.1612   1
   2   1  -1 1869.03 54.1153   1
   2   1  -1 1928.76 53.9582   5
   2   1  -1 1811.92 53.8504   5
  -2  -1   1 1789.78 54.0563   1
  -2  -1   1 1843.46 53.8556   5
  -2  -1   1 1843.03 54.0718   1
  -2  -1   1 1912.42 53.9746   5
   1   1  -1 788.464 22.6952   5
   1   1  -1 763.954 22.8613   1
   1   1  -1 771.819 22.7383   5
   1   1  -1 799.087 22.8799   1
  -1  -1   1 770.810 22.8615   1
  -1  -1   1 776.655 22.7058   5
  -1  -1   1 759.236 22.8193   1
   0   1  -1 121.139 4.06372   1
   0   1  -1 119.101 3.93579   5
   0   1  -1 135.065 4.99534   4
   0   1  -1 124.453 3.90759   5
   0   1  -1 115.672 3.98895   1
   0  -1   1 118.790 4.05310   1
   0  -1   1 121.285 3.95741   5
   0  -1   1 116.556 3.99260   1
   0  -1   1 126.256 3.92869   5
  -1   1  -1 53.5125 2.09088   1
  -1   1  -1 53.3023 2.10736   2
  -1   1  -1 54.8605 1.99838   5
  -1   1  -1 55.4738 2.18193   1
  -1   1  -1 51.5631 2.01967   5
   1  -1   1 51.8356 2.04301   5
   1  -1   1 52.7203 2.01471   5
   1  -1   1 53.6818 2.16627   1
   1  -1   1 53.2788 2.08413   1
   1  -1   1 49.9702 2.09769   2
  -2   1  -1 266.882 8.39853   1
  -2   1  -1 273.521 8.30184   1
  -2   1  -1 267.231 8.27547   2
  -2   1  -1 272.732 8.16136   5
   2  -1   1 255.025 8.28473   2
   2  -1   1 260.184 8.17220   5
   2  -1   1 267.457 8.42055   1
   2  -1   1 261.785 8.28077   1
  -3   1  -1 2488.38 70.7189   1
  -3   1  -1 2434.20 70.4716   2
  -3   1  -1 2416.12 70.3194   5
  -3   1  -1 2489.30 71.4592   1
   3  -1   1 2446.51 70.5698   1
   3  -1   1 2450.33 70.6750   1
   3  -1   1 2487.66 70.3921   5
   3  -1   1 2346.74 70.5771   2
  -4   1  -1 785.076 24.1230   1
  -4   1  -1 806.217 24.3943   1
  -4   1  -1 794.010 24.1248   2
   4  -1   1 787.542 24.3093   2
   4  -1   1 801.493 24.0123   5
   4  -1   1 828.482 24.0257   5
   4  -1   1 790.083 24.3816   1
  -5   1  -1 534.169 17.4453   1
  -5   1  -1 544.538 17.1805   1
  -5   1  -1 539.931 17.2174   2
   5  -1   1 537.342 17.0417   5
   5  -1   1 551.793 17.0497   5
   5  -1   1 542.466 17.5104   1
  -6   1  -1 134.059 5.68329   1
  -6   1  -1 127.341 5.68888   2
  -6   1  -1 124.682 5.89619   1
   6  -1   1 132.604 6.00776   1
   6  -1   1 131.669 5.56578   5
   6  -1   1 126.933 5.54793   5
  -7   1  -1 10.3976 1.86409   2
  -7   1  -1 10.2251 1.85657   1
  -7   1  -1 12.6792 2.18675   1
   7  -1   1 10.4586 1.78878   5
   7  -1   1 13.6758 2.01523   5
   7  -1   1 13.5287 2.27741   1
  -8   1  -1 327.669 11.9000   2
  -8   1  -1 322.213 11.9352   1
   8  -1   1 308.208 12.2530   1
   8  -1   1 285.427 11.5022   5
  -9   1  -1 26.9605 3.33626   2
  -9   1  -1 26.0953 3.50314   1
 -10   1  -1 105.521 6.36287   1
 -10   1  -1 109.073 6.30167   2
 -10   0   1 68.8242 4.91247   2
 -10   0   1 73.8095 5.50614   1
  -9   0   1 191.464 9.00373   2
  -9   0   1 198.133 9.23756   1
   8   0  -1 92.0057 5.69220   1
   8   0  -1 79.6200 5.96510   5
  -8   0   1 100.362 5.59921   1
  -8   0   1 93.9532 5.42521   2
   7   0  -1 18.8459 2.82538   1
   7   0  -1 21.2105 2.79768   5
  -7   0   1 15.9784 2.52275   2
  -7   0   1 19.7979 2.57622   1
   6   0  -1 393.441 13.7850   1
   6   0  -1 389.437 13.2246   5
   6   0  -1 387.221 13.3028   5
  -6   0   1 364.568 12.8644   5
  -6   0   1 394.707 13.5747   2
  -6   0   1 374.207 13.6041   1
  -6   0   1 397.258 13.5059   1
   5   0  -1 1246.45 37.1584   5
   5   0  -1 1240.14 37.6190   1
   5   0  -1 1266.80 37.1164   5
  -5   0   1 1213.92 37.3549   1
  -5   0   1 1227.36 37.5170   1
  -5   0   1 1213.97 36.8782   5
  -5   0   1 1256.78 37.4419   2
   4   0  -1 151.742 5.67045   5
   4   0  -1 152.811 5.62896   5
   4   0  -1 141.702 5.82917   1
  -4   0   1 144.891 5.55168   5
  -4   0   1 147.247 5.46558   5
  -4   0   1 140.894 5.79957   1
  -4   0   1 147.754 5.77009   1
   3   0  -1 1565.31 44.9114   1
   3   0  -1 1476.93 44.7523   1
   3   0  -1 1548.09 44.6091   5
   3   0  -1 1526.43 44.5345   5
  -3   0   1 1469.19 44.7419   1
  -3   0   1 1531.56 44.8333   1
  -3   0   1 1504.01 44.4660   5
  -3   0   1 1598.37 44.6231   5
   2   0  -1 1574.39 46.0323   1
   2   0  -1 1590.24 45.8332   5
   2   0  -1 1591.03 46.0705   1
   2   0  -1 1594.69 45.9133   5
  -2   0   1 1570.60 46.0315   1
  -2   0   1 1653.98 45.9074   5
  -2   0   1 1573.85 45.8032   5
  -2   0   1 1526.11 45.9813   1
   1   0  -1 913.758 26.3815   1
   1   0  -1 887.599 26.2374   5
   1   0  -1 892.626 27.1862   1
   1   0  -1 922.352 26.2985   5
  -1   0   1 902.173 26.3578   1
  -1   0   1 881.890 26.3620   1
  -1   0   1 928.940 26.2722   5
  -1   0   1 915.585 26.2345   5
   0   0  -1 340.475 10.1452   2
   0   0  -1 334.019 10.0936   5
   0   0  -1 328.402 10.1616   1
   0   0  -1 341.405 10.1283   1
   0   0   1 329.134 10.0794   5
   0   0   1 350.818 10.0783   5
   0   0   1 337.713 10.1171   1
  -1   0  -1 4138.57 120.582   2
  -1   0  -1 4251.96 120.757   5
  -1   0  -1 4110.22 121.385   1
  -1   0  -1 4125.08 121.079   1
   1   0   1 4130.11 120.797   2
   1   0   1 4101.78 120.611   1
   1   0   1 4124.69 121.498   1
   1   0   1 4316.89 120.497   5
  -2   0  -1 2373.71 69.5142   5
  -2   0  -1 2275.41 69.9516   1
  -2   0  -1 2292.86 68.5314   2
  -2   0  -1 2366.91 69.6732   1
   2   0   1 2380.56 69.3703   1
   2   0   1 2367.13 68.0025   2
   2   0   1 2437.03 68.7350   5
   2   0   1 2415.69 68.8994   1
  -3   0  -1 864.494 24.3411   5
  -3   0  -1 797.817 24.3972   1
  -3   0  -1 819.869 24.5741   1
  -3   0  -1 819.075 24.4516   2
   3   0   1 772.737 24.3908   1
   3   0   1 852.050 24.3090   5
   3   0   1 792.603 24.5048   2
   3   0   1 831.765 24.5882   1
  -4   0  -1 355.619 11.7845   1
  -4   0  -1 367.270 11.6594   2
  -4   0  -1 355.589 11.5791   1
  -4   0  -1 346.669 11.3534   5
   4   0   1 330.941 11.3354   5
   4   0   1 352.238 11.6470   1
   4   0   1 355.134 11.7633   1
   4   0   1 366.176 11.4220   5
   4   0   1 357.082 11.7324   2
  -5   0  -1 -0.6483 0.45860   1
  -5   0  -1 0.71313 0.65019   1
  -5   0  -1 -1.1237 0.48101   2
   5   0   1 -0.3076 0.46256   5
   5   0   1 -0.3334 0.51502   5
   5   0   1 0.17526 0.71608   1
  -6   0  -1 120.958 5.82766   1
  -6   0  -1 131.372 5.67866   2
  -6   0  -1 128.269 5.61948   1
   6   0   1 116.245 5.71546   1
   6   0   1 123.197 5.39724   5
   6   0   1 119.007 5.33088   5
  -7   0  -1 1203.04 36.5575   1
  -7   0  -1 1261.37 36.6799   2
   7   0   1 990.475 35.8364   5
   7   0   1 1213.93 36.2500   5
   7   0   1 1253.84 37.0543   1
  -8   0  -1 275.221 10.8020   1
  -8   0  -1 285.812 10.9223   2
   8   0   1 265.165 10.4934   5
   8   0   1 256.268 11.0743   1
  -9   0  -1 24.0584 3.09778   2
  -9   0  -1 31.5127 3.81597   1
   9   0   1 27.6940 3.73258   1
 -10   0  -1 113.373 6.82442   2
 -10   0  -1 133.354 7.21429   1
 -10   1   1 45.3116 4.57624   2
 -10   1   1 38.9519 4.54183   1
  -9   1   1 143.525 7.49033   1
  -9   1   1 146.919 7.26194   2
   8  -1  -1 441.676 15.4046   5
  -8   1   1 420.998 15.5385   1
  -8   1   1 429.742 15.3375   2
   7  -1  -1 508.067 17.2116   5
   7  -1  -1 509.480 17.1661   5
   7  -1  -1 519.159 17.8581   1
  -7   1   1 505.388 17.2501   2
  -7   1   1 510.706 17.3972   1
   6  -1  -1 186.081 7.49430   5
   6  -1  -1 198.701 8.07650   1
   6  -1  -1 198.590 7.69357   5
  -6   1   1 203.775 7.79309   2
  -6   1   1 197.129 7.98908   1
  -6   1   1 186.404 7.70207   1
   5  -1  -1 10.0430 1.50861   5
   5  -1  -1 13.5072 1.89891   1
   5  -1  -1 11.5039 1.60443   5
  -5   1   1 11.2517 1.62436   2
  -5   1   1 8.36113 1.37948   1
  -5   1   1 12.2217 1.68173   1
   4  -1  -1 253.460 8.52173   5
   4  -1  -1 241.250 8.51568   5
   4  -1  -1 246.825 8.83240   1
  -4   1   1 244.990 8.25092   5
  -4   1   1 254.497 8.82379   1
  -4   1   1 262.097 8.73961   1
  -4   1   1 265.660 8.74445   2
   3  -1  -1 485.963 15.6981   1
   3  -1  -1 537.590 15.6012   5
   3  -1  -1 496.334 15.8058   1
   3  -1  -1 516.334 15.6049   5
  -3   1   1 502.166 15.3546   5
  -3   1   1 523.405 15.4722   5
  -3   1   1 510.877 15.7039   2
  -3   1   1 524.041 15.7379   1
  -3   1   1 510.037 15.8152   1
   2  -1  -1 515.924 15.2984   5
   2  -1  -1 522.533 15.3632   5
   2  -1  -1 505.030 15.4705   1
   2  -1  -1 514.603 15.5289   1
  -2   1   1 505.473 15.2142   5
  -2   1   1 528.858 15.1993   5
  -2   1   1 522.111 15.4232   2
  -2   1   1 526.261 15.5003   1
  -2   1   1 503.443 15.4542   1
   1  -1  -1 259.223 7.46364   5
   1  -1  -1 235.336 7.58063   1
   1  -1  -1 242.740 7.59852   1
   1  -1  -1 258.027 9.27495   4
  -1   1   1 247.422 7.58544   1
  -1   1   1 269.485 9.40135   4
   0  -1  -1 2122.88 60.9406   1
   0  -1  -1 2192.84 65.4846   4
   0  -1  -1 2088.44 61.1189   1
   0   1   1 2091.57 60.9402   1
   0   1   1 2036.12 60.8711   1
  -1  -1  -1 1730.54 49.8989   1
  -1  -1  -1 1671.04 49.7846   2
  -1  -1  -1 1690.99 50.0880   1
  -1  -1  -1 1750.86 50.2990   5
  -1  -1  -1 1694.93 49.5167   5
   1   1   1 1707.87 50.0372   1
   1   1   1 1756.83 50.0798   5
   1   1   1 1699.28 49.8222   2
   1   1   1 1751.65 49.9163   1
   1   1   1 1670.33 49.2430   5
  -2  -1  -1 113.230 4.08131   1
  -2  -1  -1 109.755 4.15095   1
  -2  -1  -1 113.604 4.14433   2
  -2  -1  -1 106.527 3.95792   5
   2   1   1 118.217 4.19831   1
   2   1   1 117.912 4.10658   1
   2   1   1 123.581 4.01561   5
   2   1   1 113.456 3.97606   5
  -3  -1  -1 585.852 18.0411   1
  -3  -1  -1 567.477 17.9332   2
  -3  -1  -1 609.192 17.7886   5
  -3  -1  -1 591.518 17.7247   5
  -3  -1  -1 579.041 17.8592   1
   3   1   1 611.368 17.7536   5
   3   1   1 574.706 17.9976   1
   3   1   1 574.502 17.6960   5
   3   1   1 573.666 17.9022   1
  -4  -1  -1 361.224 11.9718   1
  -4  -1  -1 364.419 11.8045   1
  -4  -1  -1 370.742 11.6566   5
  -4  -1  -1 367.794 11.9184   2
  -4  -1  -1 353.645 11.5485   5
   4   1   1 347.757 11.8077   1
   4   1   1 343.587 11.5225   5
   4   1   1 348.058 11.9179   1
   4   1   1 364.343 11.5935   5
  -5  -1  -1 339.080 11.9987   1
  -5  -1  -1 346.017 11.8816   2
  -5  -1  -1 338.817 11.5348   5
  -5  -1  -1 350.751 11.7966   1
  -5  -1  -1 340.528 11.4433   5
   5   1   1 344.959 12.0032   1
   5   1   1 340.379 11.5342   5
   5   1   1 350.038 11.5481   5
  -6  -1  -1 90.1347 4.71151   2
  -6  -1  -1 95.1149 4.38477   5
  -6  -1  -1 90.9890 4.63847   1
   6   1   1 90.1487 4.39352   5
   6   1   1 92.0473 4.86401   1
   6   1   1 84.9765 4.34486   5
  -7  -1  -1 6.69416 1.59582   1
  -7  -1  -1 11.6355 2.29689   2
   7   1   1 7.09033 1.54562   5
   7   1   1 6.32036 1.76717   1
   7   1   1 7.73957 1.62134   5
  -8  -1  -1 75.3099 4.66749   1
  -8  -1  -1 66.0358 4.57785   2
   8   1   1 69.4850 4.82823   1
  -9  -1  -1 88.4403 5.62246   1
  -9  -1  -1 96.3626 5.63486   2
   9   1   1 89.3413 5.93531   1
 -10  -1  -1 14.8230 2.83351   1
  -9   2   1 293.077 11.5288   2
  -9   2   1 306.691 12.0470   1
   8  -2  -1 4.85916 1.63022   5
  -8   2   1 4.21326 1.50814   1
  -8   2   1 4.70574 1.52416   2
   7  -2  -1 305.783 11.2576   5
   7  -2  -1 307.646 11.3605   5
   7  -2  -1 311.614 11.8835   1
  -7   2   1 312.224 11.2568   2
  -7   2   1 319.098 11.5267   1
   6  -2  -1 1536.20 44.6946   5
   6  -2  -1 1549.13 45.2156   1
   6  -2  -1 1452.97 44.5168   5
  -6   2   1 1469.51 44.7325   1
  -6   2   1 1503.76 45.0218   1
  -6   2   1 1449.22 44.4502   2
   5  -2  -1 278.560 9.45485   5
   5  -2  -1 292.176 9.95289   1
   5  -2  -1 274.086 9.48426   5
  -5   2   1 264.220 9.73200   1
  -5   2   1 276.385 9.40555   2
  -5   2   1 271.315 9.59160   1
   4  -2  -1 32.4931 1.96073   5
   4  -2  -1 34.6723 2.00723   5
   4  -2  -1 30.7353 2.08680   1
  -4   2   1 31.2100 1.97640   1
  -4   2   1 33.4888 2.10816   1
  -4   2   1 31.3441 1.88385   2
   3  -2  -1 335.168 11.3795   1
   3  -2  -1 363.268 11.2716   5
   3  -2  -1 355.212 11.5039   1
   3  -2  -1 381.717 11.2623   5
  -3   2   1 372.286 11.3946   1
  -3   2   1 365.023 11.2025   2
  -3   2   1 383.671 15.6380   4
   2  -2  -1 607.247 18.3896   1
   2  -2  -1 601.830 18.3403   1
  -2   2   1 635.207 18.3173   1
  -2   2   1 621.547 18.3562   1
  -2   2   1 653.143 22.2445   4
   1  -2  -1 2121.88 64.4668   4
  -1   2   1 2154.25 64.5177   4
   0  -2  -1 3685.51 103.631   4
   0   2   1 3203.90 104.736   4
  -1  -2  -1 1059.41 30.8197   1
  -1  -2  -1 1037.71 30.6832   5
  -1  -2  -1 1026.55 30.8796   1
  -1  -2  -1 1122.86 30.6965   5
   1   2   1 1075.60 30.8849   1
  -2  -2  -1 1898.92 54.4729   1
  -2  -2  -1 1852.76 54.5682   1
  -2  -2  -1 1780.02 54.2748   5
  -2  -2  -1 1943.45 54.3545   5
   2   2   1 1969.49 54.2892   5
   2   2   1 1864.64 54.2573   5
   2   2   1 1900.04 54.5917   1
   2   2   1 1858.44 54.4858   1
  -3  -2  -1 95.4154 3.94152   2
  -3  -2  -1 91.8779 3.81409   1
  -3  -2  -1 84.6863 3.61554   5
  -3  -2  -1 91.6416 3.94302   1
   3   2   1 94.2770 3.66413   5
   3   2   1 94.5106 3.96201   1
   3   2   1 94.4716 3.89552   1
   3   2   1 88.3801 3.63712   5
  -4  -2  -1 152.329 6.01521   1
  -4  -2  -1 156.495 5.87999   5
  -4  -2  -1 163.423 6.23319   2
  -4  -2  -1 155.824 5.90248   5
  -4  -2  -1 147.843 6.18272   1
   4   2   1 154.299 6.11808   1
   4   2   1 155.165 5.83790   5
   4   2   1 156.304 5.83402   5
   4   2   1 154.878 6.21700   1
  -5  -2  -1 13.3055 1.70020   5
  -5  -2  -1 11.9199 1.67973   1
  -5  -2  -1 12.1806 1.84707   2
  -5  -2  -1 8.82168 1.43086   5
   5   2   1 7.81542 1.32550   5
   5   2   1 14.1163 1.98615   1
   5   2   1 10.5033 1.52654   5
  -6  -2  -1 340.707 11.9990   5
  -6  -2  -1 331.664 11.8900   5
  -6  -2  -1 340.219 12.2535   1
  -6  -2  -1 347.595 12.4754   2
   6   2   1 340.401 12.5274   1
   6   2   1 347.319 12.0231   5
   6   2   1 349.719 11.9716   5
  -7  -2  -1 64.2419 4.27605   2
  -7  -2  -1 57.7191 4.02594   1
   7   2   1 62.3630 4.31911   1
   7   2   1 65.3918 3.87861   5
  -8  -2  -1 27.3467 3.25427   1
  -8  -2  -1 27.4609 3.59216   2
   8   2   1 27.6149 3.72264   1
  -9  -2  -1 79.9170 5.39799   1
   9   2   1 74.8945 6.70304   1
 -10  -2  -1 251.552 11.4947   1
  10   2   1 262.927 12.0176   1
   9  -3  -1 118.868 6.46046   5
  -9   3   1 126.305 6.01551   2
  -9   3   1 111.168 12.4244   4
  -9   3   1 131.917 6.58945   1
   8  -3  -1 36.9970 3.59345   5
  -8   3   1 43.3296 3.19467   2
  -8   3   1 52.1949 9.70875   4
  -8   3   1 43.1332 3.82456   1
   7  -3  -1 469.375 15.6272   5
   7  -3  -1 480.675 15.6450   5
  -7   3   1 440.426 23.5143   4
  -7   3   1 450.216 15.4829   1
  -7   3   1 455.049 15.0139   2
   6  -3  -1 55.8584 3.23368   5
   6  -3  -1 55.7560 3.27981   5
   6  -3  -1 50.3782 3.38626   1
  -6   3   1 55.8591 3.24332   1
  -6   3   1 56.3777 2.96792   2
  -6   3   1 54.3634 3.37410   1
  -6   3   1 58.8108 7.53449   4
   5  -3  -1 286.610 9.61754   5
   5  -3  -1 279.477 9.55509   5
   5  -3  -1 276.534 9.92517   1
  -5   3   1 292.990 15.8406   4
  -5   3   1 279.943 9.64602   1
   4  -3  -1 648.364 19.5164   5
   4  -3  -1 659.340 19.4907   5
   4  -3  -1 652.361 19.8558   1
  -4   3   1 613.587 19.5195   1
  -4   3   1 657.973 26.2243   4
  -4   3   1 640.680 19.7292   1
   3  -3  -1 510.418 15.4514   1
  -3   3   1 497.349 15.2192   1
  -3   3   1 519.820 15.3697   1
  -3   3   1 500.681 20.6854   4
  -2   3   1 940.680 32.7296   4
   1  -3  -1 93.2934 6.23718   4
  -1   3   1 97.3448 6.48208   4
   0  -3  -1 1042.59 34.4231   4
   0   3   1 1038.86 33.9863   4
  -1  -3  -1 890.943 25.8661   1
  -1  -3  -1 950.447 25.7140   5
  -1  -3  -1 860.807 25.9305   1
  -1  -3  -1 876.788 25.6821   5
  -1  -3  -1 900.338 29.7509   4
   1   3   1 852.804 25.8581   1
   1   3   1 872.335 25.9145   1
  -2  -3  -1 18.1110 1.27041   5
  -2  -3  -1 17.9865 1.38360   1
  -2  -3  -1 17.7437 1.31153   1
  -2  -3  -1 17.3318 1.21745   5
   2   3   1 18.9573 1.41724   1
   2   3   1 16.9010 1.11413   5
   2   3   1 15.4898 1.45990   1
   2   3   1 17.6043 1.09820   5
  -3  -3  -1 285.534 9.65230   1
  -3  -3  -1 296.376 9.51358   5
  -3  -3  -1 283.069 9.48430   5
   3   3   1 289.725 9.80853   1
   3   3   1 278.606 9.32408   5
   3   3   1 298.498 9.76266   1
   3   3   1 287.493 9.36195   5
  -4  -3  -1 19.4061 2.07307   1
  -4  -3  -1 17.4167 1.78830   5
   4   3   1 18.0699 2.08474   1
   4   3   1 15.4872 1.66917   5
   4   3   1 20.4830 1.97214   5
   4   3   1 18.0509 1.98548   1
  -5  -3  -1 7.17719 1.49118   2
  -5  -3  -1 8.24228 1.51359   5
  -5  -3  -1 7.71285 1.48088   1
  -5  -3  -1 7.14804 1.33688   5
   5   3   1 6.62625 1.45484   1
   5   3   1 10.3912 1.52422   5
   5   3   1 6.11809 1.24303   5
   5   3   1 7.28252 1.53302   1
  -6  -3  -1 -0.0387 0.88341   2
  -6  -3  -1 1.58881 1.00222   5
  -6  -3  -1 3.27146 1.22129   5
  -6  -3  -1 0.16225 0.88075   1
   6   3   1 -0.8787 0.76437   5
   6   3   1 1.34305 0.78324   5
   6   3   1 3.31298 1.39011   1
  -7  -3  -1 141.791 6.76484   1
  -7  -3  -1 131.161 6.79865   2
   7   3   1 141.864 7.05513   1
  -8  -3  -1 526.818 18.5828   1
   8   3   1 512.208 18.8902   1
  -9  -3  -1 126.412 7.17849   1
   9   3   1 122.534 7.27995   1
 -10  -3  -1 62.5574 6.28565   1
  10   3   1 67.1126 6.67683   1
   9  -4  -1 3.74191 1.63362   5
  -9   4   1 2.20590 3.61775   4
  -9   4   1 3.62884 1.55444   1
   8  -4  -1 154.942 7.00525   5
  -8   4   1 144.770 14.0356   4
  -8   4   1 151.083 6.76415   1
   7  -4  -1 312.354 11.2972   5
   7  -4  -1 322.445 11.3968   5
  -7   4   1 319.331 11.2268   1
  -7   4   1 302.595 19.7641   4
   6  -4  -1 495.564 16.0041   5
   6  -4  -1 477.000 15.9586   5
  -6   4   1 505.090 15.9257   1
  -6   4   1 497.170 25.0178   4
   5  -4  -1 53.7744 2.87163   5
   5  -4  -1 61.8640 2.94748   5
   5  -4  -1 55.3066 3.09753   1
  -5   4   1 50.9068 2.89946   1
  -5   4   1 53.0979 7.01030   4
  -5   4   1 57.2127 2.82323   1
   4  -4  -1 596.513 17.8259   5
   4  -4  -1 573.753 18.0856   1
  -4   4   1 590.523 17.9635   1
  -4   4   1 587.498 17.7702   1
  -4   4   1 607.321 25.6653   4
  -3   4   1 29.6731 5.78339   4
  -2   4   1 142.588 9.33516   4
  -1   4   1 166.873 9.80499   4
   0   4   1 235.440 11.5359   4
  -1  -4  -1 1277.43 36.4734   1
  -1  -4  -1 1225.55 36.5104   1
   1   4   1 1256.13 36.4743   1
   1   4   1 1255.00 36.4617   1
  -2  -4  -1 65.3940 2.78258   5
  -2  -4  -1 63.4456 2.92502   1
  -2  -4  -1 64.1961 2.76183   5
   2   4   1 65.4077 3.00507   1
   2   4   1 66.6428 2.98746   1
  -3  -4  -1 89.6702 3.92190   1
  -3  -4  -1 81.5268 3.70529   5
  -3  -4  -1 84.5806 3.70568   5
   3   4   1 88.6348 4.02106   1
   3   4   1 89.5108 3.97223   1
   3   4   1 87.2437 3.54639   5
  -4  -4  -1 22.5024 2.24468   1
  -4  -4  -1 20.8624 2.12086   5
  -4  -4  -1 20.8593 2.07712   5
   4   4   1 23.3389 2.08009   5
   4   4   1 22.3471 2.38447   1
   4   4   1 24.5737 2.42690   1
  -5  -4  -1 197.038 7.53814   5
  -5  -4  -1 186.872 7.49065   5
  -5  -4  -1 200.612 7.81967   1
  -5  -4  -1 182.232 7.82311   2
   5   4   1 192.984 7.87699   1
   5   4   1 204.431 8.06963   1
   5   4   1 184.842 7.28259   5
  -6  -4  -1 41.4479 3.15545   5
  -6  -4  -1 45.4019 3.45166   1
  -6  -4  -1 42.9658 3.14836   5
  -6  -4  -1 40.1356 3.91379   2
   6   4   1 43.4642 2.96333   5
   6   4   1 42.9651 3.86478   1
  -7  -4  -1 113.975 6.06015   1
   7   4   1 110.044 6.24602   1
  -8  -4  -1 531.866 19.3336   1
   8   4   1 560.100 19.9760   1
  -9  -4  -1 5.54038 2.09218   1
   9   4   1 1.86248 1.94470   1
 -10  -4  -1 7.97861 2.52917   1
  10   4   1 7.07493 2.62510   1
   8  -5  -1 77.6588 4.59991   5
  -8   5   1 61.2655 11.4814   4
  -8   5   1 75.3182 4.21782   1
   7  -5  -1 41.0962 2.98159   5
   7  -5  -1 35.3586 3.23550   5
  -7   5   1 28.4771 7.46582   4
  -7   5   1 37.1752 2.65256   1
   6  -5  -1 460.409 15.0065   5
   6  -5  -1 454.492 15.0053   5
  -6   5   1 462.191 14.7072   1
  -6   5   1 468.416 24.9826   4
   5  -5  -1 2.16182 0.96746   5
   5  -5  -1 2.16580 0.87882   5
  -5   5   1 3.39792 2.97201   4
  -4   5   1 19.3075 5.03590   4
  -3   5   1 470.080 21.9496   4
  -2   5   1 0.28910 1.69130   4
  -1   5   1 1.14705 1.43517   4
   0   5   1 53.6562 5.48483   4
  -1  -5  -1 69.8028 2.88334   1
   1   5   1 68.5532 2.86039   1
   1   5   1 67.8519 2.85299   1
  -2  -5  -1 784.866 24.0717   5
  -2  -5  -1 816.590 24.3534   1
  -2  -5  -1 801.667 24.0847   5
   2   5   1 821.108 24.4003   1
  -3  -5  -1 330.552 11.1235   1
  -3  -5  -1 309.639 10.8214   5
  -3  -5  -1 326.580 10.8692   5
   3   5   1 330.214 11.1904   1
   3   5   1 346.491 11.2992   1
  -4  -5  -1 83.5624 4.15393   5
  -4  -5  -1 86.9487 4.35106   1
  -4  -5  -1 86.5848 4.19993   5
   4   5   1 94.1602 4.62477   1
   4   5   1 88.6949 4.48847   1
  -5  -5  -1 1256.99 39.7506   5
  -5  -5  -1 1321.59 40.0761   1
  -5  -5  -1 1359.76 39.7832   5
   5   5   1 1293.16 40.2132   1
   5   5   1 1338.77 40.3853   1
  -6  -5  -1 220.875 9.07264   1
  -6  -5  -1 217.647 8.80426   5
   6   5   1 214.323 9.34166   1
  -7  -5  -1 11.5824 2.32528   1
   7   5   1 9.80673 2.18527   1
  -8  -5  -1 1.79155 1.55455   1
   8   5   1 5.54314 2.16207   1
  -9  -5  -1 1.03756 1.46872   1
   9   5   1 -0.8028 1.64254   1
   8  -6  -1 3.28495 1.52106   5
  -8   6   1 0.77787 3.98908   4
   7  -6  -1 3.14000 1.40227   5
   7  -6  -1 3.39863 1.31752   5
  -7   6   1 0.64900 3.17965   4
   6  -6  -1 -1.0264 0.69751   5
   6  -6  -1 0.60344 0.72703   5
  -6   6   1 -1.0823 2.48748   4
  -5   6   1 394.988 22.6457   4
  -4   6   1 75.5000 8.79852   4
  -3   6   1 2.12577 2.92104   4
  -2   6   1 1548.47 54.7033   4
  -1   6   1 12.1766 3.77066   4
   0  -6  -1 1.15183 1.26142   3
  -1  -6  -1 2.19427 0.65351   1
  -2  -6  -1 400.806 12.6257   5
  -2  -6  -1 389.451 12.6276   5
  -2  -6  -1 396.734 12.8533   1
   2   6   1 389.080 12.8262   1
   2   6   1 407.501 12.9301   1
  -3  -6  -1 727.424 22.3386   5
  -3  -6  -1 709.444 22.2594   5
  -3  -6  -1 719.709 22.5538   1
   3   6   1 737.182 22.7303   1
   3   6   1 721.288 22.6314   1
  -4  -6  -1 55.6999 3.32659   5
  -4  -6  -1 55.3332 3.42678   1
  -4  -6  -1 53.0084 3.28597   5
   4   6   1 48.1449 3.40163   1
   4   6   1 56.0725 3.63518   1
  -5  -6  -1 4.29583 1.43163   1
  -5  -6  -1 7.71392 1.66130   5
  -5  -6  -1 6.68637 1.64349   5
   5   6   1 10.3560 2.07594   1
  -6  -6  -1 4.18626 1.73121   5
  -6  -6  -1 7.34476 1.86375   1
   6   6   1 7.94899 2.08557   1
  -7  -6  -1 2.66516 1.47523   1
   7   6   1 0.52015 1.31546   1
   8   6   1 -1.2508 1.41691   1
   9   6   1 203.516 10.5538   1
   7  -7  -1 78.2604 4.48222   5
   7  -7  -1 77.2342 4.32860   5
  -7   7   1 74.0234 13.7321   4
   6  -7  -1 23.9013 2.34426   5
  -6   7   1 19.4617 6.90286   4
  -5   7   1 352.614 22.2089   4
  -4   7   1 73.4955 9.62171   4
  -3   7   1 3.05979 3.22323   4
  -2   7   1 -1.7496 1.95680   4
  -1   7   1 328.111 18.2026   4
   0  -7  -1 49.2590 4.91359   3
  -1  -7  -1 49.0799 2.50915   1
  -2  -7  -1 102.867 4.31924   5
  -2  -7  -1 99.0186 4.27638   5
  -2  -7  -1 98.0334 4.36331   1
   2   7   1 100.921 4.46863   1
   2   7   1 95.7706 4.36231   1
  -3  -7  -1 355.304 12.1237   5
  -3  -7  -1 345.640 11.9882   5
  -3  -7  -1 354.206 12.2471   1
   3   7   1 371.429 12.4617   1
  -4  -7  -1 6.88933 1.54400   5
  -4  -7  -1 6.69649 1.59661   5
  -4  -7  -1 9.53611 1.88934   1
   4   7   1 11.9508 2.13120   1
  -5  -7  -1 43.6092 3.79753   5
   5   7   1 36.6517 3.82280   1
  -6  -7  -1 43.3104 4.22927   5
   6   7   1 39.3633 4.19998   1
   7   7   1 416.841 16.2513   1
   8   7   1 79.0011 6.03549   1
  -6   8   1 98.5483 13.1174   4
  -5   8   1 32.4726 8.55859   4
  -4   8   1 103.056 11.8535   4
  -3   8   1 2.04154 2.87733   4
  -2   8   1 25.7349 6.35577   4
  -1   8   1 223.221 15.3920   4
   0  -8  -1 245.282 12.7624   3
  -1  -8  -1 150.359 5.64168   5
  -2  -8  -1 -0.3666 0.75306   5
  -2  -8  -1 -0.4342 0.76465   5
   2   8   1 1.06915 0.78755   1
  -3  -8  -1 6.46812 1.48298   5
  -3  -8  -1 5.54568 1.44702   5
   3   8   1 5.96249 1.46616   1
  -4  -8  -1 70.6548 4.26274   5
  -4  -8  -1 73.9983 4.40394   5
   4   8   1 77.2546 4.59029   1
  -5  -8  -1 245.721 9.91108   5
   5   8   1 248.927 10.3507   1
  -6  -8  -1 497.336 17.6186   5
   6   8   1 500.040 18.2925   1
   7   8   1 23.0686 3.66600   1
  -5   9   1 10.8684 5.98134   4
  -4   9   1 6.61475 4.83662   4
  -3   9   1 37.1982 8.52494   4
  -2   9   1 187.031 15.3986   4
   1  -9  -1 64.4667 6.51841   3
   0  -9  -1 9.73898 3.19969   3
  -1  -9  -1 7.11429 1.31592   5
  -1  -9  -1 3.70548 1.17176   5
  -2  -9  -1 114.910 5.10871   5
  -2  -9  -1 104.150 5.06622   5
  -3  -9  -1 58.4616 3.66014   5
  -3  -9  -1 56.6819 3.79380   5
   3   9   1 51.5237 3.58347   1
  -4  -9  -1 4.78387 1.64526   5
   4   9   1 2.18239 1.32097   1
  -5  -9  -1 95.9941 5.65231   5
   5   9   1 94.3196 5.76021   1
   6   9   1 154.895 8.20772   1
  -4  10   1 -0.8196 3.70411   4
  -3  10   1 21.0739 6.85573   4
  -1 -10  -1 1.48824 1.10597   5
  -2 -10  -1 146.004 6.43135   5
  -2 -10  -1 154.333 6.74611   5
  -3 -10  -1 50.9591 3.75849   5
   3  10   1 52.2548 3.60214   1
  -4 -10  -1 1.24475 1.36121   5
   4  10   1 -0.9707 1.24585   1
  -5 -10  -1 3.18953 1.86702   5
   5  10   1 0.43087 1.33524   1
  -1 -11  -1 236.888 8.97394   5
  -2 -11  -1 39.1136 3.60344   5
  -2 -11  -1 32.5767 3.31731   5
   3  10  -2 23.5775 3.55507   1
  -3 -10   2 19.4394 3.21455   5
   2  10  -2 180.311 8.04358   1
  -2 -10   2 160.167 7.76984   5
   1  10  -2 180.428 7.79556   1
  -1 -10   2 177.477 7.86838   5
   0 -10   2 86.9639 4.89231   5
   0 -10   2 80.2898 5.99650   5
   1 -10   2 43.3599 3.64967   5
   1 -10   2 37.5643 3.65824   5
  -2  10  -2 17.1933 6.55053   4
   2 -10   2 19.6586 2.43613   5
   2 -10   2 18.2323 2.55585   5
  -3  10  -2 21.5036 7.63206   4
   3 -10   2 23.6688 2.83278   5
   3 -10   2 20.0032 2.38915   5
   5   9  -2 6.78148 2.54986   1
   4   9  -2 93.0952 5.93383   1
  -4  -9   2 84.0124 5.67384   5
   3   9  -2 67.9091 4.84509   1
  -3  -9   2 72.0091 4.81643   5
   2   9  -2 71.8302 4.70502   1
  -2  -9   2 68.2816 4.44313   5
   1   9  -2 101.495 5.23817   1
  -1  -9   2 96.0643 5.22613   5
  -1  -9   2 92.4449 5.03537   5
   0   9  -2 50.6622 3.40182   1
   0  -9   2 48.0169 3.41513   5
   0  -9   2 49.7445 3.69270   5
  -1   9  -2 27.0085 7.13295   4
   1  -9   2 24.1508 2.68160   5
   1  -9   2 22.9967 2.48872   5
  -2   9  -2 70.8438 11.4513   4
   2  -9   2 79.4558 4.08739   5
   2  -9   2 79.4342 4.31972   5
  -3   9  -2 76.3040 12.4364   4
   3  -9   2 102.186 4.87489   5
   3  -9   2 97.2618 4.61312   5
  -4   9  -2 108.965 13.2374   4
   4  -9   2 112.058 5.11526   5
  -5   9  -2 63.9788 12.8561   4
   5  -9   2 65.9248 3.93193   5
   6   8  -2 9.21503 2.82693   1
   5   8  -2 0.63048 1.51405   1
   4   8  -2 240.228 10.3169   1
  -4  -8   2 221.269 9.56822   5
   3   8  -2 19.4684 2.81092   1
  -3  -8   2 18.1274 2.62241   5
   2   8  -2 88.6731 5.10281   1
  -2  -8   2 93.2219 4.91567   5
  -2  -8   2 96.0638 5.06914   5
   1   8  -2 2.70261 1.28480   1
  -1  -8   2 2.64045 1.23260   5
  -1  -8   2 3.82888 1.34412   5
   0   8  -2 4.20422 1.32087   1
   0  -8   2 4.90220 1.34051   5
   0  -8   2 5.89059 1.57398   5
  -1   8  -2 572.443 18.0693   1
  -1   8  -2 524.443 26.7920   4
   1  -8   2 571.194 18.0559   5
   1  -8   2 591.321 18.2521   5
  -2   8  -2 1299.58 52.2130   4
   2  -8   2 1387.83 40.7378   5
   2  -8   2 1403.18 40.8161   5
  -3   8  -2 -0.6253 2.86492   4
   3  -8   2 -1.1643 0.81429   5
   3  -8   2 -1.5455 0.83196   5
  -4   8  -2 3.29050 3.45377   4
   4  -8   2 2.38779 1.09855   5
  -5   8  -2 8.54358 5.48294   4
   5  -8   2 16.4051 2.10750   5
  -6   8  -2 45.6147 10.6883   4
   6  -8   2 54.7859 3.62832   5
   7   7  -2 40.2657 4.90947   1
   6   7  -2 42.3408 4.98201   1
   5   7  -2 42.5434 4.60134   1
   4   7  -2 2.68962 1.54403   1
  -4  -7   2 4.32085 1.51268   5
   3   7  -2 14.4452 2.42744   1
  -3  -7   2 16.9950 2.44575   5
  -3  -7   2 18.4216 2.45494   5
   2   7  -2 84.5342 4.63653   1
  -2  -7   2 72.6328 4.22243   5
  -2  -7   2 73.7569 4.49801   1
  -2  -7   2 82.0318 4.29789   5
   1   7  -2 1193.74 35.8337   1
  -1  -7   2 1186.55 35.5808   5
  -1  -7   2 1160.77 35.3917   5
  -1  -7   2 1149.85 35.7986   1
   0   7  -2 19.6633 5.10754   4
   0   7  -2 19.7220 2.25336   1
   0   7  -2 19.6985 2.23133   1
   0  -7   2 17.5230 2.01930   5
   0  -7   2 19.7257 2.34354   1
   0  -7   2 21.9062 2.15745   5
  -1   7  -2 76.6132 3.89629   1
  -1   7  -2 74.6498 8.28212   4
  -1   7  -2 88.5299 4.01508   1
   1  -7   2 84.8580 3.84225   5
   1  -7   2 86.8020 4.02606   5
  -2   7  -2 475.502 24.0754   4
  -2   7  -2 440.504 14.5616   1
   2  -7   2 461.978 14.5477   5
   2  -7   2 457.427 14.6717   5
  -3   7  -2 0.54607 2.55365   4
   3  -7   2 1.36576 0.89415   5
   3  -7   2 1.39042 0.89350   5
  -4   7  -2 33.1877 8.34041   4
   4  -7   2 32.6177 2.39034   5
  -5   7  -2 23.1167 7.16283   4
   5  -7   2 21.9715 2.22986   5
  -6   7  -2 399.682 25.9060   4
   6  -7   2 422.184 14.0131   5
  -7   7  -2 182.556 18.1968   4
   7  -7   2 211.625 8.29314   5
   8   6  -2 218.876 11.1081   1
   7   6  -2 56.3324 5.79143   1
  -7  -6   2 56.0154 5.61793   1
   6   6  -2 2.25939 1.56757   1
  -6  -6   2 4.23047 1.48294   1
   5   6  -2 23.3601 3.28899   1
  -5  -6   2 30.1273 3.29379   5
  -5  -6   2 26.9387 3.41004   1
   4   6  -2 474.467 16.9912   1
  -4  -6   2 480.292 16.8722   1
  -4  -6   2 482.407 16.3752   5
   3   6  -2 264.437 10.1320   1
   3   6  -2 251.203 12.6745   1
  -3  -6   2 249.861 9.51553   5
  -3  -6   2 255.376 9.97992   1
  -3  -6   2 246.254 9.59356   5
   2   6  -2 0.58705 0.99290   1
   2   6  -2 1.79364 0.97553   1
  -2  -6   2 1.12698 0.96121   1
  -2  -6   2 2.22841 1.00224   5
  -2  -6   2 1.33600 0.94079   5
   1   6  -2 207.378 8.08111   1
   1   6  -2 213.018 8.08569   1
  -1  -6   2 197.943 7.98241   1
  -1  -6   2 213.841 7.81499   5
  -1  -6   2 218.213 7.74078   5
   0   6  -2 157.337 10.5089   4
   0   6  -2 139.073 5.74458   1
   0  -6   2 126.249 5.67844   1
   0  -6   2 145.545 5.55395   5
   0  -6   2 148.583 5.66553   5
  -1   6  -2 74.3923 3.60312   1
  -1   6  -2 78.8411 3.71082   1
  -1   6  -2 81.0920 7.96958   4
   1  -6   2 77.9599 3.74079   1
   1  -6   2 76.0685 3.45727   5
   1  -6   2 74.9922 3.57602   5
  -2   6  -2 608.691 27.5358   4
  -2   6  -2 656.691 19.6252   1
  -2   6  -2 625.384 19.5940   1
   2  -6   2 647.868 19.4037   5
   2  -6   2 658.361 19.5371   5
   2  -6   2 606.766 19.6991   1
  -3   6  -2 1902.58 54.9867   1
  -3   6  -2 1832.52 55.0456   1
  -3   6  -2 1907.17 66.2142   4
   3  -6   2 1920.74 55.0126   5
   3  -6   2 1849.58 55.2858   1
   3  -6   2 1887.83 54.8989   5
  -4   6  -2 170.995 6.13260   1
  -4   6  -2 151.403 12.9845   4
  -4   6  -2 163.302 6.21082   1
   4  -6   2 153.552 6.04297   5
  -5   6  -2 146.857 5.71450   1
  -5   6  -2 148.361 13.3924   4
   5  -6   2 139.183 5.74864   5
  -6   6  -2 17.8211 1.94867   1
  -6   6  -2 12.9321 5.53043   4
   6  -6   2 21.3809 2.29044   5
  -7   6  -2 31.0650 2.86026   1
   7  -6   2 24.1728 2.74027   5
   7  -6   2 33.2148 3.09108   5
  -8   6  -2 23.5059 8.53576   4
  -8   6  -2 26.1309 2.82567   1
   8  -6   2 21.0077 2.69815   5
   8   5  -2 30.2285 4.39365   1
  -8  -5   2 31.9458 4.16547   1
   7   5  -2 238.381 11.0090   1
  -7  -5   2 234.817 10.6220   1
   6   5  -2 21.4766 3.19155   1
  -6  -5   2 25.7588 3.49275   1
   5   5  -2 394.460 14.8410   1
  -5  -5   2 404.986 14.1637   5
  -5  -5   2 389.969 14.5337   1
   4   5  -2 893.449 28.6244   1
   4   5  -2 898.104 28.6059   1
  -4  -5   2 863.592 28.0748   5
  -4  -5   2 887.736 27.8979   5
  -4  -5   2 920.809 28.4990   1
   3   5  -2 915.942 27.8625   1
   3   5  -2 829.471 27.5953   1
  -3  -5   2 881.962 27.4065   5
  -3  -5   2 909.044 27.7410   1
  -3  -5   2 862.318 27.1891   5
   2   5  -2 15.9420 2.14702   1
   2   5  -2 12.2056 1.85822   1
  -2  -5   2 15.7823 1.90253   5
  -2  -5   2 11.0688 1.65207   5
  -2  -5   2 14.2154 1.96310   1
   1   5  -2 161.190 6.63128   1
   1   5  -2 167.875 6.66924   1
  -1  -5   2 183.083 6.57059   5
  -1  -5   2 174.569 6.42444   5
  -1  -5   2 167.938 6.68675   1
   0   5  -2 1099.38 34.4034   1
   0   5  -2 1174.14 34.4398   1
   0   5  -2 1171.53 39.8186   4
   0  -5   2 1167.79 34.2211   5
   0  -5   2 1154.90 34.0764   5
   0  -5   2 1142.97 34.5039   1
  -1   5  -2 733.896 28.4636   4
  -1   5  -2 709.342 21.9889   1
  -1   5  -2 710.349 22.0039   1
   1  -5   2 731.989 21.6851   5
   1  -5   2 722.619 22.1150   1
   1  -5   2 717.020 21.8167   5
  -2   5  -2 303.044 16.0773   4
  -2   5  -2 293.975 9.56918   1
  -2   5  -2 279.471 9.60853   1
   2  -5   2 286.354 9.75994   1
   2  -5   2 281.962 9.34643   5
   2  -5   2 293.683 9.48250   5
  -3   5  -2 4.48472 1.03225   1
  -3   5  -2 4.88632 2.88860   4
  -3   5  -2 3.81162 0.90932   1
   3  -5   2 4.90384 0.99699   5
   3  -5   2 4.35441 0.87081   5
   3  -5   2 3.02711 0.92911   1
  -4   5  -2 257.875 9.25091   1
  -4   5  -2 269.262 16.7696   4
  -4   5  -2 277.263 9.12456   1
   4  -5   2 256.481 9.33600   1
   4  -5   2 274.756 9.03131   5
  -5   5  -2 192.186 7.72202   1
  -5   5  -2 216.407 15.5414   4
  -5   5  -2 212.319 7.56754   1
   5  -5   2 209.614 7.56221   5
   5  -5   2 210.091 8.34436   1
  -6   5  -2 35.0689 2.53935   1
  -6   5  -2 36.2214 8.35745   4
   6  -5   2 34.4652 2.59260   5
  -7   5  -2 15.1221 5.90994   4
  -7   5  -2 15.3612 2.07473   1
   7  -5   2 19.3167 2.46622   5
   7  -5   2 19.8658 2.44595   5
  -8   5  -2 108.497 5.44183   1
  -8   5  -2 97.1243 12.8740   4
   8  -5   2 117.981 5.75004   5
  -9   5  -2 136.027 6.64669   1
  -9   5  -2 135.704 15.8896   4
   9  -5   2 138.291 6.94272   5
   9   4  -2 26.1849 4.33741   1
  -9  -4   2 40.6080 5.09874   1
   8   4  -2 12.3371 3.12493   1
  -8  -4   2 9.81993 2.25035   1
   7   4  -2 93.7994 6.03501   1
  -7  -4   2 88.0641 5.65577   1
   6   4  -2 918.344 30.1457   1
  -6  -4   2 920.656 29.9111   1
   5   4  -2 35.6543 3.61323   1
  -5  -4   2 33.1651 3.22890   5
  -5  -4   2 33.4842 3.42107   1
   4   4  -2 486.370 15.9989   5
   4   4  -2 497.512 16.7224   1
  -4  -4   2 491.426 16.5144   1
  -4  -4   2 503.947 16.1019   5
  -4  -4   2 441.061 16.0297   5
   3   4  -2 89.6679 4.61536   1
   3   4  -2 90.9360 4.16732   5
   3   4  -2 92.9486 4.64397   1
  -3  -4   2 88.2724 4.52402   1
  -3  -4   2 88.0559 4.34295   5
  -3  -4   2 91.9830 4.28366   5
   2   4  -2 51.9271 3.05591   1
   2   4  -2 47.3778 2.64421   5
   2   4  -2 48.9818 2.95862   1
  -2  -4   2 40.7391 2.78522   1
  -2  -4   2 47.4092 2.73457   5
  -2  -4   2 36.6600 4.02433   4
  -2  -4   2 51.6402 2.77738   5
   1   4  -2 480.314 15.1481   1
   1   4  -2 464.943 15.1417   1
   1   4  -2 461.801 14.5947   5
  -1  -4   2 466.100 14.8661   5
  -1  -4   2 481.876 14.8103   5
  -1  -4   2 469.787 15.1705   1
   0   4  -2 77.7159 3.66809   1
   0   4  -2 81.5524 3.70274   1
   0   4  -2 82.9625 3.66204   1
   0   4  -2 88.0280 6.38507   4
   0  -4   2 82.1758 3.44990   5
   0  -4   2 83.0786 3.75128   1
   0  -4   2 87.9325 3.57486   5
  -1   4  -2 59.4519 2.86132   1
  -1   4  -2 64.9323 5.90367   4
   1  -4   2 59.6416 2.96309   1
   1  -4   2 61.0108 2.66757   5
   1  -4   2 62.2955 2.77396   5
  -2   4  -2 1203.68 41.6623   4
  -2   4  -2 1139.18 35.0198   1
   2  -4   2 1214.85 34.9804   5
   2  -4   2 1216.91 35.2911   1
   2  -4   2 1176.25 34.8204   5
  -3   4  -2 11.7204 1.32021   1
  -3   4  -2 15.4766 4.11076   4
  -3   4  -2 6.06961 1.08955   1
   3  -4   2 12.6860 1.52324   1
   3  -4   2 11.8307 1.21990   5
  -4   4  -2 76.5561 3.34069   1
  -4   4  -2 63.7767 7.32933   4
   4  -4   2 69.3059 3.18093   5
   4  -4   2 66.4974 3.44834   1
  -5   4  -2 187.429 6.54425   2
  -5   4  -2 173.338 6.67088   1
  -5   4  -2 203.788 13.9873   4
   5  -4   2 166.700 6.58308   5
   5  -4   2 177.166 7.04654   1
  -6   4  -2 460.572 14.9069   1
  -6   4  -2 460.994 14.5654   2
   6  -4   2 435.219 15.3063   1
   6  -4   2 453.900 14.9434   5
  -7   4  -2 185.559 7.01692   2
  -7   4  -2 186.723 7.38669   1
   7  -4   2 167.086 7.28508   5
   7  -4   2 176.843 7.36575   5
  -8   4  -2 2.05954 1.21463   1
  -8   4  -2 0.31915 0.99485   2
   8  -4   2 2.20226 1.29246   5
  -9   4  -2 95.0201 5.01117   2
  -9   4  -2 82.1815 5.09128   1
   9  -4   2 89.0279 5.40335   5
   9   3  -2 351.578 15.0060   1
  -9  -3   2 349.869 14.5976   1
   8   3  -2 209.900 10.1483   1
  -8  -3   2 207.037 9.74593   1
   7   3  -2 14.2773 2.76248   1
  -7  -3   2 15.4173 2.72418   1
   6   3  -2 0.71117 1.23526   1
  -6  -3   2 0.70342 1.06958   1
   5   3  -2 84.2277 4.45233   5
   5   3  -2 83.0295 4.37760   5
   5   3  -2 83.1773 4.89034   1
  -5  -3   2 84.3591 4.73739   1
  -5  -3   2 83.2877 4.54228   5
  -5  -3   2 90.3378 4.48329   5
   4   3  -2 66.0882 3.60894   5
   4   3  -2 71.1310 4.05451   1
   4   3  -2 62.1887 3.50493   5
  -4  -3   2 70.0178 3.79590   5
  -4  -3   2 73.3757 4.00103   1
  -4  -3   2 67.9619 3.62229   5
   3   3  -2 558.258 17.4303   5
   3   3  -2 518.848 17.1986   5
   3   3  -2 541.633 17.7652   1
   3   3  -2 558.895 17.8629   1
  -3  -3   2 551.586 17.5256   5
  -3  -3   2 551.695 17.7618   1
  -3  -3   2 555.466 17.3926   5
   2   3  -2 1330.22 39.0914   5
   2   3  -2 1262.87 38.9375   5
   2   3  -2 1305.45 39.4475   1
   2   3  -2 1357.71 39.5182   1
  -2  -3   2 1331.60 39.2378   5
  -2  -3   2 1354.11 41.4436   4
  -2  -3   2 1344.62 39.1458   5
  -2  -3   2 1299.56 39.4757   1
   1   3  -2 6.61049 0.95875   5
   1   3  -2 6.46243 1.14605   1
   1   3  -2 5.54138 0.91607   5
   1   3  -2 5.42324 1.06778   1
  -1  -3   2 5.69248 1.04628   5
  -1  -3   2 6.78457 1.19647   1
  -1  -3   2 6.61578 1.87356   4
  -1  -3   2 6.76741 1.20717   1
  -1  -3   2 5.15826 0.93241   5
   0   3  -2 135.867 5.12944   1
   0   3  -2 130.461 4.75447   5
   0   3  -2 150.112 7.59404   4
   0   3  -2 133.255 5.06842   1
   0  -3   2 143.364 7.44496   4
   0  -3   2 129.190 4.78577   5
   0  -3   2 137.068 4.92708   5
   0  -3   2 130.629 4.97865   1
   0  -3   2 137.433 5.16856   1
  -1   3  -2 3.35775 1.91069   4
  -1   3  -2 4.58990 0.95167   1
  -1   3  -2 4.19068 0.88647   1
  -1   3  -2 3.66368 0.67750   5
   1  -3   2 3.93203 0.81146   1
   1  -3   2 4.90677 0.81295   5
   1  -3   2 4.07125 0.80736   5
   1  -3   2 2.04481 0.82316   1
  -2   3  -2 15.9695 1.42359   1
  -2   3  -2 16.2930 1.53129   1
  -2   3  -2 20.9419 3.86747   4
   2  -3   2 16.7464 1.25024   5
   2  -3   2 17.0171 1.60891   1
   2  -3   2 16.2991 1.20224   5
  -3   3  -2 597.788 18.1236   2
  -3   3  -2 595.133 18.2029   1
  -3   3  -2 599.364 18.4218   1
   3  -3   2 612.844 18.0937   5
   3  -3   2 582.537 18.4301   1
  -4   3  -2 770.371 24.2598   1
  -4   3  -2 833.549 24.2458   2
  -4   3  -2 808.176 24.6298   1
   4  -3   2 785.987 24.1714   5
   4  -3   2 825.393 24.7018   1
  -5   3  -2 77.8302 3.61373   2
  -5   3  -2 76.6586 3.69606   1
  -5   3  -2 74.4483 3.90266   1
   5  -3   2 78.3136 3.98898   1
   5  -3   2 77.5708 3.64380   5
  -6   3  -2 494.092 15.9143   2
  -6   3  -2 487.726 16.4967   1
  -6   3  -2 507.525 16.1454   1
   6  -3   2 470.408 16.4936   1
   6  -3   2 507.671 16.0760   5
   6  -3   2 489.164 16.0211   5
  -7   3  -2 2.45696 1.15893   1
  -7   3  -2 2.50872 1.33279   2
   7  -3   2 3.45330 1.53943   1
   7  -3   2 2.40158 1.15764   5
   7  -3   2 1.30463 1.15024   5
  -8   3  -2 10.5598 1.94581   2
  -8   3  -2 9.63133 1.86019   1
   8  -3   2 8.40038 1.75663   5
  -9   3  -2 39.9300 3.98321   1
  -9   3  -2 34.2012 3.51673   2
   9  -3   2 27.3678 3.39366   5
 -10   3  -2 16.6519 2.84099   1
 -10   3  -2 17.4660 2.71511   2
   9   2  -2 78.4447 5.73867   1
  -9  -2   2 79.4203 5.74652   1
   8   2  -2 131.979 7.55668   1
  -8  -2   2 142.144 7.41647   1
   7   2  -2 5.68384 1.78813   1
  -7  -2   2 6.14129 1.76153   1
   6   2  -2 325.099 12.6448   1
  -6  -2   2 339.154 12.5523   1
   5   2  -2 153.902 6.43387   5
   5   2  -2 145.763 6.32882   5
   5   2  -2 151.867 6.87052   1
  -5  -2   2 152.463 6.46788   5
  -5  -2   2 156.510 6.77790   1
  -5  -2   2 146.480 6.29295   5
   4   2  -2 496.043 16.5376   5
   4   2  -2 521.352 17.0635   1
   4   2  -2 502.102 16.4593   5
  -4  -2   2 524.187 16.5436   5
  -4  -2   2 510.930 16.6186   5
  -4  -2   2 520.699 16.8963   1
   3   2  -2 1558.56 45.5901   5
   3   2  -2 1557.10 45.4907   5
   3   2  -2 1592.60 46.0205   1
   3   2  -2 1500.03 45.8427   1
  -3  -2   2 1567.92 45.5146   5
  -3  -2   2 1530.91 45.8530   1
  -3  -2   2 1542.98 45.6243   5
  -3  -2   2 1498.85 45.8017   1
   2   2  -2 141.481 5.47806   5
   2   2  -2 146.141 5.42624   5
   2   2  -2 150.656 5.77093   1
   2   2  -2 148.062 5.76324   1
  -2  -2   2 148.549 5.75592   1
  -2  -2   2 151.923 5.71234   1
  -2  -2   2 151.696 5.78672   1
  -2  -2   2 152.274 5.59344   5
  -2  -2   2 149.070 5.47436   5
   1   2  -2 25.0088 1.72076   1
   1   2  -2 24.7833 1.74348   1
   1   2  -2 25.1163 1.52720   5
   1   2  -2 26.3981 1.62722   5
  -1  -2   2 25.7979 1.57428   5
  -1  -2   2 26.3006 1.79086   1
  -1  -2   2 25.3817 1.69122   1
  -1  -2   2 25.6583 1.60205   5
   0   2  -2 665.563 21.0423   4
   0   2  -2 616.906 19.0506   1
   0   2  -2 660.654 19.0374   1
   0   2  -2 611.980 18.7789   5
   0   2  -2 630.461 18.6950   5
   0  -2   2 629.611 19.0615   1
   0  -2   2 621.017 18.8425   5
   0  -2   2 630.525 18.7603   5
   0  -2   2 596.630 18.8890   1
  -1   2  -2 642.420 18.6005   5
  -1   2  -2 629.933 18.9773   1
  -1   2  -2 631.552 18.8768   1
   1  -2   2 635.670 19.0255   1
   1  -2   2 655.255 18.7103   5
   1  -2   2 602.181 18.7424   5
   1  -2   2 618.382 18.8977   2
   1  -2   2 625.084 18.8124   1
  -2   2  -2 2480.87 69.1942   1
  -2   2  -2 2468.76 69.2157   2
  -2   2  -2 2505.92 69.3798   1
  -2   2  -2 2367.07 68.9510   5
  -2   2  -2 2383.56 68.9110   5
   2  -2   2 2420.49 69.3627   1
   2  -2   2 2395.80 69.0185   5
   2  -2   2 2390.78 69.0731   5
   2  -2   2 2365.62 69.1605   1
   2  -2   2 2201.10 69.1642   2
  -3   2  -2 395.815 12.3959   5
  -3   2  -2 405.765 12.8872   1
  -3   2  -2 398.157 12.6358   1
  -3   2  -2 410.268 12.6644   2
   3  -2   2 404.361 12.9053   1
   3  -2   2 410.341 12.5389   5
  -4   2  -2 15.8008 1.66938   2
  -4   2  -2 16.3280 1.67460   1
  -4   2  -2 15.0086 1.80726   1
   4  -2   2 12.6801 1.64208   1
   4  -2   2 16.3592 1.69392   5
  -5   2  -2 1.53784 0.82860   1
  -5   2  -2 2.14843 0.80102   1
  -5   2  -2 1.53346 0.77581   2
   5  -2   2 1.69049 0.74178   5
   5  -2   2 2.02370 0.86014   5
   5  -2   2 1.93916 0.98276   1
  -6   2  -2 63.6825 3.89029   1
  -6   2  -2 67.0575 3.68854   1
  -6   2  -2 68.7228 3.70029   2
   6  -2   2 69.8685 3.66226   5
   6  -2   2 73.4180 4.09815   1
   6  -2   2 62.0921 3.50611   5
  -7   2  -2 576.049 19.0810   1
  -7   2  -2 624.205 19.1174   2
   7  -2   2 556.149 18.8771   5
   7  -2   2 589.715 19.6951   1
   7  -2   2 562.374 18.9877   5
  -8   2  -2 57.9086 4.01877   1
  -8   2  -2 68.8115 4.14827   2
   8  -2   2 59.6875 4.00199   5
  -9   2  -2 227.966 9.56599   2
  -9   2  -2 236.474 9.85688   1
 -10   2  -2 -1.3863 1.31592   1
 -10   2  -2 -0.7385 1.13821   2
  -9  -1   2 3.96574 2.04051   1
   8   1  -2 24.0540 3.35106   1
  -8  -1   2 27.6766 3.48007   1
  -8  -1   2 21.5089 3.16049   2
   7   1  -2 48.5520 3.59334   5
   7   1  -2 48.6697 4.52639   1
  -7  -1   2 54.9232 4.11875   2
  -7  -1   2 49.9191 3.83826   1
   6   1  -2 783.468 24.8909   5
   6   1  -2 802.712 25.5397   1
   6   1  -2 753.265 24.7005   5
  -6  -1   2 778.635 25.2024   1
  -6  -1   2 786.350 24.6627   5
   5   1  -2 22.2383 2.76604   1
   5   1  -2 20.4648 2.12769   5
   5   1  -2 21.1863 2.39404   5
  -5  -1   2 21.2056 2.28820   5
  -5  -1   2 21.0369 2.46507   1
   4   1  -2 363.202 12.0884   5
   4   1  -2 365.623 12.4950   1
   4   1  -2 357.192 11.9923   5
  -4  -1   2 352.626 12.2915   1
  -4  -1   2 369.049 11.9826   5
  -4  -1   2 347.230 12.2659   1
  -4  -1   2 364.888 12.1016   5
   3   1  -2 539.168 17.7729   1
   3   1  -2 548.599 17.8337   1
   3   1  -2 587.645 17.5736   5
   3   1  -2 569.770 17.6032   5
  -3  -1   2 585.386 17.5217   5
  -3  -1   2 568.443 17.5856   5
  -3  -1   2 567.293 17.8108   1
  -3  -1   2 546.319 17.7598   1
   2   1  -2 5702.49 166.601   1
   2   1  -2 5956.92 167.254   1
   2   1  -2 5852.30 168.018   5
   2   1  -2 5667.50 166.610   5
  -2  -1   2 5702.76 167.196   5
  -2  -1   2 5528.50 166.507   1
  -2  -1   2 5633.61 166.893   1
  -2  -1   2 5622.10 168.934   1
  -2  -1   2 6115.85 167.906   5
   1   1  -2 711.453 21.2738   5
   1   1  -2 699.944 21.3410   5
   1   1  -2 712.728 21.4681   1
   1   1  -2 709.793 21.5346   1
   1   1  -2 719.934 21.5227   1
  -1  -1   2 707.776 21.4581   1
  -1  -1   2 714.620 21.3450   5
  -1  -1   2 731.836 21.3059   5
  -1  -1   2 742.326 21.5699   1
   0   1  -2 72.0012 2.98010   1
   0   1  -2 77.3115 2.96283   1
   0   1  -2 67.2681 2.78372   5
   0   1  -2 77.2913 2.82289   5
   0  -1   2 73.6202 3.00081   1
   0  -1   2 70.3152 2.90587   2
   0  -1   2 66.4815 2.83597   1
   0  -1   2 73.7313 2.81600   5
  -1   1  -2 434.960 13.1052   5
  -1   1  -2 449.512 13.0379   5
  -1   1  -2 432.674 13.2263   2
  -1   1  -2 430.549 13.2738   1
  -1   1  -2 439.332 13.1660   1
   1  -1   2 433.718 13.3020   1
   1  -1   2 434.304 13.0282   5
   1  -1   2 422.320 13.2075   2
   1  -1   2 438.475 13.1016   5
   1  -1   2 428.811 13.1388   1
  -2   1  -2 267.980 8.42545   1
  -2   1  -2 250.745 8.26544   5
  -2   1  -2 263.883 8.26889   5
  -2   1  -2 268.695 8.60640   1
  -2   1  -2 259.092 8.45118   2
   2  -1   2 272.391 8.61225   1
   2  -1   2 260.058 8.48230   2
   2  -1   2 264.615 8.30083   5
   2  -1   2 269.025 8.44418   1
  -3   1  -2 185.616 6.16014   5
  -3   1  -2 173.543 6.44739   1
  -3   1  -2 187.457 6.33892   1
  -3   1  -2 183.615 6.34716   2
   3  -1   2 181.884 6.18167   5
   3  -1   2 178.596 6.33012   1
   3  -1   2 181.137 6.51889   1
   3  -1   2 181.931 6.40708   2
  -4   1  -2 404.954 13.4620   1
  -4   1  -2 413.889 13.2041   1
  -4   1  -2 419.179 13.2472   2
  -4   1  -2 401.668 13.5809   5
   4  -1   2 411.626 13.3622   2
   4  -1   2 414.545 13.0875   5
   4  -1   2 405.586 13.0710   5
   4  -1   2 427.132 13.5379   1
  -5   1  -2 162.773 6.87270   1
  -5   1  -2 171.943 6.71778   2
  -5   1  -2 166.308 6.65951   1
   5  -1   2 183.410 7.08056   1
   5  -1   2 207.063 6.83015   5
   5  -1   2 168.877 6.54435   5
  -6   1  -2 1553.10 45.8752   1
  -6   1  -2 1500.62 46.2683   1
  -6   1  -2 1554.49 45.8730   2
   6  -1   2 1599.62 46.4019   1
   6  -1   2 1498.45 45.6226   5
   6  -1   2 1495.16 45.6943   5
  -7   1  -2 63.2290 3.83688   1
  -7   1  -2 58.4866 4.03950   1
  -7   1  -2 66.8263 3.91900   2
   7  -1   2 57.4967 3.64650   5
   7  -1   2 61.1417 4.10962   1
   7  -1   2 59.1787 3.61402   5
  -8   1  -2 26.2699 3.16716   1
  -8   1  -2 34.3579 3.63738   2
   8  -1   2 26.2344 3.43479   1
   8  -1   2 20.4810 2.75063   5
  -9   1  -2 106.221 5.93301   1
  -9   1  -2 98.8473 5.71293   2
 -10   1  -2 4.89339 1.92812   2
 -10   1  -2 9.15528 2.34582   1
  -9   0   2 281.259 12.0321   1
  -9   0   2 288.110 11.9828   2
   8   0  -2 153.454 8.19369   1
  -8   0   2 145.982 7.44666   2
  -8   0   2 160.850 7.70428   1
   7   0  -2 52.0913 4.45510   5
   7   0  -2 50.2136 4.57247   1
  -7   0   2 49.2324 3.61999   2
  -7   0   2 51.8031 3.79075   1
   6   0  -2 263.019 9.83042   5
   6   0  -2 274.600 10.4230   1
   6   0  -2 236.498 9.59429   5
  -6   0   2 269.598 10.1674   1
  -6   0   2 267.016 10.4546   5
  -6   0   2 246.262 10.0444   1
  -6   0   2 281.747 10.2857   2
   5   0  -2 455.202 15.0040   1
   5   0  -2 441.837 14.5366   5
   5   0  -2 430.429 14.4060   5
  -5   0   2 438.328 14.7423   1
  -5   0   2 415.018 14.6976   1
  -5   0   2 438.470 14.2344   5
   4   0  -2 815.273 25.2674   5
   4   0  -2 831.566 25.7565   1
   4   0  -2 867.254 25.4507   5
  -4   0   2 874.575 25.2103   5
  -4   0   2 783.267 25.5483   1
  -4   0   2 812.667 25.5702   1
   3   0  -2 171.715 6.01346   5
   3   0  -2 163.500 6.15467   1
   3   0  -2 159.120 6.13491   1
   3   0  -2 162.108 5.85336   5
  -3   0   2 162.365 6.10407   1
  -3   0   2 154.650 6.02690   1
  -3   0   2 157.894 5.82395   5
  -3   0   2 165.703 5.81349   5
   2   0  -2 416.419 12.7430   5
   2   0  -2 398.400 12.9598   1
   2   0  -2 415.650 12.9866   1
   2   0  -2 411.935 12.8391   5
  -2   0   2 401.574 12.9511   1
  -2   0   2 424.285 12.7064   5
  -2   0   2 413.936 12.7565   5
  -2   0   2 415.729 12.9904   1
  -2   0   2 415.570 12.9408   1
   1   0  -2 2953.35 89.2523   1
   1   0  -2 3028.08 90.2254   1
   1   0  -2 3159.98 89.7733   5
   1   0  -2 3015.47 89.8655   1
   1   0  -2 3091.13 89.6670   5
  -1   0   2 2948.85 89.9530   1
  -1   0   2 3089.19 89.0910   1
  -1   0   2 3163.27 89.4972   5
  -1   0   2 2956.52 88.4008   5
   0   0  -2 4285.93 122.242   1
   0   0  -2 4240.28 121.135   5
   0   0  -2 4177.66 121.750   1
   0   0  -2 4222.81 121.883   2
   0   0   2 4107.69 121.198   5
   0   0   2 4211.63 122.555   1
   0   0   2 3829.87 121.536   2
   0   0   2 4427.69 121.643   5
   0   0   2 3963.81 121.372   1
  -1   0  -2 831.955 23.2283   5
  -1   0  -2 771.129 23.2752   1
  -1   0  -2 786.650 23.4195   1
  -1   0  -2 795.299 23.3573   2
   1   0   2 786.323 23.2905   1
   1   0   2 783.256 23.4079   1
   1   0   2 804.884 23.1966   5
  -2   0  -2 1136.12 32.9415   5
  -2   0  -2 1163.33 33.0769   1
  -2   0  -2 1114.03 33.2161   1
  -2   0  -2 1133.79 33.0972   2
   2   0   2 1097.79 33.1993   1
   2   0   2 1103.31 33.0304   1
   2   0   2 1165.10 32.9488   5
   2   0   2 1130.14 33.1225   2
  -3   0  -2 47.0440 2.26232   5
  -3   0  -2 50.6883 2.37848   1
  -3   0  -2 48.1728 2.50435   1
  -3   0  -2 47.6118 2.39577   2
   3   0   2 47.0289 2.49576   1
   3   0   2 42.4488 2.35383   2
   3   0   2 46.0857 2.22988   5
   3   0   2 47.7186 2.38449   1
  -4   0  -2 557.828 17.4983   5
  -4   0  -2 568.042 17.6757   1
  -4   0  -2 563.396 17.7338   2
  -4   0  -2 570.171 17.9486   1
   4   0   2 568.534 17.8518   2
   4   0   2 576.698 17.9648   1
   4   0   2 582.653 17.5381   5
   4   0   2 545.194 17.7103   1
  -5   0  -2 305.644 11.0618   1
  -5   0  -2 308.341 10.7969   1
  -5   0  -2 325.180 10.9951   2
  -5   0  -2 312.036 10.6472   5
   5   0   2 327.231 11.1506   1
   5   0   2 313.710 11.0789   2
   5   0   2 314.622 10.6500   5
  -6   0  -2 173.143 7.66196   1
  -6   0  -2 192.812 7.53713   1
  -6   0  -2 190.811 7.62826   2
   6   0   2 191.105 7.84542   2
   6   0   2 192.062 7.82737   1
   6   0   2 189.448 7.32590   5
  -7   0  -2 800.013 25.2158   1
  -7   0  -2 799.312 25.3284   2
   7   0   2 779.828 24.8931   5
   7   0   2 769.450 25.5338   1
  -8   0  -2 98.8784 5.43312   1
  -8   0  -2 93.6173 5.42295   2
   8   0   2 95.2072 5.68938   1
   8   0   2 95.9542 5.15387   5
  -9   0  -2 0.61803 1.33018   1
  -9   0  -2 -0.8850 1.14018   2
   9   0   2 -2.1929 0.95326   1
 -10   0  -2 103.727 6.07408   2
 -10   0  -2 89.5410 5.92549   1
  -9   1   2 34.6463 3.78386   2
  -9   1   2 36.1862 4.32475   1
   8  -1  -2 -1.2102 1.08861   5
  -8   1   2 -0.2683 1.03642   1
  -8   1   2 -1.8081 0.88798   2
   7  -1  -2 2.82627 1.50031   1
   7  -1  -2 2.78289 1.23932   5
  -7   1   2 3.09614 1.36653   2
  -7   1   2 2.71055 1.25472   1
   6  -1  -2 153.095 6.97731   1
   6  -1  -2 153.307 6.49349   5
   6  -1  -2 149.007 6.56187   5
  -6   1   2 162.545 6.81353   1
  -6   1   2 155.804 6.85816   1
  -6   1   2 158.184 6.74344   2
   5  -1  -2 434.523 14.4185   5
   5  -1  -2 439.984 14.3367   5
   5  -1  -2 438.754 14.8097   1
  -5   1   2 436.501 14.5415   2
  -5   1   2 430.417 14.5816   1
  -5   1   2 449.571 14.7504   1
   4  -1  -2 504.975 16.2594   1
   4  -1  -2 502.579 15.8147   5
   4  -1  -2 518.717 15.9678   5
  -4   1   2 489.775 16.1146   1
  -4   1   2 512.630 16.1351   1
  -4   1   2 491.468 15.5356   5
   3  -1  -2 3794.96 112.136   5
   3  -1  -2 3906.97 114.470   1
   3  -1  -2 3769.28 111.457   5
  -3   1   2 3723.68 111.577   1
  -3   1   2 3934.04 114.251   1
  -3   1   2 4105.12 118.586   4
  -3   1   2 3942.19 111.805   5
   2  -1  -2 165.220 5.59473   5
   2  -1  -2 170.805 5.56633   5
   2  -1  -2 165.577 5.75844   1
   2  -1  -2 165.512 5.74568   1
  -2   1   2 177.106 7.45074   4
  -2   1   2 156.981 5.71397   1
  -2   1   2 160.034 5.43825   5
  -2   1   2 167.319 5.72438   1
  -2   1   2 157.184 5.68840   1
  -2   1   2 168.373 5.41402   5
   1  -1  -2 351.808 11.0027   5
   1  -1  -2 359.812 11.1204   1
   1  -1  -2 373.824 11.0074   5
   1  -1  -2 352.236 12.5103   4
   1  -1  -2 367.143 11.1969   1
   1  -1  -2 365.411 11.1706   1
  -1   1   2 355.542 11.1501   1
  -1   1   2 369.550 10.9059   5
  -1   1   2 373.644 10.8971   5
  -1   1   2 360.123 11.0627   2
  -1   1   2 364.777 11.1107   1
  -1   1   2 385.749 12.4924   4
   0  -1  -2 527.430 15.8285   1
   0  -1  -2 543.953 15.9282   1
   0  -1  -2 526.388 15.8377   2
   0  -1  -2 532.686 15.7220   5
   0   1   2 534.491 15.6817   5
   0   1   2 535.639 15.9055   1
   0   1   2 525.517 15.7950   1
   0   1   2 540.505 15.8192   2
  -1  -1  -2 147.314 4.64340   5
  -1  -1  -2 143.615 4.76163   2
  -1  -1  -2 149.392 4.73261   1
  -1  -1  -2 137.562 4.80418   1
   1   1   2 141.749 4.81168   1
   1   1   2 140.252 4.59409   5
   1   1   2 143.572 4.72158   1
   1   1   2 137.293 4.72566   2
  -2  -1  -2 374.797 11.8853   2
  -2  -1  -2 394.095 11.8200   1
  -2  -1  -2 385.023 11.9855   1
   2   1   2 386.195 11.7086   5
   2   1   2 374.675 11.9650   1
   2   1   2 376.179 11.8931   2
   2   1   2 395.269 11.6780   5
  -3  -1  -2 761.206 22.2254   5
  -3  -1  -2 742.258 22.3270   1
  -3  -1  -2 743.521 22.1773   5
  -3  -1  -2 763.872 22.4674   2
   3   1   2 717.656 22.1580   5
   3   1   2 727.610 22.1190   5
   3   1   2 736.646 22.3779   1
   3   1   2 736.326 22.5038   1
  -4  -1  -2 578.989 17.6007   1
  -4  -1  -2 552.116 17.3714   5
  -4  -1  -2 573.552 17.7057   2
  -4  -1  -2 529.771 17.7695   1
  -4  -1  -2 567.481 17.4500   5
   4   1   2 556.845 17.4290   5
   4   1   2 535.740 17.6006   1
   4   1   2 563.927 17.7835   2
   4   1   2 583.032 17.4488   5
   4   1   2 576.953 17.8608   1
  -5  -1  -2 36.4204 2.39529   5
  -5  -1  -2 41.3012 2.71767   2
  -5  -1  -2 38.9448 2.55132   1
  -5  -1  -2 38.5814 2.71116   1
  -5  -1  -2 42.9618 2.56326   5
   5   1   2 39.5327 2.79634   1
   5   1   2 42.9627 2.61098   5
   5   1   2 40.9759 2.50843   5
  -6  -1  -2 80.7564 4.17236   5
  -6  -1  -2 93.3235 4.61273   2
  -6  -1  -2 85.9509 4.38894   1
   6   1   2 83.6745 4.19142   5
   6   1   2 83.3943 4.26991   5
   6   1   2 84.1246 4.62277   1
  -7  -1  -2 51.5129 3.48226   1
  -7  -1  -2 45.1662 3.51877   2
   7   1   2 51.9677 3.87157   1
   7   1   2 46.7367 3.34694   5
   7   1   2 52.8488 3.41421   5
  -8  -1  -2 70.9994 4.45578   1
  -8  -1  -2 69.5962 4.64977   2
   8   1   2 66.6957 4.71914   1
  -9  -1  -2 4.95867 1.82387   1
  -9  -1  -2 10.5561 2.14722   2
   9   1   2 0.74529 1.47012   1
 -10  -1  -2 0.89722 1.69058   1
  -9   2   2 13.3658 5.16039   4
  -9   2   2 17.7803 2.82007   2
  -9   2   2 13.7072 2.74005   1
   8  -2  -2 33.1274 3.46943   5
  -8   2   2 28.2313 6.66605   4
  -8   2   2 40.6294 4.02025   1
  -8   2   2 36.5901 3.58542   2
   7  -2  -2 311.252 11.5635   5
   7  -2  -2 304.745 12.0616   5
  -7   2   2 321.610 11.7144   1
  -7   2   2 298.516 17.3066   4
  -7   2   2 325.272 11.4267   2
   6  -2  -2 88.4060 4.76173   1
   6  -2  -2 100.932 4.68895   5
   6  -2  -2 88.5772 4.42967   5
  -6   2   2 88.6274 4.40530   2
  -6   2   2 75.3739 7.66396   4
  -6   2   2 83.6772 4.61156   1
  -6   2   2 92.6560 4.59091   1
   5  -2  -2 0.72152 0.70600   5
   5  -2  -2 2.17254 0.98091   1
   5  -2  -2 1.41693 0.83701   5
  -5   2   2 1.63001 0.82746   1
  -5   2   2 1.98420 1.98084   4
  -5   2   2 1.69053 0.77962   2
  -5   2   2 1.64253 0.82327   1
   4  -2  -2 79.9280 3.45306   5
   4  -2  -2 78.2148 3.50976   5
   4  -2  -2 75.1843 3.67112   1
  -4   2   2 80.4653 3.65302   1
  -4   2   2 72.0202 3.50403   1
  -4   2   2 75.1627 3.42487   2
  -4   2   2 83.0936 6.58300   4
   3  -2  -2 53.0399 2.47364   5
   3  -2  -2 55.7833 2.56169   5
   3  -2  -2 54.8057 2.72101   1
  -3   2   2 58.0918 2.68994   1
  -3   2   2 58.0872 2.55096   2
  -3   2   2 59.4207 4.98111   4
   2  -2  -2 120.874 4.18105   5
   2  -2  -2 123.372 4.38827   1
   2  -2  -2 120.706 4.36609   1
   2  -2  -2 128.129 4.17059   5
  -2   2   2 123.094 4.32505   1
  -2   2   2 127.774 7.01629   4
  -2   2   2 119.077 4.30914   1
   1  -2  -2 20.8529 2.55536   4
   1  -2  -2 19.5521 1.11360   1
   1  -2  -2 19.8212 1.09184   1
   1  -2  -2 21.1260 1.08881   2
   1  -2  -2 20.0842 1.11869   1
  -1   2   2 22.4438 2.56757   4
  -1   2   2 21.9584 1.14400   1
  -1   2   2 20.7210 1.06652   1
   0  -2  -2 430.237 12.4416   1
   0  -2  -2 409.755 12.3345   1
   0  -2  -2 412.912 12.3508   2
   0  -2  -2 438.337 15.3660   4
   0   2   2 422.659 12.3323   1
   0   2   2 401.568 12.3975   1
  -2  -2  -2 695.406 20.2959   5
  -2  -2  -2 686.314 20.5259   2
  -2  -2  -2 681.705 20.6030   1
  -2  -2  -2 656.832 20.3006   5
  -2  -2  -2 712.181 20.4800   1
   2   2   2 673.601 20.2432   5
   2   2   2 669.587 20.5044   2
   2   2   2 695.743 20.4985   1
   2   2   2 686.822 20.2119   5
   2   2   2 695.201 20.5913   1
  -3  -2  -2 28.3292 1.93403   2
  -3  -2  -2 33.0443 1.83949   5
  -3  -2  -2 29.0144 1.78749   5
  -3  -2  -2 31.6286 2.02376   1
  -3  -2  -2 29.8272 1.87556   1
   3   2   2 31.0715 1.76265   5
   3   2   2 31.3819 1.80382   5
   3   2   2 28.5826 1.86956   1
   3   2   2 29.6532 2.01524   1
  -4  -2  -2 196.503 7.09955   5
  -4  -2  -2 211.175 7.46838   2
  -4  -2  -2 197.101 7.52145   1
  -4  -2  -2 203.584 7.14436   5
  -4  -2  -2 192.890 7.22259   1
   4   2   2 193.284 7.03892   5
   4   2   2 199.528 7.47225   1
   4   2   2 200.567 7.06936   5
   4   2   2 195.091 7.33502   1
  -5  -2  -2 10.9115 1.68238   2
  -5  -2  -2 8.06199 1.32455   5
  -5  -2  -2 8.00133 1.38120   5
  -5  -2  -2 9.23222 1.46873   1
   5   2   2 9.58537 1.48427   5
   5   2   2 12.6234 1.89571   1
   5   2   2 10.4722 1.56442   5
  -6  -2  -2 0.25573 0.70385   5
  -6  -2  -2 -0.0856 0.48373   5
  -6  -2  -2 0.67547 0.89084   2
  -6  -2  -2 2.15965 0.99916   1
   6   2   2 0.58222 0.80241   5
   6   2   2 0.22618 0.89713   1
   6   2   2 1.76023 0.89950   5
  -7  -2  -2 1.50554 0.73535   5
  -7  -2  -2 1.16927 1.22174   2
  -7  -2  -2 1.94933 1.16059   1
   7   2   2 4.17446 1.55933   1
   7   2   2 0.67059 0.78522   5
  -8  -2  -2 1.05733 1.36267   2
  -8  -2  -2 1.39650 1.41242   1
   8   2   2 1.98766 1.72009   1
  -9  -2  -2 43.1133 4.63242   1
   9   2   2 37.5087 4.40067   1
 -10  -2  -2 -1.7134 1.03918   1
  10   2   2 -1.1905 1.53800   1
   9  -3  -2 648.261 21.3759   5
  -9   3   2 484.228 28.5297   4
  -9   3   2 598.974 19.5078   2
  -9   3   2 619.764 20.4714   1
   8  -3  -2 23.6119 3.07391   5
  -8   3   2 20.4861 2.75314   1
  -8   3   2 21.6067 2.59322   2
  -8   3   2 16.5550 5.73615   4
   7  -3  -2 0.82282 1.02442   5
   7  -3  -2 0.04712 1.03620   5
  -7   3   2 3.40285 1.02953   2
  -7   3   2 1.04360 2.50972   4
  -7   3   2 0.18554 0.93317   1
   6  -3  -2 120.988 5.42842   5
   6  -3  -2 115.552 5.64736   1
   6  -3  -2 119.928 5.33623   5
  -6   3   2 118.600 10.3559   4
  -6   3   2 125.786 5.48311   1
  -6   3   2 124.706 5.08290   2
   5  -3  -2 107.992 4.90684   1
   5  -3  -2 115.130 4.67232   5
   5  -3  -2 106.143 4.63309   5
  -5   3   2 111.054 4.36357   2
  -5   3   2 98.4858 8.58236   4
  -5   3   2 107.263 4.65664   1
   4  -3  -2 80.5527 3.78394   1
   4  -3  -2 84.4103 3.57225   5
   4  -3  -2 88.8892 3.67460   5
  -4   3   2 80.5609 3.59239   1
  -4   3   2 85.0951 7.25056   4
  -4   3   2 90.9035 3.76622   1
   3  -3  -2 11.6880 1.28300   1
   3  -3  -2 12.3422 1.17021   5
   3  -3  -2 11.4473 1.09638   5
  -3   3   2 10.0319 1.12415   1
  -3   3   2 9.82165 1.08913   1
  -3   3   2 15.1411 3.63008   4
  -3   3   2 11.1192 1.14025   1
  -2   3   2 212.721 10.9185   4
   1  -3  -2 167.884 10.1463   4
  -1   3   2 175.081 8.86199   4
   0  -3  -2 290.064 12.5025   4
  -1  -3  -2 132.633 4.41637   1
  -1  -3  -2 133.750 4.54659   1
  -1  -3  -2 130.641 4.46516   2
   1   3   2 130.605 4.49111   1
   1   3   2 132.693 4.43369   1
  -2  -3  -2 28.3781 1.63128   5
  -2  -3  -2 30.9293 1.81007   2
  -2  -3  -2 29.3839 1.70725   1
  -2  -3  -2 29.4031 1.60381   5
  -2  -3  -2 29.7238 1.79129   1
   2   3   2 29.6077 1.44245   5
   2   3   2 30.1946 1.79559   1
   2   3   2 30.9960 1.77739   1
  -3  -3  -2 1.09279 0.58559   5
  -3  -3  -2 1.20545 0.62699   5
  -3  -3  -2 1.12819 0.65460   1
  -3  -3  -2 0.10465 0.64285   2
   3   3   2 3.29799 0.90552   1
   3   3   2 1.02458 0.60404   5
   3   3   2 0.89316 0.57166   5
   3   3   2 2.19208 0.76739   1
  -4  -3  -2 90.6388 4.21574   2
  -4  -3  -2 87.9140 4.04841   1
  -4  -3  -2 85.1334 3.87607   5
  -4  -3  -2 85.3248 3.88031   5
   4   3   2 83.8829 3.76428   5
   4   3   2 87.2303 4.20411   1
   4   3   2 94.4554 4.20111   1
   4   3   2 86.5735 4.04210   5
  -5  -3  -2 1043.76 31.2992   1
  -5  -3  -2 1005.16 31.0325   5
  -5  -3  -2 1051.49 31.0793   5
  -5  -3  -2 1050.27 31.5270   2
   5   3   2 900.256 33.0021   5
   5   3   2 1055.77 31.5166   1
   5   3   2 1008.33 31.4936   1
   5   3   2 1023.73 30.8889   5
  -6  -3  -2 22.0234 2.61843   1
  -6  -3  -2 22.2610 2.43204   5
  -6  -3  -2 21.0753 2.33905   5
  -6  -3  -2 23.2237 2.80336   2
   6   3   2 21.0106 2.71814   1
   6   3   2 18.7300 2.28401   5
  -7  -3  -2 81.4477 4.78210   1
  -7  -3  -2 74.7090 4.76776   2
  -7  -3  -2 77.0876 4.34340   5
   7   3   2 83.1785 5.05352   1
  -8  -3  -2 131.830 6.71358   1
   8   3   2 119.184 6.83551   1
  -9  -3  -2 2.03193 1.53747   1
   9   3   2 4.10402 1.73396   1
 -10  -3  -2 56.3066 5.61304   1
  10   3   2 48.5872 5.41315   1
   9  -4  -2 114.467 6.22038   5
  -9   4   2 88.0570 11.6453   4
  -9   4   2 104.205 5.67061   1
   8  -4  -2 41.8968 3.91663   5
  -8   4   2 42.5577 3.79363   1
  -8   4   2 43.6953 9.45783   4
   7  -4  -2 2.38457 1.24418   5
   7  -4  -2 3.23228 1.37709   5
  -7   4   2 4.49550 3.57485   4
  -7   4   2 2.72836 1.15758   1
   6  -4  -2 171.369 6.74723   5
   6  -4  -2 164.122 6.68725   5
  -6   4   2 171.950 6.63384   1
  -6   4   2 160.859 12.7288   4
   5  -4  -2 834.839 26.0108   5
   5  -4  -2 873.759 25.9933   5
   5  -4  -2 847.578 26.3527   1
  -5   4   2 856.787 26.1220   1
  -5   4   2 868.514 25.9805   1
  -5   4   2 869.940 34.6910   4
   4  -4  -2 69.9548 3.23632   1
   4  -4  -2 69.8666 3.06876   5
   4  -4  -2 70.4700 3.02730   5
  -4   4   2 64.7940 3.01007   1
  -4   4   2 71.5749 7.34178   4
  -3   4   2 119.986 8.90094   4
  -2   4   2 534.452 22.0194   4
  -1   4   2 1.13640 1.49206   4
  -1  -4  -2 86.4545 3.15151   1
  -1  -4  -2 84.4588 3.24684   1
   1   4   2 87.3832 3.20731   1
   1   4   2 85.4128 3.16293   1
  -2  -4  -2 400.813 12.5361   1
  -2  -4  -2 399.549 12.3454   5
  -2  -4  -2 404.485 12.3478   5
   2   4   2 397.048 12.6244   1
  -3  -4  -2 500.220 16.6415   2
  -3  -4  -2 511.362 16.3310   5
  -3  -4  -2 525.983 16.5729   1
  -3  -4  -2 520.679 16.3645   5
   3   4   2 542.313 16.7564   1
   3   4   2 546.410 16.6840   1
   3   4   2 555.956 17.5126   5
  -4  -4  -2 217.194 7.83963   1
  -4  -4  -2 210.180 7.60606   5
  -4  -4  -2 201.758 7.87774   2
  -4  -4  -2 208.877 7.60066   5
   4   4   2 205.358 7.85971   1
   4   4   2 209.329 7.32776   5
   4   4   2 209.293 7.94863   1
  -5  -4  -2 391.397 13.0037   5
  -5  -4  -2 379.850 13.3908   2
  -5  -4  -2 367.255 12.9581   5
  -5  -4  -2 380.724 13.2020   1
   5   4   2 373.893 13.2979   1
   5   4   2 412.514 13.5955   1
   5   4   2 373.922 12.7252   5
  -6  -4  -2 31.7573 3.35061   2
  -6  -4  -2 21.4668 2.44735   5
  -6  -4  -2 31.8195 2.97636   5
  -6  -4  -2 35.5690 3.53148   1
   6   4   2 28.2055 2.81529   5
   6   4   2 31.4614 3.25981   1
  -7  -4  -2 3.02318 1.49738   1
  -7  -4  -2 2.17494 1.11520   5
   7   4   2 0.69882 1.25940   1
  -8  -4  -2 441.965 16.4424   1
   8   4   2 454.738 16.9066   1
  -9  -4  -2 83.1153 5.70935   1
   9   4   2 90.0756 6.33580   1
 -10  -4  -2 33.3636 4.48997   1
  10   4   2 41.4226 4.80063   1
   8  -5  -2 9.78682 2.05485   5
  -8   5   2 12.2829 2.01535   1
  -8   5   2 13.3379 5.72014   4
   7  -5  -2 85.1540 4.55624   5
   7  -5  -2 80.5543 4.52649   5
  -7   5   2 85.5920 4.18943   1
  -7   5   2 70.8002 11.4868   4
   6  -5  -2 119.102 5.18715   5
   6  -5  -2 114.352 5.10106   5
  -6   5   2 116.707 11.5807   4
   5  -5  -2 215.163 7.51217   5
   5  -5  -2 212.369 7.55649   5
  -5   5   2 205.711 14.6221   4
  -4   5   2 466.972 22.5942   4
  -3   5   2 15.8089 4.58288   4
  -2   5   2 623.660 25.8460   4
  -1   5   2 76.6280 6.95489   4
  -1  -5  -2 948.186 27.7759   1
  -2  -5  -2 475.261 14.8248   1
  -2  -5  -2 479.328 14.6379   5
  -2  -5  -2 461.337 14.6087   5
   2   5   2 494.485 14.9469   1
   2   5   2 475.034 14.8402   1
  -3  -5  -2 47.7069 2.65127   5
  -3  -5  -2 54.6625 2.87680   1
  -3  -5  -2 53.2383 2.74906   5
   3   5   2 51.7688 2.93974   1
   3   5   2 53.1555 2.92479   1
  -4  -5  -2 143.933 6.16000   2
  -4  -5  -2 140.747 5.80969   5
  -4  -5  -2 150.732 6.07679   1
  -4  -5  -2 142.814 5.85855   5
   4   5   2 146.513 6.15423   1
   4   5   2 140.974 6.11794   1
  -5  -5  -2 23.2860 2.59774   1
  -5  -5  -2 17.7775 2.11864   5
  -5  -5  -2 25.7377 2.94263   2
  -5  -5  -2 23.4181 2.49711   5
   5   5   2 25.1987 2.77062   1
   5   5   2 24.5779 2.75800   1
  -6  -5  -2 0.84675 1.02042   5
  -6  -5  -2 3.23792 1.29138   1
   6   5   2 4.88753 1.59925   1
  -7  -5  -2 5.23806 1.76159   1
   7   5   2 4.53994 1.81381   1
  -8  -5  -2 572.871 20.6265   1
   8   5   2 596.692 21.1207   1
  -9  -5  -2 6.51201 2.31670   1
   9   5   2 9.63620 2.67177   1
   8  -6  -2 7.88708 1.96181   5
  -8   6   2 4.55892 4.89558   4
   7  -6  -2 39.4544 3.41412   5
   7  -6  -2 37.7322 3.34322   5
  -7   6   2 44.6879 9.83149   4
   6  -6  -2 15.1634 1.90211   5
   6  -6  -2 13.0919 1.83682   5
  -6   6   2 14.8483 5.80684   4
  -5   6   2 201.816 15.2317   4
  -4   6   2 7.11957 3.77581   4
  -3   6   2 31.4081 6.43190   4
  -2   6   2 323.142 17.2881   4
  -1   6   2 685.795 28.3596   4
  -2  -6  -2 9.38028 1.21246   5
  -2  -6  -2 9.30987 1.16700   5
  -2  -6  -2 9.90161 1.35002   1
   2   6   2 9.62450 1.33797   1
   2   6   2 9.36971 1.33246   1
  -3  -6  -2 7.02512 1.22265   5
  -3  -6  -2 6.34209 1.26338   1
  -3  -6  -2 6.99633 1.27237   5
   3   6   2 6.59866 1.31822   1
   3   6   2 6.37687 1.28748   1
  -4  -6  -2 140.338 6.03878   5
  -4  -6  -2 142.242 6.18491   1
  -4  -6  -2 148.293 6.07229   5
   4   6   2 154.781 6.45519   1
   4   6   2 148.718 6.39689   1
  -5  -6  -2 1054.57 33.1771   5
  -5  -6  -2 1107.23 33.1992   5
  -5  -6  -2 1055.04 33.4072   1
   5   6   2 1098.45 33.7541   1
  -6  -6  -2 553.269 19.0481   5
  -6  -6  -2 569.881 19.4216   1
   6   6   2 589.747 19.8097   1
  -7  -6  -2 232.391 9.97587   1
   7   6   2 233.016 10.3428   1
   8   6   2 107.543 6.67563   1
   9   6   2 29.9299 4.57137   1
   7  -7  -2 1.57279 1.45001   5
   7  -7  -2 1.62681 1.12977   5
  -7   7   2 -1.0507 3.89105   4
  -6   7   2 24.7498 7.65847   4
  -5   7   2 156.091 14.3188   4
  -4   7   2 1015.98 42.4730   4
  -3   7   2 23.3166 5.84529   4
  -2   7   2 102.002 9.95751   4
  -1   7   2 206.328 13.7384   4
   0  -7  -2 49.7837 4.96736   3
  -2  -7  -2 299.427 9.97419   5
  -2  -7  -2 288.979 10.0308   1
  -2  -7  -2 302.997 9.95720   5
   2   7   2 305.994 10.0958   1
   2   7   2 310.712 10.0999   1
  -3  -7  -2 111.093 4.87539   5
  -3  -7  -2 115.792 4.98710   5
  -3  -7  -2 109.623 4.96459   1
   3   7   2 121.997 5.20170   1
   3   7   2 111.099 5.04328   1
  -4  -7  -2 421.602 14.6602   1
  -4  -7  -2 434.446 14.4802   5
  -4  -7  -2 425.724 14.4863   5
   4   7   2 441.323 14.9007   1
  -5  -7  -2 85.0480 4.68681   5
  -5  -7  -2 80.3879 4.61340   5
   5   7   2 86.9453 5.00461   1
  -6  -7  -2 2.74686 1.70351   5
   6   7   2 2.77202 1.73370   1
   7   7   2 13.0586 2.91829   1
   8   7   2 15.4897 2.93418   1
  -6   8   2 0.86068 3.73923   4
  -5   8   2 33.3123 8.69416   4
  -4   8   2 257.317 18.2643   4
  -3   8   2 81.9634 10.0733   4
  -2   8   2 35.6537 7.53252   4
   1  -8  -2 111.998 8.00400   3
   0  -8  -2 661.408 25.6086   3
  -2  -8  -2 0.52904 0.77746   5
  -2  -8  -2 0.04096 0.59263   5
  -3  -8  -2 217.719 8.17433   5
  -3  -8  -2 214.481 8.09336   5
   3   8   2 214.061 8.22469   1
  -4  -8  -2 60.0391 3.99184   5
  -4  -8  -2 69.2195 4.06518   5
   4   8   2 70.1403 4.21615   1
  -5  -8  -2 -0.0806 1.09034   5
   5   8   2 2.64880 1.40154   1
  -6  -8  -2 104.168 5.84813   5
   6   8   2 101.860 6.08604   1
   7   8   2 0.46891 1.78205   1
  -5   9   2 -0.9012 2.96227   4
  -4   9   2 57.3308 11.0003   4
  -3   9   2 118.369 12.7475   4
  -2   9   2 134.147 12.9514   4
   1  -9  -2 -0.6546 1.33250   3
   0  -9  -2 58.1988 6.21428   3
  -1  -9  -2 132.209 9.58903   3
  -2  -9  -2 192.631 7.42831   5
  -2  -9  -2 200.930 7.41180   5
  -3  -9  -2 149.973 6.55805   5
  -3  -9  -2 155.088 6.48413   5
   3   9   2 148.268 6.35125   1
  -4  -9  -2 0.17721 1.20188   5
  -4  -9  -2 0.87778 1.13646   5
   4   9   2 -0.5386 1.01440   1
  -5  -9  -2 248.671 10.1633   5
   5   9   2 259.440 10.6141   1
  -6  -9  -2 288.857 11.7381   5
   6   9   2 289.918 12.1454   1
  -4  10   2 10.9649 6.24895   4
  -3  10   2 34.2180 8.89391   4
  -2 -10  -2 67.1715 3.78792   5
  -2 -10  -2 61.5649 3.81009   5
  -3 -10  -2 164.448 7.29809   5
  -3 -10  -2 169.386 7.16922   5
  -4 -10  -2 47.1848 4.10764   5
   4  10   2 49.4031 3.68007   1
  -5 -10  -2 5.54322 1.98821   5
   5  10   2 8.56758 2.21039   1
  -2 -11  -2 50.4675 3.61149   5
  -2 -11  -2 51.5008 3.88396   5
  -3 -11  -2 151.391 6.99350   5
   1  10  -3 14.0345 2.55221   1
  -1 -10   3 13.0552 2.52679   5
   0  10  -3 1.28425 1.31596   1
   0 -10   3 -0.0009 1.44853   5
   1 -10   3 58.2643 4.12200   5
  -2  10  -3 178.937 16.4075   4
   2 -10   3 219.961 8.61922   5
   4   9  -3 10.5166 2.54821   1
   3   9  -3 28.4658 3.86153   1
  -3  -9   3 26.5808 3.59503   5
   2   9  -3 17.4473 2.77575   1
  -2  -9   3 8.39423 2.10390   5
   1   9  -3 213.628 9.04704   1
  -1  -9   3 201.994 8.70534   5
   0   9  -3 155.647 7.05176   1
   0  -9   3 153.289 6.98626   5
  -1   9  -3 9.58738 4.40040   4
  -1   9  -3 7.57643 1.75937   1
   1  -9   3 7.03629 1.84229   5
   1  -9   3 7.95557 1.84646   5
  -2   9  -3 73.3753 9.92576   4
   2  -9   3 82.9734 4.75474   5
   2  -9   3 81.0863 4.52261   5
  -3   9  -3 -0.0338 3.14169   4
   3  -9   3 0.91347 1.14539   5
   3  -9   3 1.04756 1.33536   5
  -4   9  -3 85.8838 14.0196   4
   4  -9   3 125.060 5.64936   5
  -5   9  -3 110.860 14.6392   4
   5  -9   3 151.353 6.55131   5
   5   8  -3 7.56074 2.54309   1
   4   8  -3 118.357 6.99459   1
   3   8  -3 440.962 16.7109   1
  -3  -8   3 467.120 16.2796   5
   2   8  -3 4.17862 1.55556   1
  -2  -8   3 3.61268 1.43433   5
   1   8  -3 93.3809 5.22521   1
  -1  -8   3 87.8110 4.91218   5
  -1  -8   3 97.2302 5.65340   5
   0   8  -3 51.8416 3.62787   1
   0  -8   3 54.2775 3.84003   5
   0  -8   3 55.7545 3.62520   5
  -1   8  -3 25.1114 6.14678   4
  -1   8  -3 18.1569 2.29894   1
   1  -8   3 23.1180 2.51155   5
   1  -8   3 19.7247 2.43179   5
  -2   8  -3 4.81737 4.23392   4
  -2   8  -3 9.22804 1.70074   1
   2  -8   3 11.9292 1.80522   5
   2  -8   3 8.13650 1.83441   5
  -3   8  -3 2.93579 3.63502   4
   3  -8   3 2.82169 1.41681   5
   3  -8   3 3.39073 1.27612   5
  -4   8  -3 90.7353 11.5005   4
   4  -8   3 87.3004 4.52038   5
  -5   8  -3 205.581 18.1323   4
   5  -8   3 227.766 8.68134   5
  -6   8  -3 18.2459 7.59019   4
   6  -8   3 17.6286 2.46707   5
   6   7  -3 111.779 7.12867   1
   5   7  -3 116.970 7.07545   1
   4   7  -3 18.9580 3.29732   1
  -4  -7   3 17.0922 2.69334   5
   3   7  -3 90.5551 5.38941   1
  -3  -7   3 72.7087 4.61555   5
   2   7  -3 1.10622 1.18335   1
  -2  -7   3 1.99124 1.18057   5
  -2  -7   3 0.91363 1.03844   5
   1   7  -3 7.14752 1.65964   1
  -1  -7   3 6.32826 1.50465   5
  -1  -7   3 12.1804 1.91788   5
   0   7  -3 112.772 9.73444   4
   0   7  -3 117.654 5.54577   1
   0  -7   3 119.583 5.48276   5
   0  -7   3 120.114 5.40059   5
  -1   7  -3 876.616 36.3139   4
  -1   7  -3 922.544 28.2092   1
   1  -7   3 932.388 28.1260   5
   1  -7   3 908.860 27.9747   5
  -2   7  -3 60.9316 9.66067   4
  -2   7  -3 46.4370 3.09436   1
  -2   7  -3 53.3510 3.28487   1
   2  -7   3 54.2955 3.39196   5
   2  -7   3 51.1863 3.18035   5
  -3   7  -3 474.072 15.2482   1
  -3   7  -3 443.029 24.5345   4
   3  -7   3 478.033 15.3155   5
   3  -7   3 455.102 15.0850   5
  -4   7  -3 1.30323 3.06783   4
  -4   7  -3 3.05980 1.10422   1
   4  -7   3 5.95360 1.43883   5
  -5   7  -3 6.69435 1.44928   1
  -5   7  -3 5.81847 4.07140   4
   5  -7   3 7.86018 1.65219   5
  -6   7  -3 5.34004 4.69213   4
  -6   7  -3 11.5889 1.92618   1
   6  -7   3 9.58081 1.90424   5
  -7   7  -3 119.192 5.68046   1
  -7   7  -3 109.878 14.0616   4
   7  -7   3 130.899 6.18131   5
   7   6  -3 8.55729 2.64961   1
   6   6  -3 138.860 7.86169   1
  -6  -6   3 141.222 7.68208   1
   5   6  -3 227.312 10.4166   1
  -5  -6   3 243.019 10.3884   1
   4   6  -3 246.426 10.3972   1
  -4  -6   3 238.516 10.1713   1
  -4  -6   3 233.831 9.63079   5
   3   6  -3 51.5309 3.95172   1
  -3  -6   3 46.2695 4.22505   1
  -3  -6   3 50.3763 3.57589   5
   2   6  -3 90.8389 5.06687   1
  -2  -6   3 93.7144 4.75482   5
  -2  -6   3 89.6292 5.00836   1
  -2  -6   3 96.1794 4.84914   5
   1   6  -3 337.147 13.0292   1
   1   6  -3 383.079 13.1837   1
  -1  -6   3 367.535 13.1552   1
  -1  -6   3 379.381 12.8681   5
  -1  -6   3 397.490 12.8181   5
   0   6  -3 928.786 28.7308   1
   0   6  -3 939.046 34.8046   4
   0   6  -3 920.798 28.8782   1
   0  -6   3 890.344 28.7506   1
   0  -6   3 962.826 28.4683   5
   0  -6   3 936.282 28.5489   5
  -1   6  -3 81.8368 4.08476   1
  -1   6  -3 78.3571 8.12587   4
  -1   6  -3 71.7538 4.00071   1
  -1   6  -3 86.1633 4.24930   1
   1  -6   3 80.6263 4.18168   1
   1  -6   3 84.9338 4.04026   5
   1  -6   3 84.8479 3.92404   5
  -2   6  -3 698.680 29.2400   4
  -2   6  -3 573.724 20.3685   1
  -2   6  -3 673.206 20.5866   1
   2  -6   3 675.758 20.4886   5
   2  -6   3 641.015 20.2485   5
   2  -6   3 666.040 20.8107   1
  -3   6  -3 108.660 10.8408   4
  -3   6  -3 145.885 5.61869   1
  -3   6  -3 123.660 5.49124   1
   3  -6   3 129.144 5.40653   5
   3  -6   3 132.195 5.85215   1
   3  -6   3 129.818 5.30435   5
  -4   6  -3 110.522 11.0664   4
  -4   6  -3 109.106 4.90163   1
   4  -6   3 109.531 4.84940   5
  -5   6  -3 92.5887 10.7800   4
  -5   6  -3 87.5014 4.35716   1
   5  -6   3 93.2137 4.45978   5
  -6   6  -3 19.4269 2.26154   1
  -6   6  -3 15.3174 6.16158   4
   6  -6   3 21.2249 2.46982   5
  -7   6  -3 241.294 9.10241   1
  -7   6  -3 209.044 18.9277   4
   7  -6   3 248.038 9.39055   5
  -8   6  -3 65.5185 13.3986   4
  -8   6  -3 77.0733 4.47257   1
   8  -6   3 73.0013 4.74835   5
   8   5  -3 409.568 16.9449   1
  -8  -5   3 402.291 16.5549   1
   7   5  -3 121.033 7.37141   1
  -7  -5   3 117.824 7.12969   1
   6   5  -3 127.579 7.29836   1
  -6  -5   3 118.764 6.87149   1
   5   5  -3 478.265 17.2660   1
  -5  -5   3 457.514 16.9212   1
   4   5  -3 9.31836 2.01247   1
  -4  -5   3 9.78110 2.02223   1
  -4  -5   3 10.6410 1.98396   5
   3   5  -3 845.025 27.4009   1
   3   5  -3 799.743 27.2552   1
  -3  -5   3 887.204 27.4792   1
  -3  -5   3 885.857 26.9017   5
  -3  -5   3 853.753 26.9538   5
   2   5  -3 46.9638 3.39123   1
   2   5  -3 48.0646 3.44785   1
  -2  -5   3 50.8338 3.24021   5
  -2  -5   3 46.7170 3.08526   5
  -2  -5   3 54.2393 3.52846   1
   1   5  -3 90.1765 4.51385   1
   1   5  -3 85.0362 4.51654   1
  -1  -5   3 89.6927 4.28111   5
  -1  -5   3 85.9353 4.49536   1
  -1  -5   3 90.7689 4.24627   5
   0   5  -3 212.763 8.13041   1
   0   5  -3 196.184 7.89710   1
   0   5  -3 235.375 12.1650   4
   0  -5   3 215.139 7.85977   5
   0  -5   3 214.904 7.72916   5
   0  -5   3 212.531 8.14428   1
  -1   5  -3 7.48150 1.43462   1
  -1   5  -3 6.00412 1.26559   1
  -1   5  -3 4.36213 2.50764   4
   1  -5   3 6.39188 1.31698   1
   1  -5   3 6.13467 1.14610   5
   1  -5   3 7.37783 1.28560   5
  -2   5  -3 5.95271 2.92662   4
  -2   5  -3 4.08347 1.03150   1
  -2   5  -3 4.08731 1.05676   1
   2  -5   3 3.91795 0.93798   5
   2  -5   3 4.97976 1.06347   5
   2  -5   3 3.71551 1.10726   1
  -3   5  -3 206.589 13.6101   4
  -3   5  -3 204.292 7.56928   1
   3  -5   3 207.689 7.83700   1
   3  -5   3 202.224 7.38978   5
   3  -5   3 207.964 7.46865   5
  -4   5  -3 422.033 22.2339   4
  -4   5  -3 407.277 13.3714   1
   4  -5   3 388.308 13.6431   1
   4  -5   3 408.512 13.2534   5
  -5   5  -3 39.9907 2.70120   1
  -5   5  -3 41.5646 8.69572   4
   5  -5   3 39.3665 2.70860   5
  -6   5  -3 6.05177 4.46528   4
  -6   5  -3 18.5359 2.23225   1
   6  -5   3 17.2728 2.11315   5
  -7   5  -3 18.4232 2.34898   1
  -7   5  -3 15.2061 6.23039   4
   7  -5   3 20.5841 2.47081   5
  -8   5  -3 8.28616 1.88642   1
  -8   5  -3 7.20740 5.29590   4
   8  -5   3 9.27397 2.04846   5
  -9   5  -3 145.249 6.90889   1
   9  -5   3 138.009 7.07751   5
   8   4  -3 9.79627 2.58738   1
  -8  -4   3 7.27021 2.22857   1
   7   4  -3 77.6563 5.71813   1
  -7  -4   3 72.8842 5.19591   1
   6   4  -3 252.927 11.1476   1
  -6  -4   3 257.955 10.9342   1
   5   4  -3 59.2414 4.39332   1
  -5  -4   3 60.9396 4.28244   1
   4   4  -3 1436.12 45.0568   5
   4   4  -3 1518.75 45.9332   1
  -4  -4   3 1464.18 45.2837   5
  -4  -4   3 1526.23 45.8204   1
  -4  -4   3 1541.41 45.2505   5
   3   4  -3 844.754 26.9410   1
   3   4  -3 853.872 26.2711   5
   3   4  -3 776.911 26.7328   1
  -3  -4   3 863.484 26.3623   5
  -3  -4   3 890.740 26.9698   1
   2   4  -3 227.829 8.35532   5
   2   4  -3 225.043 8.86958   1
   2   4  -3 236.290 8.91255   1
  -2  -4   3 237.684 8.95856   1
  -2  -4   3 232.020 8.48604   5
  -2  -4   3 236.594 8.61765   5
   1   4  -3 7.21612 1.43558   1
   1   4  -3 5.72004 1.34154   1
   1   4  -3 6.31378 1.15681   5
  -1  -4   3 6.10016 1.23771   5
  -1  -4   3 6.08212 1.17922   5
  -1  -4   3 7.04328 1.34091   1
  -1  -4   3 4.84214 1.90681   4
   0   4  -3 16.4774 3.39836   4
   0   4  -3 17.8956 2.01946   1
   0   4  -3 20.5491 1.99395   1
   0   4  -3 14.4663 1.76336   1
   0  -4   3 17.0138 1.80728   5
   0  -4   3 19.2753 1.86791   5
   0  -4   3 18.1357 2.05359   1
  -1   4  -3 203.035 7.27084   1
  -1   4  -3 194.612 7.11368   1
  -1   4  -3 196.789 11.0486   4
   1  -4   3 193.025 6.93224   5
   1  -4   3 184.136 7.18270   1
   1  -4   3 185.476 6.78180   5
  -2   4  -3 470.941 15.7784   1
  -2   4  -3 489.535 21.4977   4
  -2   4  -3 511.686 15.7639   1
   2  -4   3 496.603 15.4543   5
   2  -4   3 498.434 15.9826   1
   2  -4   3 507.063 15.6180   5
  -3   4  -3 271.777 14.8484   4
  -3   4  -3 250.077 8.64316   1
  -3   4  -3 237.325 8.76903   1
   3  -4   3 246.283 8.44267   5
   3  -4   3 238.570 8.85975   1
   3  -4   3 249.539 8.53964   5
  -4   4  -3 13.6737 1.81299   1
  -4   4  -3 14.6558 1.67522   1
  -4   4  -3 16.5213 1.74500   2
  -4   4  -3 20.2529 5.26955   4
   4  -4   3 15.2882 1.71664   5
   4  -4   3 15.0405 1.94211   1
  -5   4  -3 26.5801 2.10668   2
  -5   4  -3 24.4568 2.61664   1
  -5   4  -3 25.3468 2.43132   1
   5  -4   3 29.0678 2.50914   5
   5  -4   3 24.2858 2.60276   1
  -6   4  -3 43.2325 2.80376   2
  -6   4  -3 42.0822 2.91629   1
   6  -4   3 40.6974 3.65579   1
   6  -4   3 45.0917 2.98568   5
  -7   4  -3 175.843 7.40597   1
  -7   4  -3 182.132 7.19028   2
   7  -4   3 188.786 7.51850   5
   7  -4   3 167.915 7.40753   5
  -8   4  -3 31.4609 3.21455   2
  -8   4  -3 26.9798 3.08212   1
   8  -4   3 36.9794 3.56743   5
  -9   4  -3 61.1948 4.22943   2
  -9   4  -3 67.5865 4.50168   1
   9  -4   3 59.6904 4.40087   5
   8   3  -3 53.2291 5.71732   1
  -8  -3   3 46.4503 5.07062   1
   7   3  -3 39.1715 4.63158   1
  -7  -3   3 28.3557 3.64721   1
   6   3  -3 222.460 9.96546   1
  -6  -3   3 228.474 9.80255   1
   5   3  -3 1312.56 40.8992   1
   5   3  -3 1266.53 40.3588   5
  -5  -3   3 1334.23 40.7131   1
  -5  -3   3 1336.13 40.1376   5
   4   3  -3 292.634 10.5214   5
   4   3  -3 295.028 11.0796   1
   4   3  -3 273.608 10.2975   5
  -4  -3   3 290.572 10.9123   1
  -4  -3   3 276.707 10.5039   5
  -4  -3   3 302.773 10.5430   5
   3   3  -3 73.9769 4.11014   1
   3   3  -3 73.6128 3.72848   5
   3   3  -3 70.4307 3.61964   5
  -3  -3   3 67.5088 3.71350   5
  -3  -3   3 74.0494 4.06693   1
  -3  -3   3 68.8150 3.69037   5
   2   3  -3 27.0274 1.96765   5
   2   3  -3 32.0702 2.44492   1
   2   3  -3 31.9733 2.25873   5
   2   3  -3 31.3338 2.91335   1
  -2  -3   3 30.7618 2.39672   1
  -2  -3   3 30.9685 2.19719   5
   1   3  -3 644.861 21.2833   1
   1   3  -3 696.860 21.3213   1
   1   3  -3 683.437 20.9702   5
   1   3  -3 637.499 20.7591   5
   1   3  -3 723.643 22.8951   4
  -1  -3   3 698.938 21.1103   5
  -1  -3   3 681.123 20.9666   5
  -1  -3   3 692.855 21.4008   1
   0   3  -3 585.707 20.6812   4
   0   3  -3 552.029 17.5762   5
   0   3  -3 570.099 17.9921   1
   0   3  -3 586.120 17.9337   1
   0  -3   3 568.825 17.7032   5
   0  -3   3 557.507 17.5481   5
   0  -3   3 578.433 18.0363   1
  -1   3  -3 4.52345 0.98207   1
  -1   3  -3 1.82817 0.62867   5
  -1   3  -3 5.59210 2.19902   4
  -1   3  -3 3.49633 0.91632   1
   1  -3   3 5.57642 1.14651   1
   1  -3   3 2.97359 0.73686   5
   1  -3   3 4.23796 0.87620   5
  -2   3  -3 191.596 7.15154   1
  -2   3  -3 205.942 7.11035   1
   2  -3   3 198.646 6.94135   5
   2  -3   3 191.684 6.81342   5
   2  -3   3 208.518 7.35357   1
  -3   3  -3 11.4452 1.37898   1
  -3   3  -3 9.92188 1.39477   1
  -3   3  -3 8.99666 1.32068   2
   3  -3   3 9.94445 1.26742   5
   3  -3   3 10.0909 1.47758   1
  -4   3  -3 514.807 16.2044   2
  -4   3  -3 498.586 16.5090   1
  -4   3  -3 508.155 16.2266   1
   4  -3   3 525.951 16.0910   5
   4  -3   3 510.793 16.5610   1
  -5   3  -3 56.4617 3.14779   2
  -5   3  -3 60.1792 3.23394   1
  -5   3  -3 53.3684 3.34742   1
   5  -3   3 57.7452 3.10819   5
   5  -3   3 53.4076 3.36664   1
  -6   3  -3 108.280 4.89974   2
  -6   3  -3 97.5295 5.10619   1
  -6   3  -3 104.540 4.87282   1
   6  -3   3 101.240 4.73415   5
   6  -3   3 99.9112 5.18209   1
  -7   3  -3 621.714 20.3754   2
  -7   3  -3 632.494 20.6644   1
   7  -3   3 643.935 20.5125   5
   7  -3   3 637.421 21.3008   1
   7  -3   3 630.007 20.5651   5
  -8   3  -3 0.08566 1.04738   1
  -8   3  -3 1.32334 1.12720   2
   8  -3   3 0.58312 1.02187   5
  -9   3  -3 5.07634 1.65332   2
  -9   3  -3 1.58509 1.55513   1
   9  -3   3 7.11057 2.45050   5
 -10   3  -3 23.5725 3.46407   1
 -10   3  -3 26.0111 3.37249   2
  -9  -2   3 126.704 7.65266   1
   8   2  -3 229.682 11.1148   1
  -8  -2   3 258.604 11.2050   1
   7   2  -3 202.489 9.54305   1
  -7  -2   3 211.669 9.48879   1
   6   2  -3 6.82889 1.92063   1
  -6  -2   3 4.74116 1.65534   1
   5   2  -3 0.98202 0.90229   5
   5   2  -3 -0.6478 0.76852   1
   5   2  -3 1.73274 0.88359   5
  -5  -2   3 1.86700 1.13275   1
   4   2  -3 1.07139 0.75734   5
   4   2  -3 -0.0565 0.66537   5
   4   2  -3 0.18929 0.74639   1
  -4  -2   3 0.77303 0.83550   5
  -4  -2   3 0.13512 0.56943   5
  -4  -2   3 0.16435 0.68198   1
   3   2  -3 9.59294 1.71487   1
   3   2  -3 9.74221 1.54950   5
   3   2  -3 7.42745 1.30611   5
  -3  -2   3 9.27710 1.45086   5
  -3  -2   3 9.61959 1.69666   1
  -3  -2   3 8.64403 1.42684   5
   2   2  -3 12.0785 1.57779   5
   2   2  -3 10.7131 1.63947   1
   2   2  -3 9.39237 1.49321   1
   2   2  -3 9.43873 1.33446   5
  -2  -2   3 12.0440 1.58599   5
  -2  -2   3 10.0646 1.52789   1
  -2  -2   3 13.1034 1.68612   1
  -2  -2   3 9.83644 1.35535   5
   1   2  -3 774.027 23.8794   1
   1   2  -3 769.465 23.5791   5
   1   2  -3 760.518 23.7704   1
   1   2  -3 790.707 23.4802   5
   1   2  -3 769.001 23.8863   1
  -1  -2   3 805.206 23.9561   1
  -1  -2   3 774.020 23.6164   5
  -1  -2   3 779.220 23.7524   1
  -1  -2   3 785.428 23.5068   5
   0   2  -3 148.590 5.71331   1
   0   2  -3 154.097 5.36741   5
   0   2  -3 153.112 5.65567   1
   0   2  -3 148.418 5.44656   5
   0  -2   3 154.194 5.52733   5
   0  -2   3 142.638 5.67924   1
   0  -2   3 149.033 5.55965   1
   0  -2   3 159.382 5.46524   5
   0  -2   3 141.075 5.56741   2
  -1   2  -3 470.561 14.1805   1
  -1   2  -3 447.047 13.9626   5
  -1   2  -3 426.467 13.7699   5
  -1   2  -3 452.069 14.2901   1
   1  -2   3 463.454 14.3398   1
   1  -2   3 468.168 14.0546   5
   1  -2   3 420.945 13.9738   1
   1  -2   3 477.324 13.9601   5
   1  -2   3 429.302 14.1034   2
  -2   2  -3 55.9503 2.74334   5
  -2   2  -3 63.5365 3.10150   1
  -2   2  -3 62.5438 2.96172   1
  -2   2  -3 56.7766 2.66028   5
  -2   2  -3 63.4865 3.02055   2
   2  -2   3 66.0153 2.93846   5
   2  -2   3 63.8736 3.16157   1
   2  -2   3 58.7131 2.97603   2
   2  -2   3 61.1541 2.91946   1
   2  -2   3 65.2263 2.87082   5
  -3   2  -3 14.7284 1.70934   1
  -3   2  -3 13.8687 1.56664   2
  -3   2  -3 10.0066 1.21488   5
  -3   2  -3 13.4732 1.46469   1
   3  -2   3 11.8175 1.31591   5
   3  -2   3 10.6104 1.37278   2
   3  -2   3 12.4427 1.54734   1
  -4   2  -3 3685.25 103.734   2
  -4   2  -3 3623.98 103.994   1
  -4   2  -3 3562.46 103.661   1
  -4   2  -3 3463.19 103.278   5
   4  -2   3 3525.10 103.994   1
   4  -2   3 3681.17 103.501   5
  -5   2  -3 174.349 7.44608   1
  -5   2  -3 199.824 7.32646   2
  -5   2  -3 196.547 7.34193   1
   5  -2   3 193.863 7.66057   1
   5  -2   3 194.845 7.14034   5
  -6   2  -3 63.2840 4.02508   1
  -6   2  -3 70.5393 3.87413   1
  -6   2  -3 78.5182 3.99670   2
   6  -2   3 73.9510 3.84361   5
   6  -2   3 72.6987 3.78351   5
   6  -2   3 65.3201 4.07559   1
  -7   2  -3 82.0028 4.49062   1
  -7   2  -3 83.6695 4.45610   2
   7  -2   3 71.0679 4.27449   5
   7  -2   3 76.8177 4.24636   5
   7  -2   3 81.7729 4.86796   1
  -8   2  -3 48.2443 3.74751   1
  -8   2  -3 52.5435 3.80796   2
   8  -2   3 55.1439 3.78318   5
  -9   2  -3 44.1526 4.33662   1
  -9   2  -3 50.3670 3.77021   2
 -10   2  -3 20.6028 3.30769   1
 -10   2  -3 26.9576 3.34073   2
  -9  -1   3 0.69125 1.56143   1
   8   1  -3 11.9472 2.53099   1
  -8  -1   3 14.1053 2.57189   2
  -8  -1   3 11.7170 2.41676   1
   7   1  -3 43.4290 4.44684   1
  -7  -1   3 45.4661 4.43234   1
   6   1  -3 110.177 5.58098   5
   6   1  -3 102.095 5.81814   1
  -6  -1   3 114.223 5.86586   1
   5   1  -3 58.5559 3.52764   5
   5   1  -3 54.5289 3.39375   5
   5   1  -3 50.9524 3.63644   1
  -5  -1   3 61.0222 3.76767   1
  -5  -1   3 56.0168 3.35067   5
   4   1  -3 52.4692 3.23481   5
   4   1  -3 59.9078 3.27959   5
   4   1  -3 58.9068 3.57297   1
  -4  -1   3 56.9330 3.84374   5
  -4  -1   3 58.0344 3.50600   1
  -4  -1   3 57.4578 3.42364   1
  -4  -1   3 55.1074 3.41277   1
  -4  -1   3 55.8584 3.10149   5
   3   1  -3 1846.30 55.1257   5
   3   1  -3 1805.49 55.3591   1
   3   1  -3 1926.27 55.0347   5
  -3  -1   3 1891.49 55.4272   1
  -3  -1   3 1832.76 55.3879   1
  -3  -1   3 1941.13 55.1192   5
   2   1  -3 70.6974 3.29444   5
   2   1  -3 75.7318 3.57591   1
   2   1  -3 66.6796 3.51747   1
   2   1  -3 74.5104 3.44605   5
  -2  -1   3 77.4859 3.65238   1
  -2  -1   3 76.0396 3.36360   5
  -2  -1   3 70.7572 3.47976   1
  -2  -1   3 75.5946 3.40617   5
   1   1  -3 485.399 15.3533   5
   1   1  -3 491.600 15.2531   5
   1   1  -3 501.394 15.6394   1
   1   1  -3 501.854 15.6052   1
  -1  -1   3 504.935 15.3107   5
  -1  -1   3 481.315 15.4450   1
  -1  -1   3 498.810 15.6125   1
  -1  -1   3 489.754 15.3373   5
   0   1  -3 186.890 6.25763   5
   0   1  -3 188.012 6.46095   1
   0   1  -3 184.448 6.52781   1
   0  -1   3 188.827 6.26897   5
   0  -1   3 181.499 6.30457   5
   0  -1   3 171.658 6.37659   2
   0  -1   3 186.119 6.55661   1
   0  -1   3 181.036 6.36063   1
  -1   1  -3 211.278 7.25565   5
  -1   1  -3 231.065 7.43391   1
  -1   1  -3 223.451 7.54533   1
  -1   1  -3 222.217 7.21284   5
  -1   1  -3 216.637 7.43781   2
   1  -1   3 212.837 7.32716   1
   1  -1   3 216.399 7.43622   2
   1  -1   3 228.547 7.58780   1
   1  -1   3 215.786 7.21064   5
  -2   1  -3 408.847 12.8312   2
  -2   1  -3 407.690 12.9778   1
  -2   1  -3 401.941 12.6349   5
  -2   1  -3 404.136 12.7549   1
  -2   1  -3 408.118 12.5651   5
   2  -1   3 409.609 12.7545   1
   2  -1   3 394.018 12.8197   2
   2  -1   3 423.413 12.6586   5
   2  -1   3 399.627 12.9515   1
  -3   1  -3 712.153 21.2162   2
  -3   1  -3 697.896 20.9735   5
  -3   1  -3 681.863 21.3926   1
  -3   1  -3 700.864 21.1669   1
   3  -1   3 696.094 21.4062   1
   3  -1   3 680.954 21.1374   1
   3  -1   3 702.549 21.0109   5
   3  -1   3 688.006 21.2572   2
  -4   1  -3 284.429 9.81251   1
  -4   1  -3 286.412 9.55241   1
  -4   1  -3 268.365 9.34927   5
  -4   1  -3 277.976 9.52162   2
   4  -1   3 271.830 9.65488   2
   4  -1   3 273.677 9.31468   5
   4  -1   3 285.654 9.83922   1
  -5   1  -3 83.6269 4.12279   2
  -5   1  -3 74.8207 4.15434   1
  -5   1  -3 92.9611 4.19392   1
   5  -1   3 86.1853 3.97996   5
   5  -1   3 82.6202 3.90256   5
   5  -1   3 80.8618 4.60182   2
   5  -1   3 93.8911 4.51977   1
  -6   1  -3 34.2354 2.66988   1
  -6   1  -3 36.4420 2.71768   2
  -6   1  -3 30.4749 3.05449   1
   6  -1   3 33.0669 2.51729   5
   6  -1   3 36.7218 3.30699   1
   6  -1   3 38.7912 2.63665   5
  -7   1  -3 0.97353 1.14566   2
  -7   1  -3 5.84938 1.52518   1
  -7   1  -3 5.23155 1.65582   1
   7  -1   3 5.47231 1.33278   5
   7  -1   3 3.94319 1.49602   1
   7  -1   3 1.99085 1.09657   5
  -8   1  -3 806.623 26.0020   1
  -8   1  -3 809.686 25.9847   2
   8  -1   3 805.648 26.6346   1
   8  -1   3 784.490 25.6890   5
  -9   1  -3 119.410 6.37970   1
  -9   1  -3 112.828 6.24143   2
 -10   1  -3 127.340 7.05468   1
 -10   1  -3 122.573 6.89055   2
  -9   0   3 41.5744 4.67639   1
  -9   0   3 46.9012 4.90163   2
  -8   0   3 32.4861 3.83455   1
  -8   0   3 36.6283 4.20715   2
   7   0  -3 9.12898 2.39008   1
   7   0  -3 11.6755 2.00623   5
  -7   0   3 7.88444 1.85935   2
  -7   0   3 7.58501 1.84590   1
   6   0  -3 662.499 21.5314   5
   6   0  -3 657.801 22.0197   1
   6   0  -3 623.506 22.0231   5
  -6   0   3 685.336 21.8983   1
   5   0  -3 107.310 5.06816   5
   5   0  -3 99.4566 4.87352   5
   5   0  -3 109.521 5.42667   1
  -5   0   3 111.123 5.27798   1
  -5   0   3 110.043 4.83458   5
  -5   0   3 99.5120 5.12789   1
   4   0  -3 30.2858 2.28445   5
   4   0  -3 30.1146 2.19846   5
   4   0  -3 32.0432 3.15938   1
  -4   0   3 29.0710 2.26510   1
  -4   0   3 32.0104 3.03920   1
  -4   0   3 28.2005 2.03996   5
  -4   0   3 27.7751 2.58698   1
   3   0  -3 0.86849 0.65073   5
   3   0  -3 0.89979 0.72858   1
   3   0  -3 0.93270 0.58760   5
  -3   0   3 0.94811 0.61272   1
  -3   0   3 0.70544 0.62325   1
  -3   0   3 1.41771 0.73415   5
  -3   0   3 0.59611 0.69730   5
   2   0  -3 864.761 26.7463   1
   2   0  -3 886.468 26.8736   1
   2   0  -3 887.502 26.5919   5
   2   0  -3 892.702 26.5154   5
  -2   0   3 911.718 26.4836   5
  -2   0   3 878.412 26.7416   1
  -2   0   3 884.187 26.8222   1
  -2   0   3 888.589 26.5077   5
   1   0  -3 147.355 5.18262   5
   1   0  -3 143.032 5.08462   5
   1   0  -3 138.104 5.25438   1
   1   0  -3 140.691 5.33000   1
  -1   0   3 139.618 5.04989   5
  -1   0   3 144.086 5.33140   1
  -1   0   3 144.234 5.26283   2
  -1   0   3 137.080 5.21412   1
  -1   0   3 150.992 5.13986   5
   0   0  -3 0.11545 0.43455   1
   0   0  -3 0.40191 0.49914   1
   0   0  -3 -0.1363 0.44460   2
   0   0  -3 -0.4511 0.11744   5
   0   0  -3 -0.4102 0.36530   5
   0   0   3 -0.0698 0.41027   5
   0   0   3 0.44368 0.46301   1
   0   0   3 -0.1775 0.35721   5
   0   0   3 0.27767 0.44838   2
   0   0   3 0.20294 0.46378   1
  -1   0  -3 3088.90 91.5168   1
  -1   0  -3 3108.44 92.0358   1
  -1   0  -3 3110.33 92.2731   2
  -1   0  -3 3303.76 93.9814   5
  -1   0  -3 3187.59 91.9788   5
   1   0   3 3142.95 92.5849   1
   1   0   3 3200.04 92.7922   1
   1   0   3 3309.94 91.7855   5
  -2   0  -3 757.258 22.3887   5
  -2   0  -3 769.098 22.5575   1
  -2   0  -3 743.576 22.6165   2
  -2   0  -3 763.691 22.7636   1
   2   0   3 745.745 22.5272   1
   2   0   3 733.553 22.7054   1
   2   0   3 779.715 22.4262   5
   2   0   3 728.939 22.5990   2
  -3   0  -3 4.23839 0.95064   2
  -3   0  -3 2.41988 0.58761   5
  -3   0  -3 2.92211 0.72904   1
  -3   0  -3 3.55218 0.88626   1
   3   0   3 3.58393 0.72920   5
   3   0   3 2.21133 0.63426   1
   3   0   3 3.56092 0.89301   1
   3   0   3 1.71185 0.64984   2
  -4   0  -3 0.77656 0.75628   2
  -4   0  -3 2.80377 0.97415   1
  -4   0  -3 0.97818 0.67906   5
  -4   0  -3 1.35961 0.79288   1
   4   0   3 1.51231 0.72269   5
   4   0   3 0.74774 0.74034   2
   4   0   3 0.61752 0.77068   1
   4   0   3 2.19169 0.79334   5
  -5   0  -3 175.138 6.75918   1
  -5   0  -3 169.834 7.03564   1
  -5   0  -3 163.299 6.50575   5
  -5   0  -3 169.561 6.81289   2
   5   0   3 174.268 6.98571   2
   5   0   3 169.472 7.03191   1
   5   0   3 180.019 6.60675   5
   5   0   3 180.176 6.66669   5
  -6   0  -3 805.089 28.7127   1
  -6   0  -3 931.161 27.6875   1
  -6   0  -3 946.871 27.8375   2
   6   0   3 883.518 28.0425   1
   6   0   3 850.508 27.9100   2
   6   0   3 919.361 27.3919   5
   6   0   3 865.355 27.4296   5
  -7   0  -3 147.990 6.61409   1
  -7   0  -3 152.566 6.72004   2
   7   0   3 147.090 6.98948   1
   7   0   3 132.030 6.28982   5
   7   0   3 143.647 6.35657   5
  -8   0  -3 506.569 18.0125   1
  -8   0  -3 520.901 18.1070   2
   8   0   3 513.646 17.8617   5
   8   0   3 553.192 18.7914   1
  -9   0  -3 189.420 8.79194   1
  -9   0  -3 194.745 8.92482   2
   9   0   3 201.274 9.40919   1
 -10   0  -3 81.5582 6.10714   2
 -10   0  -3 91.5479 5.76933   1
  -9   1   3 599.321 20.4604   2
  -9   1   3 555.972 20.6444   1
  -8   1   3 292.139 11.6053   1
  -8   1   3 257.411 15.8848   4
  -8   1   3 291.622 11.3441   2
   7  -1  -3 573.600 19.5533   5
   7  -1  -3 621.728 22.8415   1
  -7   1   3 605.461 19.7289   2
  -7   1   3 574.786 19.7577   1
  -7   1   3 535.217 24.2796   4
   6  -1  -3 161.713 7.49627   1
   6  -1  -3 169.085 7.20316   5
   6  -1  -3 167.557 7.08350   5
  -6   1   3 172.008 7.30161   2
  -6   1   3 186.784 7.54649   1
  -6   1   3 158.823 10.2525   4
   5  -1  -3 7.57242 1.44612   5
   5  -1  -3 7.07537 1.52878   1
   5  -1  -3 5.26857 1.23049   5
  -5   1   3 6.53238 1.45669   1
  -5   1   3 6.21124 1.45610   1
  -5   1   3 4.89344 2.28691   4
   4  -1  -3 315.250 10.2318   5
   4  -1  -3 312.308 10.3647   5
   4  -1  -3 295.674 10.5697   1
  -4   1   3 291.409 10.4595   1
  -4   1   3 297.982 10.4376   1
  -4   1   3 295.821 10.4218   1
  -4   1   3 278.388 12.5575   4
   3  -1  -3 42.8969 2.39779   5
   3  -1  -3 41.5426 2.49478   1
   3  -1  -3 42.2674 2.32902   5
  -3   1   3 36.3016 3.39359   4
  -3   1   3 36.6852 2.07181   5
  -3   1   3 44.0604 2.49880   1
  -3   1   3 41.1627 2.45191   1
   2  -1  -3 12.9584 1.45462   5
   2  -1  -3 15.4029 1.55450   5
   2  -1  -3 14.9068 1.63827   1
   2  -1  -3 15.8894 1.85957   1
  -2   1   3 14.4850 1.41118   5
  -2   1   3 13.4692 1.50739   1
  -2   1   3 14.0325 1.53183   1
   1  -1  -3 1364.86 39.1720   5
   1  -1  -3 1361.53 39.3824   1
   1  -1  -3 1347.32 39.2489   5
   1  -1  -3 1355.42 39.4752   1
   1  -1  -3 1334.60 40.6754   4
  -1   1   3 1329.58 39.3033   2
  -1   1   3 1298.36 39.2995   1
  -1   1   3 1366.97 39.4318   1
  -1   1   3 1345.79 39.0713   5
  -1   1   3 1357.59 39.0736   5
   0  -1  -3 341.420 10.9786   5
   0  -1  -3 363.258 11.1896   2
   0  -1  -3 356.689 11.2596   1
   0  -1  -3 356.924 11.1332   1
   0  -1  -3 357.398 10.9830   5
   0   1   3 348.192 11.2265   1
   0   1   3 358.749 11.1310   2
   0   1   3 368.535 11.1085   1
   0   1   3 373.136 10.9609   5
  -1  -1  -3 7.29014 1.00813   1
  -1  -1  -3 5.59412 0.88779   2
  -1  -1  -3 7.82418 0.95333   5
  -1  -1  -3 6.48480 0.94727   1
   1   1   3 7.11246 0.93107   5
   1   1   3 6.60517 1.04929   1
   1   1   3 6.02124 0.92840   2
   1   1   3 4.76709 0.78303   1
  -2  -1  -3 31.4311 1.89167   2
  -2  -1  -3 31.8969 1.96424   1
  -2  -1  -3 34.8573 1.88811   1
   2   1   3 36.7489 2.00815   2
   2   1   3 34.5077 1.88986   1
   2   1   3 34.1404 1.78600   5
   2   1   3 30.5971 1.96269   1
  -3  -1  -3 91.7536 4.13640   1
  -3  -1  -3 103.436 3.96276   5
  -3  -1  -3 94.9402 4.08632   2
  -3  -1  -3 101.728 4.08287   1
   3   1   3 100.273 3.90512   5
   3   1   3 98.0755 3.91126   5
   3   1   3 101.509 4.09421   1
   3   1   3 97.6676 4.23064   1
  -4  -1  -3 650.182 20.2499   2
  -4  -1  -3 661.417 20.1226   1
  -4  -1  -3 647.828 20.4577   1
   4   1   3 630.986 20.1816   1
   4   1   3 664.853 19.9424   5
   4   1   3 658.824 20.4433   1
   4   1   3 645.916 19.9657   5
   4   1   3 631.110 20.2778   2
  -5  -1  -3 73.2224 3.74653   1
  -5  -1  -3 74.0676 3.89653   2
  -5  -1  -3 74.2269 3.64981   5
   5   1   3 74.0944 3.99832   1
   5   1   3 74.8976 3.98128   2
   5   1   3 75.0005 3.67686   5
   5   1   3 71.2328 3.56262   5
  -6  -1  -3 550.370 17.4471   2
  -6  -1  -3 505.249 17.0764   1
  -6  -1  -3 484.062 16.8007   5
   6   1   3 533.571 16.8551   5
   6   1   3 497.818 17.4054   2
   6   1   3 523.140 16.9529   5
   6   1   3 526.604 17.5337   1
  -7  -1  -3 47.2342 3.46420   1
  -7  -1  -3 53.0345 3.80451   2
   7   1   3 49.2800 3.33281   5
   7   1   3 42.6253 4.16136   5
   7   1   3 49.5154 3.84685   1
  -8  -1  -3 0.35067 1.24460   2
  -8  -1  -3 1.33782 1.32655   1
   8   1   3 2.88783 1.37519   1
  -9  -1  -3 117.100 6.63498   1
  -9  -1  -3 136.264 7.89779   2
   9   1   3 124.319 7.20539   1
 -10  -1  -3 6.11062 2.17862   1
  10   1   3 8.20633 2.50663   1
  -9   2   3 3.43405 1.86028   1
  -9   2   3 1.11918 1.76603   2
   8  -2  -3 56.4303 4.85635   5
  -8   2   3 54.9804 3.92174   2
  -8   2   3 54.4325 4.14419   1
  -8   2   3 47.9615 8.57759   4
   7  -2  -3 28.8167 3.18555   5
  -7   2   3 28.3413 5.98776   4
  -7   2   3 31.9210 3.42440   1
  -7   2   3 28.0455 3.06156   2
   6  -2  -3 53.8688 3.78065   1
   6  -2  -3 54.4778 3.52169   5
   6  -2  -3 54.0525 3.42353   5
  -6   2   3 57.7848 6.42599   4
  -6   2   3 56.9405 3.52657   2
  -6   2   3 53.3285 3.53375   1
   5  -2  -3 425.244 14.3700   1
   5  -2  -3 421.798 13.8609   5
   5  -2  -3 428.389 14.0185   5
  -5   2   3 414.848 14.0921   1
  -5   2   3 412.170 14.1224   1
  -5   2   3 425.515 18.6378   4
  -5   2   3 424.327 13.9040   2
  -5   2   3 397.535 14.1178   1
   4  -2  -3 1061.11 31.1962   5
   4  -2  -3 1036.04 31.2972   5
   4  -2  -3 992.608 31.5565   1
  -4   2   3 1073.99 31.2589   2
  -4   2   3 1037.52 35.8815   4
  -4   2   3 1016.87 31.5082   1
  -4   2   3 1016.68 31.4122   1
  -4   2   3 1085.88 31.5203   1
   3  -2  -3 11.3372 1.34591   5
   3  -2  -3 10.8787 1.48027   1
   3  -2  -3 9.56981 1.29541   5
  -3   2   3 11.9194 2.89928   4
  -3   2   3 12.2409 1.45047   1
  -3   2   3 10.9453 1.40075   1
   2  -2  -3 319.239 9.92756   5
   2  -2  -3 310.565 12.8177   4
   2  -2  -3 315.494 9.98614   5
   2  -2  -3 315.053 10.1836   1
  -2   2   3 319.285 9.93391   2
  -2   2   3 325.612 12.8826   4
  -2   2   3 302.915 10.1215   1
   1  -2  -3 30.0989 1.67229   1
   1  -2  -3 33.2486 1.60682   5
   1  -2  -3 31.8245 1.59881   5
   1  -2  -3 35.1124 3.26214   4
   1  -2  -3 32.7628 1.77808   1
  -1   2   3 29.2021 1.70463   1
  -1   2   3 30.7411 1.57683   2
   0  -2  -3 1815.97 53.4029   5
   0  -2  -3 1801.26 53.1096   2
   0  -2  -3 1853.79 53.9259   1
   0  -2  -3 1891.13 53.2555   1
   0   2   3 1871.12 52.9993   2
   0   2   3 1810.65 53.1876   1
  -1  -2  -3 920.228 28.1502   2
  -1  -2  -3 979.487 27.9876   5
  -1  -2  -3 981.823 28.3167   1
  -1  -2  -3 1011.23 28.1484   1
   1   2   3 938.819 28.2346   1
   1   2   3 931.748 27.8448   5
   1   2   3 954.757 28.1233   1
   1   2   3 963.814 27.8601   5
   1   2   3 947.411 28.1303   2
  -2  -2  -3 847.045 24.6260   5
  -2  -2  -3 836.599 24.8051   1
  -2  -2  -3 812.307 24.9768   1
  -2  -2  -3 853.418 24.9226   2
   2   2   3 817.192 24.5831   5
   2   2   3 827.865 24.8554   2
   2   2   3 828.599 24.5514   5
   2   2   3 847.472 25.0123   1
   2   2   3 833.497 24.8280   1
  -3  -2  -3 1375.72 41.8783   1
  -3  -2  -3 1457.82 41.5359   5
  -3  -2  -3 1447.32 41.6315   1
  -3  -2  -3 1434.84 41.8077   2
   3   2   3 1430.40 41.9078   1
   3   2   3 1404.53 41.7791   2
   3   2   3 1422.36 41.7428   1
   3   2   3 1363.17 41.3323   5
   3   2   3 1402.37 41.4150   5
  -4  -2  -3 356.579 11.7398   2
  -4  -2  -3 342.992 11.3602   5
  -4  -2  -3 339.341 11.5125   1
   4   2   3 339.503 11.3084   5
   4   2   3 343.641 11.2590   5
   4   2   3 347.308 11.7871   1
   4   2   3 354.946 11.7606   2
   4   2   3 343.031 11.6152   1
  -5  -2  -3 90.3891 4.14972   5
  -5  -2  -3 95.7983 4.38827   1
  -5  -2  -3 84.8689 4.38186   2
  -5  -2  -3 88.4089 4.16214   5
   5   2   3 85.0474 4.06230   5
   5   2   3 87.6677 4.49905   1
   5   2   3 82.4378 3.93254   5
  -6  -2  -3 54.3840 3.63944   2
  -6  -2  -3 59.3072 3.47309   5
  -6  -2  -3 56.1907 3.56233   1
   6   2   3 62.4488 3.87980   1
   6   2   3 55.5241 3.31810   5
   6   2   3 56.7280 3.27395   5
  -7  -2  -3 30.8751 3.44065   1
  -7  -2  -3 22.2967 2.90303   2
   7   2   3 26.2868 2.89048   5
   7   2   3 32.0168 3.41426   1
  -8  -2  -3 888.422 28.5963   1
  -8  -2  -3 856.715 28.8863   2
   8   2   3 899.213 29.0639   1
  -9  -2  -3 213.028 9.59815   1
   9   2   3 214.628 10.0584   1
 -10  -2  -3 55.3349 5.55414   1
  10   2   3 55.7023 5.58220   1
  -9   3   3 14.4679 2.46486   2
  -9   3   3 15.9831 2.67294   1
   8  -3  -3 110.622 5.96846   5
  -8   3   3 113.725 5.40473   2
  -8   3   3 98.9887 10.5902   4
  -8   3   3 98.6397 5.69415   1
   7  -3  -3 307.538 11.3893   5
  -7   3   3 326.872 11.4864   1
  -7   3   3 297.045 10.6879   2
  -7   3   3 271.289 17.1376   4
   6  -3  -3 406.325 13.5907   5
   6  -3  -3 385.645 13.3663   5
  -6   3   3 399.921 19.9026   4
  -6   3   3 379.899 12.9072   2
  -6   3   3 392.350 13.5260   1
   5  -3  -3 64.3398 3.64618   1
   5  -3  -3 58.5595 3.27674   5
   5  -3  -3 59.0958 3.36564   5
  -5   3   3 60.7633 3.06357   2
  -5   3   3 65.0973 6.85739   4
  -5   3   3 66.0748 3.45098   1
   4  -3  -3 112.928 4.42051   5
   4  -3  -3 101.621 4.64280   1
   4  -3  -3 113.828 4.52404   5
  -4   3   3 99.7823 7.86713   4
  -4   3   3 102.624 4.48892   1
  -4   3   3 107.791 4.48880   1
   3  -3  -3 418.256 13.3508   1
   3  -3  -3 417.261 12.9986   5
   3  -3  -3 430.526 13.1171   5
  -3   3   3 429.690 18.1063   4
  -3   3   3 402.949 13.1459   1
  -3   3   3 422.209 13.1886   1
   2  -3  -3 88.0047 3.54013   1
   2  -3  -3 94.8671 3.40880   5
  -2   3   3 93.6539 6.42743   4
  -2   3   3 94.2077 3.51583   1
  -2   3   3 87.9273 3.42482   1
   1  -3  -3 131.344 4.63863   1
   1  -3  -3 131.367 4.58668   1
  -1   3   3 136.194 4.57994   1
  -1   3   3 140.890 4.50563   1
   0  -3  -3 124.171 4.21970   1
   0  -3  -3 127.695 4.32876   1
   0   3   3 124.839 4.17300   1
   0   3   3 120.509 4.27450   1
  -1  -3  -3 540.645 16.2255   5
  -1  -3  -3 560.652 16.2808   5
  -1  -3  -3 553.402 16.4820   2
  -1  -3  -3 564.395 16.4154   1
  -1  -3  -3 525.597 16.5346   1
   1   3   3 540.819 16.3057   2
   1   3   3 546.657 16.5021   1
  -2  -3  -3 388.625 11.6771   1
  -2  -3  -3 369.115 11.4930   5
  -2  -3  -3 344.146 11.7651   1
  -2  -3  -3 360.183 11.7136   2
  -2  -3  -3 372.661 11.4374   5
   2   3   3 353.638 11.2057   5
   2   3   3 402.775 11.7620   1
   2   3   3 358.567 11.6076   2
   2   3   3 380.702 11.8198   1
  -3  -3  -3 2.73745 0.77505   1
  -3  -3  -3 3.56612 0.75629   5
  -3  -3  -3 2.64145 0.83465   2
  -3  -3  -3 3.53667 0.78796   5
   3   3   3 3.80889 0.92186   1
   3   3   3 4.04014 0.75408   5
   3   3   3 3.43678 0.87811   1
  -4  -3  -3 268.172 9.07594   1
  -4  -3  -3 249.484 8.83674   5
  -4  -3  -3 257.318 9.17063   2
  -4  -3  -3 260.324 8.86137   5
   4   3   3 242.129 9.01547   1
   4   3   3 257.100 8.65118   5
   4   3   3 252.586 9.23199   1
  -5  -3  -3 43.1411 2.80227   5
  -5  -3  -3 45.4520 3.08748   2
  -5  -3  -3 48.9516 2.98578   1
   5   3   3 45.6488 2.66065   5
   5   3   3 46.7270 3.12814   1
   5   3   3 40.8917 2.95676   1
  -6  -3  -3 451.674 15.3993   2
  -6  -3  -3 431.233 14.9612   5
  -6  -3  -3 476.057 15.2774   1
  -6  -3  -3 430.977 14.8459   5
   6   3   3 444.779 15.5130   1
   6   3   3 424.351 14.6739   5
  -7  -3  -3 165.981 7.59685   2
  -7  -3  -3 165.436 7.36879   1
  -7  -3  -3 162.833 7.05318   5
   7   3   3 166.969 7.78228   1
  -8  -3  -3 4.97255 1.81418   1
   8   3   3 4.69576 1.85368   1
  -9  -3  -3 12.6630 2.69291   1
   9   3   3 10.0739 2.67025   1
 -10  -3  -3 59.7007 5.76790   1
  10   3   3 60.6662 5.84134   1
   8  -4  -3 216.774 9.10554   5
  -8   4   3 213.573 8.78241   1
  -8   4   3 189.612 15.6038   4
   7  -4  -3 6.93783 1.66770   5
   7  -4  -3 5.07105 1.74972   5
  -7   4   3 7.39991 4.30556   4
  -7   4   3 5.68376 1.48670   1
   6  -4  -3 246.112 9.13578   5
   6  -4  -3 242.494 9.03543   5
  -6   4   3 251.657 9.04215   1
  -6   4   3 228.441 15.3428   4
   5  -4  -3 896.205 27.2430   5
   5  -4  -3 894.284 27.3254   5
  -5   4   3 914.414 27.2396   1
  -5   4   3 882.334 35.2460   4
  -5   4   3 888.495 27.3276   1
   4  -4  -3 55.1143 2.81119   5
   4  -4  -3 51.8462 2.90444   1
   4  -4  -3 57.1207 2.77115   5
  -4   4   3 60.4975 2.81233   1
  -4   4   3 56.6017 2.80901   1
  -4   4   3 55.0489 6.42725   4
   3  -4  -3 22.0315 1.57801   1
  -3   4   3 27.3535 5.47813   4
  -2   4   3 26.2330 4.57271   4
  -1   4   3 52.6505 5.10657   4
  -1  -4  -3 1805.14 51.5893   1
   1   4   3 1776.90 51.6411   1
   1   4   3 1777.44 51.5919   1
  -2  -4  -3 502.143 15.3716   5
  -2  -4  -3 498.699 15.4008   5
  -2  -4  -3 513.461 15.5725   1
   2   4   3 511.144 15.7295   1
  -3  -4  -3 910.649 26.5929   5
  -3  -4  -3 879.388 26.8693   2
  -3  -4  -3 871.033 26.7051   1
  -3  -4  -3 879.774 26.5379   5
   3   4   3 882.090 26.9132   1
   3   4   3 892.052 26.8519   1
  -4  -4  -3 0.54957 0.61064   5
  -4  -4  -3 0.31015 0.70507   2
  -4  -4  -3 0.44027 0.56300   5
  -4  -4  -3 -0.2406 0.50385   1
   4   4   3 0.18913 0.51112   5
   4   4   3 0.39946 0.63591   1
   4   4   3 0.46522 0.67871   1
  -5  -4  -3 56.7014 3.23828   5
  -5  -4  -3 45.8095 3.25183   2
  -5  -4  -3 50.1334 3.06824   5
  -5  -4  -3 47.6374 3.12728   1
   5   4   3 49.4795 2.82308   5
   5   4   3 54.7460 3.49316   1
   5   4   3 56.8743 3.54257   1
  -6  -4  -3 5.10137 1.41519   1
  -6  -4  -3 7.21487 1.71251   2
  -6  -4  -3 6.81066 1.57964   5
   6   4   3 3.05746 1.02414   5
   6   4   3 7.17492 1.80181   1
  -7  -4  -3 326.384 12.0334   5
  -7  -4  -3 323.317 12.2840   1
   7   4   3 331.438 12.7454   1
  -8  -4  -3 108.637 6.01791   1
   8   4   3 105.797 6.40625   1
  -9  -4  -3 6.39464 2.13522   1
   9   4   3 2.54996 1.82419   1
 -10  -4  -3 153.799 8.43223   1
  10   4   3 158.464 8.82215   1
   8  -5  -3 36.7302 3.79912   5
  -8   5   3 33.0023 8.67698   4
  -8   5   3 36.7187 3.39688   1
   7  -5  -3 0.64485 1.03481   5
   7  -5  -3 -0.3023 1.07246   5
  -7   5   3 2.20853 2.96356   4
  -7   5   3 0.39700 0.84481   1
   6  -5  -3 204.619 7.82666   5
   6  -5  -3 194.713 7.68996   5
  -6   5   3 198.114 14.7151   4
   5  -5  -3 4.88166 1.05344   5
   5  -5  -3 3.37965 1.03898   5
  -5   5   3 10.4668 4.58560   4
  -4   5   3 244.295 15.1472   4
  -3   5   3 423.149 20.3023   4
  -2   5   3 115.100 8.92630   4
  -2  -5  -3 173.019 6.18368   1
  -2  -5  -3 175.487 6.02758   5
  -2  -5  -3 181.245 6.11052   5
   2   5   3 179.962 6.28382   1
   2   5   3 173.239 6.30337   1
  -3  -5  -3 77.9847 3.65496   1
  -3  -5  -3 85.3533 3.63314   5
  -3  -5  -3 76.5657 3.56329   5
   3   5   3 81.3807 3.84980   1
   3   5   3 78.6935 3.76442   1
  -4  -5  -3 560.366 17.3633   5
  -4  -5  -3 535.855 17.4700   1
  -4  -5  -3 538.330 17.3323   5
  -4  -5  -3 532.806 17.7099   2
   4   5   3 552.121 17.7457   1
   4   5   3 548.236 17.7024   1
  -5  -5  -3 83.2143 4.20875   5
  -5  -5  -3 75.1410 4.17017   1
  -5  -5  -3 77.9073 4.07219   5
  -5  -5  -3 77.3946 4.38242   2
   5   5   3 80.4566 4.47682   1
   5   5   3 76.6758 4.41552   1
  -6  -5  -3 141.917 6.36639   5
  -6  -5  -3 126.011 6.46686   5
  -6  -5  -3 147.666 6.60550   1
   6   5   3 140.685 6.79842   1
  -7  -5  -3 37.2032 3.63462   5
  -7  -5  -3 39.3479 4.02797   1
   7   5   3 38.0212 4.00378   1
  -8  -5  -3 164.034 8.12852   1
   8   5   3 175.669 8.70427   1
  -9  -5  -3 378.147 14.9392   1
   9   5   3 386.006 15.6773   1
   7  -6  -3 108.926 5.38051   5
   7  -6  -3 104.179 5.32497   5
  -7   6   3 97.4304 11.9592   4
   6  -6  -3 312.647 10.7229   5
   6  -6  -3 314.738 10.6440   5
  -6   6   3 262.556 18.9986   4
  -5   6   3 240.159 16.7695   4
  -4   6   3 -0.4881 1.88742   4
  -3   6   3 238.600 14.8774   4
  -2   6   3 7.14120 3.49276   4
  -2  -6  -3 919.148 27.1146   5
  -2  -6  -3 889.150 27.1979   1
  -2  -6  -3 910.419 27.0958   5
   2   6   3 942.886 27.3659   1
   2   6   3 898.408 27.2473   1
  -3  -6  -3 99.4846 4.36454   5
  -3  -6  -3 108.820 4.46086   5
  -3  -6  -3 102.207 4.46272   1
   3   6   3 107.409 4.69387   1
  -4  -6  -3 60.1496 3.49553   1
  -4  -6  -3 61.5984 3.44857   5
  -4  -6  -3 66.2828 3.54676   5
   4   6   3 62.0975 3.65705   1
   4   6   3 61.6556 3.65534   1
  -5  -6  -3 15.2456 2.12325   5
  -5  -6  -3 13.6148 2.00879   5
  -5  -6  -3 14.8102 2.21995   1
   5   6   3 11.6226 2.01561   1
  -6  -6  -3 100.415 5.27204   5
  -6  -6  -3 99.0449 5.40180   1
   6   6   3 99.2132 5.67993   1
  -7  -6  -3 10.2089 3.50139   5
  -7  -6  -3 12.8492 2.39298   1
   7   6   3 16.8651 2.91874   1
   8   6   3 108.325 6.66363   1
   9   6   3 351.959 14.9608   1
   7  -7  -3 55.2991 3.71094   5
   7  -7  -3 47.6818 3.58230   5
  -7   7   3 42.5062 9.82179   4
   6  -7  -3 36.2904 2.70036   5
   6  -7  -3 32.0870 2.82840   5
  -6   7   3 32.1862 8.42441   4
  -5   7   3 375.453 22.6690   4
  -4   7   3 10.0489 4.61362   4
  -3   7   3 18.3553 5.55279   4
  -2   7   3 655.989 29.3824   4
   1  -7  -3 88.9719 6.64377   3
  -2  -7  -3 -0.5406 0.47756   5
  -2  -7  -3 0.44390 0.59718   1
  -2  -7  -3 1.19290 0.75052   5
   2   7   3 0.77132 0.68847   1
  -3  -7  -3 182.824 6.67100   5
  -3  -7  -3 174.474 6.65628   5
  -3  -7  -3 164.922 6.58771   1
   3   7   3 180.200 6.83813   1
   3   7   3 169.231 6.77273   1
  -4  -7  -3 42.2940 2.97992   5
  -4  -7  -3 41.5039 2.90313   5
   4   7   3 43.5615 3.08877   1
  -5  -7  -3 97.2815 5.08596   5
  -5  -7  -3 102.571 5.15568   5
   5   7   3 99.2951 5.37078   1
  -6  -7  -3 666.512 21.9143   5
   6   7   3 660.500 22.4761   1
   7   7   3 122.960 6.93767   1
   8   7   3 5.49216 2.29154   1
  -6   8   3 6.43818 4.75069   4
  -5   8   3 7.29200 4.87397   4
  -4   8   3 349.541 21.9291   4
  -3   8   3 84.6117 10.1408   4
   2  -8  -3 11.5970 3.01864   3
   1  -8  -3 1032.57 36.2823   3
  -2  -8  -3 6.39200 1.12878   5
  -2  -8  -3 6.15151 1.20106   5
  -3  -8  -3 234.343 8.86699   5
  -3  -8  -3 254.065 8.96618   5
   3   8   3 253.520 9.02719   1
  -4  -8  -3 380.359 13.0608   5
  -4  -8  -3 379.769 12.9084   5
   4   8   3 354.242 13.0393   1
  -5  -8  -3 24.6500 2.89247   5
   5   8   3 25.5412 3.09093   1
  -6  -8  -3 23.9511 3.18494   5
   6   8   3 17.5872 3.00250   1
   7   8   3 51.6080 5.28711   1
   8   8   3 63.0968 6.35458   1
  -5   9   3 -2.3453 3.31995   4
  -4   9   3 312.848 21.8025   4
  -3   9   3 63.7785 11.5310   4
   2  -9  -3 10.4184 3.28897   3
   1  -9  -3 1.20985 1.76875   3
   0  -9  -3 279.503 14.7358   3
  -2  -9  -3 66.9477 3.51781   5
  -2  -9  -3 67.5485 3.49165   5
  -3  -9  -3 110.201 5.08243   5
  -3  -9  -3 102.522 5.08247   5
  -4  -9  -3 62.8131 3.94749   5
  -4  -9  -3 65.3192 4.07874   5
   4   9   3 57.3474 3.83173   1
  -5  -9  -3 28.7229 3.26380   5
   5   9   3 25.5885 3.22799   1
  -6  -9  -3 133.024 6.90732   5
   6   9   3 126.203 6.93269   1
   7   9   3 3.87641 1.87420   1
  -3 -10  -3 12.6484 2.01368   5
  -3 -10  -3 11.5746 1.99971   5
  -4 -10  -3 18.9737 2.61593   5
   4  10   3 22.0806 2.74326   1
  -5 -10  -3 52.6806 4.60078   5
   5  10   3 45.4884 4.36698   1
  -2 -11  -3 0.60003 1.34759   5
  -2 -11  -3 3.03768 1.28714   5
  -3 -11  -3 175.768 7.34422   5
  -3 -11  -3 148.870 8.22403   5
   3   9  -4 0.22848 1.69481   1
   2   9  -4 3.11333 1.57016   1
  -2  -9   4 0.01396 1.57861   5
   1   9  -4 0.64990 1.31362   1
  -1  -9   4 -0.1666 1.40635   5
   0   9  -4 128.768 6.78038   1
   0  -9   4 135.946 6.72815   5
  -1   9  -4 -0.6363 2.59935   4
  -1   9  -4 -0.0647 1.16294   1
   1  -9   4 -0.5189 1.21821   5
  -2   9  -4 116.533 5.85627   1
  -2   9  -4 125.075 12.7417   4
   2  -9   4 110.993 5.86727   5
  -3   9  -4 87.8130 4.70501   1
  -3   9  -4 71.7413 12.5283   4
   3  -9   4 67.7953 4.50964   5
  -4   9  -4 87.7499 14.4532   4
  -4   9  -4 91.1066 4.83826   1
   4  -9   4 86.4554 5.10249   5
   4   8  -4 89.9620 6.32892   1
   3   8  -4 70.9411 5.44512   1
   2   8  -4 0.40349 1.45542   1
  -2  -8   4 -0.0787 1.32475   5
   1   8  -4 191.187 8.57656   1
  -1  -8   4 178.694 8.07003   5
   0   8  -4 294.962 11.2810   1
   0  -8   4 277.740 10.8502   5
  -1   8  -4 242.943 16.2829   4
  -1   8  -4 243.366 9.62052   1
   1  -8   4 228.514 9.33501   5
  -2   8  -4 -1.9591 2.35872   4
  -2   8  -4 -0.6253 1.02206   1
   2  -8   4 2.04689 1.28806   5
   2  -8   4 -0.2764 1.01224   5
  -3   8  -4 6.66442 4.65007   4
  -3   8  -4 14.9373 2.28104   1
  -3   8  -4 14.1722 2.24155   1
   3  -8   4 14.8584 2.20954   5
   3  -8   4 12.3535 2.25130   5
  -4   8  -4 188.741 7.80602   1
  -4   8  -4 181.147 16.2799   4
   4  -8   4 189.882 7.85692   5
  -5   8  -4 114.995 14.1231   4
  -5   8  -4 149.033 6.50888   1
   5  -8   4 145.719 6.65912   5
  -6   8  -4 10.8727 1.99050   1
  -6   8  -4 6.65008 5.22512   4
   6  -8   4 8.95383 2.08435   5
   6   7  -4 3.87426 2.30943   1
   5   7  -4 82.2355 5.97976   1
   4   7  -4 5.56558 2.09067   1
   3   7  -4 286.467 12.0253   1
  -3  -7   4 290.301 11.4599   5
   2   7  -4 330.144 13.0064   1
  -2  -7   4 333.931 12.4234   5
   1   7  -4 426.522 15.4614   1
  -1  -7   4 435.034 15.0389   5
   0   7  -4 -0.5980 2.03101   4
   0   7  -4 0.23651 1.03766   1
   0  -7   4 0.91064 1.03250   5
   0  -7   4 -0.3902 0.91521   5
  -1   7  -4 16.1336 2.24610   1
  -1   7  -4 8.74704 3.81047   4
   1  -7   4 17.4242 2.30128   5
   1  -7   4 15.3367 2.19018   5
  -2   7  -4 196.419 7.80884   1
  -2   7  -4 190.247 7.86608   1
  -2   7  -4 177.434 14.0896   4
   2  -7   4 185.760 7.70058   5
   2  -7   4 181.690 7.45892   5
  -3   7  -4 27.4474 2.85667   1
  -3   7  -4 30.6739 7.85474   4
   3  -7   4 25.7922 2.74841   5
   3  -7   4 27.8270 2.77330   5
  -4   7  -4 66.2326 3.90877   1
  -4   7  -4 66.8243 11.4874   4
   4  -7   4 62.5511 3.83215   5
  -5   7  -4 126.822 5.96282   1
  -5   7  -4 125.605 13.6109   4
   5  -7   4 129.654 6.04860   5
  -6   7  -4 63.2113 4.02820   1
  -6   7  -4 57.7393 11.4701   4
   6  -7   4 63.7764 4.21869   5
  -7   7  -4 14.7426 2.34916   1
  -7   7  -4 13.5874 7.07988   4
   7  -7   4 16.4292 2.61949   5
   6   6  -4 156.681 8.80977   1
   5   6  -4 164.757 8.62018   1
  -5  -6   4 164.088 8.33868   1
   4   6  -4 35.7100 4.07819   1
  -4  -6   4 31.6604 3.84282   1
   3   6  -4 76.4860 5.01232   1
  -3  -6   4 74.9095 4.61388   5
  -3  -6   4 64.8513 4.66027   1
   2   6  -4 245.321 9.87691   1
  -2  -6   4 229.510 9.74383   1
  -2  -6   4 228.993 9.24671   5
   1   6  -4 6.68716 1.76566   1
  -1  -6   4 5.78147 1.54775   5
  -1  -6   4 7.79844 1.62257   5
  -1  -6   4 5.78818 1.68698   1
   0   6  -4 1.02263 0.98112   1
   0   6  -4 0.28046 1.75852   4
   0  -6   4 0.22482 0.84033   5
   0  -6   4 0.79643 0.95381   1
   0  -6   4 0.78744 0.97989   5
  -1   6  -4 3.55279 1.36338   1
  -1   6  -4 4.04609 3.03748   4
  -1   6  -4 2.98466 1.18982   1
   1  -6   4 3.59411 1.19657   5
   1  -6   4 3.14336 1.07605   5
   1  -6   4 5.10767 1.47799   1
  -2   6  -4 967.384 29.0404   1
  -2   6  -4 888.604 36.9973   4
   2  -6   4 935.954 28.6485   5
   2  -6   4 939.004 28.7496   5
   2  -6   4 917.281 29.1469   1
  -3   6  -4 1781.83 52.6009   1
  -3   6  -4 1721.90 62.9272   4
   3  -6   4 1816.79 52.4811   5
   3  -6   4 1736.93 52.2751   5
  -4   6  -4 -0.0928 0.83267   1
  -4   6  -4 -0.9375 2.99819   4
   4  -6   4 0.19097 0.95096   5
  -5   6  -4 6.78578 4.25516   4
  -5   6  -4 6.04173 1.54880   1
   5  -6   4 7.54333 1.64905   5
  -6   6  -4 13.3705 6.02354   4
  -6   6  -4 12.6627 2.02135   1
   6  -6   4 11.2620 1.92269   5
  -7   6  -4 53.1262 11.4422   4
  -7   6  -4 66.6953 4.17234   1
   7  -6   4 64.3382 4.26526   5
  -8   6  -4 1.03380 1.19615   1
  -8   6  -4 1.92601 4.76917   4
   8  -6   4 2.54877 1.72876   5
   7   5  -4 154.129 8.77993   1
  -7  -5   4 139.501 8.25590   1
   6   5  -4 0.94910 1.38060   1
  -6  -5   4 -2.7912 0.92114   1
   5   5  -4 15.8336 2.80034   1
  -5  -5   4 13.6514 2.63913   1
   4   5  -4 40.9750 4.17014   1
  -4  -5   4 44.3679 4.50709   1
   3   5  -4 7.72984 1.96432   1
  -3  -5   4 6.21145 1.61749   5
  -3  -5   4 4.41088 1.50601   1
   2   5  -4 46.2612 4.16265   1
   2   5  -4 47.3374 3.60031   1
  -2  -5   4 47.7372 3.37758   5
  -2  -5   4 49.1224 3.65839   1
  -2  -5   4 49.9581 3.33357   5
   1   5  -4 125.981 5.87990   1
   1   5  -4 111.766 5.82525   1
  -1  -5   4 117.482 5.42680   5
  -1  -5   4 121.117 5.58068   5
  -1  -5   4 130.216 5.99980   1
   0   5  -4 1684.30 48.8505   1
   0   5  -4 1660.05 48.7051   1
   0   5  -4 1569.20 53.3786   4
   0   5  -4 1544.03 48.7361   1
   0  -5   4 1626.96 48.3849   5
   0  -5   4 1675.91 48.2957   5
   0  -5   4 1594.73 48.7969   1
  -1   5  -4 28.8232 2.95144   1
  -1   5  -4 26.1820 2.64843   1
  -1   5  -4 29.3710 5.51007   4
   1  -5   4 23.0021 2.21995   5
   1  -5   4 27.3638 2.89684   1
   1  -5   4 23.5239 2.35443   5
  -2   5  -4 157.920 6.87927   1
  -2   5  -4 165.265 11.6986   4
  -2   5  -4 179.851 6.93518   1
   2  -5   4 167.142 6.69430   5
   2  -5   4 172.088 7.11343   1
   2  -5   4 170.986 6.58575   5
  -3   5  -4 339.212 19.0998   4
  -3   5  -4 337.444 12.3635   1
  -3   5  -4 372.919 12.3283   1
   3  -5   4 347.325 11.9572   5
   3  -5   4 364.517 12.1143   5
   3  -5   4 365.762 12.6753   1
  -4   5  -4 28.3474 2.72328   1
  -4   5  -4 31.9290 6.94613   4
   4  -5   4 31.0389 2.70409   5
   4  -5   4 25.2203 2.89668   1
  -5   5  -4 -0.0671 2.55079   4
  -5   5  -4 0.44147 0.88364   1
   5  -5   4 -1.2187 0.73212   5
  -6   5  -4 -0.3434 2.44254   4
  -6   5  -4 -0.1450 0.79803   2
  -6   5  -4 0.10611 0.93272   1
   6  -5   4 0.87610 0.93118   5
  -7   5  -4 257.290 9.94812   1
  -7   5  -4 262.351 9.52369   2
   7  -5   4 242.061 9.84657   5
  -8   5  -4 67.5428 4.05783   2
  -8   5  -4 66.6794 4.40692   1
  -8   5  -4 64.3902 12.9117   4
   8  -5   4 59.8264 4.29992   5
  -9   5  -4 8.16483 6.44521   4
   8   4  -4 22.7093 3.88909   1
  -8  -4   4 24.9855 3.97117   1
   7   4  -4 279.020 12.4936   1
  -7  -4   4 279.002 12.3253   1
   6   4  -4 86.9594 5.90457   1
  -6  -4   4 92.2938 5.78935   1
   5   4  -4 -0.9868 0.94392   1
  -5  -4   4 0.87335 1.18861   1
   4   4  -4 2.26493 1.41709   1
  -4  -4   4 4.48087 1.35267   5
  -4  -4   4 1.68830 1.20507   1
   3   4  -4 632.763 21.1201   1
   3   4  -4 610.222 20.4118   5
  -3  -4   4 668.637 21.3027   1
  -3  -4   4 624.775 20.5072   5
  -3  -4   4 618.464 20.6158   5
   2   4  -4 208.507 8.68728   1
   2   4  -4 203.816 8.07157   5
   2   4  -4 227.591 8.75491   1
  -2  -4   4 213.660 8.66942   1
  -2  -4   4 207.113 8.11453   5
   1   4  -4 0.93724 0.70480   5
   1   4  -4 1.42084 0.89440   1
   1   4  -4 0.51676 0.92730   1
  -1  -4   4 1.23525 0.80064   5
  -1  -4   4 0.84249 0.79131   5
  -1  -4   4 1.10159 0.92920   1
   0   4  -4 245.892 11.8064   4
   0   4  -4 222.490 8.71825   1
   0   4  -4 223.978 8.21798   5
   0   4  -4 235.999 8.85712   1
   0  -4   4 224.621 8.79283   1
   0  -4   4 232.191 8.49144   5
   0  -4   4 230.895 8.39224   5
  -1   4  -4 27.5462 2.59937   1
  -1   4  -4 27.8341 2.71869   1
  -1   4  -4 31.4713 5.16897   4
   1  -4   4 30.0831 2.24717   5
   1  -4   4 31.9660 2.98256   1
   1  -4   4 32.8070 2.23055   5
  -2   4  -4 3.35069 2.49173   4
  -2   4  -4 6.32580 1.35587   1
  -2   4  -4 5.75713 1.23958   1
   2  -4   4 5.47430 1.08357   5
   2  -4   4 3.41634 1.13278   1
   2  -4   4 7.10928 1.31324   5
  -3   4  -4 213.825 8.33039   1
  -3   4  -4 218.975 8.14392   1
  -3   4  -4 207.977 13.2640   4
   3  -4   4 219.254 8.01910   5
   3  -4   4 225.275 7.93836   5
   3  -4   4 227.741 8.51564   1
  -4   4  -4 1362.97 38.5032   2
  -4   4  -4 1250.25 38.4388   1
  -4   4  -4 1185.18 38.6777   1
   4  -4   4 1310.31 38.3090   5
   4  -4   4 1280.53 38.9054   1
  -5   4  -4 18.5242 2.20115   2
  -5   4  -4 18.9831 2.20968   1
   5  -4   4 14.9143 2.00419   5
   5  -4   4 19.6125 2.46986   1
  -6   4  -4 63.9016 3.78058   1
  -6   4  -4 61.6632 3.69513   2
   6  -4   4 57.2744 3.61930   5
  -7   4  -4 48.8693 3.50560   1
  -7   4  -4 49.1025 3.46719   2
   7  -4   4 48.1683 3.48447   5
  -8   4  -4 19.3784 2.71778   1
  -8   4  -4 23.4022 2.84449   2
   8  -4   4 20.8956 2.80000   5
  -9   4  -4 51.4239 4.66298   1
  -9   4  -4 61.4131 4.24212   2
   8   3  -4 1.62698 1.64581   1
  -8  -3   4 2.06522 1.71290   1
   7   3  -4 96.7227 6.34851   1
  -7  -3   4 89.0077 5.98034   1
   6   3  -4 432.730 16.4666   1
  -6  -3   4 428.955 16.1717   1
   5   3  -4 15.2120 2.64830   1
  -5  -3   4 12.3980 2.37121   1
   4   3  -4 696.218 22.3427   1
   4   3  -4 626.559 21.4518   5
   4   3  -4 636.239 21.4868   5
  -4  -3   4 677.136 22.1273   1
  -4  -3   4 669.186 21.4875   5
  -4  -3   4 671.006 23.5664   5
   3   3  -4 795.957 25.3506   1
   3   3  -4 759.322 24.6116   5
   3   3  -4 763.118 24.7886   5
  -3  -3   4 805.793 24.9605   5
  -3  -3   4 794.424 24.7945   5
  -3  -3   4 808.748 25.4341   1
   2   3  -4 498.913 16.5335   5
   2   3  -4 493.913 16.6556   5
   2   3  -4 513.820 17.0857   1
  -2  -3   4 511.919 16.6509   5
  -2  -3   4 529.206 17.2511   1
  -2  -3   4 529.429 16.8428   5
   1   3  -4 127.841 5.78270   1
   1   3  -4 128.026 5.36390   5
   1   3  -4 132.692 5.71608   1
   1   3  -4 136.835 5.84668   1
  -1  -3   4 128.592 5.77086   1
  -1  -3   4 127.006 5.36689   5
   0   3  -4 903.095 27.5063   1
   0   3  -4 954.621 30.3018   4
   0   3  -4 886.647 27.1404   5
   0   3  -4 851.348 27.5193   1
   0  -3   4 907.978 27.6521   1
   0  -3   4 832.964 27.3451   2
   0  -3   4 905.214 27.2511   5
   0  -3   4 898.032 27.1025   5
  -1   3  -4 529.415 16.3638   1
  -1   3  -4 494.905 15.9189   5
  -1   3  -4 490.341 16.3894   1
  -1   3  -4 516.950 19.9465   4
   1  -3   4 471.790 16.6492   2
   1  -3   4 510.128 16.1246   5
   1  -3   4 517.163 16.5251   1
   1  -3   4 513.275 16.0064   5
  -2   3  -4 425.469 14.3182   1
  -2   3  -4 443.005 14.2337   1
   2  -3   4 443.893 13.9225   5
   2  -3   4 419.864 14.3726   1
   2  -3   4 438.116 14.0098   5
  -3   3  -4 261.545 9.28331   2
  -3   3  -4 249.908 9.43310   1
  -3   3  -4 262.071 9.28301   1
   3  -3   4 263.332 9.58104   1
   3  -3   4 275.986 9.15233   5
  -4   3  -4 35.7303 2.50308   1
  -4   3  -4 37.2586 2.62205   2
  -4   3  -4 37.7752 2.76470   1
   4  -3   4 40.2725 2.86103   1
   4  -3   4 36.7611 2.44221   5
  -5   3  -4 66.7474 3.60619   2
  -5   3  -4 59.8915 3.52281   1
  -5   3  -4 58.2688 3.71329   1
   5  -3   4 56.9904 3.73468   1
   5  -3   4 63.2179 3.48950   5
  -6   3  -4 51.9044 3.36502   1
  -6   3  -4 50.0436 3.33501   2
   6  -3   4 49.6586 3.19932   5
   6  -3   4 47.5918 3.58181   1
  -7   3  -4 -0.7776 0.89438   2
  -7   3  -4 0.91627 1.00077   1
   7  -3   4 2.00013 1.16352   5
   7  -3   4 0.13624 1.13317   1
  -8   3  -4 30.5865 3.29401   2
  -8   3  -4 37.2895 3.63976   1
   8  -3   4 33.0021 3.31173   5
  -9   3  -4 89.7073 5.46885   2
  -9   3  -4 87.8264 5.50305   1
   8   2  -4 115.349 7.41944   1
  -8  -2   4 127.611 7.36177   1
   7   2  -4 13.5974 3.02292   1
  -7  -2   4 8.71006 2.35415   1
   6   2  -4 7.55293 2.09356   1
  -6  -2   4 6.47396 2.04712   1
   5   2  -4 363.995 13.9331   1
   5   2  -4 377.355 13.4760   5
  -5  -2   4 378.505 13.9364   1
   4   2  -4 46.6246 3.10994   5
   4   2  -4 43.1900 3.11716   5
   4   2  -4 39.2442 3.70443   1
  -4  -2   4 44.9732 3.36917   1
  -4  -2   4 46.1446 3.09170   5
  -4  -2   4 42.5322 3.03176   5
   3   2  -4 112.844 5.35299   1
   3   2  -4 105.485 4.85720   5
   3   2  -4 99.5531 4.88228   5
  -3  -2   4 107.860 4.90803   5
  -3  -2   4 108.153 5.31177   1
  -3  -2   4 109.734 5.02537   5
   2   2  -4 12.5310 1.69045   5
   2   2  -4 12.6504 1.56826   5
   2   2  -4 15.1000 1.95450   1
  -2  -2   4 14.2982 1.84869   5
  -2  -2   4 12.3286 1.75440   5
  -2  -2   4 16.8263 2.21665   1
   1   2  -4 1.36451 0.66851   1
   1   2  -4 1.14632 0.64028   5
   1   2  -4 -0.5711 0.48757   1
   1   2  -4 1.38613 0.76616   1
   1   2  -4 0.58125 0.49001   5
  -1  -2   4 1.15556 0.71919   1
  -1  -2   4 0.48084 0.53791   5
  -1  -2   4 0.49867 0.56192   5
   0   2  -4 586.865 19.2011   1
   0   2  -4 597.542 18.6887   5
   0   2  -4 629.371 19.1639   1
   0   2  -4 607.098 18.8854   5
   0  -2   4 612.995 18.8972   5
   0  -2   4 594.171 19.0723   2
   0  -2   4 625.062 19.3154   1
   0  -2   4 603.869 18.7942   5
  -1   2  -4 32.0810 2.29178   1
  -1   2  -4 33.7542 2.13495   5
  -1   2  -4 41.3504 2.44783   1
  -1   2  -4 32.6645 1.98824   5
   1  -2   4 30.8073 2.09430   5
   1  -2   4 31.5312 2.18663   2
   1  -2   4 37.1958 2.47313   1
  -2   2  -4 8.17050 1.24708   1
  -2   2  -4 5.60562 1.04018   5
  -2   2  -4 7.04558 1.20107   2
  -2   2  -4 9.05313 1.24066   5
  -2   2  -4 9.43383 1.48258   1
   2  -2   4 6.30635 1.13273   2
   2  -2   4 7.44556 1.19157   5
   2  -2   4 8.70682 1.39039   1
   2  -2   4 8.55760 1.19954   5
  -3   2  -4 372.943 12.0764   2
  -3   2  -4 354.620 11.7511   5
  -3   2  -4 362.885 12.2311   1
  -3   2  -4 364.528 11.9487   1
   3  -2   4 360.319 11.7887   5
   3  -2   4 356.130 12.2807   1
   3  -2   4 347.770 12.0123   2
  -4   2  -4 46.1760 2.98511   1
  -4   2  -4 43.2463 2.52709   5
  -4   2  -4 44.6962 2.77300   1
  -4   2  -4 44.5707 2.85707   2
   4  -2   4 49.1164 3.10070   1
   4  -2   4 53.2347 2.81646   5
  -5   2  -4 17.5394 2.23141   1
  -5   2  -4 13.6381 2.01245   5
  -5   2  -4 19.5091 2.12003   1
  -5   2  -4 21.9910 2.42331   2
   5  -2   4 14.2149 2.00372   1
   5  -2   4 17.3977 1.95012   5
  -6   2  -4 183.493 8.15231   1
  -6   2  -4 191.256 7.81437   1
  -6   2  -4 209.328 7.94705   2
   6  -2   4 197.269 7.64451   5
   6  -2   4 202.132 8.37083   1
  -7   2  -4 552.757 18.5741   1
  -7   2  -4 568.989 18.5429   2
   7  -2   4 549.888 19.1076   1
   7  -2   4 538.328 18.2250   5
  -8   2  -4 271.856 10.7097   1
  -8   2  -4 274.285 10.6332   2
   8  -2   4 261.106 10.4343   5
  -9   2  -4 5.15136 1.81459   1
  -9   2  -4 6.88866 1.84707   2
 -10   2  -4 71.5294 5.28923   1
 -10   2  -4 72.4389 5.14701   2
  -8  -1   4 203.555 9.94170   1
  -8  -1   4 226.114 11.3577   2
   7   1  -4 61.1462 4.74173   1
  -7  -1   4 56.4392 4.37958   1
   6   1  -4 7.65712 1.91698   1
  -6  -1   4 5.42363 1.74929   1
   5   1  -4 6.25062 1.54331   5
   5   1  -4 7.77149 1.80080   1
  -5  -1   4 9.71792 1.90927   1
   4   1  -4 221.616 9.05169   1
   4   1  -4 210.459 8.60323   5
   4   1  -4 225.315 8.56351   5
  -4  -1   4 236.764 8.57451   5
  -4  -1   4 235.627 9.06965   1
   3   1  -4 445.041 14.6285   5
   3   1  -4 442.762 15.0426   1
   3   1  -4 446.708 14.7932   5
  -3  -1   4 457.670 14.6355   5
  -3  -1   4 427.806 14.9031   1
  -3  -1   4 437.090 14.6378   5
  -3  -1   4 457.825 15.1500   1
   2   1  -4 1565.65 45.6616   5
   2   1  -4 1519.82 45.8484   1
   2   1  -4 1551.10 45.4583   5
  -2  -1   4 1584.22 45.4922   5
  -2  -1   4 1549.56 45.9084   1
  -2  -1   4 1431.78 45.6196   1
  -2  -1   4 1559.80 45.5314   5
   1   1  -4 622.409 19.7470   1
   1   1  -4 627.330 19.3130   5
   1   1  -4 633.531 19.6735   1
   1   1  -4 614.234 19.3863   5
  -1  -1   4 634.520 19.3618   5
  -1  -1   4 609.083 19.4812   1
  -1  -1   4 612.279 19.2652   5
  -1  -1   4 648.473 19.7519   1
   0   1  -4 126.733 5.00241   5
   0   1  -4 126.184 5.24035   1
   0   1  -4 124.951 4.87417   5
   0   1  -4 126.339 5.13693   1
   0  -1   4 125.902 5.13446   2
   0  -1   4 136.051 5.05561   5
   0  -1   4 129.872 4.96432   5
   0  -1   4 125.237 5.03333   1
   0  -1   4 122.775 5.21282   1
  -1   1  -4 46.9598 2.57276   1
  -1   1  -4 46.6188 2.45020   5
  -1   1  -4 42.9714 2.59532   1
  -1   1  -4 41.8040 2.27641   5
  -1   1  -4 47.2831 2.61684   2
   1  -1   4 47.6494 2.46071   5
   1  -1   4 42.0829 2.43214   1
   1  -1   4 42.5608 2.48934   2
   1  -1   4 45.2582 2.66168   1
   1  -1   4 48.8784 2.49088   5
  -2   1  -4 -0.5469 0.45894   5
  -2   1  -4 -1.1738 0.43242   1
  -2   1  -4 -0.2261 0.55940   2
  -2   1  -4 0.19399 0.60473   1
  -2   1  -4 -0.3912 0.38421   5
   2  -1   4 -1.2729 0.41453   5
   2  -1   4 0.02863 0.64103   1
   2  -1   4 -0.3851 0.45355   1
   2  -1   4 -0.0185 0.48219   2
  -3   1  -4 23.9915 1.85136   1
  -3   1  -4 24.5792 1.70838   5
  -3   1  -4 22.3452 1.70755   5
  -3   1  -4 25.3232 1.95056   2
  -3   1  -4 23.7441 2.34170   1
   3  -1   4 26.3384 2.35835   1
   3  -1   4 20.8158 1.88079   5
   3  -1   4 25.2870 1.90596   2
  -4   1  -4 799.914 24.0992   2
  -4   1  -4 759.412 24.2944   1
  -4   1  -4 747.650 24.0886   5
  -4   1  -4 806.047 24.0471   1
   4  -1   4 789.231 24.3948   1
   4  -1   4 769.485 24.1801   2
   4  -1   4 773.568 23.7745   5
  -5   1  -4 664.163 21.0549   2
  -5   1  -4 629.119 21.3029   1
  -5   1  -4 667.263 20.9859   1
   5  -1   4 683.103 20.7722   5
   5  -1   4 685.897 21.5027   1
   5  -1   4 646.659 21.2429   2
  -6   1  -4 82.6451 4.37737   2
  -6   1  -4 84.8105 4.39613   1
  -6   1  -4 74.4761 4.50875   1
   6  -1   4 78.2994 4.11810   5
   6  -1   4 73.4468 3.96736   5
   6  -1   4 82.0510 4.66948   1
  -7   1  -4 439.385 15.2439   2
  -7   1  -4 441.605 15.2229   1
   7  -1   4 424.497 14.8862   5
   7  -1   4 437.448 15.7034   1
  -8   1  -4 7.18409 1.97002   1
  -8   1  -4 9.79689 2.03491   2
   8  -1   4 8.42764 1.73229   5
   8  -1   4 9.93638 2.47398   1
  -9   1  -4 1.32988 1.43414   2
  -9   1  -4 1.56304 1.33937   1
 -10   1  -4 5.94590 1.80945   2
 -10   1  -4 8.57354 2.16791   1
  -8   0   4 46.1535 4.70718   1
  -8   0   4 38.9636 4.32018   2
   7   0  -4 50.7846 5.88765   1
  -7   0   4 45.0909 4.61174   2
  -7   0   4 41.2971 4.29738   1
   6   0  -4 56.7462 3.90878   5
   6   0  -4 67.5977 4.47332   1
  -6   0   4 55.4948 4.14204   1
   5   0  -4 764.547 25.1770   1
   5   0  -4 775.270 24.5503   5
   5   0  -4 803.787 24.8043   5
  -5   0   4 743.673 24.9703   1
  -5   0   4 782.322 24.9909   1
   4   0  -4 -0.2808 0.56599   1
   4   0  -4 -0.1197 0.69848   5
   4   0  -4 0.07567 0.62250   5
  -4   0   4 -0.0036 0.70265   1
  -4   0   4 -0.0184 0.61085   1
  -4   0   4 1.26891 0.82375   5
   3   0  -4 184.006 6.75371   5
   3   0  -4 175.621 7.02228   1
   3   0  -4 169.692 6.78958   5
  -3   0   4 174.638 7.02283   1
  -3   0   4 177.843 6.55294   5
  -3   0   4 165.130 6.85919   1
   2   0  -4 1217.07 35.2626   5
   2   0  -4 1173.16 35.3441   5
   2   0  -4 1159.53 35.5396   1
  -2   0   4 1212.17 35.6517   1
  -2   0   4 1204.81 35.1686   5
  -2   0   4 1120.93 35.4146   1
  -2   0   4 1194.88 35.1950   5
   1   0  -4 135.902 5.37726   1
   1   0  -4 131.656 5.47326   1
   1   0  -4 133.188 5.22719   5
  -1   0   4 142.323 5.19486   5
  -1   0   4 136.447 5.34116   2
  -1   0   4 134.270 5.29661   1
  -1   0   4 140.910 5.16202   5
  -1   0   4 132.853 5.44646   1
   0   0  -4 2.04782 0.73234   5
   0   0  -4 2.05933 0.78089   1
   0   0  -4 2.19398 0.77033   1
   0   0  -4 2.35286 0.86350   2
   0   0   4 2.63230 0.75038   2
   0   0   4 1.28941 0.73093   1
   0   0   4 2.53950 0.75867   5
   0   0   4 3.05689 0.82049   1
   0   0   4 3.60941 0.89692   5
  -1   0  -4 704.859 20.9029   5
  -1   0  -4 701.520 21.0919   1
  -1   0  -4 702.991 21.2007   2
  -1   0  -4 658.595 21.2084   1
  -1   0  -4 698.792 20.9806   5
   1   0   4 690.860 21.0433   1
   1   0   4 703.322 20.8989   5
   1   0   4 674.436 21.2439   1
  -2   0  -4 421.644 13.7064   1
  -2   0  -4 448.275 13.5430   1
  -2   0  -4 425.298 13.5799   2
  -2   0  -4 430.352 13.2884   5
  -2   0  -4 410.632 13.3095   5
   2   0   4 407.073 13.5263   2
   2   0   4 423.683 13.2529   5
   2   0   4 418.986 13.7087   1
   2   0   4 419.938 13.4348   1
  -3   0  -4 849.572 26.8425   1
  -3   0  -4 883.546 26.6898   2
  -3   0  -4 899.923 26.6148   1
  -3   0  -4 869.034 26.3497   5
   3   0   4 885.628 26.7325   2
   3   0   4 882.243 26.8602   1
   3   0   4 872.132 26.3613   5
   3   0   4 873.568 26.6208   1
  -4   0  -4 706.565 21.3632   2
  -4   0  -4 640.249 20.9406   5
  -4   0  -4 707.327 21.2871   1
  -4   0  -4 652.379 21.4975   1
   4   0   4 692.667 21.0058   5
   4   0   4 674.335 21.5587   1
   4   0   4 695.244 21.4756   2
  -5   0  -4 138.695 5.87562   1
  -5   0  -4 135.594 6.37709   1
  -5   0  -4 140.193 6.00849   2
  -5   0  -4 136.423 5.67536   5
   5   0   4 141.159 6.23839   1
   5   0   4 134.820 5.64051   5
   5   0   4 143.479 5.78146   5
   5   0   4 145.923 6.17863   2
  -6   0  -4 49.4854 3.36349   2
  -6   0  -4 48.1559 3.21814   1
   6   0   4 48.2384 3.48497   1
   6   0   4 47.3228 3.57100   2
   6   0   4 43.6220 2.91447   5
   6   0   4 47.6784 3.12685   5
  -7   0  -4 112.486 5.76803   2
  -7   0  -4 121.075 5.83522   1
   7   0   4 119.771 6.23339   1
   7   0   4 106.362 5.38643   5
  -8   0  -4 622.503 20.8965   2
  -8   0  -4 612.660 20.8148   1
   8   0   4 605.472 21.3150   1
  -9   0  -4 93.1999 5.56490   2
  -9   0  -4 85.1081 5.45928   1
   9   0   4 94.3553 6.03504   1
 -10   0  -4 188.560 9.22541   1
  -8   1   4 8.69287 2.41054   1
  -8   1   4 10.6162 2.34480   2
   7  -1  -4 0.93204 1.38008   5
  -7   1   4 2.56728 1.36255   1
  -7   1   4 5.34191 1.65392   2
   6  -1  -4 83.7249 4.81242   5
   6  -1  -4 83.0648 5.13573   1
  -6   1   4 83.1887 6.83301   4
  -6   1   4 94.7072 5.14673   1
   5  -1  -4 717.645 23.5107   5
   5  -1  -4 770.606 23.8224   5
   5  -1  -4 753.636 24.2055   1
  -5   1   4 782.731 24.0690   1
  -5   1   4 698.914 23.8311   1
   4  -1  -4 19.1381 2.20319   5
   4  -1  -4 26.4786 2.55782   5
   4  -1  -4 18.0305 2.29321   1
  -4   1   4 21.2437 2.37879   1
  -4   1   4 19.9055 2.36637   1
   3  -1  -4 313.398 10.3971   5
   3  -1  -4 309.424 10.7435   1
   3  -1  -4 309.568 10.5271   5
  -3   1   4 312.875 10.4521   5
  -3   1   4 291.372 10.5311   1
  -3   1   4 303.242 10.6863   1
   2  -1  -4 366.409 11.8136   1
   2  -1  -4 351.665 11.4509   5
   2  -1  -4 350.133 11.5566   5
  -2   1   4 347.699 11.5867   2
  -2   1   4 333.768 11.6101   1
  -2   1   4 359.880 11.8296   1
  -2   1   4 366.385 11.3005   5
   1  -1  -4 3137.37 95.2999   1
   1  -1  -4 3329.74 94.8647   5
   1  -1  -4 3190.86 93.6774   5
  -1   1   4 3191.73 93.7732   1
  -1   1   4 3233.19 93.9589   1
  -1   1   4 3368.14 93.8250   2
  -1   1   4 3307.74 93.5163   5
   0  -1  -4 19.9766 1.43091   5
   0  -1  -4 20.4814 1.58237   2
   0  -1  -4 19.8168 1.45423   5
   0  -1  -4 21.6774 1.59603   1
   0  -1  -4 20.9811 1.62955   1
   0   1   4 20.1250 1.49451   1
   0   1   4 22.3485 1.71632   1
   0   1   4 23.6141 1.51613   5
   0   1   4 23.2463 1.60290   2
  -1  -1  -4 1067.17 30.9802   1
  -1  -1  -4 1075.96 30.8080   5
  -1  -1  -4 1017.44 31.0411   2
  -1  -1  -4 998.991 31.1377   1
  -1  -1  -4 1031.27 30.8295   5
   1   1   4 1042.46 31.1816   1
   1   1   4 1039.47 30.9910   2
   1   1   4 1072.23 30.7629   5
   1   1   4 1048.16 30.9545   1
  -2  -1  -4 1340.90 37.6660   1
  -2  -1  -4 1244.14 37.8420   1
  -2  -1  -4 1279.64 37.7142   2
   2   1   4 1289.93 37.7151   2
   2   1   4 1263.77 37.5956   1
   2   1   4 1228.77 37.7806   1
  -3  -1  -4 895.167 28.2071   1
  -3  -1  -4 966.991 27.8171   5
  -3  -1  -4 946.005 27.9730   1
  -3  -1  -4 963.695 28.1530   2
   3   1   4 916.485 27.7194   5
   3   1   4 911.425 27.9726   1
   3   1   4 946.805 28.2753   1
   3   1   4 876.929 28.0249   2
  -4  -1  -4 215.985 7.92160   5
  -4  -1  -4 216.625 8.17191   2
  -4  -1  -4 219.648 8.07553   1
   4   1   4 236.179 8.48222   1
   4   1   4 230.911 7.92048   5
   4   1   4 225.504 8.16760   1
   4   1   4 223.476 7.94926   5
  -5  -1  -4 154.450 6.44364   2
  -5  -1  -4 170.742 6.51026   1
  -5  -1  -4 154.420 6.17880   5
   5   1   4 151.295 6.16189   5
   5   1   4 148.831 6.50607   2
   5   1   4 141.970 5.95449   5
   5   1   4 156.595 6.66398   1
  -6  -1  -4 96.6855 5.07754   2
  -6  -1  -4 107.211 5.08266   1
  -6  -1  -4 93.0774 4.69940   5
   6   1   4 104.738 4.92041   5
   6   1   4 103.020 4.77077   5
   6   1   4 98.0236 5.26272   2
   6   1   4 103.614 5.36786   1
  -7  -1  -4 1042.29 31.8996   2
  -7  -1  -4 1013.31 31.6649   1
   7   1   4 965.430 31.2207   5
   7   1   4 1017.20 32.2549   1
  -8  -1  -4 39.9763 3.88090   1
  -8  -1  -4 51.7986 4.00719   2
   8   1   4 43.7858 4.52344   1
  -9  -1  -4 3.50116 1.70294   1
   9   1   4 4.99371 2.03986   1
 -10  -1  -4 48.1327 5.01775   1
  10   1   4 41.5539 4.81266   1
  -8   2   4 317.565 12.3610   2
  -8   2   4 338.913 13.0481   1
   7  -2  -4 169.380 7.84237   5
  -7   2   4 170.914 11.8080   4
  -7   2   4 173.697 7.67465   2
  -7   2   4 189.804 8.16601   1
   6  -2  -4 70.1735 4.16138   5
   6  -2  -4 69.2453 4.14198   5
  -6   2   4 69.7325 4.07839   2
  -6   2   4 66.9888 4.16613   1
  -6   2   4 63.0824 6.58827   4
   5  -2  -4 306.224 10.9440   5
   5  -2  -4 311.624 11.5079   1
   5  -2  -4 314.552 11.1668   5
  -5   2   4 309.611 11.2776   1
  -5   2   4 306.720 14.6426   4
  -5   2   4 307.875 10.9604   2
   4  -2  -4 203.670 7.18186   5
   4  -2  -4 176.886 7.37305   1
   4  -2  -4 199.587 7.30112   5
  -4   2   4 183.505 7.26854   1
  -4   2   4 173.354 9.80060   4
  -4   2   4 186.878 7.29890   1
   3  -2  -4 362.052 12.0634   5
   3  -2  -4 380.512 12.0393   5
   3  -2  -4 382.836 12.3883   1
  -3   2   4 362.507 11.9637   2
  -3   2   4 355.282 12.2189   1
  -3   2   4 381.470 14.7902   4
  -3   2   4 350.568 12.0857   1
   2  -2  -4 314.315 13.2032   4
   2  -2  -4 325.567 10.8614   1
   2  -2  -4 321.410 10.6446   5
   2  -2  -4 338.339 10.6196   5
  -2   2   4 329.480 10.8765   1
  -2   2   4 346.889 10.6649   2
  -2   2   4 317.766 10.6847   1
   1  -2  -4 604.672 18.2446   5
   1  -2  -4 568.660 21.0465   4
   1  -2  -4 623.595 18.2065   5
   1  -2  -4 594.937 18.3989   1
  -1   2   4 588.154 18.2926   1
  -1   2   4 616.784 18.4933   1
  -1   2   4 609.855 18.2416   2
   0  -2  -4 2302.17 65.7251   5
   0  -2  -4 2267.24 65.7396   5
   0  -2  -4 2260.98 65.9633   2
   0  -2  -4 2213.29 65.9003   1
   0   2   4 2220.04 65.4979   5
   0   2   4 2306.18 65.8868   1
   0   2   4 2339.22 65.8398   2
   0   2   4 2318.24 66.0831   1
  -1  -2  -4 1994.16 55.6788   1
  -1  -2  -4 1894.61 55.8547   1
  -1  -2  -4 1861.50 55.6971   2
  -1  -2  -4 1964.75 55.4919   5
   1   2   4 1899.37 55.6348   2
   1   2   4 1843.84 55.7982   1
   1   2   4 1930.85 55.6564   1
   1   2   4 1947.57 55.3595   5
  -2  -2  -4 418.849 13.1704   2
  -2  -2  -4 414.501 12.8686   5
  -2  -2  -4 437.579 13.0967   1
  -2  -2  -4 418.754 13.8120   1
   2   2   4 408.917 12.7560   5
   2   2   4 412.539 13.2274   1
   2   2   4 387.310 12.7230   5
   2   2   4 402.705 13.0042   1
   2   2   4 410.021 13.1195   2
  -3  -2  -4 299.104 9.66934   5
  -3  -2  -4 294.168 9.83766   1
  -3  -2  -4 277.813 9.86082   2
   3   2   4 285.672 9.53522   5
   3   2   4 296.535 9.95867   2
   3   2   4 286.718 9.58376   5
   3   2   4 286.057 9.82366   1
   3   2   4 305.622 10.1361   1
  -4  -2  -4 5.32653 1.24218   2
  -4  -2  -4 7.89766 1.35216   1
   4   2   4 5.45090 1.07659   5
   4   2   4 5.38204 1.24310   1
   4   2   4 4.57515 0.93421   5
   4   2   4 8.23823 1.52634   2
   4   2   4 9.87607 1.60697   1
  -5  -2  -4 199.448 7.84006   2
  -5  -2  -4 195.091 7.64768   1
   5   2   4 202.982 7.98117   2
   5   2   4 207.155 8.08661   1
   5   2   4 196.629 7.34844   5
   5   2   4 193.227 7.44955   5
  -6  -2  -4 137.036 6.12923   1
  -6  -2  -4 141.587 6.37558   2
  -6  -2  -4 139.236 6.04989   5
   6   2   4 130.867 5.79842   5
   6   2   4 133.196 5.91841   5
   6   2   4 143.085 6.55504   1
  -7  -2  -4 64.9854 4.30917   2
  -7  -2  -4 64.7232 4.16793   1
   7   2   4 62.7615 4.40658   1
  -8  -2  -4 278.254 11.1120   1
   8   2   4 274.476 11.5700   1
  -9  -2  -4 141.691 7.42547   1
   9   2   4 141.960 7.83178   1
 -10  -2  -4 0.58044 1.64126   1
  10   2   4 5.63292 2.35197   1
   8  -3  -4 44.4349 4.40957   5
  -8   3   4 47.4127 3.63522   2
  -8   3   4 41.6990 4.21881   1
   7  -3  -4 13.3883 2.36064   5
  -7   3   4 7.68021 1.80729   1
  -7   3   4 12.2086 1.96833   2
  -7   3   4 10.6472 4.14110   4
   6  -3  -4 7.28762 1.59594   5
   6  -3  -4 5.52429 1.49108   5
  -6   3   4 3.92956 2.82780   4
  -6   3   4 4.80562 1.33547   2
  -6   3   4 4.61805 1.19128   2
  -6   3   4 4.30255 1.33724   1
   5  -3  -4 62.9687 3.42561   5
   5  -3  -4 63.2265 3.54902   5
   5  -3  -4 51.1065 3.53391   1
  -5   3   4 47.7347 5.92751   4
  -5   3   4 57.1685 3.42804   1
  -5   3   4 58.0425 3.10370   2
  -5   3   4 53.4614 3.02335   2
   4  -3  -4 507.706 16.5060   1
   4  -3  -4 504.338 16.0407   5
   4  -3  -4 501.599 16.2026   5
  -4   3   4 501.373 16.2241   1
  -4   3   4 502.824 21.0777   4
   3  -3  -4 214.921 7.42757   5
   3  -3  -4 210.728 7.71987   1
   3  -3  -4 225.089 7.54614   5
  -3   3   4 218.178 7.62958   1
  -3   3   4 218.099 11.0825   4
  -3   3   4 194.143 7.43287   1
   2  -3  -4 1490.84 42.3133   5
   2  -3  -4 1390.51 42.4597   1
   2  -3  -4 1471.20 42.2457   5
  -2   3   4 1471.61 46.7886   4
  -2   3   4 1469.60 42.4925   1
  -2   3   4 1385.68 42.2913   1
   1  -3  -4 11.3883 1.26381   1
   1  -3  -4 10.1807 1.11193   5
   1  -3  -4 12.4113 1.20658   5
  -1   3   4 9.66185 1.10378   1
  -1   3   4 8.28522 1.10755   1
   0  -3  -4 35.6804 1.72283   5
   0  -3  -4 31.8858 1.77014   1
   0   3   4 30.7952 1.69166   1
   0   3   4 31.4786 1.85576   1
  -1  -3  -4 166.398 5.78060   1
  -1  -3  -4 160.780 5.81445   2
  -1  -3  -4 169.105 5.63890   5
   1   3   4 169.148 5.70954   2
   1   3   4 162.856 5.91453   1
  -2  -3  -4 74.8013 3.11764   5
  -2  -3  -4 75.1928 3.33744   2
  -2  -3  -4 70.9760 3.19317   1
   2   3   4 72.6315 2.93155   5
   2   3   4 74.1018 3.26969   2
   2   3   4 69.0634 3.18930   1
   2   3   4 76.8220 3.42300   1
  -3  -3  -4 71.9672 3.19870   5
  -3  -3  -4 69.4980 3.41238   2
  -3  -3  -4 70.2867 3.32593   1
   3   3   4 73.0152 3.45664   2
   3   3   4 68.3828 3.49513   1
   3   3   4 66.6286 3.33403   1
   3   3   4 65.9170 3.00180   5
  -4  -3  -4 258.226 9.09759   1
  -4  -3  -4 244.454 9.20999   2
   4   3   4 268.663 9.34518   2
   4   3   4 257.866 9.22890   1
   4   3   4 249.134 8.69376   5
   4   3   4 259.373 9.42312   1
  -5  -3  -4 262.919 9.74196   2
  -5  -3  -4 263.277 9.54848   1
   5   3   4 254.702 9.69814   2
   5   3   4 251.434 9.08467   5
   5   3   4 274.732 9.93564   1
   5   3   4 248.410 9.56936   1
  -6  -3  -4 34.1522 3.43729   2
  -6  -3  -4 37.9438 2.91071   1
   6   3   4 36.9300 3.60066   1
   6   3   4 39.2195 2.66576   5
  -7  -3  -4 11.4415 2.14402   1
   7   3   4 15.0684 2.47332   1
  -8  -3  -4 100.843 5.85070   1
   8   3   4 110.917 6.39982   1
  -9  -3  -4 153.207 7.80354   1
   9   3   4 160.584 8.54955   1
 -10  -3  -4 64.9226 5.08245   1
  10   3   4 74.9298 6.89045   1
   8  -4  -4 9.84262 2.26263   5
  -8   4   4 9.04589 2.05800   1
  -8   4   4 9.57087 7.92973   4
   7  -4  -4 12.6620 2.25187   5
  -7   4   4 16.0846 2.39232   1
  -7   4   4 11.9598 4.93882   4
   6  -4  -4 191.461 7.87505   5
   6  -4  -4 200.796 7.88574   5
  -6   4   4 197.335 7.78181   1
  -6   4   4 187.618 13.4709   4
   5  -4  -4 14.2146 1.94621   5
   5  -4  -4 16.2624 2.00090   5
  -5   4   4 15.4680 4.51857   4
  -5   4   4 19.4662 2.16035   1
   4  -4  -4 23.1296 2.06737   5
   4  -4  -4 18.1526 1.88190   5
   4  -4  -4 19.5139 2.14200   1
  -4   4   4 20.2708 1.95938   1
  -4   4   4 16.9589 1.83732   1
  -4   4   4 12.3115 3.89109   4
   3  -4  -4 7.91974 1.23426   1
   3  -4  -4 10.0184 1.32493   5
   3  -4  -4 8.79841 1.20048   5
  -3   4   4 9.55429 3.13102   4
  -3   4   4 10.1116 1.28990   1
  -3   4   4 9.77791 1.24553   1
   2  -4  -4 52.0109 2.55245   1
  -2   4   4 55.9034 2.49811   1
  -2   4   4 53.7038 5.46499   4
  -2   4   4 53.8798 2.38213   1
   1  -4  -4 85.1184 3.35143   1
   0  -4  -4 19.4875 1.27175   1
   0   4   4 18.2612 1.19841   1
   0   4   4 19.7132 1.34532   1
  -1  -4  -4 121.275 4.24058   5
  -1  -4  -4 114.874 4.34380   1
   1   4   4 114.389 4.32428   1
   1   4   4 125.463 4.54321   1
  -2  -4  -4 9674.06 283.776   5
  -2  -4  -4 9638.56 282.660   5
  -2  -4  -4 9999.99 284.504   1
   2   4   4 9987.26 284.474   1
  -3  -4  -4 62.0936 3.13845   1
  -3  -4  -4 62.6857 3.03119   5
  -3  -4  -4 58.3923 3.19951   2
  -3  -4  -4 60.5394 2.95882   5
   3   4   4 64.1304 3.19464   1
   3   4   4 62.7943 3.31195   1
  -4  -4  -4 20.6591 2.02321   5
  -4  -4  -4 23.2880 2.44415   2
  -4  -4  -4 18.7794 1.91457   5
  -4  -4  -4 20.5322 2.09055   1
   4   4   4 24.8734 2.44891   1
   4   4   4 25.0968 2.59334   1
  -5  -4  -4 8.74970 1.63527   1
  -5  -4  -4 8.68734 1.46046   5
  -5  -4  -4 7.66351 1.36801   5
  -5  -4  -4 9.27377 1.69804   2
   5   4   4 9.49564 1.43345   5
   5   4   4 8.36506 1.60972   1
   5   4   4 8.68804 1.66372   1
  -6  -4  -4 263.907 9.83360   5
  -6  -4  -4 290.420 10.2430   1
  -6  -4  -4 252.325 10.5852   2
   6   4   4 231.530 11.1975   5
   6   4   4 264.914 10.4174   1
  -7  -4  -4 155.444 7.16779   1
  -7  -4  -4 154.348 6.87365   5
   7   4   4 151.170 7.45325   1
  -8  -4  -4 36.9165 3.90601   1
   8   4   4 31.6260 4.15040   1
  -9  -4  -4 39.2795 4.27607   1
   9   4   4 38.8684 4.95010   1
 -10  -4  -4 5.99620 2.40292   1
  10   4   4 3.50435 2.26520   1
   7  -5  -4 1.55281 1.35008   5
  -7   5   4 2.27788 1.09942   1
  -7   5   4 -0.2873 2.83557   4
   6  -5  -4 10.9385 1.88614   5
   6  -5  -4 8.83367 1.72881   5
  -6   5   4 8.01426 4.41829   4
  -6   5   4 10.7187 1.69376   1
   5  -5  -4 87.4623 4.11898   5
   5  -5  -4 80.3449 3.90132   5
  -5   5   4 65.8073 8.12194   4
   4  -5  -4 32.4048 2.17572   5
   4  -5  -4 27.8986 2.00241   5
  -4   5   4 27.1190 5.91722   4
  -3   5   4 75.4374 7.58230   4
  -2   5   4 1.80902 2.01614   4
  -1  -5  -4 642.971 19.9758   1
   1   5   4 671.379 19.9972   1
   1   5   4 690.692 20.1155   1
  -2  -5  -4 77.8553 3.33835   5
  -2  -5  -4 81.7359 3.44173   1
  -2  -5  -4 77.1054 3.26285   5
   2   5   4 77.3907 3.51939   1
   2   5   4 77.2109 3.40498   1
  -3  -5  -4 514.824 16.1882   1
  -3  -5  -4 510.078 16.0520   5
  -3  -5  -4 500.290 16.0073   5
   3   5   4 533.646 16.4859   1
   3   5   4 494.959 16.2362   1
  -4  -5  -4 238.608 8.42364   1
  -4  -5  -4 225.132 8.20285   5
  -4  -5  -4 225.595 8.22252   5
  -4  -5  -4 205.010 8.87797   2
   4   5   4 226.578 8.62447   1
   4   5   4 227.362 8.52390   1
  -5  -5  -4 190.725 7.37702   5
  -5  -5  -4 188.026 7.47603   1
  -5  -5  -4 177.261 7.56763   2
  -5  -5  -4 180.393 7.26572   5
   5   5   4 180.251 7.69946   1
   5   5   4 179.112 7.61764   1
  -6  -5  -4 424.250 14.4612   5
  -6  -5  -4 410.801 14.5994   1
   6   5   4 411.613 14.9656   1
  -7  -5  -4 15.8593 2.60809   1
  -7  -5  -4 18.1427 2.43082   5
   7   5   4 26.6186 3.56555   1
  -8  -5  -4 91.5454 5.60646   1
   8   5   4 85.2156 5.84086   1
  -9  -5  -4 34.5800 4.27089   1
   9   5   4 29.3300 4.23795   1
   7  -6  -4 8.66019 1.93502   5
  -7   6   4 8.40272 4.75543   4
   6  -6  -4 5.19996 1.38245   5
   6  -6  -4 3.87501 1.37167   5
  -6   6   4 3.20070 3.41451   4
   5  -6  -4 107.127 4.74036   5
   5  -6  -4 111.665 4.95161   5
  -5   6   4 121.627 11.1158   4
  -4   6   4 884.328 36.2306   4
  -3   6   4 214.349 14.1217   4
   2  -6  -4 297.447 12.7452   3
  -2  -6  -4 70.1307 3.23380   1
  -2  -6  -4 74.8344 3.23926   5
  -2  -6  -4 73.6863 3.17585   5
   2   6   4 74.5129 3.36822   1
   2   6   4 66.8490 3.23094   1
  -3  -6  -4 240.981 8.27370   5
  -3  -6  -4 242.216 8.24529   5
  -3  -6  -4 220.787 8.20991   1
   3   6   4 227.089 8.44327   1
  -4  -6  -4 430.437 13.7975   5
  -4  -6  -4 404.571 13.7960   1
  -4  -6  -4 408.022 13.7301   5
   4   6   4 414.687 14.1198   1
   4   6   4 402.411 13.9983   1
  -5  -6  -4 306.243 11.2323   5
  -5  -6  -4 312.820 11.2304   5
  -5  -6  -4 314.923 11.3590   1
   5   6   4 314.825 11.6567   1
  -6  -6  -4 365.040 13.5456   1
  -6  -6  -4 386.584 13.5180   5
   6   6   4 374.239 13.9464   1
  -7  -6  -4 2.77208 1.29458   1
  -7  -6  -4 -0.2044 1.17325   5
   7   6   4 0.88761 1.46824   1
   8   6   4 21.9172 3.59721   1
   9   6   4 274.019 12.5665   1
   6  -7  -4 151.659 6.30279   5
   6  -7  -4 145.173 6.12397   5
  -6   7   4 123.945 12.8797   4
  -5   7   4 223.589 16.5232   4
  -4   7   4 270.100 17.8534   4
  -3   7   4 132.028 11.7163   4
   2  -7  -4 18.2453 3.39591   3
  -2  -7  -4 850.292 26.5246   1
  -2  -7  -4 909.246 26.5535   5
  -2  -7  -4 888.045 26.5175   5
   2   7   4 889.179 26.4929   1
  -3  -7  -4 328.386 10.7995   5
  -3  -7  -4 310.297 10.7268   5
   3   7   4 324.275 10.9789   1
   3   7   4 306.689 10.8348   1
  -4  -7  -4 61.2962 3.59753   5
  -4  -7  -4 64.6547 3.64375   5
   4   7   4 65.6557 3.88417   1
  -5  -7  -4 7.84733 1.70002   5
  -5  -7  -4 7.24470 1.71583   5
   5   7   4 3.73120 1.42927   1
  -6  -7  -4 47.8123 4.19029   5
   6   7   4 58.3937 4.25571   1
   7   7   4 10.5425 2.52337   1
   8   7   4 9.92164 2.77709   1
  -5   8   4 3.08422 3.73654   4
  -4   8   4 207.945 16.3269   4
   3  -8  -4 28.4735 4.57211   3
   2  -8  -4 95.7243 7.24689   3
   1  -8  -4 382.690 17.1785   3
  -2  -8  -4 0.88076 0.77397   5
  -2  -8  -4 2.33083 0.94552   5
  -3  -8  -4 0.07382 0.88144   5
  -3  -8  -4 1.77331 0.99215   5
   3   8   4 4.26844 1.22416   1
  -4  -8  -4 46.8909 3.30731   5
  -4  -8  -4 52.0290 3.43625   5
   4   8   4 52.9378 3.50486   1
  -5  -8  -4 6.27288 1.71588   5
   5   8   4 8.04311 1.90994   1
  -6  -8  -4 291.172 11.3733   5
   6   8   4 289.977 11.7408   1
   7   8   4 141.522 7.69635   1
   8   8   4 45.6547 5.13840   1
  -4   9   4 144.935 14.3476   4
   3  -9  -4 705.238 27.2400   3
   2  -9  -4 25.1472 4.61119   3
   1  -9  -4 28.0148 4.82461   3
   0  -9  -4 43.3843 6.20117   3
  -2  -9  -4 3.94557 1.15684   5
  -3  -9  -4 58.0477 3.61049   5
  -3  -9  -4 67.2309 3.70477   5
  -4  -9  -4 13.2099 2.12808   5
  -4  -9  -4 9.04132 1.94703   5
   4   9   4 9.05853 1.85069   1
  -5  -9  -4 134.253 6.55650   5
   5   9   4 138.025 6.76750   1
  -6  -9  -4 28.3375 3.43119   5
   6   9   4 30.6405 3.67492   1
   7   9   4 7.24814 2.25064   1
  -3 -10  -4 15.5712 2.10258   5
  -3 -10  -4 13.4445 2.20554   5
  -4 -10  -4 17.9873 2.45467   5
  -5 -10  -4 0.61893 1.39415   5
   5  10   4 -0.2978 1.28386   1
   1   9  -5 228.918 10.3774   1
   0   9  -5 14.3915 2.67920   1
   0  -9   5 13.7198 2.60042   5
  -1   9  -5 1.14714 1.41006   1
  -1   9  -5 0.62941 4.16470   4
   1  -9   5 -0.7613 1.40004   5
  -2   9  -5 14.3089 2.51165   1
  -2   9  -5 10.9013 5.71860   4
   2  -9   5 12.7766 2.42753   5
  -3   9  -5 79.4951 13.1953   4
   3  -9   5 107.648 5.85190   5
   3   8  -5 9.52065 2.74262   1
   2   8  -5 18.5659 3.42922   1
   1   8  -5 -0.3217 1.19699   1
  -1  -8   5 2.05609 1.42197   5
   0   8  -5 26.6817 3.54250   1
   0  -8   5 20.3147 2.84721   5
  -1   8  -5 42.3111 4.04622   1
  -1   8  -5 38.2885 8.08803   4
   1  -8   5 38.5202 3.86737   5
  -2   8  -5 8.01249 4.37745   4
  -2   8  -5 9.16577 2.12334   1
   2  -8   5 6.17351 1.85399   5
  -3   8  -5 129.202 6.46772   1
  -3   8  -5 136.410 13.8125   4
  -3   8  -5 136.686 6.70908   1
   3  -8   5 124.895 6.31759   5
  -4   8  -5 74.2505 4.78248   1
  -4   8  -5 75.9174 12.6728   4
   4  -8   5 77.6906 4.84372   5
  -5   8  -5 22.4871 2.94683   1
  -5   8  -5 16.7490 6.89466   4
   5  -8   5 26.0806 3.16887   5
   5   7  -5 15.3968 3.48033   1
   4   7  -5 69.0405 5.38120   1
   3   7  -5 63.2064 5.95565   1
   2   7  -5 12.3893 2.60515   1
   1   7  -5 12.2677 2.53349   1
  -1  -7   5 10.5357 2.20482   5
   0   7  -5 238.817 9.78672   1
   0   7  -5 215.851 14.0656   4
   0  -7   5 233.530 9.40895   5
  -1   7  -5 182.665 13.1294   4
  -1   7  -5 160.655 7.54445   1
   1  -7   5 158.265 7.25979   5
  -2   7  -5 1.30383 1.19500   1
  -2   7  -5 -0.2329 2.70158   4
   2  -7   5 2.44905 1.31562   5
  -3   7  -5 36.6397 3.63663   1
  -3   7  -5 29.1990 7.16515   4
   3  -7   5 38.7812 3.48357   5
  -4   7  -5 14.4796 2.28295   1
  -4   7  -5 7.96868 4.30227   4
   4  -7   5 10.1869 1.95998   5
  -5   7  -5 158.608 15.7179   4
  -5   7  -5 198.565 8.21472   1
   5  -7   5 190.126 8.03923   5
  -6   7  -5 216.557 8.77124   1
  -6   7  -5 170.518 17.2746   4
   6  -7   5 213.083 8.85007   5
   6   6  -5 103.705 7.11066   1
   5   6  -5 34.3203 4.48070   1
   4   6  -5 38.6788 4.51605   1
  -4  -6   5 42.7547 4.83090   1
   3   6  -5 182.577 8.76594   1
  -3  -6   5 168.067 8.42780   1
   2   6  -5 661.293 22.4781   1
  -2  -6   5 654.143 22.4400   1
  -2  -6   5 647.365 21.7452   5
   1   6  -5 6.32824 1.90380   1
  -1  -6   5 2.47230 1.33964   5
  -1  -6   5 5.72416 1.65199   1
   0   6  -5 195.616 8.30260   1
   0   6  -5 174.522 11.4850   4
   0  -6   5 188.884 8.33990   1
   0  -6   5 185.826 7.82680   5
  -1   6  -5 14.4747 2.36920   1
  -1   6  -5 19.3876 5.05805   4
  -1   6  -5 18.2667 2.45394   1
   1  -6   5 21.1885 2.52085   5
   1  -6   5 16.1812 2.36982   5
   1  -6   5 19.0039 2.99199   1
  -2   6  -5 13.0123 2.09477   1
  -2   6  -5 20.1962 5.49174   4
   2  -6   5 13.7294 2.11645   5
   2  -6   5 13.1662 1.94983   5
  -3   6  -5 15.3306 2.22041   1
  -3   6  -5 10.7837 4.73475   4
   3  -6   5 15.1594 2.24609   5
   3  -6   5 15.4894 2.16506   5
  -4   6  -5 13.0706 5.40777   4
  -4   6  -5 17.6567 2.57030   1
   4  -6   5 14.2785 2.11028   5
  -5   6  -5 66.4309 4.19921   1
  -5   6  -5 72.8304 11.9468   4
   5  -6   5 68.0975 4.19195   5
  -6   6  -5 206.139 8.31936   1
  -6   6  -5 158.685 16.0207   4
   6  -6   5 190.199 8.19350   5
  -7   6  -5 1.61523 4.00019   4
  -7   6  -5 1.83656 1.37891   1
   7  -6   5 -0.3755 1.26808   5
   6   5  -5 263.378 12.1830   1
  -6  -5   5 249.784 11.7325   1
   5   5  -5 273.540 12.1577   1
  -5  -5   5 272.461 11.9744   1
   4   5  -5 264.417 11.4613   1
  -4  -5   5 260.855 11.2645   1
   3   5  -5 3.25518 1.53377   1
  -3  -5   5 2.07530 1.33587   1
   2   5  -5 52.1319 4.04675   1
  -2  -5   5 55.3179 4.04197   1
  -2  -5   5 55.6863 3.77226   5
   1   5  -5 3.15795 1.43987   1
  -1  -5   5 6.50298 1.56508   5
  -1  -5   5 6.68005 1.62497   1
  -1  -5   5 4.98622 1.71403   5
   0   5  -5 12.1752 2.13074   1
   0   5  -5 13.3112 3.13399   1
   0   5  -5 8.60785 2.91529   4
   0   5  -5 12.2212 2.20470   1
   0  -5   5 12.4370 1.97822   5
   0  -5   5 16.4809 2.18402   5
   0  -5   5 18.6320 2.69342   1
  -1   5  -5 126.767 6.15794   1
  -1   5  -5 152.608 10.2415   4
  -1   5  -5 115.691 6.90051   1
   1  -5   5 126.631 5.82843   5
   1  -5   5 132.355 6.38942   1
   1  -5   5 138.079 6.04794   5
  -2   5  -5 1047.07 32.8744   1
  -2   5  -5 1096.90 40.4396   4
   2  -5   5 1064.62 32.5387   5
   2  -5   5 1054.67 32.6551   5
   2  -5   5 1049.84 33.1951   1
  -3   5  -5 16.7994 2.30216   1
  -3   5  -5 20.7422 5.63689   4
   3  -5   5 16.4944 2.55631   1
   3  -5   5 18.8696 2.36158   5
   3  -5   5 18.8441 2.29015   5
  -4   5  -5 299.549 10.9850   1
  -4   5  -5 275.197 18.0715   4
   4  -5   5 296.615 10.7206   5
   4  -5   5 301.878 12.7777   1
  -5   5  -5 51.6557 9.54511   4
  -5   5  -5 54.5036 3.74607   1
   5  -5   5 57.5725 3.73634   5
  -6   5  -5 8.76235 1.85437   1
  -6   5  -5 5.35207 3.86670   4
   6  -5   5 6.92351 1.72371   5
  -7   5  -5 3.33474 4.38296   4
  -7   5  -5 4.40330 1.69376   2
  -7   5  -5 4.92183 1.62463   1
   7  -5   5 3.94596 1.57169   5
  -8   5  -5 97.2099 5.31859   2
  -8   5  -5 91.2475 5.41598   1
  -8   5  -5 83.6105 14.5656   4
   8  -5   5 94.6955 5.60877   5
   7   4  -5 151.628 8.86708   1
  -7  -4   5 153.214 8.52598   1
   6   4  -5 57.9637 5.56260   1
  -6  -4   5 51.6950 5.19446   1
   5   4  -5 101.150 6.27139   1
  -5  -4   5 98.9617 6.01997   1
   4   4  -5 254.811 10.8957   1
  -4  -4   5 247.519 10.7006   1
   3   4  -5 169.952 7.93308   1
  -3  -4   5 158.310 7.25413   5
  -3  -4   5 177.895 8.07060   1
   2   4  -5 51.8862 3.77309   1
  -2  -4   5 54.8129 4.06119   5
  -2  -4   5 53.2439 3.53888   5
  -2  -4   5 49.4563 3.85883   1
   1   4  -5 14.8823 1.99855   5
   1   4  -5 15.3660 2.21168   1
  -1  -4   5 21.2824 2.38467   5
  -1  -4   5 23.8424 2.97418   1
   0   4  -5 148.906 6.62552   1
   0   4  -5 138.777 6.61872   1
   0   4  -5 148.327 8.75347   4
   0   4  -5 139.030 6.08962   5
   0  -4   5 147.402 6.25565   5
   0  -4   5 145.169 6.15378   5
   0  -4   5 147.321 6.68525   1
  -1   4  -5 528.343 17.5132   1
  -1   4  -5 512.689 17.6095   1
  -1   4  -5 539.685 21.9556   4
   1  -4   5 504.564 16.9804   5
   1  -4   5 530.298 17.2306   5
   1  -4   5 534.088 17.7376   1
  -2   4  -5 1.11693 0.90300   1
  -2   4  -5 3.87627 2.43920   4
  -2   4  -5 0.46605 0.94294   1
   2  -4   5 0.99475 0.82568   5
   2  -4   5 0.85261 0.85710   5
   2  -4   5 0.21907 0.91210   1
  -3   4  -5 947.966 30.7896   1
  -3   4  -5 1000.91 30.6564   1
  -3   4  -5 1019.93 38.2498   4
   3  -4   5 967.299 30.9260   1
   3  -4   5 1010.10 30.2879   5
  -4   4  -5 118.756 5.42915   1
  -4   4  -5 96.8899 6.06245   1
   4  -4   5 112.783 5.15765   5
   4  -4   5 111.304 5.66641   1
  -5   4  -5 106.606 5.36216   1
  -5   4  -5 111.800 5.38338   2
   5  -4   5 113.147 5.84499   1
   5  -4   5 113.381 5.33570   5
  -6   4  -5 69.6544 4.22977   1
  -6   4  -5 77.3357 4.36654   2
   6  -4   5 70.0950 4.21608   5
  -7   4  -5 6.34326 1.85214   1
  -7   4  -5 6.35753 1.81077   2
   7  -4   5 6.84529 1.70405   5
  -8   4  -5 183.655 8.13915   1
  -8   4  -5 172.169 7.74363   2
   8  -4   5 167.076 7.95980   5
  -9   4  -5 38.8203 3.94314   2
  -9   4  -5 38.9974 4.09443   1
   7   3  -5 369.951 15.3089   1
  -7  -3   5 349.557 14.7687   1
   6   3  -5 65.4751 6.36991   1
  -6  -3   5 64.7888 4.95647   1
   5   3  -5 61.5349 4.70115   1
  -5  -3   5 60.2100 4.57497   1
   4   3  -5 376.475 14.4111   1
  -4  -3   5 386.404 14.3895   1
   3   3  -5 76.9835 4.59342   5
   3   3  -5 86.0478 5.05542   1
  -3  -3   5 87.6536 5.11470   1
  -3  -3   5 83.5241 4.50742   5
   2   3  -5 582.655 19.7468   5
   2   3  -5 615.216 20.2819   1
  -2  -3   5 612.917 19.7625   5
  -2  -3   5 604.124 19.8532   5
  -2  -3   5 629.859 20.4349   1
   1   3  -5 1.50397 0.94822   1
   1   3  -5 0.83239 0.88138   1
   1   3  -5 2.33183 0.99991   5
  -1  -3   5 2.10371 1.01861   5
  -1  -3   5 2.12323 1.03529   1
  -1  -3   5 3.39380 1.32427   2
  -1  -3   5 1.99261 0.93625   5
   0   3  -5 179.248 7.16490   5
   0   3  -5 173.580 7.57723   1
   0   3  -5 190.964 7.62840   1
   0   3  -5 191.004 9.28800   4
   0  -3   5 206.455 7.91051   1
   0  -3   5 198.749 7.33516   5
   0  -3   5 164.523 7.33586   2
  -1   3  -5 177.067 7.05767   1
  -1   3  -5 162.296 7.03531   1
  -1   3  -5 164.655 6.61867   5
  -1   3  -5 193.789 10.0728   4
   1  -3   5 177.063 6.81499   5
   1  -3   5 151.411 6.81355   2
   1  -3   5 174.441 7.21535   1
   1  -3   5 164.924 6.58910   5
  -2   3  -5 60.3570 3.66165   1
  -2   3  -5 63.4703 3.56797   1
   2  -3   5 59.2194 3.70613   1
   2  -3   5 63.5904 3.43270   5
   2  -3   5 57.7663 3.24105   5
  -3   3  -5 124.469 5.42216   5
  -3   3  -5 132.813 5.76162   1
  -3   3  -5 129.778 5.95330   1
  -3   3  -5 129.149 5.73575   2
   3  -3   5 126.630 5.41072   5
   3  -3   5 139.481 6.12999   1
  -4   3  -5 74.4161 4.03574   1
  -4   3  -5 70.8824 4.24777   1
  -4   3  -5 79.0235 4.17132   2
   4  -3   5 74.8421 3.93543   5
   4  -3   5 76.9256 4.38782   1
  -5   3  -5 208.299 8.87414   1
  -5   3  -5 232.511 8.75337   2
  -5   3  -5 218.324 8.63715   1
   5  -3   5 233.212 9.18653   1
   5  -3   5 213.777 8.37507   5
  -6   3  -5 25.7243 2.84188   2
  -6   3  -5 32.1261 3.12202   1
   6  -3   5 30.3329 3.31988   1
   6  -3   5 30.2107 3.04431   5
  -7   3  -5 12.3055 2.11418   2
  -7   3  -5 11.9126 2.14272   1
   7  -3   5 5.94108 1.68277   5
  -8   3  -5 -1.5004 1.09737   1
  -8   3  -5 -0.4803 1.28129   2
   8  -3   5 0.13629 1.21341   5
  -9   3  -5 41.0146 4.31980   1
  -9   3  -5 56.2995 4.15946   2
  -8  -2   5 70.9753 6.42276   1
   7   2  -5 6.71669 1.91723   1
  -7  -2   5 7.44598 2.31700   1
   6   2  -5 22.8968 3.37682   1
  -6  -2   5 25.8856 3.40456   1
   5   2  -5 197.565 9.09317   1
  -5  -2   5 202.679 9.07148   1
   4   2  -5 49.6102 4.77251   1
   4   2  -5 46.0562 3.43854   5
  -4  -2   5 57.5846 4.01723   1
   3   2  -5 1467.30 45.1260   5
   3   2  -5 1516.28 45.6199   1
   3   2  -5 1459.60 44.9011   5
  -3  -2   5 1478.62 45.0556   5
  -3  -2   5 1528.40 44.9994   5
  -3  -2   5 1504.15 45.6344   1
   2   2  -5 571.765 18.5359   5
   2   2  -5 579.450 18.8561   1
   2   2  -5 549.391 18.2045   5
  -2  -2   5 556.270 18.2763   5
  -2  -2   5 554.991 18.3813   5
  -2  -2   5 579.296 18.8928   1
   1   2  -5 47.3383 2.88523   5
   1   2  -5 53.4964 3.36898   1
   1   2  -5 47.7491 2.96337   5
  -1  -2   5 49.5193 2.89890   5
  -1  -2   5 53.7132 3.43831   1
  -1  -2   5 49.7845 2.99867   5
  -1  -2   5 49.8751 3.22075   2
   0   2  -5 91.9903 4.75827   1
   0   2  -5 95.6846 4.67686   1
   0   2  -5 101.006 4.36910   5
   0   2  -5 97.7583 4.45318   5
   0  -2   5 93.1866 4.59995   2
   0  -2   5 98.6775 4.85946   1
   0  -2   5 97.5441 4.45773   5
   0  -2   5 107.639 4.62608   5
  -1   2  -5 109.228 5.18795   1
  -1   2  -5 126.432 5.26225   1
  -1   2  -5 106.791 4.66698   5
   1  -2   5 107.586 5.19499   1
   1  -2   5 116.866 4.94514   5
   1  -2   5 110.438 5.04455   2
   1  -2   5 117.803 4.85352   5
  -2   2  -5 139.361 5.80071   1
  -2   2  -5 136.457 5.59924   5
  -2   2  -5 144.548 6.03302   1
  -2   2  -5 142.228 5.91646   2
   2  -2   5 134.153 5.49121   5
   2  -2   5 128.232 5.75439   2
   2  -2   5 144.897 6.09237   1
  -3   2  -5 441.950 14.3657   2
  -3   2  -5 428.181 13.9880   5
  -3   2  -5 428.493 14.5393   1
  -3   2  -5 437.190 14.2567   1
   3  -2   5 412.826 13.9307   5
   3  -2   5 436.703 14.6265   1
   3  -2   5 407.814 14.2757   2
  -4   2  -5 272.460 9.58126   5
  -4   2  -5 248.229 10.0300   1
  -4   2  -5 279.107 9.95716   2
  -4   2  -5 275.689 9.87846   1
   4  -2   5 287.916 10.3390   1
   4  -2   5 262.719 9.63564   5
  -5   2  -5 1.92515 0.95667   1
  -5   2  -5 0.66952 0.91440   2
  -5   2  -5 0.53062 1.01190   1
  -5   2  -5 0.48976 0.63186   5
   5  -2   5 1.55444 1.12343   1
   5  -2   5 0.79339 0.72069   5
  -6   2  -5 79.4141 4.40510   1
  -6   2  -5 59.0195 5.88722   1
  -6   2  -5 84.5433 4.58593   2
   6  -2   5 72.2271 4.12939   5
   6  -2   5 79.1411 4.73614   1
  -7   2  -5 24.8089 2.91874   1
  -7   2  -5 21.4295 2.79678   2
   7  -2   5 26.1843 3.06188   5
   7  -2   5 23.2354 2.99080   1
  -8   2  -5 136.783 6.70747   2
  -8   2  -5 134.818 6.78458   1
  -9   2  -5 56.0763 4.37743   2
  -9   2  -5 53.7199 4.86939   1
 -10   2  -5 115.109 6.63701   2
 -10   2  -5 103.058 6.54589   1
  -8  -1   5 43.2929 5.08272   1
  -7  -1   5 84.7351 5.72338   1
   6   1  -5 -0.0674 1.05819   1
  -6  -1   5 1.33523 1.22480   1
   5   1  -5 51.6607 4.56562   5
   5   1  -5 47.5421 4.54712   1
  -5  -1   5 53.0034 4.76227   1
   4   1  -5 847.205 27.2621   5
   4   1  -5 865.999 27.7264   1
   4   1  -5 838.890 27.0759   5
  -4  -1   5 880.481 27.6834   1
   3   1  -5 104.276 4.94324   5
   3   1  -5 97.2854 5.04910   1
   3   1  -5 92.4933 4.62895   5
  -3  -1   5 99.3445 4.69899   5
  -3  -1   5 89.9462 4.97324   1
   2   1  -5 88.1930 4.67766   1
   2   1  -5 97.7387 4.48240   5
   2   1  -5 93.4822 4.54087   5
  -2  -1   5 91.9734 4.42566   5
  -2  -1   5 105.275 4.61447   5
  -2  -1   5 94.3269 4.82156   1
  -2  -1   5 103.814 4.88728   2
   1   1  -5 106.718 4.75502   5
   1   1  -5 109.117 4.60161   5
   1   1  -5 108.166 4.96446   1
  -1  -1   5 99.3959 4.80962   1
  -1  -1   5 95.9938 4.49718   5
  -1  -1   5 107.769 5.01188   1
  -1  -1   5 107.455 4.68700   5
   0   1  -5 939.602 28.4754   5
   0   1  -5 938.121 28.2541   5
   0   1  -5 942.258 28.6346   1
   0  -1   5 948.844 28.3192   5
   0  -1   5 926.302 28.5436   1
   0  -1   5 942.299 28.8208   1
   0  -1   5 937.317 28.3790   5
   0  -1   5 897.204 28.5578   2
  -1   1  -5 235.589 8.51526   5
  -1   1  -5 223.789 8.80162   1
  -1   1  -5 247.955 8.72912   1
  -1   1  -5 241.458 8.38043   5
  -1   1  -5 245.999 8.82426   2
   1  -1   5 237.406 8.71755   2
   1  -1   5 249.137 8.96132   1
   1  -1   5 242.918 8.50587   5
   1  -1   5 238.797 8.39829   5
  -2   1  -5 7.14123 1.15056   5
  -2   1  -5 7.38740 1.28233   5
  -2   1  -5 7.35928 1.35882   2
  -2   1  -5 5.94712 1.16280   1
  -2   1  -5 8.16372 1.40448   1
   2  -1   5 5.89954 1.24358   1
   2  -1   5 8.39283 1.51321   2
   2  -1   5 6.09291 1.15013   5
  -3   1  -5 117.222 4.98381   5
  -3   1  -5 120.861 5.11838   1
  -3   1  -5 122.323 5.42811   1
  -3   1  -5 116.715 4.85206   5
  -3   1  -5 128.063 5.32355   2
   3  -1   5 117.845 5.39619   1
   3  -1   5 118.790 4.94509   5
   3  -1   5 108.591 5.12989   2
  -4   1  -5 8.66232 1.39047   5
  -4   1  -5 11.1951 1.74395   2
  -4   1  -5 7.01243 1.61004   1
  -4   1  -5 7.88110 1.46409   1
   4  -1   5 8.39758 1.56876   2
   4  -1   5 7.28233 1.54655   1
   4  -1   5 13.8566 1.85538   5
  -5   1  -5 202.761 8.04365   1
  -5   1  -5 204.698 7.76902   5
  -5   1  -5 218.381 8.26858   2
   5  -1   5 218.253 8.54688   1
   5  -1   5 194.215 7.73020   5
   5  -1   5 196.170 8.27657   2
  -6   1  -5 2.23337 1.13843   1
  -6   1  -5 2.13132 1.17503   2
   6  -1   5 2.55445 1.19071   1
   6  -1   5 -0.6010 0.87473   5
  -7   1  -5 276.664 10.5945   1
  -7   1  -5 280.503 10.6903   2
   7  -1   5 274.413 11.1036   1
   7  -1   5 254.942 10.1403   5
  -8   1  -5 845.914 27.9778   2
  -8   1  -5 871.974 28.0811   1
   8  -1   5 871.201 28.7424   1
  -9   1  -5 24.2318 3.29395   1
  -9   1  -5 16.0156 2.95009   2
 -10   1  -5 -2.5355 1.33666   2
 -10   1  -5 -2.4276 1.11421   1
  -8   0   5 57.0905 5.64729   1
  -8   0   5 62.3722 4.93526   2
  -7   0   5 111.806 6.54348   1
   6   0  -5 75.8542 5.01969   1
  -6   0   5 75.0187 4.94797   1
   5   0  -5 25.9820 2.98293   5
   5   0  -5 22.4908 2.95501   1
  -5   0   5 26.0041 3.26501   1
   4   0  -5 14.1435 2.02628   5
   4   0  -5 14.0887 2.09031   5
   4   0  -5 15.8967 2.27376   1
  -4   0   5 20.5745 2.25993   5
  -4   0   5 18.1174 2.52877   1
  -4   0   5 9.17787 1.80740   1
   3   0  -5 52.0347 3.35769   1
   3   0  -5 50.7810 3.04429   5
   3   0  -5 44.5069 3.04075   5
  -3   0   5 42.2499 3.05849   1
  -3   0   5 49.5820 2.96620   5
  -3   0   5 51.9993 3.35492   1
   2   0  -5 106.683 4.96486   1
   2   0  -5 99.4900 4.53682   5
   2   0  -5 103.908 4.88448   1
   2   0  -5 104.772 4.73683   5
  -2   0   5 95.0623 4.65046   1
  -2   0   5 109.164 4.56543   5
  -2   0   5 100.421 4.88895   1
  -2   0   5 107.923 4.84565   2
   1   0  -5 0.28888 0.50358   5
   1   0  -5 -0.2212 0.23482   5
   1   0  -5 0.05489 0.62989   1
  -1   0   5 0.56895 0.69348   1
  -1   0   5 0.29149 0.57057   1
  -1   0   5 0.90024 0.66016   5
  -1   0   5 -0.2287 0.60241   5
  -1   0   5 0.34357 0.65855   2
   0   0  -5 936.457 28.8779   5
   0   0  -5 996.085 29.1241   1
   0   0   5 922.198 28.8734   1
   0   0   5 930.346 28.9719   2
   0   0   5 974.870 28.7341   5
   0   0   5 966.829 28.7372   5
   0   0   5 956.649 29.2164   1
  -1   0  -5 517.878 16.2625   5
  -1   0  -5 502.665 16.5867   2
  -1   0  -5 519.886 16.5444   1
  -1   0  -5 528.709 16.4602   5
   1   0   5 524.949 16.7832   1
   1   0   5 530.922 16.3032   5
   1   0   5 514.238 16.5899   2
   1   0   5 514.110 16.4736   1
  -2   0  -5 0.01634 0.54712   2
  -2   0  -5 0.09250 0.51471   5
  -2   0  -5 1.17467 0.62363   5
  -2   0  -5 0.70607 0.71642   1
  -2   0  -5 -0.4647 0.45825   1
   2   0   5 0.00899 0.27583   2
   2   0   5 -0.2966 0.54034   5
   2   0   5 0.73183 0.64188   1
   2   0   5 -0.2774 0.48167   1
  -3   0  -5 68.7354 3.35950   5
  -3   0  -5 72.8257 3.63206   1
  -3   0  -5 69.2771 3.46877   5
  -3   0  -5 73.4492 3.73013   2
   3   0   5 73.2422 3.49302   5
   3   0   5 72.2958 3.73613   2
   3   0   5 69.7781 3.79802   1
  -4   0  -5 93.2165 4.48382   2
  -4   0  -5 91.6935 4.13253   5
  -4   0  -5 91.4837 4.33238   1
   4   0   5 87.9992 4.12813   5
   4   0   5 86.5691 4.53352   1
   4   0   5 89.5524 4.47491   2
  -5   0  -5 2918.14 82.1735   2
  -5   0  -5 2776.47 81.8857   1
  -5   0  -5 2737.34 81.6317   5
   5   0   5 2766.98 82.3785   1
   5   0   5 2761.52 82.2237   2
   5   0   5 2830.59 81.6443   5
  -6   0  -5 193.444 8.01217   1
  -6   0  -5 199.509 8.15322   2
   6   0   5 197.328 7.87816   5
   6   0   5 182.963 8.23835   2
   6   0   5 209.323 8.58202   1
   6   0   5 194.770 7.77304   5
  -7   0  -5 68.5097 4.44592   2
  -7   0  -5 59.5478 4.07212   1
   7   0   5 79.4192 4.16971   5
   7   0   5 65.4816 4.66677   1
  -8   0  -5 47.1366 4.44700   2
  -8   0  -5 46.4401 4.40337   1
   8   0   5 39.4193 4.17254   1
  -9   0  -5 59.4995 4.60893   2
  -9   0  -5 64.7633 4.76539   1
   9   0   5 66.7687 5.08557   1
 -10   0  -5 51.7582 5.28523   1
  -8   1   5 3.50685 1.83532   2
  -8   1   5 3.72909 2.07081   1
  -7   1   5 34.2664 3.77557   2
  -7   1   5 39.1478 4.23796   1
   6  -1  -5 78.7169 4.82694   5
  -6   1   5 78.6549 4.90484   1
   5  -1  -5 112.139 5.94493   1
   5  -1  -5 121.766 5.82125   5
  -5   1   5 111.075 5.76259   1
   4  -1  -5 24.0707 2.76602   1
   4  -1  -5 24.7863 2.73719   5
   4  -1  -5 30.5160 2.98958   5
  -4   1   5 26.4777 2.86141   1
  -4   1   5 23.1781 2.67588   2
  -4   1   5 18.5603 2.46636   1
   3  -1  -5 137.918 6.11205   1
   3  -1  -5 146.505 5.98170   5
   3  -1  -5 141.178 5.78493   5
  -3   1   5 144.238 5.98260   2
  -3   1   5 130.627 5.92233   1
  -3   1   5 143.677 6.19876   1
   2  -1  -5 2323.00 67.8526   5
   2  -1  -5 2299.44 68.1119   1
   2  -1  -5 2391.88 67.7442   5
   2  -1  -5 2330.63 68.0730   1
  -2   1   5 2332.23 67.8724   2
  -2   1   5 2321.08 67.4639   5
  -2   1   5 2237.78 67.9013   1
  -2   1   5 2317.34 68.1087   1
   1  -1  -5 378.474 12.5159   5
   1  -1  -5 390.793 12.7568   1
   1  -1  -5 364.954 12.3206   5
  -1   1   5 382.701 12.2727   5
  -1   1   5 393.682 12.8548   1
  -1   1   5 386.577 12.6018   2
  -1   1   5 374.606 12.5842   1
   0  -1  -5 3.59951 1.01801   2
   0  -1  -5 6.03774 1.09669   5
   0  -1  -5 4.87886 1.08774   1
   0  -1  -5 3.68606 0.97518   5
   0   1   5 4.43800 1.14416   1
   0   1   5 4.21323 1.03197   2
   0   1   5 4.64005 1.01177   1
   0   1   5 3.72682 0.94741   5
  -1  -1  -5 54.1441 2.89866   2
  -1  -1  -5 49.2818 2.67415   5
  -1  -1  -5 56.0828 2.85661   1
  -1  -1  -5 52.2682 2.62012   5
   1   1   5 51.5321 2.79713   2
   1   1   5 51.8217 2.61834   5
   1   1   5 49.8612 2.89758   1
   1   1   5 45.8644 2.64424   1
  -2  -1  -5 475.013 15.2482   2
  -2  -1  -5 485.284 15.1255   1
   2   1   5 474.949 15.2110   2
   2   1   5 458.444 15.0814   1
   2   1   5 476.560 14.8666   5
   2   1   5 463.127 15.3569   1
  -3  -1  -5 232.041 8.10601   5
  -3  -1  -5 221.819 8.38393   2
  -3  -1  -5 230.892 8.32865   1
   3   1   5 239.891 8.51764   2
   3   1   5 225.530 8.33716   1
   3   1   5 236.405 8.12392   5
   3   1   5 234.121 8.63157   1
  -4  -1  -5 206.182 7.72956   1
  -4  -1  -5 202.058 7.49299   5
  -4  -1  -5 200.515 7.79830   2
   4   1   5 199.946 7.44282   5
   4   1   5 203.884 7.54275   5
   4   1   5 212.741 8.09982   1
  -5  -1  -5 10.4527 1.65161   1
  -5  -1  -5 8.89530 1.45621   5
  -5  -1  -5 11.0794 1.82316   2
   5   1   5 11.6986 1.59100   5
   5   1   5 11.0115 1.67206   5
   5   1   5 18.4323 2.49582   1
   5   1   5 11.8118 1.91567   2
  -6  -1  -5 46.3892 3.46557   2
  -6  -1  -5 53.1330 3.53336   1
  -6  -1  -5 51.2495 3.26182   5
   6   1   5 45.8910 3.22847   5
   6   1   5 51.7817 3.38668   5
   6   1   5 49.6125 3.72365   1
   6   1   5 55.1261 3.86755   2
  -7  -1  -5 10.5379 2.12545   2
  -7  -1  -5 15.7778 2.41850   1
   7   1   5 14.7935 2.54136   1
  -8  -1  -5 2.54339 1.53878   2
  -8  -1  -5 2.16034 1.34174   1
   8   1   5 1.76423 1.35888   1
  -9  -1  -5 475.992 17.6754   1
   9   1   5 497.561 18.4504   1
 -10  -1  -5 58.6530 5.34984   1
  10   1   5 58.8207 5.63291   1
  -8   2   5 24.3296 3.38486   2
  -8   2   5 26.9154 3.54667   1
   7  -2  -5 32.7618 3.89000   5
  -7   2   5 20.6517 2.83343   2
  -7   2   5 24.5029 3.32656   1
   6  -2  -5 9.20211 2.16113   5
  -6   2   5 7.26576 1.73975   2
  -6   2   5 5.90766 1.72710   1
   5  -2  -5 863.765 27.2673   5
   5  -2  -5 820.832 27.8774   1
   5  -2  -5 909.592 27.6104   5
  -5   2   5 860.522 27.2100   2
  -5   2   5 891.096 27.7070   1
   4  -2  -5 264.325 9.99267   1
   4  -2  -5 254.954 9.42590   5
   4  -2  -5 266.736 9.71006   5
  -4   2   5 228.026 9.45425   1
  -4   2   5 264.709 9.47420   2
  -4   2   5 271.416 9.84297   1
  -4   2   5 267.514 11.8783   4
   3  -2  -5 106.302 4.90637   1
   3  -2  -5 97.3986 4.60197   5
   3  -2  -5 102.160 4.55927   5
  -3   2   5 108.993 4.92504   1
  -3   2   5 99.6801 4.67461   1
  -3   2   5 100.949 4.54618   2
   2  -2  -5 21.2417 2.14644   1
   2  -2  -5 17.7349 3.19564   4
   2  -2  -5 18.6080 2.05205   5
   2  -2  -5 16.2140 1.73158   5
  -2   2   5 18.6471 1.92298   2
  -2   2   5 17.8597 1.99054   1
  -2   2   5 19.1652 2.12107   1
   1  -2  -5 541.292 16.8260   1
   1  -2  -5 519.678 16.4880   5
   1  -2  -5 531.224 19.4895   4
   1  -2  -5 543.190 16.6070   5
  -1   2   5 534.760 16.8911   1
  -1   2   5 523.281 16.5768   2
  -1   2   5 516.426 16.6264   1
   0  -2  -5 88.2761 3.66019   5
   0  -2  -5 84.7703 3.83894   2
   0  -2  -5 85.5605 3.68068   5
   0  -2  -5 89.1924 3.82947   1
   0   2   5 78.8642 3.46238   5
   0   2   5 88.7871 3.75892   2
   0   2   5 82.5313 3.70448   1
   0   2   5 85.6639 3.92536   1
  -1  -2  -5 52.8798 2.91725   2
  -1  -2  -5 57.4941 2.89897   1
  -1  -2  -5 60.5385 2.79805   5
   1   2   5 57.3174 2.89620   2
   1   2   5 58.7463 2.88866   1
   1   2   5 61.8376 3.12470   1
   1   2   5 54.6215 2.66291   5
  -2  -2  -5 1642.56 47.3475   5
  -2  -2  -5 1620.21 47.6782   2
  -2  -2  -5 1588.31 47.5100   1
   2   2   5 1655.30 47.6231   2
   2   2   5 1557.23 47.7774   1
   2   2   5 1596.04 47.5314   1
   2   2   5 1645.65 47.2365   5
  -3  -2  -5 535.833 16.8168   5
  -3  -2  -5 533.965 17.1838   2
  -3  -2  -5 544.487 17.0850   1
   3   2   5 544.201 16.7399   5
   3   2   5 540.295 17.3729   1
   3   2   5 503.663 17.0089   1
   3   2   5 560.146 17.2810   2
  -4  -2  -5 8.93888 1.59390   1
  -4  -2  -5 7.84714 1.42451   2
   4   2   5 8.46700 1.24419   5
   4   2   5 10.0834 1.67200   2
   4   2   5 9.23355 1.62537   1
   4   2   5 7.13978 1.39046   1
  -5  -2  -5 6.44467 1.34018   1
  -5  -2  -5 3.77942 1.24328   2
  -5  -2  -5 4.43825 1.08003   5
   5   2   5 4.48214 1.41101   2
   5   2   5 4.05745 1.01738   5
   5   2   5 5.04592 1.42608   1
  -6  -2  -5 45.4487 3.23429   1
  -6  -2  -5 41.3318 2.95866   5
  -6  -2  -5 42.5258 3.28937   2
   6   2   5 43.5251 3.95230   1
   6   2   5 44.0702 2.92886   5
   6   2   5 29.1954 3.41552   2
  -7  -2  -5 558.640 18.5671   1
  -7  -2  -5 516.214 18.5557   2
   7   2   5 546.820 19.0130   1
  -8  -2  -5 117.773 6.42540   1
   8   2   5 132.129 7.14754   1
  -9  -2  -5 487.810 18.0187   1
   9   2   5 503.200 18.7038   1
 -10  -2  -5 33.1163 4.44434   1
  10   2   5 28.2988 4.39333   1
  -8   3   5 655.254 22.8612   1
  -8   3   5 664.829 21.8892   2
  -8   3   5 691.466 22.1871   2
   7  -3  -5 352.385 13.1709   5
  -7   3   5 331.193 12.2207   2
  -7   3   5 353.916 12.4617   2
  -7   3   5 340.923 13.0297   1
   6  -3  -5 582.236 19.1882   5
  -6   3   5 532.069 23.7998   4
  -6   3   5 583.432 18.5055   2
  -6   3   5 576.545 19.1275   1
  -6   3   5 555.079 18.3772   2
   5  -3  -5 220.339 8.52223   5
   5  -3  -5 225.348 8.72233   5
  -5   3   5 242.459 8.33243   2
  -5   3   5 196.709 11.6681   4
  -5   3   5 222.228 8.76997   1
  -5   3   5 212.837 8.13074   2
   4  -3  -5 3.05336 1.05280   5
   4  -3  -5 2.02892 1.06351   1
   4  -3  -5 3.27724 1.14853   5
  -4   3   5 1.25623 1.68753   4
  -4   3   5 2.08226 0.88884   1
  -4   3   5 2.56627 0.93841   2
   3  -3  -5 56.9856 3.28083   1
   3  -3  -5 59.9272 3.20235   5
   3  -3  -5 60.8010 3.13152   5
  -3   3   5 61.7881 3.31894   1
  -3   3   5 61.5059 2.97084   2
  -3   3   5 42.9497 2.81005   1
   2  -3  -5 0.56863 0.61841   1
   2  -3  -5 0.17924 0.51894   5
   2  -3  -5 -0.2396 0.49500   5
  -2   3   5 0.72999 0.55856   2
  -2   3   5 -0.0107 0.58764   1
  -2   3   5 -0.0950 0.28639   1
   1  -3  -5 43.4861 2.31625   5
   1  -3  -5 39.6610 2.28007   5
   1  -3  -5 45.2220 2.49836   1
  -1   3   5 40.6538 2.44422   1
  -1   3   5 44.7086 2.25484   2
   0  -3  -5 791.199 23.4300   5
   0  -3  -5 772.430 23.6223   1
   0  -3  -5 786.986 23.3837   5
   0   3   5 778.347 23.7368   1
   0   3   5 752.678 23.4729   1
   0   3   5 794.351 23.3773   2
  -1  -3  -5 255.114 8.82407   2
  -1  -3  -5 259.498 8.72040   1
  -1  -3  -5 258.732 8.53323   5
   1   3   5 262.113 8.71263   1
   1   3   5 264.336 8.68042   2
   1   3   5 244.856 8.85352   1
  -2  -3  -5 4.64007 1.06159   2
  -2  -3  -5 5.08162 1.05178   1
  -2  -3  -5 6.89884 1.10201   5
   2   3   5 4.11364 0.91749   1
   2   3   5 5.81349 1.07925   2
   2   3   5 6.72801 1.25521   1
  -3  -3  -5 10.1581 1.42153   5
  -3  -3  -5 10.5837 1.54867   1
  -3  -3  -5 9.90915 1.58838   2
   3   3   5 9.94189 1.44952   1
   3   3   5 10.1759 1.53720   2
   3   3   5 12.7623 1.45834   5
   3   3   5 10.3130 1.57188   1
  -4  -3  -5 -0.3250 0.53143   1
  -4  -3  -5 -0.0183 0.51689   5
  -4  -3  -5 1.11303 0.78014   2
   4   3   5 0.23471 0.64603   1
   4   3   5 0.05606 0.74449   2
   4   3   5 -0.1622 0.71861   1
   4   3   5 0.10735 0.43881   5
  -5  -3  -5 659.974 21.6137   2
  -5  -3  -5 680.521 21.5215   1
   5   3   5 679.197 21.0453   5
   5   3   5 661.413 21.6284   1
   5   3   5 681.904 21.8994   1
   5   3   5 659.733 21.6946   2
  -6  -3  -5 144.998 6.52411   5
  -6  -3  -5 147.528 6.89334   2
  -6  -3  -5 160.459 6.92542   1
   6   3   5 155.977 7.13399   2
   6   3   5 154.856 6.56334   5
   6   3   5 151.665 7.12817   1
  -7  -3  -5 68.3807 4.36674   1
   7   3   5 64.1203 4.59030   1
  -8  -3  -5 34.3558 3.92124   1
   8   3   5 27.1997 4.03814   1
  -9  -3  -5 87.8025 5.62434   1
   9   3   5 81.5431 6.08072   1
 -10  -3  -5 6.33827 2.19079   1
  10   3   5 8.97369 2.65365   1
   7  -4  -5 54.4821 4.12066   5
  -7   4   5 54.5484 3.88547   1
   6  -4  -5 44.8330 4.06839   5
  -6   4   5 39.8011 3.10137   1
  -6   4   5 44.3367 7.56199   4
   5  -4  -5 24.8438 2.64828   5
   5  -4  -5 21.5466 2.56265   5
  -5   4   5 25.7106 5.51437   4
  -5   4   5 23.3214 2.59159   1
   4  -4  -5 438.328 14.5829   5
   4  -4  -5 457.204 14.5121   5
  -4   4   5 430.686 19.8100   4
  -4   4   5 437.084 14.4945   1
   3  -4  -5 766.499 22.9776   5
   3  -4  -5 753.016 22.8528   5
   3  -4  -5 728.639 23.1442   1
  -3   4   5 755.750 22.9818   1
  -3   4   5 730.387 22.8218   1
   2  -4  -5 9.66609 1.38997   1
   2  -4  -5 11.6039 1.37124   5
   2  -4  -5 10.4730 1.29972   5
  -2   4   5 13.7633 1.43379   1
  -2   4   5 12.1701 1.49952   1
   1  -4  -5 139.719 5.09303   5
   1  -4  -5 133.293 5.24076   1
   1  -4  -5 139.061 5.08562   5
  -1   4   5 143.677 5.11499   1
  -1   4   5 140.287 5.27899   1
   0  -4  -5 39.8748 2.19493   1
   0  -4  -5 40.5286 2.08879   5
   0   4   5 37.6947 2.22350   1
   0   4   5 38.9589 2.08410   1
  -1  -4  -5 98.3384 3.85342   5
  -1  -4  -5 98.3427 3.97528   1
   1   4   5 92.2992 4.09036   1
   1   4   5 97.7720 3.77947   2
  -2  -4  -5 5.88959 1.04646   5
  -2  -4  -5 7.36103 1.18004   1
   2   4   5 6.83168 1.11292   1
   2   4   5 5.77556 1.04793   2
   2   4   5 5.67555 1.16513   1
  -3  -4  -5 1205.12 37.3873   2
  -3  -4  -5 1199.60 36.9640   5
  -3  -4  -5 1248.57 37.2555   1
   3   4   5 1266.20 37.5354   1
   3   4   5 1310.34 37.4202   1
   3   4   5 1251.08 37.2694   2
  -4  -4  -5 45.3936 3.04966   2
  -4  -4  -5 51.2649 3.07047   1
  -4  -4  -5 48.5146 2.90018   5
   4   4   5 54.4071 3.21140   2
   4   4   5 47.9705 3.27097   1
   4   4   5 54.2695 3.24393   1
  -5  -4  -5 20.2877 2.30137   1
  -5  -4  -5 20.0972 2.52009   2
  -5  -4  -5 18.9976 2.29644   5
   5   4   5 21.2101 2.55848   1
   5   4   5 17.8770 2.46747   1
  -6  -4  -5 3.42302 1.52972   5
  -6  -4  -5 3.85062 1.26884   1
   6   4   5 3.31075 1.40475   1
  -7  -4  -5 60.5917 4.12465   1
   7   4   5 63.9723 4.56322   1
  -8  -4  -5 19.7310 3.01467   1
   8   4   5 20.8054 3.22140   1
  -9  -4  -5 662.601 23.1688   1
   9   4   5 681.253 24.0344   1
 -10  -4  -5 183.918 9.12717   1
  10   4   5 165.190 9.56932   1
   7  -5  -5 85.8772 5.24920   5
  -7   5   5 88.0084 4.77922   1
  -7   5   5 86.3271 13.9234   4
   6  -5  -5 248.887 9.50836   5
   6  -5  -5 237.786 9.31060   5
  -6   5   5 224.350 15.1317   4
  -6   5   5 241.868 8.99360   1
   5  -5  -5 418.451 13.9934   5
   5  -5  -5 409.282 13.8034   5
  -5   5   5 427.030 13.5632   1
  -5   5   5 373.167 20.2148   4
   4  -5  -5 97.7347 4.49965   5
   4  -5  -5 98.9551 4.42191   5
  -4   5   5 98.2090 8.90225   4
  -4   5   5 96.6493 4.23544   1
   3  -5  -5 2.21844 0.84642   5
   3  -5  -5 1.87740 0.73292   5
   2  -5  -5 18.5055 1.74623   1
   1  -5  -5 298.018 9.72527   1
   0  -5  -5 393.387 12.5598   1
   0   5   5 405.262 12.3686   1
  -1  -5  -5 16.5059 1.58002   1
  -1  -5  -5 19.1236 1.62593   5
   1   5   5 18.7734 1.67504   1
   1   5   5 18.0655 1.74754   1
  -2  -5  -5 56.9117 2.77009   5
  -2  -5  -5 56.1883 2.85789   1
   2   5   5 59.7951 3.05498   1
   2   5   5 51.7058 2.80786   1
  -3  -5  -5 121.093 5.10394   1
  -3  -5  -5 123.018 4.98988   5
   3   5   5 119.335 5.26338   1
   3   5   5 124.901 5.22301   1
  -4  -5  -5 11.3979 1.64997   5
  -4  -5  -5 17.9844 2.01540   5
  -4  -5  -5 13.8695 1.86918   1
   4   5   5 14.6120 2.01887   1
   4   5   5 14.2055 2.01521   1
  -5  -5  -5 10.0800 1.76450   1
  -5  -5  -5 10.6754 1.76032   5
  -5  -5  -5 9.46124 1.61393   5
   5   5   5 10.5113 1.95926   1
   5   5   5 9.80016 1.83664   1
  -6  -5  -5 26.3281 2.87334   1
  -6  -5  -5 25.1574 2.81835   5
   6   5   5 25.7373 2.99191   1
  -7  -5  -5 490.983 17.1968   1
   7   5   5 485.685 17.6981   1
  -8  -5  -5 189.783 8.69252   1
   8   5   5 182.806 9.04132   1
  -9  -5  -5 21.6823 3.84324   1
   9   5   5 35.2784 4.66635   1
   6  -6  -5 18.1363 2.48161   5
   6  -6  -5 19.7658 2.51583   5
  -6   6   5 14.5140 5.46050   4
   5  -6  -5 26.9108 2.61110   5
   5  -6  -5 24.7278 2.55657   5
  -5   6   5 20.4971 5.83422   4
   4  -6  -5 207.218 7.28572   5
   4  -6  -5 200.129 7.34613   5
  -4   6   5 176.229 13.2786   4
   3  -6  -5 4.89184 1.89444   3
   2  -6  -5 65.5186 5.15541   3
  -1  -6  -5 435.950 13.6013   1
  -2  -6  -5 259.208 8.92400   1
  -2  -6  -5 259.258 8.79305   5
  -2  -6  -5 275.868 8.92857   5
   2   6   5 273.005 9.09324   1
   2   6   5 246.622 8.87097   1
  -3  -6  -5 606.720 18.7069   5
  -3  -6  -5 612.830 18.7531   5
  -3  -6  -5 576.439 18.8013   1
   3   6   5 591.436 19.0005   1
  -4  -6  -5 737.927 23.1939   1
  -4  -6  -5 715.085 22.9960   5
  -4  -6  -5 724.855 22.9763   5
   4   6   5 765.373 23.5216   1
  -5  -6  -5 47.0855 3.26047   1
  -5  -6  -5 44.9502 3.18122   5
  -5  -6  -5 48.5412 3.30024   5
   5   6   5 40.7033 3.72438   1
  -6  -6  -5 1.32623 1.13639   5
  -6  -6  -5 2.02318 1.34003   1
   6   6   5 3.31945 1.64470   1
  -7  -6  -5 4.85235 2.41172   5
   7   6   5 1.81758 1.54276   1
   8   6   5 125.893 7.31988   1
   9   6   5 15.9577 3.11171   1
   6  -7  -5 7.75787 1.75717   5
   6  -7  -5 7.09751 1.71723   5
  -6   7   5 4.41877 3.89661   4
   5  -7  -5 132.014 5.57865   5
  -5   7   5 116.203 11.9758   4
   3  -7  -5 423.491 17.0394   3
   2  -7  -5 601.568 22.6650   3
  -2  -7  -5 377.466 12.0288   5
  -2  -7  -5 374.074 11.9790   5
   2   7   5 374.258 12.0347   1
   2   7   5 354.433 11.9394   1
  -3  -7  -5 98.9202 4.57930   5
  -3  -7  -5 103.821 4.62105   5
   3   7   5 107.789 4.82258   1
  -4  -7  -5 15.2584 2.09361   5
  -4  -7  -5 15.3154 2.13818   5
   4   7   5 16.0552 2.21764   1
  -5  -7  -5 171.194 7.32514   5
  -5  -7  -5 172.900 7.33597   5
   5   7   5 177.779 7.77081   1
  -6  -7  -5 5.06293 1.67862   5
   6   7   5 5.30566 1.73913   1
   7   7   5 25.5378 3.60525   1
   8   7   5 0.54907 1.70195   1
  -5   8   5 378.049 23.3387   4
   3  -8  -5 40.5725 5.45028   3
   2  -8  -5 47.9129 5.20005   3
  -2  -8  -5 212.647 7.52059   5
  -2  -8  -5 203.594 7.41072   5
  -3  -8  -5 239.961 8.56565   5
  -3  -8  -5 224.501 8.49267   5
   3   8   5 231.414 8.46799   1
  -4  -8  -5 1.85889 1.17107   5
  -4  -8  -5 3.63627 1.36348   5
   4   8   5 3.34090 1.33552   1
  -5  -8  -5 1.78302 1.33116   5
   5   8   5 2.46239 1.39983   1
  -6  -8  -5 0.64175 1.27170   5
   6   8   5 1.57233 1.54882   1
   7   8   5 67.9863 5.18448   1
   3  -9  -5 1.56184 1.92450   3
   2  -9  -5 1.66863 2.07925   3
   1  -9  -5 350.558 16.9835   3
  -2  -9  -5 1.48725 0.88690   5
  -2  -9  -5 2.04086 1.04194   5
  -3  -9  -5 -0.3920 0.95516   5
  -3  -9  -5 0.98801 1.18200   5
  -4  -9  -5 164.955 7.17712   5
  -4  -9  -5 167.381 7.09529   5
   4   9   5 159.303 6.95263   1
  -5  -9  -5 85.7160 4.97550   5
   5   9   5 77.5701 4.86416   1
  -6  -9  -5 -0.0367 1.40047   5
   6   9   5 -0.8239 1.32466   1
  -3 -10  -5 23.2586 2.48221   5
  -3 -10  -5 20.4983 2.58623   5
  -4 -10  -5 16.8237 2.47348   5
  -5 -10  -5 76.6665 4.88466   5
   5  10   5 66.9978 4.53098   1
   2   8  -6 152.262 8.68380   1
   1   8  -6 118.153 7.15928   1
   0   8  -6 71.1667 5.25260   1
  -1   8  -6 20.2744 3.24606   1
  -1   8  -6 17.5111 5.90614   4
   1  -8   6 17.1497 2.85914   5
  -2   8  -6 6.04794 4.83197   4
  -2   8  -6 5.96250 1.98155   1
   2  -8   6 8.29763 2.15259   5
  -3   8  -6 20.7658 3.03640   1
  -3   8  -6 24.1812 3.32978   1
  -3   8  -6 20.5928 7.30547   4
   3  -8   6 23.0188 3.04144   5
  -4   8  -6 59.8840 11.5863   4
  -4   8  -6 76.5572 5.02834   1
   4  -8   6 74.4809 5.05794   5
   3   7  -6 82.3144 6.07360   1
   2   7  -6 4.32501 1.97331   1
   1   7  -6 7.75570 2.28938   1
   0   7  -6 46.9857 4.87488   1
   0   7  -6 44.9012 7.57470   4
   0  -7   6 53.0630 4.73899   5
  -1   7  -6 286.488 17.3462   4
  -1   7  -6 317.181 12.2682   1
   1  -7   6 301.941 11.7632   5
  -2   7  -6 0.59940 1.38060   1
  -2   7  -6 1.13593 3.68285   4
   2  -7   6 1.90255 1.43566   5
  -3   7  -6 95.7873 11.0520   4
  -3   7  -6 113.171 6.05209   1
   3  -7   6 100.104 5.57525   5
  -4   7  -6 69.8041 11.6773   4
  -4   7  -6 75.0908 4.91227   1
   4  -7   6 80.6448 4.96664   5
  -5   7  -6 114.071 6.19570   1
  -5   7  -6 101.743 12.8615   4
   5  -7   6 113.640 6.10437   5
  -6   7  -6 6.25924 1.81485   1
  -6   7  -6 3.79737 4.81527   4
   6  -7   6 6.73302 1.99098   5
   5   6  -6 13.2070 3.26238   1
   4   6  -6 9.51312 2.73348   1
   3   6  -6 9.76282 2.45939   1
   2   6  -6 225.049 10.2885   1
   1   6  -6 5.65180 1.91082   1
   0   6  -6 181.232 11.7817   4
   0   6  -6 205.041 8.88767   1
   0  -6   6 181.988 8.17537   5
  -1   6  -6 369.638 13.6107   1
  -1   6  -6 333.880 18.4010   4
  -1   6  -6 360.906 13.3445   1
   1  -6   6 329.171 12.7186   5
  -2   6  -6 316.320 12.0792   1
  -2   6  -6 296.774 17.9644   4
   2  -6   6 312.137 11.6376   5
  -3   6  -6 0.64290 1.19889   1
  -3   6  -6 0.40041 2.49588   4
   3  -6   6 0.53110 1.22274   5
  -4   6  -6 13.5117 2.39688   1
  -4   6  -6 9.68531 4.65993   4
   4  -6   6 13.6582 2.19660   5
  -5   6  -6 164.910 7.46997   1
  -5   6  -6 140.620 14.1704   4
   5  -6   6 155.717 7.24615   5
  -6   6  -6 87.0941 14.3411   4
  -6   6  -6 95.4266 5.65140   1
   6  -6   6 100.663 5.68529   5
  -7   6  -6 -0.5024 1.10240   1
  -7   6  -6 -0.0986 3.83779   4
   5   5  -6 2.46947 1.73024   1
  -5  -5   6 3.91255 2.04456   1
   4   5  -6 147.918 8.19211   1
  -4  -5   6 141.266 7.93843   1
   3   5  -6 1.70360 1.56976   1
  -3  -5   6 4.12499 1.68651   1
   2   5  -6 425.094 15.8178   1
  -2  -5   6 413.924 15.8162   1
   1   5  -6 431.426 15.5108   1
  -1  -5   6 405.015 14.6716   5
  -1  -5   6 408.058 15.3817   1
   0   5  -6 444.960 16.0843   1
   0   5  -6 430.637 18.6586   4
   0   5  -6 452.565 15.9572   1
   0  -5   6 441.747 15.3443   5
   0  -5   6 430.132 15.9978   1
  -1   5  -6 4.98957 2.96290   4
  -1   5  -6 5.53683 1.62858   1
   1  -5   6 2.00829 1.22822   5
   1  -5   6 1.91657 1.31898   1
  -2   5  -6 4.53152 1.48806   1
  -2   5  -6 1.60466 2.50004   4
   2  -5   6 4.77360 1.58652   1
   2  -5   6 4.32583 1.31043   5
  -3   5  -6 100.333 5.57204   1
  -3   5  -6 104.842 10.2463   4
   3  -5   6 108.013 5.93953   1
   3  -5   6 114.001 5.50211   5
  -4   5  -6 100.107 5.43675   1
  -4   5  -6 88.5900 9.92972   4
   4  -5   6 103.738 5.25980   5
  -5   5  -6 85.8411 10.6523   4
  -5   5  -6 104.541 5.56963   1
   5  -5   6 99.6914 5.32825   5
  -6   5  -6 167.624 15.4732   4
  -6   5  -6 166.701 7.73190   1
   6  -5   6 171.990 7.73448   5
  -7   5  -6 42.3455 10.0062   4
  -7   5  -6 45.1281 4.08011   2
  -7   5  -6 40.8053 4.07870   1
   7  -5   6 31.7531 4.07693   5
  -8   5  -6 26.2984 3.24113   2
  -8   5  -6 24.0640 3.20457   1
   6   4  -6 -1.1328 1.42970   1
  -6  -4   6 0.43486 1.62514   1
   5   4  -6 173.582 9.15196   1
  -5  -4   6 179.267 8.97663   1
   4   4  -6 163.197 8.39733   1
  -4  -4   6 160.136 8.22305   1
   3   4  -6 0.67808 1.21443   1
  -3  -4   6 3.23875 1.54627   1
   2   4  -6 207.030 8.96377   1
  -2  -4   6 185.621 8.71796   1
   1   4  -6 149.901 7.28852   1
   1   4  -6 161.285 7.35549   1
  -1  -4   6 141.471 6.64133   5
  -1  -4   6 157.469 7.37181   1
   0   4  -6 38.1498 3.73435   1
   0  -4   6 45.8821 3.94142   5
   0  -4   6 39.6520 4.04148   1
  -1   4  -6 2.09462 1.23966   1
  -1   4  -6 3.42071 2.22629   4
   1  -4   6 3.72190 1.29530   5
   1  -4   6 0.77071 1.10215   1
   1  -4   6 1.95141 1.09728   5
  -2   4  -6 5.82600 3.10195   4
  -2   4  -6 12.3588 2.07975   1
  -2   4  -6 14.6011 2.58821   1
   2  -4   6 14.2717 2.02615   5
   2  -4   6 9.89542 1.77553   5
   2  -4   6 11.0914 2.20953   1
  -3   4  -6 1005.27 30.7258   1
  -3   4  -6 906.731 37.2966   4
   3  -4   6 968.916 30.1651   5
   3  -4   6 1010.49 31.1475   1
  -4   4  -6 1436.34 43.9921   1
   4  -4   6 1436.18 43.6186   5
   4  -4   6 1456.15 44.5517   1
  -5   4  -6 5.36168 1.61976   2
  -5   4  -6 4.32971 1.49294   1
   5  -4   6 3.62448 1.61679   1
   5  -4   6 5.51909 1.53717   5
  -6   4  -6 12.3703 2.20420   2
  -6   4  -6 13.3927 2.39340   1
   6  -4   6 11.3789 2.01521   5
  -7   4  -6 11.2621 2.29469   2
  -7   4  -6 12.5746 2.44617   1
   7  -4   6 10.2341 2.18839   5
  -8   4  -6 107.381 6.06512   2
  -8   4  -6 99.6564 6.10146   1
   6   3  -6 89.2089 6.35721   1
  -6  -3   6 92.1679 6.32160   1
   5   3  -6 30.6857 4.23334   1
  -5  -3   6 29.0912 3.77404   1
   4   3  -6 93.8151 5.96103   1
  -4  -3   6 103.024 6.06974   1
   3   3  -6 121.836 6.60225   1
  -3  -3   6 128.432 6.72906   1
   2   3  -6 4.74826 1.67496   1
  -2  -3   6 1.09579 1.03916   5
  -2  -3   6 4.30477 1.54930   1
   1   3  -6 49.3710 3.55705   1
   1   3  -6 45.8731 3.53931   1
   1   3  -6 44.3341 3.12384   5
  -1  -3   6 42.9327 3.11036   5
  -1  -3   6 43.4045 3.99320   1
  -1  -3   6 46.0397 3.25557   5
   0   3  -6 50.6838 3.54704   1
   0   3  -6 48.7117 3.16493   5
   0  -3   6 51.5131 3.70421   1
   0  -3   6 49.8472 3.52583   2
   0  -3   6 52.8352 3.39778   5
   0  -3   6 46.9238 3.23105   5
  -1   3  -6 1097.47 34.3094   5
  -1   3  -6 1134.65 38.4320   4
  -1   3  -6 1181.67 34.8588   1
   1  -3   6 1059.39 34.6265   2
   1  -3   6 1150.82 35.1046   1
   1  -3   6 1130.17 34.2799   5
   1  -3   6 1108.55 34.3706   5
  -2   3  -6 4.97294 1.83487   1
  -2   3  -6 2.77575 1.25578   1
  -2   3  -6 1.90339 0.90398   5
   2  -3   6 3.41149 1.33137   1
   2  -3   6 2.65075 1.00661   5
   2  -3   6 4.56076 1.23024   5
  -3   3  -6 152.594 6.60229   5
  -3   3  -6 153.155 7.27636   1
  -3   3  -6 179.029 7.28091   1
   3  -3   6 166.477 6.83228   5
   3  -3   6 179.772 7.56365   1
  -4   3  -6 190.953 7.80882   1
  -4   3  -6 179.017 7.99035   1
  -4   3  -6 180.113 7.73340   2
   4  -3   6 180.725 8.08938   1
   4  -3   6 184.121 7.42438   5
  -5   3  -6 122.815 5.80389   1
  -5   3  -6 111.050 5.67607   2
   5  -3   6 108.650 5.46109   5
   5  -3   6 107.063 5.96962   1
  -6   3  -6 13.6264 2.38072   2
  -6   3  -6 14.9322 2.32946   1
   6  -3   6 16.1931 2.39825   5
   6  -3   6 15.9885 2.51123   1
  -7   3  -6 2.15822 1.40654   1
  -7   3  -6 3.25966 1.31819   2
   7  -3   6 1.52893 1.25431   5
  -8   3  -6 188.337 8.48234   2
  -8   3  -6 193.336 8.77316   1
  -9   3  -6 45.1361 4.40632   2
  -9   3  -6 48.1953 4.61864   1
  -7  -2   6 37.8299 4.94615   1
   6   2  -6 240.795 11.3348   1
  -6  -2   6 256.672 11.2890   1
   5   2  -6 40.9511 4.45328   1
  -5  -2   6 57.8234 5.44694   1
   4   2  -6 25.6273 3.33476   1
  -4  -2   6 22.7260 3.17764   1
   3   2  -6 20.7287 2.90575   1
  -3  -2   6 23.0216 3.30613   1
   2   2  -6 431.027 15.1272   5
   2   2  -6 464.266 15.6097   5
   2   2  -6 468.291 15.9948   1
  -2  -2   6 433.578 15.6988   2
  -2  -2   6 455.588 15.9876   1
  -2  -2   6 462.371 15.4732   5
  -2  -2   6 433.689 15.2445   5
   1   2  -6 130.647 6.17512   1
   1   2  -6 126.694 5.79751   5
   1   2  -6 113.877 5.41929   5
  -1  -2   6 123.098 5.94140   2
  -1  -2   6 129.149 5.67974   5
  -1  -2   6 129.611 6.18642   1
  -1  -2   6 118.082 5.62744   5
   0   2  -6 5.13605 1.23767   5
   0   2  -6 5.14576 1.32995   1
   0   2  -6 4.30519 1.11397   5
   0  -2   6 5.31897 1.40315   5
   0  -2   6 3.86523 1.29905   1
   0  -2   6 4.12241 1.20352   5
   0  -2   6 5.55725 1.43425   2
  -1   2  -6 114.661 5.48075   1
  -1   2  -6 109.826 5.18826   5
  -1   2  -6 111.256 5.03459   5
   1  -2   6 125.328 5.80427   1
   1  -2   6 120.463 5.56751   2
   1  -2   6 110.737 5.10719   5
   1  -2   6 124.364 5.37906   5
  -2   2  -6 4.28227 1.40136   2
  -2   2  -6 3.83465 1.28127   1
  -2   2  -6 2.16175 0.88915   5
   2  -2   6 3.25785 0.97568   5
   2  -2   6 3.53698 1.28371   2
   2  -2   6 3.94917 1.33288   1
  -3   2  -6 88.0162 4.47388   1
  -3   2  -6 79.1086 4.10272   5
  -3   2  -6 87.0823 4.56438   2
   3  -2   6 83.9766 4.69582   1
   3  -2   6 80.7312 4.10765   5
   3  -2   6 75.8136 4.41471   2
  -4   2  -6 123.723 5.66714   5
  -4   2  -6 143.967 6.30489   2
  -4   2  -6 135.639 6.07500   1
   4  -2   6 127.203 5.77442   5
   4  -2   6 139.160 6.51179   1
  -5   2  -6 1247.61 38.7698   1
  -5   2  -6 1275.69 38.8644   2
   5  -2   6 1254.76 38.4904   5
   5  -2   6 1279.69 39.3632   1
  -6   2  -6 65.6105 4.21738   1
  -6   2  -6 67.6247 4.25600   2
   6  -2   6 62.9731 3.99522   5
   6  -2   6 63.5516 4.50668   1
  -7   2  -6 213.521 9.12862   2
  -7   2  -6 221.346 9.20831   1
   7  -2   6 201.619 10.2871   5
   7  -2   6 219.285 9.67340   1
  -8   2  -6 0.93366 1.28525   1
  -8   2  -6 1.41525 1.40454   2
  -9   2  -6 7.15368 2.16768   1
  -9   2  -6 8.46015 2.34411   2
  -7  -1   6 18.8081 3.02786   1
   6   1  -6 32.8521 4.19000   1
  -6  -1   6 41.5836 4.51969   1
   5   1  -6 300.784 12.7446   1
  -5  -1   6 336.253 12.8998   1
   4   1  -6 26.0188 3.45500   1
   4   1  -6 32.3047 3.72325   5
  -4  -1   6 19.5391 2.94589   1
   3   1  -6 806.407 26.4397   1
   3   1  -6 822.071 26.1963   5
  -3  -1   6 815.207 26.4371   1
  -3  -1   6 808.723 26.2495   2
   2   1  -6 601.552 19.2340   5
   2   1  -6 589.827 19.4818   1
   2   1  -6 561.257 18.8924   5
  -2  -1   6 602.272 19.6036   1
  -2  -1   6 574.275 19.3332   2
  -2  -1   6 565.674 18.8854   5
   1   1  -6 183.795 7.37729   1
   1   1  -6 157.622 6.83209   5
   1   1  -6 160.037 6.69089   5
  -1  -1   6 169.672 6.78799   5
  -1  -1   6 175.660 7.31717   1
  -1  -1   6 152.943 6.96282   2
  -1  -1   6 177.255 6.90352   5
   0   1  -6 173.110 6.99776   5
   0   1  -6 172.406 7.17200   1
   0   1  -6 166.121 6.74410   5
   0  -1   6 188.607 6.99164   5
   0  -1   6 177.208 7.38823   1
   0  -1   6 167.581 6.78011   5
  -1   1  -6 590.213 19.0474   5
  -1   1  -6 594.885 19.2593   5
  -1   1  -6 621.820 19.5478   1
   1  -1   6 625.336 19.1788   5
   1  -1   6 613.893 19.8106   1
   1  -1   6 557.675 19.3955   2
   1  -1   6 616.970 19.2414   5
  -2   1  -6 653.478 20.5581   1
  -2   1  -6 607.781 20.2196   5
  -2   1  -6 623.977 20.1042   5
  -2   1  -6 664.328 20.7349   2
   2  -1   6 645.173 20.8459   1
   2  -1   6 605.820 20.5397   2
   2  -1   6 683.787 20.3399   5
  -3   1  -6 865.995 26.4500   1
  -3   1  -6 819.788 26.1400   5
  -3   1  -6 868.794 26.6316   2
  -3   1  -6 845.349 26.0516   5
   3  -1   6 882.821 26.9316   1
   3  -1   6 787.065 26.4373   2
   3  -1   6 849.869 26.1059   5
  -4   1  -6 670.774 21.7477   5
  -4   1  -6 694.061 22.2033   2
  -4   1  -6 699.570 22.0810   1
   4  -1   6 683.775 22.2826   2
   4  -1   6 701.384 22.6203   1
   4  -1   6 681.581 21.7267   5
  -5   1  -6 233.296 9.06637   2
  -5   1  -6 209.018 8.41371   5
  -5   1  -6 234.754 8.94153   1
   5  -1   6 233.327 9.38465   1
   5  -1   6 210.173 8.54131   5
   5  -1   6 223.267 9.16893   2
  -6   1  -6 19.1612 2.78434   2
  -6   1  -6 19.6785 2.58449   1
   6  -1   6 18.1651 2.49517   5
   6  -1   6 18.2576 2.72790   1
  -7   1  -6 0.86808 1.19537   2
  -7   1  -6 0.81273 1.05767   1
   7  -1   6 -1.1484 0.93257   1
  -8   1  -6 7.14003 1.89228   1
  -8   1  -6 5.71998 1.89981   2
   8  -1   6 2.31483 1.44381   1
  -9   1  -6 33.4865 3.80560   1
  -9   1  -6 33.4929 3.88786   2
 -10   1  -6 64.8515 5.96470   1
  -7   0   6 168.490 8.79901   1
  -6   0   6 24.5599 3.32710   1
   5   0  -6 1.04997 1.06328   1
   5   0  -6 1.19425 0.96708   5
  -5   0   6 0.78351 1.07717   1
   4   0  -6 248.695 9.96690   5
   4   0  -6 249.912 10.2368   1
  -4   0   6 252.907 10.0596   2
  -4   0   6 248.707 10.2035   1
   3   0  -6 21.5014 2.43679   5
   3   0  -6 20.0466 2.47809   5
   3   0  -6 29.8989 3.43594   1
  -3   0   6 26.0304 3.01529   1
  -3   0   6 27.6941 2.81135   5
  -3   0   6 25.6940 3.01905   2
   2   0  -6 226.404 9.10096   1
   2   0  -6 234.891 9.09333   1
   2   0  -6 229.407 8.81123   5
  -2   0   6 230.567 9.12062   1
  -2   0   6 214.258 8.82644   1
  -2   0   6 238.641 8.62011   5
  -2   0   6 235.414 8.95259   2
   1   0  -6 258.017 9.50871   1
   1   0  -6 252.955 9.28287   5
  -1   0   6 236.673 9.47328   1
  -1   0   6 252.246 9.31654   1
  -1   0   6 249.030 9.01077   5
  -1   0   6 254.682 9.38641   2
   0   0  -6 293.265 10.3387   1
   0   0  -6 283.886 10.0915   5
   0   0  -6 284.427 9.93359   5
   0   0   6 293.511 10.4966   1
   0   0   6 280.231 9.86450   5
   0   0   6 273.604 10.0698   1
   0   0   6 281.533 10.2479   2
  -1   0  -6 1264.75 38.5078   5
  -1   0  -6 1360.14 38.8352   1
  -1   0  -6 1267.01 38.3359   5
  -1   0  -6 1284.81 38.8505   2
   1   0   6 1294.77 38.3486   5
   1   0   6 1258.72 38.9679   1
   1   0   6 1259.07 38.5987   1
   1   0   6 1280.02 38.7625   2
  -2   0  -6 58.2167 3.31269   5
  -2   0  -6 63.7414 3.29815   5
  -2   0  -6 61.7526 3.57638   2
  -2   0  -6 63.0961 3.50880   1
   2   0   6 64.1447 3.31529   5
   2   0   6 54.8255 3.50331   1
  -3   0  -6 74.2632 3.78865   1
  -3   0  -6 70.2091 3.56404   5
  -3   0  -6 61.8025 3.40064   5
  -3   0  -6 70.7271 3.81486   2
   3   0   6 62.5632 3.85181   1
   3   0   6 59.3150 3.64752   2
   3   0   6 64.7356 3.42797   5
  -4   0  -6 79.3823 4.30951   2
  -4   0  -6 78.4599 4.19507   1
  -4   0  -6 76.1944 3.93373   5
  -4   0  -6 76.8546 3.99743   5
   4   0   6 78.7231 3.96132   5
   4   0   6 79.6854 4.38009   2
   4   0   6 86.7773 4.65357   1
  -5   0  -6 37.6123 2.91025   1
  -5   0  -6 35.1824 3.15574   5
  -5   0  -6 41.9558 3.15468   2
   5   0   6 33.5159 3.45669   1
   5   0   6 41.0841 2.84364   5
   5   0   6 34.4589 3.37140   2
  -6   0  -6 23.2478 2.96300   2
  -6   0  -6 21.8306 2.70778   1
   6   0   6 17.1561 2.09321   5
   6   0   6 25.0325 3.29977   1
  -7   0  -6 219.940 9.51948   2
  -7   0  -6 232.300 9.49516   1
   7   0   6 228.526 9.92612   1
  -8   0  -6 533.994 18.6762   1
  -8   0  -6 537.380 18.8235   2
   8   0   6 518.075 19.2588   1
  -9   0  -6 258.901 11.1030   1
   9   0   6 249.839 11.5093   1
 -10   0  -6 4.83139 2.10768   1
  -7   1   6 248.169 11.0706   1
  -6   1   6 85.6889 5.48336   1
   5  -1  -6 3.85779 1.52227   5
  -5   1   6 5.19634 1.56664   2
  -5   1   6 11.3694 2.20312   1
   4  -1  -6 22.7279 2.75979   5
   4  -1  -6 29.0071 3.28068   1
  -4   1   6 23.9457 2.83102   2
  -4   1   6 32.7692 3.41963   1
   3  -1  -6 537.984 18.2278   1
   3  -1  -6 527.767 17.6530   5
   3  -1  -6 546.621 17.9061   5
  -3   1   6 567.299 18.3263   1
  -3   1   6 510.082 17.8840   1
  -3   1   6 550.386 17.8868   2
   2  -1  -6 939.886 28.4571   5
   2  -1  -6 896.893 28.5236   5
   2  -1  -6 944.586 28.9695   1
   2  -1  -6 951.215 28.8881   1
  -2   1   6 940.225 28.9194   1
  -2   1   6 917.577 28.5743   2
  -2   1   6 876.475 28.5556   1
   1  -1  -6 1357.17 42.0863   1
   1  -1  -6 1408.03 41.7374   5
   1  -1  -6 1413.13 41.9386   5
  -1   1   6 1406.90 41.9914   1
  -1   1   6 1410.73 41.9705   2
  -1   1   6 1392.29 41.5337   5
  -1   1   6 1407.26 42.2851   1
   0  -1  -6 212.005 7.83288   5
   0  -1  -6 219.388 8.07183   1
   0  -1  -6 207.741 7.72119   5
   0  -1  -6 204.556 8.08064   2
   0   1   6 204.669 7.82329   1
   0   1   6 213.586 7.97979   2
   0   1   6 220.876 7.63394   5
   0   1   6 206.908 8.13371   1
  -1  -1  -6 17.2400 2.00059   5
  -1  -1  -6 17.7592 2.17761   1
  -1  -1  -6 15.6040 2.14460   2
  -1  -1  -6 17.2316 2.01635   5
   1   1   6 11.4162 1.60072   1
   1   1   6 9.89134 1.61347   2
   1   1   6 18.0361 1.96547   5
   1   1   6 13.1669 1.98402   1
  -2  -1  -6 96.7932 4.61814   2
  -2  -1  -6 102.070 4.44770   5
  -2  -1  -6 100.950 4.55825   1
   2   1   6 99.0027 4.59602   2
   2   1   6 100.374 4.80267   1
   2   1   6 97.1629 4.22811   5
   2   1   6 83.4788 4.29401   1
  -3  -1  -6 58.6806 3.43411   2
  -3  -1  -6 58.2041 3.34733   1
  -3  -1  -6 57.6794 3.14310   5
   3   1   6 58.6391 3.10246   5
   3   1   6 59.2665 3.33912   1
   3   1   6 54.9999 3.34461   2
   3   1   6 53.8883 3.51093   1
  -4  -1  -6 72.4622 3.83829   1
  -4  -1  -6 70.6354 3.92096   2
  -4  -1  -6 60.1277 3.40372   5
   4   1   6 68.9852 4.03905   1
   4   1   6 63.2672 3.84853   2
   4   1   6 64.5436 3.46163   5
  -5  -1  -6 728.988 23.2129   2
  -5  -1  -6 731.951 23.0384   1
  -5  -1  -6 686.897 22.6788   5
   5   1   6 735.485 23.5232   1
   5   1   6 706.535 22.7021   5
   5   1   6 714.650 22.6756   5
  -6  -1  -6 420.191 14.8377   1
  -6  -1  -6 427.083 15.0520   2
   6   1   6 436.546 15.4493   1
   6   1   6 411.440 14.4580   5
  -7  -1  -6 84.3760 5.23255   2
  -7  -1  -6 87.7171 5.10597   1
   7   1   6 86.2188 5.42746   1
  -8  -1  -6 181.860 8.52521   1
   8   1   6 194.240 9.11769   1
  -9  -1  -6 8.95360 2.49133   1
   9   1   6 4.06484 2.22818   1
 -10  -1  -6 14.3784 2.99262   1
  10   1   6 13.9056 2.94015   1
  -7   2   6 1.08924 1.33995   1
  -7   2   6 4.34318 1.50190   2
   6  -2  -6 1.75569 1.38613   5
  -6   2   6 0.09132 0.96311   1
  -6   2   6 0.46980 0.95106   2
   5  -2  -6 107.730 5.68491   5
  -5   2   6 109.300 5.41209   2
  -5   2   6 107.668 5.72930   1
   4  -2  -6 511.443 16.8273   5
   4  -2  -6 480.509 17.2924   1
   4  -2  -6 512.817 17.0993   5
  -4   2   6 508.187 17.2469   1
  -4   2   6 507.754 16.8567   2
   3  -2  -6 18.7822 2.45434   1
   3  -2  -6 16.7057 2.23366   5
   3  -2  -6 15.6794 2.00989   5
  -3   2   6 17.5060 2.13041   2
  -3   2   6 15.3264 2.18790   1
  -3   2   6 17.3721 2.24766   1
   2  -2  -6 312.573 10.8746   5
   2  -2  -6 318.004 11.1138   1
   2  -2  -6 304.423 11.1048   1
   2  -2  -6 307.014 10.7102   5
  -2   2   6 319.032 10.8212   2
  -2   2   6 297.436 10.8502   1
  -2   2   6 305.613 11.0741   1
   1  -2  -6 1002.61 35.6508   4
   1  -2  -6 1099.18 32.9141   5
   1  -2  -6 1096.95 33.2626   1
   1  -2  -6 1153.45 33.1246   5
  -1   2   6 1096.27 33.3527   1
  -1   2   6 1072.58 32.9993   1
  -1   2   6 1129.47 33.0623   2
   0  -2  -6 172.555 6.97715   2
   0  -2  -6 187.151 6.79456   5
   0  -2  -6 183.006 7.02409   1
   0  -2  -6 179.681 6.83216   5
   0   2   6 176.562 6.84823   1
   0   2   6 187.937 7.19447   1
   0   2   6 177.249 6.83223   2
  -1  -2  -6 66.0921 3.30259   5
  -1  -2  -6 73.5858 3.62072   1
  -1  -2  -6 66.5362 3.40101   5
  -1  -2  -6 70.5097 3.68257   2
   1   2   6 69.2689 3.53073   2
   1   2   6 70.1217 3.27500   5
   1   2   6 70.2115 3.73003   1
   1   2   6 71.5996 3.52801   1
  -2  -2  -6 607.923 18.3835   5
  -2  -2  -6 596.417 18.5545   1
  -2  -2  -6 562.536 18.6467   2
   2   2   6 601.046 18.9038   1
   2   2   6 588.375 18.1342   5
   2   2   6 548.445 18.4582   1
   2   2   6 581.337 18.5956   2
  -3  -2  -6 415.128 13.6825   5
  -3  -2  -6 436.719 14.0028   1
  -3  -2  -6 425.957 14.1037   2
   3   2   6 405.868 13.9036   1
   3   2   6 424.189 14.0907   2
   3   2   6 411.436 13.5088   5
   3   2   6 401.101 14.1599   1
  -4  -2  -6 528.752 17.3067   2
  -4  -2  -6 525.568 17.1343   1
   4   2   6 498.111 17.0943   1
   4   2   6 505.725 16.6711   5
   4   2   6 543.203 17.5582   1
   4   2   6 526.829 17.3017   2
  -5  -2  -6 202.159 8.08393   5
  -5  -2  -6 214.152 8.58038   2
  -5  -2  -6 207.760 8.28923   1
   5   2   6 215.881 8.73765   1
   5   2   6 222.006 8.69360   2
   5   2   6 193.607 7.88526   5
  -6  -2  -6 6.01903 1.69477   1
  -6  -2  -6 6.18945 1.75284   2
   6   2   6 4.71356 1.77063   2
   6   2   6 4.43409 1.58698   1
  -7  -2  -6 2.55717 1.30384   1
   7   2   6 5.66761 1.85121   1
  -8  -2  -6 1.98650 1.48036   1
   8   2   6 0.79981 1.34351   1
  -9  -2  -6 172.652 8.54085   1
   9   2   6 176.194 9.00803   1
 -10  -2  -6 10.9972 2.42153   1
  10   2   6 7.89016 2.55655   1
   7  -3  -6 -0.9604 1.32817   5
  -7   3   6 1.62007 1.28069   1
  -7   3   6 0.64198 1.12834   2
  -7   3   6 -0.5530 1.15414   2
   6  -3  -6 39.0737 4.00613   5
  -6   3   6 43.2213 3.20369   2
  -6   3   6 39.2050 3.94361   1
  -6   3   6 45.8571 3.33114   2
   5  -3  -6 9.41826 1.94886   5
  -5   3   6 8.78395 1.74013   2
  -5   3   6 5.31417 1.58168   1
   4  -3  -6 986.566 29.9227   5
   4  -3  -6 970.897 30.1068   5
  -4   3   6 958.467 29.5079   2
  -4   3   6 945.327 30.1183   1
   3  -3  -6 72.0636 3.78281   5
   3  -3  -6 69.4461 3.98105   1
   3  -3  -6 67.3035 3.79601   5
  -3   3   6 72.8186 3.98586   1
  -3   3   6 69.7445 3.57857   2
   2  -3  -6 267.494 9.49704   5
   2  -3  -6 265.165 9.36940   5
   2  -3  -6 260.812 9.64434   1
  -2   3   6 254.710 9.40081   1
  -2   3   6 282.956 9.27648   2
  -2   3   6 267.106 9.70955   1
   1  -3  -6 251.048 8.81972   5
   1  -3  -6 256.961 9.17570   1
   1  -3  -6 258.704 8.95731   5
  -1   3   6 269.395 9.25880   1
  -1   3   6 234.928 8.86195   1
  -1   3   6 255.346 8.75287   2
   0  -3  -6 1858.37 53.1571   5
   0  -3  -6 1844.83 53.1990   5
   0  -3  -6 1725.25 53.3237   1
   0   3   6 1843.61 53.1367   2
   0   3   6 1813.92 53.5419   1
   0   3   6 1786.24 53.2046   1
  -1  -3  -6 127.096 5.09574   5
  -1  -3  -6 135.231 5.37681   1
  -1  -3  -6 125.371 5.36593   2
   1   3   6 125.669 5.18722   2
   1   3   6 126.287 5.25741   1
   1   3   6 136.061 5.57696   1
  -2  -3  -6 111.711 4.67783   5
  -2  -3  -6 116.407 4.87137   1
  -2  -3  -6 108.440 4.90416   2
   2   3   6 108.001 4.81266   1
   2   3   6 106.243 4.99473   1
   2   3   6 119.287 4.93629   2
  -3  -3  -6 97.7945 4.64600   1
  -3  -3  -6 103.995 4.87312   2
  -3  -3  -6 105.221 4.58428   5
   3   3   6 108.353 5.02679   1
   3   3   6 101.006 4.74008   2
   3   3   6 106.155 4.78094   1
  -4  -3  -6 66.1962 3.87967   2
  -4  -3  -6 58.9922 3.42476   5
  -4  -3  -6 67.9099 3.75915   1
   4   3   6 70.2731 3.93056   2
   4   3   6 71.3980 3.88719   1
   4   3   6 64.3925 3.32640   5
   4   3   6 71.9356 4.10199   1
  -5  -3  -6 2.73928 1.25154   2
  -5  -3  -6 2.54262 0.88527   5
  -5  -3  -6 7.30495 1.59852   1
   5   3   6 6.90908 1.64177   2
   5   3   6 5.06814 1.47119   1
   5   3   6 6.51161 1.17381   5
  -6  -3  -6 216.798 8.88141   1
   6   3   6 215.154 9.17058   2
   6   3   6 221.381 9.34040   1
  -7  -3  -6 17.4491 2.66985   1
   7   3   6 17.5433 3.16577   1
  -8  -3  -6 565.412 19.8711   1
   8   3   6 574.672 20.5469   1
  -9  -3  -6 10.9310 2.47084   1
   9   3   6 8.35926 2.53050   1
 -10  -3  -6 7.31204 2.43190   1
  10   3   6 9.22270 2.45741   1
   7  -4  -6 400.882 15.1528   5
  -7   4   6 409.563 14.8694   1
   6  -4  -6 223.491 9.28887   5
  -6   4   6 208.669 8.88228   1
   5  -4  -6 23.3923 2.93638   5
   5  -4  -6 21.5870 2.68517   5
  -5   4   6 24.1058 2.75144   1
   4  -4  -6 129.007 5.73253   5
   4  -4  -6 125.338 5.74159   5
  -4   4   6 126.645 5.69452   1
   3  -4  -6 184.317 7.25952   5
   3  -4  -6 186.179 7.15171   5
  -3   4   6 188.786 7.31661   1
   2  -4  -6 458.304 14.5786   5
   2  -4  -6 426.793 14.7581   1
   2  -4  -6 457.918 14.6461   5
  -2   4   6 445.997 14.4927   1
  -2   4   6 464.636 14.8066   1
   1  -4  -6 3.52307 1.00121   1
   1  -4  -6 4.89446 1.01086   5
   1  -4  -6 5.78579 1.13469   5
  -1   4   6 4.29666 0.98519   1
  -1   4   6 5.09456 1.14941   1
   0  -4  -6 12.0693 1.50329   5
   0  -4  -6 14.8503 1.61266   5
   0  -4  -6 10.8709 1.49877   1
   0   4   6 14.8949 1.80454   1
  -1  -4  -6 201.869 7.10680   5
  -1  -4  -6 196.144 7.28269   1
   1   4   6 202.434 7.04314   2
   1   4   6 202.730 7.48824   1
   1   4   6 191.676 7.19854   1
  -2  -4  -6 125.568 5.07281   5
  -2  -4  -6 120.640 5.19936   1
   2   4   6 129.244 5.16652   2
   2   4   6 120.549 5.17335   1
   2   4   6 133.877 5.53370   1
  -3  -4  -6 27.7742 2.73829   2
  -3  -4  -6 32.5590 2.34545   1
  -3  -4  -6 31.9157 2.21604   5
   3   4   6 33.1753 2.42660   2
   3   4   6 29.9438 2.91759   1
   3   4   6 28.6983 2.69010   1
  -4  -4  -6 85.6574 4.53878   2
  -4  -4  -6 81.1102 4.15322   5
  -4  -4  -6 92.7480 4.49831   1
   4   4   6 90.8799 4.57858   2
   4   4   6 83.5528 4.65546   1
   4   4   6 99.4279 4.77465   1
  -5  -4  -6 37.3847 3.43094   1
  -5  -4  -6 25.5482 2.64303   5
   5   4   6 40.5321 3.18351   2
   5   4   6 40.0604 3.55486   1
   5   4   6 43.0635 4.03819   1
  -6  -4  -6 258.916 10.2988   1
   6   4   6 262.365 10.7450   1
   6   4   6 277.393 10.7342   2
  -7  -4  -6 4.22008 1.57918   1
   7   4   6 1.81003 1.48603   1
  -8  -4  -6 -0.2689 1.28532   1
   8   4   6 0.79384 1.62215   1
  -9  -4  -6 40.6510 4.55642   1
   9   4   6 39.1889 4.69306   1
 -10  -4  -6 153.591 8.49212   1
  10   4   6 171.108 9.59372   1
   6  -5  -6 2.09498 1.38082   5
  -6   5   6 1.34551 1.04834   1
   5  -5  -6 12.3116 2.13548   5
   5  -5  -6 14.6605 2.18889   5
  -5   5   6 9.63474 1.65828   1
   4  -5  -6 137.726 5.84538   5
   4  -5  -6 124.954 5.62665   5
  -4   5   6 125.687 5.49162   1
   3  -5  -6 175.407 7.05535   5
   3  -5  -6 188.680 7.04386   5
  -3   5   6 192.270 7.01449   1
   2  -5  -6 29.9538 2.11951   5
   2  -5  -6 27.6733 2.06341   5
  -2   5   6 27.9762 2.07439   1
  -2   5   6 26.8216 1.90319   1
   1  -5  -6 398.685 12.5576   5
   1  -5  -6 401.433 12.6105   5
   1  -5  -6 380.216 12.7385   1
  -1   5   6 368.437 12.3776   1
  -1   5   6 400.882 12.6638   1
   0  -5  -6 10.0955 1.30568   5
   0  -5  -6 9.47779 1.36507   1
   0   5   6 10.7413 1.46741   1
   0   5   6 10.1578 1.31356   1
  -1  -5  -6 48.5224 2.57248   5
  -1  -5  -6 44.1153 2.57203   1
   1   5   6 44.2644 2.53731   1
   1   5   6 46.1517 2.71750   1
  -2  -5  -6 410.998 13.1905   5
  -2  -5  -6 393.315 13.2997   1
   2   5   6 417.237 13.0490   2
   2   5   6 405.617 13.5444   1
  -3  -5  -6 345.233 11.8789   5
  -3  -5  -6 346.017 12.0722   1
   3   5   6 361.928 12.2569   1
   3   5   6 371.354 12.4348   1
  -4  -5  -6 84.5943 4.34787   1
  -4  -5  -6 84.8972 4.19893   5
   4   5   6 84.1840 4.47889   1
   4   5   6 84.7956 4.60090   1
  -5  -5  -6 7.54166 1.65435   1
  -5  -5  -6 7.74302 1.53353   5
   5   5   6 10.1265 2.12192   1
  -6  -5  -6 33.2769 3.43206   1
   6   5   6 31.7828 3.45979   1
  -7  -5  -6 44.8709 4.18707   1
   7   5   6 47.1514 4.72360   1
  -8  -5  -6 3.95282 1.74684   1
   8   5   6 9.11776 2.41536   1
   9   5   6 61.8402 6.23067   1
   6  -6  -6 -1.1324 1.09964   5
   5  -6  -6 113.025 5.41328   5
   5  -6  -6 106.347 5.36146   5
   4  -6  -6 19.7576 2.25069   5
   4  -6  -6 21.0813 2.39316   5
   3  -6  -6 1.17668 0.83461   5
   3  -6  -6 0.44508 0.80355   5
   0  -6  -6 330.909 10.7279   5
  -1  -6  -6 170.159 6.14128   5
   1   6   6 167.768 6.24489   1
   1   6   6 159.677 6.05127   1
  -2  -6  -6 180.195 6.69039   5
  -2  -6  -6 178.742 6.82974   1
   2   6   6 185.644 6.99776   1
   2   6   6 179.329 6.78101   1
  -3  -6  -6 2703.03 82.0999   1
  -3  -6  -6 2885.35 81.9747   5
   3   6   6 2859.13 82.3437   1
  -4  -6  -6 48.6506 5.13695   1
  -4  -6  -6 46.3421 3.11027   5
   4   6   6 50.8613 3.48981   1
  -5  -6  -6 8.48790 1.62107   5
   5   6   6 10.1599 2.00392   1
   6   6   6 8.31095 2.18177   1
   7   6   6 171.023 8.45007   1
   8   6   6 66.5781 6.16484   1
   9   6   6 -2.7570 1.31528   1
   5  -7  -6 15.9635 2.30221   5
   5  -7  -6 18.6500 2.48872   5
   4  -7  -6 3.99436 1.29246   5
   4  -7  -6 2.36650 1.13791   5
   2  -7  -6 161.194 9.23730   3
  -1  -7  -6 160.999 5.97556   5
  -2  -7  -6 245.138 8.58381   5
  -3  -7  -6 13.1009 1.81929   5
   3   7   6 11.7444 1.81902   1
  -4  -7  -6 218.204 8.49086   5
   4   7   6 219.828 8.75163   1
   5   7   6 102.158 5.55657   1
   6   7   6 46.3318 4.39613   1
   7   7   6 233.605 10.5035   1
   8   7   6 10.5888 2.71071   1
   2  -8  -6 119.979 8.31800   3
  -2  -8  -6 36.9406 2.46554   5
  -3  -8  -6 18.0816 2.19451   5
   3   8   6 18.4852 2.20406   1
  -4  -8  -6 90.3713 4.71765   5
  -4  -8  -6 89.6274 4.83766   5
   4   8   6 92.0368 4.85882   1
  -5  -8  -6 111.745 5.65808   5
   5   8   6 110.066 5.91610   1
  -6  -8  -6 79.4874 4.98205   5
   6   8   6 82.8911 5.32940   1
   7   8   6 95.0081 6.12992   1
   2  -9  -6 65.0476 6.53410   3
   1  -9  -6 12.5390 3.68691   3
  -2  -9  -6 62.8076 3.42394   5
  -3  -9  -6 221.749 8.59083   5
  -3  -9  -6 224.025 8.49223   5
  -4  -9  -6 13.4929 2.10553   5
  -4  -9  -6 13.5210 2.66412   5
   4   9   6 13.2498 2.10167   1
  -5  -9  -6 0.41818 1.23102   5
   5   9   6 -1.3097 1.06526   1
  -6  -9  -6 8.69670 2.13287   5
   6   9   6 10.9899 2.35877   1
  -3 -10  -6 4.40372 1.72758   5
  -3 -10  -6 6.11831 1.62454   5
  -4 -10  -6 2.20218 1.35930   5
   2   7  -7 59.3698 6.27311   1
   1   7  -7 184.019 9.47236   1
   0   7  -7 221.089 10.4246   1
  -1   7  -7 14.1490 2.92657   1
  -2   7  -7 3.11039 1.51388   1
  -2   7  -7 3.92051 1.86337   1
  -2   7  -7 4.15363 4.20946   4
  -3   7  -7 0.70935 3.65276   4
  -3   7  -7 -1.5205 1.11555   1
  -4   7  -7 163.420 8.04074   1
  -4   7  -7 145.230 14.8642   4
  -5   7  -7 14.1059 6.97498   4
   3   6  -7 112.975 7.29748   1
   2   6  -7 14.1776 2.94025   1
   1   6  -7 1.25196 1.40010   1
   0   6  -7 5.20824 2.12656   1
  -1   6  -7 62.3586 4.84762   1
  -1   6  -7 68.4915 4.74198   1
  -1   6  -7 54.2783 8.17439   4
  -2   6  -7 22.0923 3.29049   1
  -2   6  -7 20.8893 6.01750   4
  -3   6  -7 37.8273 8.23635   4
  -3   6  -7 46.1871 4.53517   1
   3  -6   7 41.7365 4.25984   5
  -4   6  -7 255.200 10.6919   1
  -4   6  -7 248.819 17.9568   4
   4  -6   7 246.288 11.9695   5
  -5   6  -7 144.029 7.27165   1
  -5   6  -7 125.297 13.7252   4
  -6   6  -7 7.43282 2.09643   1
  -6   6  -7 2.15025 3.99658   4
   4   5  -7 39.6045 5.02969   1
  -4  -5   7 28.3297 4.13644   1
   3   5  -7 64.4433 6.04346   1
  -3  -5   7 71.2474 5.37409   1
   2   5  -7 56.1930 5.67667   1
  -2  -5   7 57.9351 5.42754   1
   1   5  -7 2.43655 1.51314   1
  -1  -5   7 2.60430 1.33495   1
   0   5  -7 -1.7476 0.92439   1
   0   5  -7 1.01169 1.31797   1
   0  -5   7 0.86551 1.09113   1
  -1   5  -7 520.594 18.2734   1
  -1   5  -7 475.274 22.1461   4
   1  -5   7 531.134 18.5244   1
  -2   5  -7 346.077 18.5697   4
  -2   5  -7 327.896 12.9124   1
   2  -5   7 333.716 13.2869   1
   2  -5   7 314.475 12.3402   5
  -3   5  -7 11.8757 4.81534   4
  -3   5  -7 12.6495 2.38765   1
   3  -5   7 7.39550 1.84327   5
  -4   5  -7 4.78270 3.59505   4
  -4   5  -7 1.16970 1.29236   1
   4  -5   7 1.95274 1.33482   5
  -5   5  -7 21.6674 6.65877   4
  -5   5  -7 19.5089 2.98067   1
   5  -5   7 14.1888 3.04977   5
  -6   5  -7 182.620 16.3398   4
  -6   5  -7 215.788 9.33922   1
  -7   5  -7 194.428 17.9660   4
  -7   5  -7 224.884 9.77524   1
   5   4  -7 124.405 7.67851   1
  -5  -4   7 128.799 7.77424   1
   4   4  -7 16.1833 3.30021   1
  -4  -4   7 18.7957 3.41405   1
   3   4  -7 3.09779 1.74642   1
  -3  -4   7 0.18347 1.54324   1
   2   4  -7 417.594 15.4044   1
  -2  -4   7 373.289 15.1406   1
   1   4  -7 866.028 28.5921   1
   1   4  -7 886.533 28.7853   1
  -1  -4   7 848.098 28.6810   1
   0   4  -7 14.3072 2.55049   1
   0  -4   7 26.0178 3.29610   1
  -1   4  -7 174.515 7.85785   1
  -1   4  -7 157.049 10.4679   4
   1  -4   7 162.021 7.28830   5
   1  -4   7 162.254 7.92010   1
  -2   4  -7 15.2117 4.53573   4
  -2   4  -7 9.92232 2.15168   1
   2  -4   7 12.9096 2.50367   1
   2  -4   7 14.9994 2.42984   5
  -3   4  -7 18.7757 5.19251   4
  -3   4  -7 14.7558 2.53013   1
   3  -4   7 17.6578 2.57614   5
   3  -4   7 13.4676 2.50505   1
  -4   4  -7 13.1644 2.39712   1
   4  -4   7 15.6084 2.53728   1
   4  -4   7 8.86853 1.85375   5
  -5   4  -7 17.8987 2.62360   1
   5  -4   7 15.9831 2.60104   5
  -6   4  -7 33.1364 3.63573   2
  -6   4  -7 31.2925 3.58591   1
  -7   4  -7 125.415 6.61309   2
  -7   4  -7 128.944 6.94465   1
  -8   4  -7 1.98629 1.48895   2
  -8   4  -7 5.38047 2.07122   1
   6   3  -7 22.9486 4.17728   1
  -6  -3   7 16.2207 3.44046   1
   5   3  -7 391.367 16.3298   1
  -5  -3   7 422.961 16.4561   1
   4   3  -7 389.963 15.3696   1
  -4  -3   7 383.726 15.3810   1
   3   3  -7 295.758 12.0421   1
  -3  -3   7 269.445 11.8373   1
   2   3  -7 12.9435 2.41920   1
  -2  -3   7 14.7393 2.78042   1
   1   3  -7 78.0174 4.98779   1
   1   3  -7 78.1804 5.07273   1
  -1  -3   7 74.8263 5.00800   1
   0   3  -7 10.5831 2.22233   1
   0  -3   7 12.0507 1.92626   5
   0  -3   7 10.6979 2.12571   1
  -1   3  -7 16.2112 3.75175   4
  -1   3  -7 25.0067 2.91597   1
   1  -3   7 27.9273 2.96312   5
   1  -3   7 23.4592 3.22835   1
  -2   3  -7 166.841 7.56081   1
   2  -3   7 167.202 7.74119   1
   2  -3   7 165.212 7.12318   5
  -3   3  -7 845.334 26.5788   1
   3  -3   7 815.952 26.9780   1
   3  -3   7 802.934 26.0790   5
  -4   3  -7 8.44864 1.89182   1
  -4   3  -7 9.90537 2.06134   2
   4  -3   7 8.39319 2.05285   1
   4  -3   7 6.21082 1.51203   5
  -5   3  -7 270.787 10.5734   2
  -5   3  -7 262.511 10.5367   1
   5  -3   7 259.733 10.1194   5
   5  -3   7 253.780 10.9553   1
  -6   3  -7 19.7372 2.85387   1
  -6   3  -7 23.3714 2.95645   2
   6  -3   7 19.5867 2.96215   1
  -7   3  -7 0.50434 1.15964   1
  -7   3  -7 1.39907 1.49081   2
  -8   3  -7 68.8172 5.10447   1
  -8   3  -7 73.8888 5.11945   2
  -6  -2   7 137.913 8.04726   1
   5   2  -7 52.1951 5.82566   1
  -5  -2   7 43.7171 4.93234   1
   4   2  -7 129.663 7.12897   1
  -4  -2   7 130.438 7.22772   1
   3   2  -7 287.881 11.8886   1
  -3  -2   7 285.810 11.8291   1
   2   2  -7 111.197 6.02019   1
  -2  -2   7 100.738 5.88436   1
   1   2  -7 37.0717 3.78373   1
   1   2  -7 33.9007 3.58843   1
  -1  -2   7 38.4521 3.80276   1
   0   2  -7 1.46255 0.99154   1
   0   2  -7 1.98973 0.87762   5
   0  -2   7 1.00301 1.11179   1
   0  -2   7 2.20072 0.96241   5
  -1   2  -7 75.2768 4.54099   1
  -1   2  -7 76.6557 4.26126   5
   1  -2   7 81.8538 4.37903   5
   1  -2   7 82.5870 4.85488   1
   1  -2   7 74.7185 4.28976   5
  -2   2  -7 557.253 18.5761   1
   2  -2   7 554.166 18.9817   1
   2  -2   7 541.118 18.0816   5
  -3   2  -7 30.3831 3.16740   1
  -3   2  -7 22.0810 2.78830   2
   3  -2   7 22.7059 2.97360   1
   3  -2   7 20.4389 2.55542   5
  -4   2  -7 284.593 11.0137   1
  -4   2  -7 298.220 11.2359   2
   4  -2   7 271.728 10.6121   5
   4  -2   7 303.990 11.6649   1
  -5   2  -7 413.155 14.9863   1
  -5   2  -7 445.733 15.3564   2
   5  -2   7 403.314 14.6570   5
   5  -2   7 428.414 15.6439   1
  -6   2  -7 368.451 13.9793   2
  -6   2  -7 387.725 14.0126   1
   6  -2   7 374.639 14.5987   1
  -7   2  -7 1.65967 1.46098   2
  -7   2  -7 2.21676 1.37669   1
   7  -2   7 -1.1923 1.03744   1
  -8   2  -7 4.64566 1.91922   2
  -8   2  -7 4.71200 1.76449   1
  -9   2  -7 94.4003 5.84736   2
  -9   2  -7 84.1760 5.77521   1
  -6  -1   7 310.665 13.3095   1
   5   1  -7 37.0195 4.52541   1
  -5  -1   7 40.1771 4.59215   1
   4   1  -7 53.1485 5.21414   1
  -4  -1   7 43.0831 4.46291   1
   3   1  -7 411.605 15.4122   1
  -3  -1   7 422.050 15.5002   1
   2   1  -7 8.26637 2.07181   1
   2   1  -7 6.30856 1.58280   5
  -2  -1   7 5.89372 1.61821   1
   1   1  -7 803.841 28.7221   5
   1   1  -7 937.379 28.1423   1
   1   1  -7 833.220 27.3998   5
  -1  -1   7 862.881 27.6794   2
  -1  -1   7 897.184 28.0325   1
  -1  -1   7 860.255 27.7356   5
   0   1  -7 78.6161 4.29399   5
   0   1  -7 79.1111 4.51981   1
   0   1  -7 70.7376 3.96951   5
   0  -1   7 70.7689 3.97409   5
   0  -1   7 73.1973 4.55545   1
  -1   1  -7 2.09545 0.88099   5
  -1   1  -7 1.29038 0.96912   1
  -1   1  -7 -0.0179 0.71520   5
   1  -1   7 -0.5466 0.86293   5
   1  -1   7 0.72613 1.01999   1
   1  -1   7 -0.1663 0.77982   2
  -2   1  -7 3.46445 1.29710   2
  -2   1  -7 5.94189 1.57636   1
  -2   1  -7 4.94030 1.35005   5
  -2   1  -7 6.69527 1.38552   5
   2  -1   7 5.22367 1.39390   5
   2  -1   7 6.14774 1.68840   1
   2  -1   7 5.82858 1.66149   2
  -3   1  -7 272.445 10.3520   1
  -3   1  -7 253.162 9.99833   5
  -3   1  -7 265.782 9.92144   5
  -3   1  -7 277.889 10.5233   2
   3  -1   7 293.732 10.9202   1
   3  -1   7 271.449 10.4977   2
   3  -1   7 278.632 10.1262   5
  -4   1  -7 372.891 13.3020   1
  -4   1  -7 387.617 13.5573   2
  -4   1  -7 343.266 13.0117   5
   4  -1   7 371.433 12.9739   5
   4  -1   7 378.681 13.8437   1
  -5   1  -7 45.1373 4.03567   1
  -5   1  -7 38.4843 3.81872   2
   5  -1   7 37.8502 3.92757   1
   5  -1   7 40.3633 3.02861   5
  -6   1  -7 162.047 7.61475   1
  -6   1  -7 177.213 7.96218   2
   6  -1   7 162.700 7.99503   1
  -7   1  -7 60.5401 4.38002   1
  -7   1  -7 58.6911 4.31456   2
   7  -1   7 62.5265 5.84057   1
  -8   1  -7 -1.0130 1.14088   2
  -8   1  -7 1.35906 1.62180   1
   8  -1   7 1.13285 1.12061   1
  -9   1  -7 15.7322 3.06690   1
  -6   0   7 1.88146 1.48015   1
  -5   0   7 111.022 6.46468   1
   4   0  -7 484.185 17.8112   1
  -4   0   7 505.560 17.9355   1
   3   0  -7 298.846 11.6842   1
   3   0  -7 290.289 11.3132   5
  -3   0   7 286.563 11.3230   2
  -3   0   7 301.258 11.7232   1
   2   0  -7 455.533 15.8040   5
   2   0  -7 460.745 16.1941   1
   2   0  -7 456.072 16.0674   1
  -2   0   7 466.352 16.2118   1
  -2   0   7 443.872 15.8443   2
   1   0  -7 104.760 5.38069   1
   1   0  -7 114.882 5.32393   5
   1   0  -7 85.9855 4.69290   5
  -1   0   7 99.4202 5.33870   1
  -1   0   7 106.185 5.28111   2
  -1   0   7 104.600 4.87954   5
   0   0  -7 2.01327 0.84746   5
   0   0  -7 3.61729 1.11721   5
   0   0  -7 3.32107 1.16194   1
   0   0   7 4.48060 1.31578   1
   0   0   7 1.81093 1.02161   2
   0   0   7 0.84175 0.78439   5
  -1   0  -7 90.7994 4.82298   2
  -1   0  -7 89.1251 4.41154   5
  -1   0  -7 84.7951 4.45414   5
  -1   0  -7 90.4058 4.68276   1
   1   0   7 97.8546 5.03666   1
   1   0   7 82.5568 4.56903   2
   1   0   7 93.9594 4.49312   5
  -2   0  -7 28.8380 2.86748   5
  -2   0  -7 33.5317 3.24673   2
  -2   0  -7 24.2872 2.37447   5
  -2   0  -7 31.6225 3.11494   1
   2   0   7 23.3482 2.36957   5
   2   0   7 26.3948 2.74978   2
   2   0   7 30.0728 3.25276   1
  -3   0  -7 311.351 11.5143   1
  -3   0  -7 298.872 11.1036   5
  -3   0  -7 332.057 11.7979   2
  -3   0  -7 306.094 11.2954   5
   3   0   7 328.342 11.3387   5
   3   0   7 332.682 12.0695   1
  -4   0  -7 494.955 17.1522   5
  -4   0  -7 532.753 17.6624   1
  -4   0  -7 523.215 17.3880   5
  -4   0  -7 539.808 17.8841   2
   4   0   7 521.041 17.2878   5
   4   0   7 530.946 17.9570   2
   4   0   7 539.239 18.2421   1
  -5   0  -7 368.255 13.2683   1
  -5   0  -7 378.150 13.5235   2
   5   0   7 378.240 13.8227   1
   5   0   7 339.445 12.7104   5
  -6   0  -7 49.1824 3.69677   1
  -6   0  -7 49.1305 4.60739   2
   6   0   7 43.2365 4.26806   1
  -7   0  -7 127.369 6.53244   1
  -7   0  -7 111.135 6.47475   2
   7   0   7 128.865 6.87461   1
  -8   0  -7 0.58018 1.19194   1
   8   0   7 1.14887 1.42103   1
  -9   0  -7 113.522 6.78106   1
   9   0   7 116.467 7.16193   1
  -6   1   7 249.658 11.0273   1
  -5   1   7 34.4424 4.17774   1
   4  -1  -7 0.57532 0.98410   5
   4  -1  -7 0.56858 0.70329   1
  -4   1   7 1.45462 1.17741   1
  -4   1   7 -0.1528 0.88451   2
   3  -1  -7 622.083 20.5122   5
   3  -1  -7 623.932 20.8426   1
  -3   1   7 633.497 20.8775   1
  -3   1   7 583.643 20.2811   2
   2  -1  -7 101.504 5.34292   1
   2  -1  -7 112.756 5.33976   5
   2  -1  -7 99.0417 5.37913   1
   2  -1  -7 104.318 5.08466   5
  -2   1   7 109.903 5.52931   1
  -2   1   7 102.032 5.18556   2
  -2   1   7 96.2613 5.55783   1
   1  -1  -7 0.80255 0.75595   5
   1  -1  -7 0.29250 0.69097   5
   1  -1  -7 0.27506 0.71662   1
  -1   1   7 0.62252 0.82923   1
  -1   1   7 0.20170 0.70681   2
  -1   1   7 1.60441 1.04103   1
   0  -1  -7 416.020 14.0677   5
   0  -1  -7 438.180 14.3812   5
   0  -1  -7 428.463 14.5364   1
   0   1   7 431.336 14.4639   2
   0   1   7 410.820 13.9052   5
   0   1   7 395.361 14.2643   1
   0   1   7 429.113 14.7270   1
  -1  -1  -7 1059.66 33.3089   5
  -1  -1  -7 1064.34 33.8714   2
  -1  -1  -7 1122.98 33.6788   5
  -1  -1  -7 1130.52 33.9135   1
   1   1   7 1148.09 34.2169   1
   1   1   7 1105.63 33.3170   5
   1   1   7 1090.16 33.7005   1
   1   1   7 1084.99 33.7525   2
  -2  -1  -7 6.56640 1.52160   2
  -2  -1  -7 4.61651 1.25215   5
  -2  -1  -7 6.16260 1.50224   1
   2   1   7 7.27015 1.72216   1
   2   1   7 9.47777 1.58022   5
   2   1   7 7.97657 1.70008   2
   2   1   7 4.13227 1.40384   1
  -3  -1  -7 47.7840 3.28899   2
  -3  -1  -7 46.3603 3.02785   5
  -3  -1  -7 48.9753 3.01964   5
  -3  -1  -7 49.4685 3.20345   1
   3   1   7 42.9110 3.32274   1
   3   1   7 46.5978 3.30658   2
   3   1   7 43.5112 2.95187   5
  -4  -1  -7 83.2384 4.38843   5
  -4  -1  -7 78.4950 4.18702   5
  -4  -1  -7 87.0085 4.60153   1
  -4  -1  -7 84.5547 4.66709   2
   4   1   7 78.7310 4.13665   5
   4   1   7 85.6377 4.73448   2
   4   1   7 81.3516 4.81329   1
  -5  -1  -7 47.6476 3.47312   1
  -5  -1  -7 50.2981 3.66533   2
   5   1   7 44.9785 4.04096   1
  -6  -1  -7 218.316 9.25200   2
  -6  -1  -7 200.715 8.77817   1
   6   1   7 214.273 9.38735   1
  -7  -1  -7 3.92030 1.68287   1
   7   1   7 3.62212 1.94109   1
  -8  -1  -7 68.1903 4.85804   1
   8   1   7 70.1918 5.11982   1
  -9  -1  -7 368.637 14.5796   1
   9   1   7 368.748 15.2277   1
 -10  -1  -7 -0.4522 1.57012   1
  10   1   7 -0.9475 1.29956   1
  -6   2   7 134.174 9.17365   2
  -6   2   7 116.065 6.76679   1
   5  -2  -7 113.835 6.16926   5
  -5   2   7 113.469 6.26837   1
  -5   2   7 115.339 5.89736   2
   4  -2  -7 12.6881 2.28851   5
  -4   2   7 13.7221 2.22786   2
  -4   2   7 13.0578 2.38669   1
   3  -2  -7 171.321 7.41783   5
   3  -2  -7 176.126 7.88594   1
   3  -2  -7 174.500 7.59778   5
  -3   2   7 195.335 8.03629   1
  -3   2   7 179.215 7.43861   2
   2  -2  -7 290.216 10.4110   5
   2  -2  -7 291.267 10.8424   1
   2  -2  -7 287.013 10.9017   1
   2  -2  -7 281.961 10.5657   5
  -2   2   7 284.553 10.4696   2
  -2   2   7 284.033 10.8333   1
   1  -2  -7 326.222 11.3042   5
   1  -2  -7 312.531 11.6444   1
   1  -2  -7 317.790 11.4376   5
  -1   2   7 335.011 11.8551   1
  -1   2   7 320.977 11.4590   1
  -1   2   7 330.500 11.4725   2
   0  -2  -7 52.9905 3.12504   5
   0  -2  -7 53.9329 3.34020   1
   0  -2  -7 57.7121 3.34062   5
   0  -2  -7 47.0323 3.26663   2
   0   2   7 51.3518 3.24174   1
   0   2   7 55.8124 3.28472   2
   0   2   7 52.3618 3.44133   1
  -1  -2  -7 398.077 13.0660   5
  -1  -2  -7 408.315 13.2993   5
  -1  -2  -7 375.461 13.4157   2
  -1  -2  -7 385.814 13.3789   1
   1   2   7 400.647 13.3796   2
   1   2   7 387.730 13.2969   1
   1   2   7 372.145 13.5539   1
  -2  -2  -7 159.453 6.46674   1
  -2  -2  -7 149.367 6.15451   5
  -2  -2  -7 143.907 6.16095   5
  -2  -2  -7 145.273 6.42753   2
   2   2   7 148.536 6.59979   1
   2   2   7 153.971 6.43359   2
   2   2   7 143.676 6.28315   1
   2   2   7 149.491 5.94624   5
  -3  -2  -7 10.5896 1.92452   2
  -3  -2  -7 12.4751 1.93123   1
  -3  -2  -7 10.8535 1.77160   5
   3   2   7 13.0957 2.03191   2
   3   2   7 11.6218 1.93706   1
   3   2   7 12.5665 2.08969   1
   3   2   7 13.1422 1.75569   5
  -4  -2  -7 0.22304 0.79256   1
  -4  -2  -7 -0.5698 0.50146   5
  -4  -2  -7 0.22847 0.87035   2
   4   2   7 -0.2222 0.90381   2
   4   2   7 -1.0355 0.76112   1
   4   2   7 -0.4755 0.49619   5
  -5  -2  -7 0.34515 0.83705   1
  -5  -2  -7 -0.5266 0.78395   2
   5   2   7 -0.3321 0.93584   2
   5   2   7 -1.5274 0.77088   1
  -6  -2  -7 897.795 28.8531   1
   6   2   7 905.262 29.3955   1
  -7  -2  -7 14.0905 2.59967   1
   7   2   7 14.6016 2.83057   1
  -8  -2  -7 5.48034 1.64963   1
   8   2   7 5.67204 2.25368   1
  -9  -2  -7 25.3246 3.61068   1
   9   2   7 21.6616 3.63564   1
 -10  -2  -7 71.6197 5.49243   1
  10   2   7 74.4433 7.22492   1
   6  -3  -7 132.710 7.14268   5
  -6   3   7 132.279 7.08363   1
  -6   3   7 140.679 6.53222   2
  -6   3   7 141.833 6.52079   2
   5  -3  -7 193.781 8.66462   5
  -5   3   7 200.085 8.07773   2
  -5   3   7 200.390 8.69233   1
   4  -3  -7 175.458 7.78860   5
  -4   3   7 186.572 7.41373   2
  -4   3   7 175.663 7.83963   1
   3  -3  -7 45.9562 3.30705   5
   3  -3  -7 41.3239 3.08719   5
  -3   3   7 41.0499 2.93751   2
  -3   3   7 45.2745 3.36735   1
   2  -3  -7 28.0560 2.80153   5
   2  -3  -7 28.4799 2.95764   1
   2  -3  -7 29.0079 3.00643   1
   2  -3  -7 27.3107 2.66497   5
  -2   3   7 30.4102 2.81895   2
  -2   3   7 30.6749 3.03495   1
   1  -3  -7 886.626 27.5227   5
   1  -3  -7 909.761 27.3953   5
   1  -3  -7 878.527 27.7625   1
  -1   3   7 870.458 27.4703   1
  -1   3   7 898.278 27.8296   1
  -1   3   7 892.596 27.2878   2
   0  -3  -7 30.6729 2.74151   5
   0  -3  -7 29.3111 2.84152   1
   0  -3  -7 27.4335 2.50152   5
   0   3   7 31.7261 2.36132   2
   0   3   7 31.5187 2.43356   1
   0   3   7 29.6288 2.90509   1
  -1  -3  -7 37.8340 2.47711   5
  -1  -3  -7 34.2509 2.58031   1
  -1  -3  -7 33.7405 2.63901   2
  -1  -3  -7 36.4923 2.54209   5
   1   3   7 34.9269 2.53911   1
   1   3   7 30.4368 2.93047   1
   1   3   7 36.3776 2.55852   2
  -2  -3  -7 1.70242 0.82109   1
  -2  -3  -7 1.40566 0.87518   2
  -2  -3  -7 1.58619 0.81707   5
   2   3   7 1.76150 0.98778   1
   2   3   7 1.68500 0.89526   2
   2   3   7 1.94395 0.90138   1
  -3  -3  -7 82.2099 4.13087   5
  -3  -3  -7 87.1319 4.43583   1
  -3  -3  -7 81.4860 4.46536   2
   3   3   7 84.5213 4.39485   1
   3   3   7 81.1270 4.57690   1
   3   3   7 90.0768 4.52711   2
  -4  -3  -7 57.3755 3.36139   5
  -4  -3  -7 57.4373 3.55854   1
  -4  -3  -7 49.5647 3.50935   2
   4   3   7 51.6655 3.73428   1
   4   3   7 58.8733 3.73664   2
   4   3   7 54.6224 3.61197   1
  -5  -3  -7 50.2274 3.49023   1
   5   3   7 53.0214 3.92901   1
   5   3   7 56.8364 3.92500   2
  -6  -3  -7 6.97278 1.68982   1
   6   3   7 7.24957 1.88444   1
  -7  -3  -7 1.95789 1.18863   1
   7   3   7 1.24744 1.40295   1
  -8  -3  -7 86.3676 5.40203   1
   8   3   7 74.0725 5.63615   1
  -9  -3  -7 46.0326 4.87826   1
   9   3   7 41.0403 5.09920   1
   6  -4  -7 64.7042 4.74196   5
  -6   4   7 62.9489 4.37438   1
   5  -4  -7 -0.1653 0.98011   5
  -5   4   7 -0.6682 0.89970   1
   4  -4  -7 423.807 14.6491   5
   4  -4  -7 408.039 15.5282   5
  -4   4   7 413.736 14.5922   1
   3  -4  -7 70.6676 4.05778   5
   3  -4  -7 67.6965 3.99982   5
  -3   4   7 71.2838 4.10321   1
   2  -4  -7 8.08388 1.60370   5
   2  -4  -7 8.34641 1.59757   5
  -2   4   7 7.48295 1.57367   1
   1  -4  -7 9.00600 1.63771   1
   1  -4  -7 12.7794 1.85783   5
   1  -4  -7 15.0919 1.81405   5
  -1   4   7 12.7233 1.89297   1
   0  -4  -7 176.460 7.08580   1
   0  -4  -7 184.552 6.90503   5
   0  -4  -7 183.980 6.97738   5
   0   4   7 178.708 6.66622   2
   0   4   7 180.984 7.21982   1
   0   4   7 171.956 6.85561   1
  -1  -4  -7 56.7287 3.11751   5
  -1  -4  -7 59.5019 3.33948   1
  -1  -4  -7 54.3679 3.14863   5
   1   4   7 58.9778 3.17115   2
   1   4   7 58.5326 3.45116   1
   1   4   7 45.9520 3.01668   1
  -2  -4  -7 4.43091 1.14939   5
  -2  -4  -7 3.30664 1.06185   1
   2   4   7 4.73599 1.26436   1
   2   4   7 2.52845 1.01804   1
   2   4   7 2.99760 1.04851   2
  -3  -4  -7 327.114 13.4995   2
  -3  -4  -7 348.369 11.8349   5
  -3  -4  -7 353.400 12.0994   1
   3   4   7 352.422 12.0343   2
   3   4   7 321.340 11.9381   1
   3   4   7 353.191 12.4245   1
  -4  -4  -7 28.6583 2.79713   5
  -4  -4  -7 36.4841 2.80838   1
   4   4   7 31.7120 3.21234   2
   4   4   7 36.9263 3.49456   1
  -5  -4  -7 108.012 5.46788   1
   5   4   7 106.192 5.76099   1
   5   4   7 105.679 5.61808   2
  -6  -4  -7 69.5190 4.40596   1
   6   4   7 66.5565 4.69999   1
  -7  -4  -7 0.12178 1.03992   1
   7   4   7 0.92092 1.25953   1
  -8  -4  -7 211.053 9.60911   1
   8   4   7 218.311 10.2745   1
  -9  -4  -7 62.5058 4.65549   1
   9   4   7 44.5518 5.04800   1
   5  -5  -7 329.566 12.3039   5
  -5   5   7 319.377 11.7688   1
   4  -5  -7 184.303 7.83597   5
   4  -5  -7 190.250 7.80874   5
  -4   5   7 191.073 7.65905   1
   3  -5  -7 6.38324 1.49959   5
   3  -5  -7 7.26431 1.57056   5
  -3   5   7 2.93510 1.15867   1
   2  -5  -7 157.903 6.37961   5
   2  -5  -7 152.218 6.26778   5
  -2   5   7 151.119 6.29835   1
   1  -5  -7 80.9730 3.90931   5
   1  -5  -7 79.7582 3.97551   5
  -1   5   7 80.9815 4.04268   1
   0  -5  -7 22.9293 2.13940   5
   0  -5  -7 20.4303 2.12494   5
   0   5   7 22.9511 2.37247   1
  -1  -5  -7 63.5162 3.55488   1
  -1  -5  -7 66.4788 3.47612   5
   1   5   7 79.1189 3.93249   1
  -2  -5  -7 2.24284 0.87500   1
  -2  -5  -7 3.54047 1.14106   5
   2   5   7 2.09966 0.92582   2
   2   5   7 3.36992 1.14768   1
  -3  -5  -7 10.5813 1.59810   5
  -3  -5  -7 12.4010 1.81817   1
   3   5   7 11.8724 1.75932   2
   3   5   7 18.9315 2.42521   1
  -4  -5  -7 0.63440 0.84387   5
  -4  -5  -7 0.55258 0.87080   1
   4   5   7 0.64932 0.92329   2
   4   5   7 1.02581 1.05453   1
  -5  -5  -7 5.40233 1.43707   1
   5   5   7 13.6996 2.32757   1
   5   5   7 7.14561 1.82048   2
  -6  -5  -7 367.844 13.8840   1
   6   5   7 395.842 14.5631   1
   7   5   7 85.7073 5.71415   1
   8   5   7 25.7605 3.68368   1
   9   5   7 29.9647 4.30705   1
   5  -6  -7 4.99654 1.62908   5
   4  -6  -7 162.370 7.15838   5
   4  -6  -7 175.778 7.21829   5
   3  -6  -7 65.9039 3.76651   5
   3  -6  -7 61.5009 3.69270   5
   2  -6  -7 146.459 6.02355   5
   2  -6  -7 143.604 5.92348   5
   1  -6  -7 13.2437 1.69917   5
   1  -6  -7 11.7041 1.70106   5
   0  -6  -7 7.17013 1.28967   5
   0   6   7 6.04467 1.26614   1
  -1  -6  -7 1.41432 0.76271   5
   1   6   7 4.82050 1.17574   1
  -2  -6  -7 6.81922 1.33002   5
   2   6   7 8.65149 1.54873   1
  -3  -6  -7 19.0001 2.19446   5
   3   6   7 20.1946 2.52380   1
  -4  -6  -7 549.686 18.5869   5
   4   6   7 594.647 19.2505   1
   5   6   7 19.0518 2.79383   1
   6   6   7 37.7333 4.32433   1
   7   6   7 17.5977 3.02746   1
   8   6   7 11.0760 2.74959   1
   4  -7  -7 210.076 8.30621   5
   4  -7  -7 202.943 8.17452   5
   3  -7  -7 45.3300 3.11939   5
   3  -7  -7 45.0249 3.09086   5
   2  -7  -7 2.51049 1.00935   5
   2  -7  -7 4.05809 1.10747   5
   1  -7  -7 1.64341 0.79298   5
   1  -7  -7 -0.0726 0.64717   5
   0  -7  -7 208.040 7.53172   5
  -1  -7  -7 192.527 7.20823   5
  -2  -7  -7 0.80025 0.96865   5
   2   7   7 1.50410 0.95602   1
  -3  -7  -7 66.3492 3.76741   5
   3   7   7 63.2579 3.88557   1
  -4  -7  -7 106.364 5.24322   5
   4   7   7 108.207 5.56641   1
   5   7   7 13.5165 2.45897   1
   6   7   7 0.94042 1.44805   1
   7   7   7 18.4513 3.31100   1
   8   7   7 188.247 9.72762   1
  -1  -8  -7 116.567 4.99770   5
  -2  -8  -7 198.046 7.56853   5
  -3  -8  -7 170.190 6.94137   5
   3   8   7 160.826 6.81799   1
   4   8   7 164.619 7.26221   1
   5   8   7 174.027 7.96246   1
   6   8   7 0.79126 1.49653   1
   7   8   7 15.8885 3.08096   1
   1  -9  -7 243.011 13.6745   3
  -2  -9  -7 -0.1875 0.96164   5
  -3  -9  -7 111.816 5.49635   5
   4   9   7 10.0982 2.10281   1
   5   9   7 14.9672 2.55826   1
  -2 -10  -7 3.23563 1.48300   5
  -3 -10  -7 78.1822 4.67293   5
   2   6  -8 34.3317 4.95868   1
   1   6  -8 171.977 9.10059   1
   0   6  -8 183.603 9.29704   1
  -1   6  -8 173.623 8.89216   1
  -1   6  -8 172.783 9.07687   1
  -2   6  -8 1.43377 1.66119   1
  -3   6  -8 85.5909 5.85357   1
  -3   6  -8 71.4447 11.0649   4
  -4   6  -8 102.739 6.25614   1
  -4   6  -8 77.8726 12.1677   4
  -5   6  -8 154.945 7.92089   1
  -5   6  -8 112.517 13.7541   4
   3   5  -8 65.4902 6.67027   1
  -3  -5   8 60.9819 6.13795   1
   2   5  -8 197.802 9.85201   1
  -2  -5   8 176.392 9.46873   1
   1   5  -8 82.6543 5.97216   1
  -1  -5   8 90.5720 5.99322   1
   0   5  -8 89.7746 5.91537   1
   0   5  -8 96.3446 6.20575   1
   0  -5   8 86.9079 6.55783   1
  -1   5  -8 191.133 9.32894   1
  -2   5  -8 387.272 20.9025   4
  -2   5  -8 462.532 16.4020   1
  -3   5  -8 -0.0474 2.92412   4
  -3   5  -8 0.64496 1.52787   1
  -4   5  -8 101.148 6.14057   1
  -4   5  -8 86.4715 10.8747   4
  -5   5  -8 71.3527 11.8666   4
  -5   5  -8 65.7372 4.94178   1
  -6   5  -8 93.1719 6.13828   1
  -6   5  -8 79.3105 13.0671   4
   4   4  -8 0.81215 1.45140   1
  -4  -4   8 -0.7128 1.41378   1
   3   4  -8 0.18972 1.41736   1
  -3  -4   8 -3.8966 1.02298   1
   2   4  -8 1.84508 1.67742   1
  -2  -4   8 2.75834 1.56980   1
   1   4  -8 233.619 10.4809   1
  -1  -4   8 218.320 10.3874   1
   0   4  -8 12.9509 2.65232   1
   0   4  -8 13.8666 2.76184   1
   0  -4   8 6.15148 2.29774   1
  -1   4  -8 189.152 8.92138   1
   1  -4   8 188.768 9.13567   1
  -2   4  -8 297.251 16.8825   4
  -2   4  -8 341.327 12.9914   1
   2  -4   8 334.003 13.2479   1
  -3   4  -8 259.176 10.9499   1
  -3   4  -8 244.583 15.8473   4
   3  -4   8 278.433 11.4481   1
  -4   4  -8 -1.1507 1.12969   1
  -5   4  -8 26.9330 3.72049   1
  -6   4  -8 174.879 8.51814   2
  -6   4  -8 178.801 8.67937   1
  -7   4  -8 134.424 7.21328   2
  -7   4  -8 116.850 7.06701   1
   4   3  -8 0.52001 1.21004   1
  -4  -3   8 0.90143 1.58523   1
   3   3  -8 71.3075 5.28079   1
  -3  -3   8 69.8540 6.56997   1
   2   3  -8 8.28085 2.23846   1
  -2  -3   8 8.71139 2.35390   1
   1   3  -8 467.517 17.2970   1
   1   3  -8 477.040 17.5238   1
  -1  -3   8 459.411 17.4408   1
   0   3  -8 399.133 15.0833   1
   0  -3   8 388.951 15.1185   1
  -1   3  -8 361.749 13.9497   1
   1  -3   8 362.085 14.1209   1
  -2   3  -8 -0.0633 0.92955   1
   2  -3   8 1.34332 1.33402   1
  -3   3  -8 53.6397 4.03066   1
   3  -3   8 51.3200 4.79805   1
  -4   3  -8 274.403 11.1213   1
   4  -3   8 264.254 11.4289   1
  -5   3  -8 2.02445 1.32112   1
  -5   3  -8 4.48006 1.62886   2
   5  -3   8 1.61478 1.42034   1
  -6   3  -8 -2.5808 1.05057   2
  -6   3  -8 -2.6876 0.99768   1
  -7   3  -8 24.0285 3.44420   2
  -7   3  -8 23.1813 3.32035   1
  -8   3  -8 5.51104 1.98021   2
  -8   3  -8 1.36991 1.44165   1
  -5  -2   8 1.35370 1.56757   1
   4   2  -8 228.318 10.8350   1
  -4  -2   8 237.411 11.0020   1
   3   2  -8 185.807 9.32030   1
  -3  -2   8 207.196 9.64578   1
   2   2  -8 3.83239 1.52574   1
  -2  -2   8 -0.1426 1.21281   1
   1   2  -8 123.460 6.64060   1
   1   2  -8 115.874 6.61304   1
  -1  -2   8 118.221 6.64917   1
   0   2  -8 298.639 11.9963   1
   0  -2   8 304.274 12.2403   1
  -1   2  -8 7.88524 1.98905   1
   1  -2   8 3.28473 1.50066   1
  -2   2  -8 95.0251 5.45174   1
   2  -2   8 93.5291 5.66289   1
  -3   2  -8 49.9810 3.82347   1
  -3   2  -8 43.0101 4.20128   2
   3  -2   8 47.3958 4.59761   1
  -4   2  -8 368.075 14.0291   1
  -4   2  -8 386.439 14.2559   2
   4  -2   8 380.301 14.5738   1
  -5   2  -8 770.794 25.6293   1
  -5   2  -8 776.140 25.7008   2
   5  -2   8 775.925 26.2672   1
  -6   2  -8 11.5820 2.47082   1
  -6   2  -8 10.8213 2.09979   2
   6  -2   8 13.4733 2.76754   1
  -7   2  -8 7.93639 2.10046   2
  -7   2  -8 8.66930 2.20268   1
   7  -2   8 2.11294 1.64713   1
  -8   2  -8 29.6813 3.87502   1
  -5  -1   8 168.527 8.93046   1
   4   1  -8 0.59616 1.02351   1
  -4  -1   8 -0.2762 1.30045   1
   3   1  -8 6.91650 1.96702   1
  -3  -1   8 6.67487 2.20392   1
   2   1  -8 0.97792 1.06235   1
  -2  -1   8 -1.3780 0.97085   1
   1   1  -8 119.070 6.45054   1
  -1  -1   8 122.107 6.57780   1
   0   1  -8 1.06555 1.08256   1
   0  -1   8 0.14120 1.20783   1
  -1   1  -8 -0.4335 0.69665   1
   1  -1   8 3.62738 1.46609   1
  -2   1  -8 654.067 22.4831   2
  -2   1  -8 689.026 22.4020   1
   2  -1   8 673.465 22.7372   1
  -3   1  -8 11.7566 2.25221   1
  -3   1  -8 13.5165 2.51395   2
   3  -1   8 11.5595 2.26842   1
  -4   1  -8 309.121 11.9469   2
  -4   1  -8 299.171 11.7469   1
   4  -1   8 305.778 12.3183   1
  -5   1  -8 4.75618 1.82989   2
  -5   1  -8 2.32492 1.54204   1
   5  -1   8 8.22727 2.21803   1
  -6   1  -8 333.067 13.0878   1
  -6   1  -8 334.325 13.3821   2
   6  -1   8 360.796 13.9902   1
  -7   1  -8 100.541 6.06085   1
   7  -1   8 104.457 6.59380   1
  -8   1  -8 18.0245 3.07741   1
   8  -1   8 13.0688 2.90768   1
  -9   1  -8 90.4396 6.16976   1
  -5   0   8 27.5385 3.87267   1
  -4   0   8 3.10974 1.43357   1
   3   0  -8 81.0679 5.16549   1
  -3   0   8 72.0117 5.03829   1
   2   0  -8 11.4371 2.48754   1
   2   0  -8 8.37759 2.09893   1
  -2   0   8 10.3053 2.22692   1
   1   0  -8 479.906 17.1536   5
   1   0  -8 520.763 17.7525   1
  -1   0   8 498.126 17.6600   1
   0   0  -8 256.462 10.2021   5
   0   0  -8 283.769 10.6887   1
   0   0   8 262.103 10.6769   1
   0   0   8 253.485 10.3550   2
  -1   0  -8 99.8189 5.35537   1
  -1   0  -8 94.4976 5.05130   5
   1   0   8 95.7363 5.40651   1
   1   0   8 93.9751 5.15942   2
  -2   0  -8 2.60743 1.26471   2
  -2   0  -8 1.83387 0.83293   5
  -2   0  -8 1.78370 1.07077   1
   2   0   8 1.71934 1.17250   2
   2   0   8 2.82183 1.44233   1
  -3   0  -8 111.725 5.72349   1
  -3   0  -8 97.4277 5.23699   5
  -3   0  -8 115.390 5.90244   2
   3   0   8 114.292 6.08774   1
  -4   0  -8 240.257 10.0026   2
  -4   0  -8 256.486 9.96319   1
   4   0   8 234.873 10.2207   1
  -5   0  -8 16.4972 2.58097   1
   5   0   8 21.5774 3.13911   1
  -6   0  -8 661.719 22.4309   1
   6   0   8 664.557 23.0850   1
  -7   0  -8 17.0324 2.86937   1
   7   0   8 17.3696 3.05771   1
  -8   0  -8 127.864 6.92531   1
   8   0   8 103.403 7.00030   1
  -9   0  -8 1.29110 1.63429   1
   9   0   8 2.27483 1.57347   1
  -5   1   8 64.6901 4.97689   1
  -4   1   8 540.781 19.4392   1
   3  -1  -8 11.8448 2.14175   5
   3  -1  -8 17.9773 3.35910   1
  -3   1   8 13.5717 2.66091   1
   2  -1  -8 1300.42 40.8406   1
   2  -1  -8 1321.02 40.4716   5
   2  -1  -8 1303.85 40.7290   1
  -2   1   8 1261.85 40.2964   2
  -2   1   8 1349.18 40.9040   1
   1  -1  -8 136.978 6.47214   5
   1  -1  -8 133.132 6.62522   1
  -1   1   8 141.519 6.83216   1
  -1   1   8 141.068 6.54380   2
   0  -1  -8 0.43752 0.93596   1
   0  -1  -8 0.13864 0.87650   5
   0   1   8 1.02088 0.94361   2
   0   1   8 0.75382 0.96757   1
  -1  -1  -8 197.444 8.12604   1
  -1  -1  -8 180.434 7.75271   5
   1   1   8 196.976 8.38372   1
   1   1   8 188.816 8.03051   2
  -2  -1  -8 408.944 14.0575   1
  -2  -1  -8 373.434 13.6631   5
  -2  -1  -8 376.018 13.6548   5
  -2  -1  -8 383.804 14.7119   2
   2   1   8 399.569 14.3493   1
   2   1   8 401.372 14.0565   2
  -3  -1  -8 285.457 10.9831   5
  -3  -1  -8 296.486 12.1308   2
  -3  -1  -8 302.342 11.3042   1
   3   1   8 302.622 11.4054   2
   3   1   8 300.500 11.6490   1
  -4  -1  -8 498.528 16.7271   1
  -4  -1  -8 460.583 16.3178   5
   4   1   8 483.546 17.2003   1
  -5  -1  -8 307.187 12.0738   1
   5   1   8 329.177 12.7715   1
  -6  -1  -8 56.4842 4.18664   1
   6   1   8 51.8675 5.17862   1
  -7  -1  -8 4.89638 1.84800   1
   7   1   8 3.72557 1.94149   1
  -8  -1  -8 0.51215 1.62748   1
   8   1   8 3.16707 1.48465   1
  -9  -1  -8 -0.2714 1.34301   1
   9   1   8 -3.8599 1.07321   1
  -5   2   8 145.205 7.63285   1
   4  -2  -8 41.2581 4.36279   5
  -4   2   8 39.9242 3.96658   2
  -4   2   8 40.4348 4.34822   1
   3  -2  -8 37.9554 3.86531   5
  -3   2   8 45.1148 3.33517   2
  -3   2   8 38.4546 3.85780   1
   2  -2  -8 55.4092 3.94198   1
   2  -2  -8 55.1292 3.76163   5
   2  -2  -8 55.0527 4.13952   1
  -2   2   8 50.6724 3.58782   2
  -2   2   8 55.0561 3.97310   1
   1  -2  -8 78.1478 4.64296   1
   1  -2  -8 79.2819 4.82432   5
   1  -2  -8 81.3861 4.54058   5
  -1   2   8 75.9395 4.64274   1
  -1   2   8 81.2066 4.46035   2
   0  -2  -8 133.762 6.11149   1
   0  -2  -8 120.043 5.62507   5
   0  -2  -8 119.595 5.75572   5
   0   2   8 127.231 6.22434   1
   0   2   8 125.412 5.87517   2
  -1  -2  -8 124.991 5.82885   1
  -1  -2  -8 114.681 5.53904   5
  -1  -2  -8 114.279 5.41295   5
   1   2   8 118.528 5.98763   1
   1   2   8 124.557 5.82235   2
   1   2   8 121.710 5.79887   1
  -2  -2  -8 490.720 16.2919   1
  -2  -2  -8 478.004 15.9539   5
  -2  -2  -8 477.095 16.0516   5
   2   2   8 437.438 16.0053   1
   2   2   8 477.824 16.5748   1
   2   2   8 483.684 16.2660   2
  -3  -2  -8 0.72174 0.82851   5
  -3  -2  -8 1.21206 0.90684   1
  -3  -2  -8 0.52542 0.83933   5
   3   2   8 2.00384 1.29578   1
   3   2   8 1.75894 1.22166   2
  -4  -2  -8 0.07148 0.78998   1
   4   2   8 0.08327 0.99537   2
   4   2   8 -0.5886 0.89912   1
  -5  -2  -8 66.0054 4.23387   1
   5   2   8 64.0762 4.52472   1
  -6  -2  -8 30.3287 3.30557   1
   6   2   8 37.5337 4.11227   1
  -7  -2  -8 -0.2121 0.99399   1
   7   2   8 1.57460 1.64094   1
  -8  -2  -8 61.5582 4.65982   1
   8   2   8 56.2942 5.66888   1
  -9  -2  -8 229.506 10.3869   1
   9   2   8 204.891 10.4621   1
   5  -3  -8 40.6756 4.47575   5
  -5   3   8 37.6558 4.23558   1
  -5   3   8 43.9165 4.00434   2
   4  -3  -8 0.61191 1.12538   5
  -4   3   8 1.02220 1.14564   1
  -4   3   8 -0.8077 0.91371   2
   3  -3  -8 3.38305 1.35595   5
  -3   3   8 3.29280 1.33869   1
  -3   3   8 4.22421 1.31153   2
   2  -3  -8 281.778 10.5527   5
  -2   3   8 271.180 10.6735   1
  -2   3   8 266.811 10.0649   2
   1  -3  -8 465.485 15.5585   5
   1  -3  -8 450.603 15.3494   5
   1  -3  -8 455.763 17.4315   1
  -1   3   8 453.305 15.2106   2
  -1   3   8 437.328 15.7246   1
   0  -3  -8 517.479 17.4684   5
   0  -3  -8 518.369 17.6681   1
   0  -3  -8 514.826 17.2604   5
   0   3   8 541.987 17.4084   2
   0   3   8 540.201 17.9481   1
  -1  -3  -8 165.589 6.78143   5
  -1  -3  -8 161.175 6.86219   5
  -1  -3  -8 159.279 7.03650   1
   1   3   8 157.506 7.19335   1
   1   3   8 174.079 7.00537   2
  -2  -3  -8 -0.5286 0.66061   1
  -2  -3  -8 -0.2415 0.77964   5
  -2  -3  -8 -1.0502 0.66364   5
   2   3   8 -0.4128 0.85266   1
   2   3   8 0.58320 0.99096   2
  -3  -3  -8 43.6015 3.20862   1
  -3  -3  -8 41.1317 2.96630   5
   3   3   8 37.0107 3.60426   1
   3   3   8 44.6839 3.33058   2
  -4  -3  -8 0.01072 0.68324   1
   4   3   8 2.05773 1.30843   1
   4   3   8 0.49156 1.04047   2
  -5  -3  -8 1.77497 1.04246   1
   5   3   8 -0.7074 0.97327   1
  -6  -3  -8 202.468 8.82517   1
   6   3   8 202.820 9.31219   1
  -7  -3  -8 84.1364 5.30394   1
   7   3   8 85.0773 5.79640   1
  -8  -3  -8 19.1765 3.08953   1
   8   3   8 14.5425 3.01476   1
  -9  -3  -8 85.2965 5.99465   1
   9   3   8 100.403 6.89761   1
   5  -4  -8 -0.7262 1.15431   5
  -5   4   8 0.18070 1.10250   1
   4  -4  -8 57.7733 4.15660   5
  -4   4   8 62.6024 4.21769   1
   3  -4  -8 244.033 9.60642   5
  -3   4   8 230.303 9.53874   1
   2  -4  -8 2.25725 1.14046   5
   2  -4  -8 0.72778 0.94095   5
  -2   4   8 1.71445 0.88137   2
  -2   4   8 0.39207 1.05414   1
   1  -4  -8 74.9346 4.26509   5
   1  -4  -8 83.3427 4.36580   5
  -1   4   8 85.4529 4.63215   1
  -1   4   8 77.8722 3.97217   2
   0  -4  -8 220.700 8.43880   5
   0  -4  -8 216.391 8.53340   5
   0   4   8 219.719 8.25148   2
   0   4   8 229.056 8.93263   1
  -1  -4  -8 2.98228 1.11431   1
  -1  -4  -8 3.77982 1.22568   5
  -1  -4  -8 5.83030 1.40550   5
   1   4   8 4.29870 1.24641   2
   1   4   8 3.80940 1.36631   1
  -2  -4  -8 12.2715 1.97118   1
  -2  -4  -8 9.95816 1.62124   5
  -2  -4  -8 18.3366 2.39959   5
   2   4   8 9.56661 1.76531   2
   2   4   8 12.7603 2.16126   1
  -3  -4  -8 104.609 5.22208   5
  -3  -4  -8 114.812 5.53802   1
   3   4   8 115.504 5.55381   2
   3   4   8 123.533 5.99208   1
  -4  -4  -8 96.1103 5.14742   1
   4   4   8 92.9921 5.19391   2
   4   4   8 107.547 5.70880   1
  -5  -4  -8 174.946 8.00106   1
   5   4   8 190.731 8.36123   2
   5   4   8 201.217 8.76615   1
  -6  -4  -8 114.340 6.13250   1
   6   4   8 131.545 6.88983   1
  -7  -4  -8 0.80509 1.08806   1
   7   4   8 -0.2872 1.19467   1
  -8  -4  -8 9.32402 2.81152   1
   8   4   8 14.9987 3.28003   1
   9   4   8 12.7426 3.06122   1
   5  -5  -8 9.35198 2.25067   5
  -5   5   8 8.33649 1.94609   1
   4  -5  -8 49.9016 4.48629   5
  -4   5   8 47.8716 3.50991   1
   3  -5  -8 315.407 11.8960   5
  -3   5   8 328.098 11.8031   1
   2  -5  -8 3.63191 1.31100   5
   2  -5  -8 6.65281 1.65793   5
  -2   5   8 4.44127 1.37799   1
   1  -5  -8 10.2709 1.84067   5
   1  -5  -8 10.4759 1.78163   5
  -1   5   8 9.22980 1.70118   1
   0  -5  -8 29.7564 2.88529   5
   0  -5  -8 25.5199 2.57138   5
   0   5   8 23.6242 2.72277   1
  -1  -5  -8 607.375 19.9125   5
  -1  -5  -8 646.604 20.1228   5
   1   5   8 614.124 19.5461   2
   1   5   8 633.230 20.4281   1
  -2  -5  -8 85.8401 4.36178   5
   2   5   8 80.2743 4.54542   1
   2   5   8 78.4488 4.09734   2
  -3  -5  -8 23.8649 2.64017   5
   3   5   8 20.6669 2.64149   1
   3   5   8 20.0295 2.37271   2
   4   5   8 12.1108 2.06610   2
   4   5   8 13.5170 2.35585   1
   5   5   8 10.1359 2.05594   2
   5   5   8 13.5042 2.60057   1
   6   5   8 10.6558 2.66307   1
   7   5   8 67.3832 5.23914   1
   8   5   8 26.4058 4.08951   1
   4  -6  -8 65.1818 4.36349   5
  -4   6   8 66.7220 3.83430   1
   3  -6  -8 120.356 5.78419   5
   3  -6  -8 118.254 5.68230   5
  -3   6   8 110.648 5.20867   1
   2  -6  -8 100.995 4.89412   5
   2  -6  -8 86.6015 4.69546   5
  -2   6   8 92.1960 4.51997   1
   1  -6  -8 300.425 10.8920   5
   1  -6  -8 302.121 10.8405   5
  -1   6   8 306.511 10.7576   1
   0  -6  -8 1.57259 0.90149   5
   0  -6  -8 2.66220 1.13494   5
   0   6   8 3.13938 1.14252   1
  -1  -6  -8 0.78199 0.98700   5
   1   6   8 2.75726 1.22393   1
  -2  -6  -8 47.1735 3.25582   5
   2   6   8 49.4841 3.41115   1
  -3  -6  -8 49.7685 3.40009   5
   3   6   8 54.3411 3.77303   1
   4   6   8 44.7664 4.04932   1
   5   6   8 115.576 6.28575   1
   6   6   8 69.2209 5.18114   1
   7   6   8 194.156 9.50431   1
   8   6   8 -2.3688 1.70659   1
   3  -7  -8 85.2808 4.84013   5
   3  -7  -8 100.797 5.04253   5
   2  -7  -8 101.797 5.01447   5
   2  -7  -8 99.2574 4.96238   5
   1  -7  -8 16.0865 2.19565   5
   1  -7  -8 18.0305 2.24936   5
   0  -7  -8 191.376 7.47546   5
   0  -7  -8 190.023 7.41124   5
  -1  -7  -8 0.87570 1.07349   5
   1   7   8 1.51915 1.02263   1
  -2  -7  -8 49.9918 3.42889   5
   2   7   8 56.0762 3.53517   1
  -3  -7  -8 308.048 11.7361   5
   3   7   8 356.325 12.3190   1
   4   7   8 231.980 9.57995   1
   5   7   8 58.6568 4.37756   1
   6   7   8 16.2661 2.88298   1
   7   7   8 32.5770 4.29067   1
   2  -8  -8 4.71056 1.49647   5
   2  -8  -8 6.66129 1.51092   5
   1  -8  -8 113.599 5.12184   5
   1  -8  -8 103.510 5.00340   5
   0  -8  -8 1.88629 1.20461   5
   0  -8  -8 1.68831 1.04988   5
  -1  -8  -8 124.415 5.61941   5
  -2  -8  -8 23.2453 2.55617   5
  -3  -8  -8 28.3256 3.15671   5
   3   8   8 27.2161 2.90156   1
   4   8   8 1317.97 40.6335   1
   5   8   8 2.98304 1.80022   1
   6   8   8 14.2232 2.61017   1
   0  -9  -8 6.58890 1.62116   5
  -1  -9  -8 96.1678 4.80976   5
  -2  -9  -8 120.080 5.66584   5
   4   9   8 2.39058 1.35913   1
   1   5  -9 30.5961 4.44144   1
   0   5  -9 177.785 9.53977   1
   0   5  -9 197.409 10.0013   1
  -1   5  -9 274.528 12.4427   1
  -2   5  -9 1.01663 1.55841   1
  -3   5  -9 36.4800 4.48499   1
  -4   5  -9 3.00926 4.33514   4
  -4   5  -9 3.03795 2.01157   1
  -5   5  -9 158.662 15.5164   4
  -5   5  -9 202.989 9.57198   1
   2   4  -9 156.383 8.79942   1
  -2  -4   9 156.366 8.96879   1
   1   4  -9 62.3839 5.93556   1
  -1  -4   9 55.6156 5.84489   1
   0   4  -9 14.7991 3.14196   1
   0   4  -9 10.4431 2.74094   1
   0  -4   9 10.8357 2.81402   1
  -1   4  -9 48.0708 5.03779   1
   1  -4   9 45.2481 4.96764   1
  -2   4  -9 124.806 7.26808   1
   2  -4   9 124.002 7.27787   1
  -3   4  -9 34.5980 7.05636   4
  -3   4  -9 37.0205 4.45906   1
  -4   4  -9 12.2927 2.48659   1
  -4   4  -9 9.04567 4.68693   4
  -5   4  -9 152.242 8.08098   1
  -6   4  -9 29.1662 3.90762   1
   3   3  -9 76.5020 5.95872   1
  -3  -3   9 85.4271 7.60073   1
   2   3  -9 19.7663 3.23288   1
  -2  -3   9 19.2059 3.22193   1
   1   3  -9 108.828 6.87846   1
   1   3  -9 99.6975 6.56219   1
  -1  -3   9 112.344 6.84945   1
   0   3  -9 17.3095 3.05761   1
   0  -3   9 15.6395 2.82039   1
  -1   3  -9 20.0829 3.49068   1
   1  -3   9 14.9349 2.85319   1
  -2   3  -9 268.644 11.2757   1
   2  -3   9 250.861 11.3586   1
  -3   3  -9 91.4959 5.93744   1
   3  -3   9 95.2218 6.23401   1
  -4   3  -9 4.36858 1.94506   1
   4  -3   9 3.82800 1.90940   1
  -5   3  -9 19.5819 3.20171   1
   5  -3   9 20.1728 3.77152   1
  -6   3  -9 -1.7512 1.18418   1
  -7   3  -9 148.040 8.04123   1
  -4  -2   9 36.8588 4.68576   1
   3   2  -9 69.1749 6.49694   1
  -3  -2   9 98.7583 6.46229   1
   2   2  -9 40.2922 4.85635   1
  -2  -2   9 45.0449 5.20349   1
   1   2  -9 172.343 8.84202   1
   1   2  -9 174.596 8.72250   1
  -1  -2   9 183.233 9.01642   1
   0   2  -9 362.387 14.2640   1
   0  -2   9 355.675 14.3901   1
  -1   2  -9 3.20193 1.79993   1
   1  -2   9 3.08943 1.69829   1
  -2   2  -9 50.0949 4.76492   1
   2  -2   9 43.5809 4.66335   1
  -3   2  -9 5.60076 1.83834   1
   3  -2   9 6.40783 2.00068   1
  -4   2  -9 0.12068 1.17511   1
   4  -2   9 4.28261 1.63214   1
  -5   2  -9 43.2532 4.41423   1
   5  -2   9 50.5382 5.10933   1
  -6   2  -9 1.07419 1.41862   1
   6  -2   9 -0.8399 1.08012   1
  -7   2  -9 -3.1788 1.28700   1
  -8   2  -9 17.0761 3.18015   1
  -4  -1   9 199.196 10.1173   1
   3   1  -9 179.874 9.19119   1
  -3  -1   9 187.379 9.39654   1
   2   1  -9 173.575 8.58094   1
  -2  -1   9 154.988 8.34863   1
   1   1  -9 13.1613 2.66565   1
   1   1  -9 14.8240 2.74246   1
  -1  -1   9 13.5797 2.89950   1
   0   1  -9 12.2305 2.48521   1
   0  -1   9 11.3513 2.41142   1
  -1   1  -9 97.1986 5.69174   1
   1  -1   9 86.6531 5.69288   1
  -2   1  -9 163.230 7.95631   1
   2  -1   9 168.784 8.27013   1
  -3   1  -9 374.130 14.3919   1
   3  -1   9 395.617 15.0467   1
  -4   1  -9 311.961 12.5150   1
   4  -1   9 325.690 13.1519   1
  -5   1  -9 9.02718 2.13542   1
   5  -1   9 12.5947 2.78956   1
  -6   1  -9 123.895 6.92921   1
   6  -1   9 134.233 7.61056   1
  -7   1  -9 22.9007 3.39908   1
   7  -1   9 17.0738 3.22831   1
  -8   1  -9 0.23929 1.42948   1
  -4   0   9 94.0901 6.33434   1
  -3   0   9 7.39230 2.11752   1
   2   0  -9 25.8430 3.42948   1
  -2   0   9 21.5945 3.38671   1
   1   0  -9 -0.4815 1.12538   1
  -1   0   9 1.92615 1.25872   1
   0   0  -9 2.09497 1.29035   1
   0   0   9 4.23572 1.66951   1
  -1   0  -9 24.4413 3.08053   1
   1   0   9 22.0439 3.22616   1
  -2   0  -9 16.8337 2.43947   1
   2   0   9 14.8615 2.73453   1
  -3   0  -9 330.092 12.8916   1
   3   0   9 342.829 13.4020   1
  -4   0  -9 4.59766 1.57890   1
   4   0   9 3.29147 1.68966   1
  -5   0  -9 142.750 7.30156   1
   5   0   9 147.886 7.83404   1
  -6   0  -9 291.800 11.9325   1
   6   0   9 288.253 12.5082   1
  -7   0  -9 246.716 10.9069   1
   7   0   9 242.242 11.4176   1
  -8   0  -9 10.5592 2.53123   1
   8   0   9 10.2235 2.84137   1
  -4   1   9 12.6506 2.82286   1
  -3   1   9 0.80899 1.46089   1
  -2   1   9 167.676 8.28079   1
   1  -1  -9 1.97286 1.27656   1
  -1   1   9 1.46224 1.32776   1
   0  -1  -9 630.285 22.0902   1
   0  -1  -9 670.167 21.9452   5
   0   1   9 658.447 22.3776   1
  -1  -1  -9 77.5814 4.63967   5
  -1  -1  -9 84.8033 5.01110   1
   1   1   9 75.6687 5.00642   1
  -2  -1  -9 2.15892 1.25222   1
  -2  -1  -9 0.94389 1.07174   5
   2   1   9 0.54062 1.10539   1
  -3  -1  -9 0.65151 0.85023   1
   3   1   9 -0.1787 0.96998   1
  -4  -1  -9 102.248 5.67161   1
   4   1   9 100.089 6.12322   1
  -5  -1  -9 179.960 8.28547   1
   5   1   9 182.647 8.92296   1
  -6  -1  -9 74.9612 4.96683   1
   6   1   9 74.0383 5.54261   1
  -7  -1  -9 112.257 6.60074   1
   7   1   9 122.585 7.39469   1
  -8  -1  -9 35.4413 4.30517   1
   8   1   9 42.3746 5.22959   1
  -4   2   9 81.1891 5.59479   1
  -3   2   9 387.398 14.9422   1
   2  -2  -9 239.662 9.99590   5
  -2   2   9 243.491 10.3429   1
  -2   2   9 232.192 9.69241   2
   1  -2  -9 228.353 9.61379   5
  -1   2   9 244.052 9.58169   2
  -1   2   9 220.891 9.86511   1
   0  -2  -9 55.7972 3.95244   5
   0  -2  -9 59.3439 4.07128   1
   0   2   9 59.3111 4.01277   2
   0   2   9 59.4783 4.30452   1
  -1  -2  -9 0.06830 0.81679   5
  -1  -2  -9 1.20301 1.03711   1
   1   2   9 -0.2950 0.98547   2
   1   2   9 0.59351 1.20843   1
  -2  -2  -9 16.3912 2.41477   5
  -2  -2  -9 15.0888 2.48986   1
   2   2   9 15.2502 2.37983   2
   2   2   9 14.0643 2.56307   1
  -3  -2  -9 0.00050 1.02166   1
  -3  -2  -9 0.41178 0.73904   5
   3   2   9 -0.2924 1.05241   1
  -4  -2  -9 229.265 9.69725   1
   4   2   9 241.293 10.3082   1
  -5  -2  -9 210.989 9.10557   1
   5   2   9 203.062 9.59179   1
  -6  -2  -9 102.906 5.94809   1
   6   2   9 98.7710 6.41089   1
  -7  -2  -9 5.91618 1.92015   1
   7   2   9 -0.5889 1.59224   1
  -8  -2  -9 16.5382 3.03212   1
   8   2   9 21.1702 3.70397   1
  -4   3   9 23.1858 3.33833   1
  -4   3   9 17.7099 2.64184   2
   3  -3  -9 1.25739 1.10621   5
  -3   3   9 1.91065 1.38166   1
  -3   3   9 0.04764 0.95742   2
   2  -3  -9 431.585 15.8239   5
  -2   3   9 437.035 15.4023   2
  -2   3   9 463.136 16.3007   1
   1  -3  -9 50.7074 4.46571   5
  -1   3   9 38.9346 3.86798   1
  -1   3   9 40.1650 3.17870   2
   0  -3  -9 0.51929 0.93517   5
   0   3   9 0.99980 1.00994   2
   0   3   9 0.32082 1.20910   1
  -1  -3  -9 235.970 10.3813   1
  -1  -3  -9 234.180 9.52942   5
   1   3   9 245.487 10.0265   1
   1   3   9 244.013 9.53516   2
  -2  -3  -9 446.259 15.7870   5
  -2  -3  -9 460.480 16.0790   1
   2   3   9 468.188 16.4429   1
   2   3   9 445.448 15.8483   2
  -3  -3  -9 21.2977 2.73309   1
  -3  -3  -9 21.8086 2.81795   5
   3   3   9 21.3693 2.97168   2
   3   3   9 26.1339 3.33465   1
  -4  -3  -9 1.60908 1.04077   5
  -4  -3  -9 0.98981 1.06795   1
   4   3   9 0.45842 1.12586   1
  -5  -3  -9 1.31345 1.18817   1
   5   3   9 4.39563 2.12645   1
  -6  -3  -9 18.3187 2.94405   1
   6   3   9 26.1748 3.72514   1
  -7  -3  -9 93.0448 5.90890   1
   7   3   9 112.046 6.90022   1
  -8  -3  -9 4.15301 1.52838   1
   8   3   9 -5.6802 1.50055   1
   4  -4  -9 28.5192 3.75960   5
  -4   4   9 19.7534 2.90319   1
   3  -4  -9 0.80734 1.16071   5
  -3   4   9 0.21127 1.03091   1
  -3   4   9 0.05415 0.84857   2
   2  -4  -9 32.9729 3.64282   5
  -2   4   9 33.2478 3.56826   1
  -2   4   9 34.0317 3.15773   2
   1  -4  -9 54.8458 3.79282   5
  -1   4   9 49.8616 3.35002   2
  -1   4   9 57.7138 4.03578   1
   0  -4  -9 97.4784 5.05840   5
   0   4   9 84.8106 5.09038   1
   0   4   9 87.5608 4.61144   2
  -1  -4  -9 5.77971 1.56286   5
   1   4   9 5.59379 1.55548   2
   1   4   9 3.66447 1.43789   1
  -2  -4  -9 257.065 9.94968   5
   2   4   9 247.028 9.88331   2
   2   4   9 267.462 10.5404   1
  -3  -4  -9 69.9164 4.30491   5
   3   4   9 65.2824 4.57861   1
   3   4   9 66.5876 4.21449   2
   4   4   9 8.94855 2.28293   1
   4   4   9 7.36698 1.91699   2
   5   4   9 -4.2217 1.04087   1
   6   4   9 2.30105 1.65760   1
   7   4   9 385.675 15.4668   1
   8   4   9 9.58797 2.87343   1
   3  -5  -9 26.9149 3.48199   5
  -3   5   9 20.1004 2.81965   1
   2  -5  -9 0.55325 1.11142   5
  -2   5   9 1.57629 1.17493   1
   1  -5  -9 23.0119 2.82322   5
  -1   5   9 27.2497 3.05018   1
   0  -5  -9 368.945 13.2584   5
   0   5   9 369.405 13.4320   1
  -1  -5  -9 2.60912 1.18251   5
   1   5   9 2.57315 1.30318   1
   1   5   9 3.29077 1.14195   2
  -2  -5  -9 17.4056 2.36763   5
   2   5   9 22.0113 2.58269   2
   2   5   9 17.9199 2.66056   1
   3   5   9 7.35733 1.73274   2
   3   5   9 7.69829 1.93841   1
   4   5   9 118.991 6.47425   1
   4   5   9 119.737 6.06983   2
   5   5   9 139.768 7.38116   1
   5   5   9 135.252 7.69928   2
   6   5   9 80.0943 5.64134   1
   7   5   9 28.7570 4.06331   1
   8   5   9 24.4980 3.89332   1
   3  -6  -9 165.668 7.70976   5
  -3   6   9 169.040 7.23249   1
   2  -6  -9 19.1026 2.63429   5
  -2   6   9 19.3082 2.49092   1
   1  -6  -9 1.32111 1.03802   5
  -1   6   9 1.97355 1.08539   1
   0  -6  -9 12.9031 2.10236   5
   0  -6  -9 11.5834 2.20421   5
   0   6   9 8.76090 1.75029   1
  -1  -6  -9 193.379 7.88427   5
   1   6   9 184.217 7.93635   1
   2   6   9 118.699 6.02321   1
   3   6   9 18.6120 2.66690   1
   3   6   9 18.9067 2.38020   2
   4   6   9 48.7201 3.59638   2
   4   6   9 54.3026 4.19766   1
   5   6   9 2.91903 1.74153   1
   6   6   9 59.9776 5.68884   1
   7   6   9 23.3215 3.62188   1
   2  -7  -9 25.9651 3.15503   5
   1  -7  -9 158.785 6.96585   5
   1  -7  -9 151.297 8.17258   5
   0  -7  -9 76.9313 4.47143   5
   0  -7  -9 82.8692 4.56943   5
  -1  -7  -9 20.0652 2.54419   5
  -1  -7  -9 19.0736 2.86457   5
   1   7   9 17.0180 2.31082   1
   2   7   9 32.6828 3.33883   1
   3   7   9 13.5885 2.40319   1
   4   7   9 6.26302 1.81355   1
   5   7   9 31.1633 3.77988   1
   6   7   9 50.0594 5.05254   1
   0  -8  -9 1.41313 1.20419   5
   0  -8  -9 0.10255 1.25760   5
  -1  -8  -9 28.5515 3.64963   5
  -1  -8  -9 28.3953 2.89045   5
   3   8   9 9.91642 2.04127   1
   4   8   9 38.1104 3.75430   1
   5   8   9 345.176 13.4772   1
   0   4 -10 99.3388 6.87427   1
   0   4 -10 93.3887 6.87303   1
   0  -4  10 87.2523 6.39440   1
  -1   4 -10 117.324 7.50687   1
  -2   4 -10 55.9292 5.58928   1
  -3   4 -10 0.83285 1.79981   1
  -4   4 -10 30.1817 4.44888   1
   1   3 -10 96.9063 6.53928   1
  -1  -3  10 86.8309 6.37656   1
   0   3 -10 23.4535 3.64012   1
   0   3 -10 35.1156 4.62453   1
   0  -3  10 23.3652 3.73497   1
  -1   3 -10 26.4928 3.76552   1
   1  -3  10 28.8041 4.07113   1
  -2   3 -10 132.381 7.65036   1
   2  -3  10 131.869 7.93998   1
  -3   3 -10 253.127 11.5650   1
   3  -3  10 260.834 11.9000   1
  -4   3 -10 -0.3320 1.45252   1
   4  -3  10 1.89851 1.20184   1
  -5   3 -10 50.5533 5.21141   1
   2   2 -10 15.1318 3.18274   1
  -2  -2  10 7.43352 2.54198   1
   1   2 -10 5.28968 1.97686   1
   1   2 -10 4.43798 2.23747   1
  -1  -2  10 6.25245 2.38217   1
   0   2 -10 188.990 9.38558   1
   0  -2  10 167.403 9.06959   1
  -1   2 -10 46.0010 5.21769   1
   1  -2  10 53.0272 5.62097   1
  -2   2 -10 53.8604 5.05107   1
   2  -2  10 62.0709 6.17676   1
  -3   2 -10 99.4308 6.41330   1
   3  -2  10 95.2111 6.45187   1
  -4   2 -10 52.2359 5.50180   1
   4  -2  10 47.8370 5.58045   1
  -5   2 -10 14.6860 3.03474   1
   5  -2  10 13.0891 2.89365   1
  -6   2 -10 3.85208 1.98264   1
   6  -2  10 1.86279 2.16692   1
  -3  -1  10 13.5810 2.96933   1
  -2  -1  10 139.492 8.12807   1
   1   1 -10 3.23809 1.82720   1
   1   1 -10 6.10170 2.04862   1
  -1  -1  10 3.96566 1.99539   1
   0   1 -10 152.207 8.00555   1
   0  -1  10 137.259 7.88222   1
  -1   1 -10 111.711 6.65499   1
   1  -1  10 114.860 6.89102   1
  -2   1 -10 83.3200 5.57650   1
   2  -1  10 92.8532 6.09222   1
  -3   1 -10 1.71926 1.21625   1
   3  -1  10 1.37819 1.57901   1
  -4   1 -10 41.1897 4.59985   1
   4  -1  10 50.8687 5.07324   1
  -5   1 -10 244.474 11.0408   1
   5  -1  10 252.963 11.5801   1
  -6   1 -10 2.43077 1.54063   1
   6  -1  10 2.20537 1.61568   1
  -7   1 -10 1.34755 1.83500   1
   7  -1  10 7.20445 2.19585   1
  -3   0  10 72.0042 5.62125   1
  -2   0  10 47.3013 4.96707   1
   1   0 -10 7.87902 2.32101   1
   1   0 -10 6.06063 1.74175   1
  -1   0  10 8.88673 2.45085   1
   0   0 -10 92.5639 5.84351   1
   0   0  10 90.9076 6.05148   1
  -1   0 -10 258.525 11.4486   1
   1   0  10 293.284 12.1310   1
  -2   0 -10 14.4745 2.94472   1
   2   0  10 16.4302 2.95293   1
  -3   0 -10 106.537 6.24928   1
   3   0  10 105.511 6.59595   1
  -4   0 -10 45.8121 4.72311   1
   4   0  10 43.7850 4.63962   1
  -5   0 -10 249.327 11.0614   1
   5   0  10 264.116 11.7912   1
  -6   0 -10 498.576 18.7221   1
   6   0  10 521.705 19.5814   1
  -7   0 -10 -2.1057 1.09365   1
   7   0  10 -3.1324 1.83303   1
  -3   1  10 6.51903 2.06179   1
  -2   1  10 1.90514 1.32534   1
  -1   1  10 0.23136 1.36777   1
   0  -1 -10 57.5283 6.22461   1
   0   1  10 90.1855 5.63882   1
   1   1  10 2.47074 1.44851   1
  -2  -1 -10 2.61194 1.48170   1
   2   1  10 1.98998 1.46021   1
  -3  -1 -10 478.694 17.4854   1
  -4  -1 -10 22.1366 3.07579   1
   4   1  10 18.4105 3.03607   1
  -5  -1 -10 267.800 11.3267   1
   5   1  10 260.180 11.8415   1
  -6  -1 -10 -1.2394 1.37341   1
   6   1  10 2.68102 2.06029   1
  -7  -1 -10 255.926 11.0650   1
   7   1  10 219.798 11.1760   1
   8   1  10 54.8269 6.16086   1
  -3   2  10 6.98825 2.25184   1
  -2   2  10 37.1823 4.38630   1
  -1   2  10 0.43159 1.20331   1
   0   2  10 433.882 16.3676   1
   1   2  10 212.660 9.71257   1
  -2  -2 -10 68.9037 4.57527   1
   2   2  10 55.1603 5.08732   1
  -3  -2 -10 12.0498 2.48527   1
   3   2  10 10.2580 2.42273   1
  -4  -2 -10 36.1072 4.09776   1
   4   2  10 38.6225 4.22807   1
  -5  -2 -10 92.4409 5.76115   1
   5   2  10 90.5913 6.21156   1
  -6  -2 -10 25.4484 3.58522   1
   6   2  10 20.8953 3.88157   1
  -7  -2 -10 382.110 15.2828   1
   7   2  10 388.662 16.0663   1
  -8  -2 -10 6.50556 2.04670   1
   8   2  10 4.00086 2.38869   1
  -3   3  10 350.759 14.1265   1
  -2   3  10 2.59113 1.50106   1
  -2   3  10 1.87918 1.27224   2
   1  -3 -10 710.418 25.1216   5
  -1   3  10 694.021 22.9720   2
  -1   3  10 671.903 23.6129   1
   0  -3 -10 176.456 8.22434   5
   0   3  10 187.510 8.71105   1
   0   3  10 176.461 8.00652   2
  -1  -3 -10 5.69390 1.64765   5
   1   3  10 8.07919 2.02228   2
   1   3  10 10.9513 2.40185   1
  -2  -3 -10 34.8747 4.21010   5
   2   3  10 32.9390 3.90495   1
   3   3  10 90.5770 5.82140   1
   4   3  10 209.916 9.79002   1
   5   3  10 335.221 13.7819   1
   6   3  10 134.172 7.87973   1
   7   3  10 25.1799 4.25514   1
  -3   4  10 -0.1436 1.00357   2
  -3   4  10 0.98091 1.15284   1
   2  -4 -10 59.1921 4.47858   5
  -2   4  10 60.9534 4.55967   1
  -2   4  10 58.4481 3.91707   2
   1  -4 -10 6.00128 1.77635   5
  -1   4  10 1.87669 1.37395   1
  -1   4  10 5.64135 1.54223   2
   0  -4 -10 37.6532 3.80018   5
   0   4  10 56.7120 4.26015   1
   0   4  10 47.7471 3.55506   2
  -1  -4 -10 94.5750 5.31750   5
   1   4  10 88.1938 5.52039   1
   1   4  10 84.7257 4.94140   2
  -2  -4 -10 53.1335 4.01919   5
   2   4  10 55.9237 3.96539   2
   2   4  10 55.6193 5.00943   1
  -3  -4 -10 261.643 10.5447   5
   3   4  10 242.101 10.6369   2
   3   4  10 278.022 11.2652   1
   4   4  10 1.11029 1.59304   1
   5   4  10 4.33486 2.04062   1
   6   4  10 -0.1769 1.72796   1
   7   4  10 89.3132 6.38906   1
   2  -5 -10 -0.0085 1.12927   5
  -2   5  10 0.52802 1.04913   1
   1  -5 -10 153.652 7.35447   5
  -1   5  10 151.783 7.35597   1
   0  -5 -10 238.207 10.0198   5
   0   5  10 259.062 10.3576   1
   0   5  10 246.558 9.35486   2
  -1  -5 -10 302.376 12.1110   5
   1   5  10 327.581 11.6504   2
   1   5  10 332.262 12.6238   1
  -2  -5 -10 17.9483 2.69314   5
   2   5  10 22.3913 3.18521   1
   2   5  10 19.8688 2.63478   2
  -3  -5 -10 33.1940 3.71229   5
   3   5  10 31.8591 3.41993   2
   3   5  10 29.9231 3.69668   1
   4   5  10 0.04946 1.50246   1
   4   5  10 0.39124 1.15480   2
   5   5  10 19.1001 3.45162   1
   6   5  10 5.07929 2.22883   1
   7   5  10 103.251 6.98199   1
   1  -6 -10 9.76253 2.04226   5
  -1   6  10 8.20644 1.91459   1
   0  -6 -10 1.42894 1.33806   5
   0   6  10 5.34123 1.68523   1
  -1  -6 -10 22.2288 2.88152   5
   1   6  10 20.9207 2.78692   1
  -2  -6 -10 35.8282 3.71644   5
   2   6  10 38.2497 3.91428   1
  -3  -6 -10 8.47219 1.98555   5
   3   6  10 3.95380 1.45938   2
   3   6  10 7.40045 2.12186   1
   4   6  10 108.614 5.74201   2
   4   6  10 106.471 6.32027   1
   5   6  10 126.451 7.24406   1
   6   6  10 231.334 10.8934   1
   0  -7 -10 21.6122 2.84302   5
   0   7  10 15.5394 2.32991   1
  -1  -7 -10 73.7140 4.62337   5
   1   7  10 67.0049 4.32922   1
  -2  -7 -10 499.008 17.3682   5
   2   7  10 499.641 17.4130   1
   3   7  10 162.850 7.83089   1
   4   7  10 12.3836 2.53643   1
   5   7  10 12.1390 2.52197   1
  -1   2 -11 0.55376 1.37601   1
   1  -2  11 2.19605 1.66952   1
  -2   2 -11 6.09319 2.24551   1
   2  -2  11 4.40334 2.08504   1
  -3   2 -11 66.6460 6.55697   1
   3  -2  11 83.8117 6.30324   1
  -4   2 -11 11.7600 2.48880   1
   4  -2  11 8.67929 2.66749   1
   0   1 -11 54.4554 5.53283   1
   0  -1  11 48.9953 5.76775   1
  -1   1 -11 10.5132 2.61418   1
   1  -1  11 14.5530 3.42481   1
  -2   1 -11 31.0915 4.08914   1
   2  -1  11 26.7756 4.09236   1
  -3   1 -11 145.568 8.07413   1
   3  -1  11 133.429 7.93095   1
  -4   1 -11 29.1731 3.87700   1
   4  -1  11 31.3717 4.43012   1
  -5   1 -11 -0.1441 1.20991   1
   5  -1  11 3.80692 2.25714   1
  -1   0  11 39.9391 5.12623   1
   0   0  11 90.7171 6.30232   1
  -1   0 -11 203.231 10.0603   1
   1   0  11 225.747 10.6550   1
  -2   0 -11 4.05292 1.51537   1
   2   0  11 1.93301 1.86130   1
  -3   0 -11 43.2847 4.94972   1
   3   0  11 41.1294 4.86160   1
  -4   0 -11 10.1850 2.43637   1
   4   0  11 9.51741 2.55129   1
  -5   0 -11 29.0992 4.30324   1
   5   0  11 18.8791 3.30577   1
  -6   0 -11 79.2359 5.91970   1
   6   0  11 91.7527 6.68179   1
  -1   1  11 160.526 8.64056   1
   0   1  11 0.86198 1.22972   1
   1   1  11 3.55117 1.81542   1
   2   1  11 142.753 8.07124   1
  -3  -1 -11 131.075 7.26706   1
   3   1  11 131.335 7.77904   1
  -4  -1 -11 226.428 10.3461   1
   4   1  11 216.503 10.8012   1
  -5  -1 -11 207.746 10.3047   1
   5   1  11 248.420 11.3517   1
  -6  -1 -11 5.84510 2.07353   1
   6   1  11 -0.5352 1.63908   1
  -1   2  11 1.68745 1.75722   1
   0   2  11 1.17419 1.59453   1
   1   2  11 3.13180 1.63614   1
   2   2  11 4.13444 1.87758   1
   3   2  11 53.6545 5.45294   1
   4   2  11 300.606 13.0922   1
   5   2  11 18.8835 3.37201   1
   6   2  11 18.1737 3.58670   1
  -1   3  11 229.269 10.6604   1
   0   3  11 32.9866 4.29414   1
   1   3  11 547.733 20.0219   1
   2   3  11 95.7932 6.28826   1
   3   3  11 9.09032 2.47256   1
   4   3  11 2.45674 1.88481   1
   5   3  11 76.3773 5.83086   1
   6   3  11 157.639 8.98025   1
  -1   4  11 199.914 8.69461   2
  -1   4  11 197.410 9.40723   1
   0   4  11 63.8406 4.42779   2
   0   4  11 73.2019 5.15854   1
   1   4  11 3.52458 2.02703   1
   2   4  11 8.25490 2.43851   1
   3   4  11 47.2273 5.22118   1
   4   4  11 12.8436 2.91829   1
   5   4  11 50.8703 5.38976   1
   6   4  11 39.2001 5.04857   1
   0  -5 -11 -0.5851 1.41548   5
   0   5  11 -0.3295 1.09470   1
   0   5  11 0.33022 1.10506   2
  -1  -5 -11 2.24360 1.94628   5
   1   5  11 1.89563 1.27227   2
   1   5  11 0.73494 1.32619   1
   2   5  11 69.0248 4.56546   2
   2   5  11 76.5256 5.34620   1
   3   5  11 185.701 9.12865   1
   4   5  11 0.65502 1.74751   1
   5   5  11 7.45709 2.62057   1
  -2  -6 -11 58.7281 5.33581   5
   2   6  11 65.1348 4.72653   1
   3   6  11 16.7956 2.84089   1
   3   6  11 11.1704 2.21364   2
   4   6  11 3.62079 1.79124   1
   4   6  11 3.57990 1.74007   2
   2   2  12 333.428 14.3048   1
   3   2  12 40.3638 5.11452   1
   0   0   0    0.00    0.00   0

 _exptl_absorpt_process_details 'SADABS 2014/4'
 _exptl_absorpt_correction_type   multiscan
 _exptl_absorpt_correction_T_max  0.7454
 _exptl_absorpt_correction_T_min  0.6515
 _exptl_special_details
)
 The following wavelength and cell were deduced by SADABS from the
 direction cosines etc. They are given here for emergency use only:
 CELL 0.71106    8.610    9.018    9.629   79.936   75.384   85.739
)

;
_shelx_hkl_checksum              98144
loop_
_space_group_symop_operation_xyz
'x, y, z'
'-x, -y, -z'
loop_
_atom_site_label
_atom_site_type_symbol
_atom_site_fract_x
_atom_site_fract_y
_atom_site_fract_z
_atom_site_U_iso_or_equiv
_atom_site_adp_type
_atom_site_occupancy
_atom_site_site_symmetry_order
_atom_site_calc_flag
_atom_site_refinement_flags_posn
_atom_site_refinement_flags_adp
_atom_site_refinement_flags_occupancy
_atom_site_disorder_assembly
_atom_site_disorder_group
S1 S 0.45150(4) 0.80721(5) 0.74390(4) 0.01511(12) Uani 1 1 d . . . . .
S2 S 0.70466(5) 0.51021(5) 0.89291(4) 0.01773(12) Uani 1 1 d . . . . .
O1 O 1.39269(13) 0.79844(14) 0.26497(13) 0.0214(3) Uani 1 1 d . . . . .
O2 O 1.17393(14) 0.97522(14) 0.18088(13) 0.0210(3) Uani 1 1 d . . . . .
O3 O 0.34152(14) 0.91276(15) 0.68415(13) 0.0244(3) Uani 1 1 d . . . . .
O4 O 0.41163(14) 0.65004(14) 0.78003(13) 0.0208(3) Uani 1 1 d . . . . .
C1 C 1.5196(2) 0.7032(2) 0.3056(2) 0.0244(4) Uani 1 1 d . . . . .
H5 H 1.5230 0.7125 0.4046 0.037 Uiso 1 1 calc R U . . .
H1 H 1.6220 0.7334 0.2383 0.037 Uiso 1 1 calc R U . . .
H4 H 1.5007 0.5983 0.3019 0.037 Uiso 1 1 calc R U . . .
C2 C 1.24107(19) 0.7777(2) 0.35317(18) 0.0172(4) Uani 1 1 d . . . . .
C3 C 1.20283(19) 0.6709(2) 0.47812(18) 0.0174(4) Uani 1 1 d . . . . .
H10 H 1.2829 0.6035 0.5078 0.021 Uiso 1 1 calc R U . . .
C4 C 1.04367(19) 0.6651(2) 0.55896(18) 0.0158(3) Uani 1 1 d . . . . .
C5 C 0.92663(19) 0.7653(2) 0.51525(17) 0.0153(3) Uani 1 1 d . . . . .
C6 C 0.76936(19) 0.73921(19) 0.62429(17) 0.0152(3) Uani 1 1 d . . . . .
C7 C 0.63792(19) 0.8279(2) 0.61840(17) 0.0158(3) Uani 1 1 d . . . . .
H13 H 0.6469 0.9088 0.5393 0.019 Uiso 1 1 calc R U . . .
C8 C 0.4762(2) 0.8667(2) 0.90099(18) 0.0204(4) Uani 1 1 d . . . . .
H2 H 0.3722 0.8689 0.9714 0.031 Uiso 1 1 calc R U . . .
H3 H 0.5199 0.9678 0.8753 0.031 Uiso 1 1 calc R U . . .
H14 H 0.5505 0.7965 0.9438 0.031 Uiso 1 1 calc R U . . .
C9 C 1.1217(2) 0.8770(2) 0.30806(17) 0.0168(3) Uani 1 1 d . . . . .
C10 C 1.0597(2) 1.0862(2) 0.14022(19) 0.0208(4) Uani 1 1 d . . . . .
H8 H 0.9712 1.0366 0.1221 0.031 Uiso 1 1 calc R U . . .
H6 H 1.1115 1.1534 0.0517 0.031 Uiso 1 1 calc R U . . .
H7 H 1.0180 1.1451 0.2188 0.031 Uiso 1 1 calc R U . . .
C11 C 0.96342(19) 0.8723(2) 0.39011(18) 0.0167(3) Uani 1 1 d . . . . .
H9 H 0.8832 0.9402 0.3614 0.020 Uiso 1 1 calc R U . . .
C12 C 0.96532(19) 0.5693(2) 0.69500(18) 0.0164(3) Uani 1 1 d . . . . .
C13 C 1.0090(2) 0.4547(2) 0.79961(19) 0.0199(4) Uani 1 1 d . . . . .
H12 H 1.1144 0.4121 0.7925 0.024 Uiso 1 1 calc R U . . .
C14 C 0.8796(2) 0.4126(2) 0.9129(2) 0.0216(4) Uani 1 1 d . . . . .
H11 H 0.8858 0.3375 0.9940 0.026 Uiso 1 1 calc R U . . .
C15 C 0.80371(19) 0.61148(19) 0.73069(17) 0.0156(3) Uani 1 1 d . . . . .
loop_
_atom_site_aniso_label
_atom_site_aniso_U_11
_atom_site_aniso_U_22
_atom_site_aniso_U_33
_atom_site_aniso_U_23
_atom_site_aniso_U_13
_atom_site_aniso_U_12
S1 0.0119(2) 0.0167(2) 0.0136(2) -0.00024(15) 0.00086(15) 0.00014(15)
S2 0.0154(2) 0.0181(2) 0.0164(2) 0.00190(16) -0.00092(16) -0.00091(16)
O1 0.0120(6) 0.0232(7) 0.0236(7) -0.0010(5) 0.0033(5) 0.0011(5)
O2 0.0166(6) 0.0223(7) 0.0179(6) 0.0022(5) 0.0031(5) 0.0011(5)
O3 0.0154(6) 0.0296(8) 0.0219(7) 0.0049(5) 0.0000(5) 0.0032(5)
O4 0.0195(6) 0.0201(7) 0.0206(6) -0.0025(5) -0.0001(5) -0.0041(5)
C1 0.0138(8) 0.0285(11) 0.0277(10) -0.0041(8) 0.0000(7) 0.0017(7)
C2 0.0126(8) 0.0196(9) 0.0175(8) -0.0066(7) 0.0026(6) -0.0022(6)
C3 0.0141(8) 0.0183(9) 0.0193(9) -0.0050(7) -0.0026(7) 0.0022(7)
C4 0.0156(8) 0.0167(9) 0.0148(8) -0.0043(6) -0.0020(6) -0.0009(6)
C5 0.0135(8) 0.0176(9) 0.0137(8) -0.0047(6) 0.0003(6) -0.0007(6)
C6 0.0147(8) 0.0176(9) 0.0130(8) -0.0045(6) -0.0008(6) -0.0021(6)
C7 0.0145(8) 0.0181(9) 0.0118(8) -0.0005(6) 0.0007(6) -0.0013(6)
C8 0.0212(8) 0.0212(10) 0.0161(8) -0.0051(7) 0.0023(7) -0.0027(7)
C9 0.0165(8) 0.0185(9) 0.0132(8) -0.0024(6) 0.0010(6) -0.0025(7)
C10 0.0204(8) 0.0216(10) 0.0168(8) 0.0016(7) -0.0013(7) -0.0004(7)
C11 0.0146(8) 0.0188(9) 0.0153(8) -0.0034(7) -0.0010(6) 0.0007(6)
C12 0.0149(8) 0.0162(9) 0.0178(8) -0.0053(7) -0.0019(6) -0.0005(6)
C13 0.0168(8) 0.0192(9) 0.0222(9) -0.0021(7) -0.0042(7) 0.0026(7)
C14 0.0207(9) 0.0204(10) 0.0218(9) 0.0022(7) -0.0060(7) 0.0008(7)
C15 0.0145(8) 0.0162(9) 0.0147(8) -0.0030(6) -0.0007(6) -0.0011(6)
loop_
_atom_type_symbol
_atom_type_description
_atom_type_scat_dispersion_real
_atom_type_scat_dispersion_imag
_atom_type_scat_source
C C 0.0033 0.0016 'International Tables Vol C Tables 4.2.6.8 and 6.1.1.4'
H H 0.0000 0.0000 'International Tables Vol C Tables 4.2.6.8 and 6.1.1.4'
O O 0.0106 0.0060 'International Tables Vol C Tables 4.2.6.8 and 6.1.1.4'
S S 0.1246 0.1234 'International Tables Vol C Tables 4.2.6.8 and 6.1.1.4'
loop_
_geom_angle_atom_site_label_1
_geom_angle_atom_site_label_2
_geom_angle_atom_site_label_3
_geom_angle
_geom_angle_site_symmetry_1
_geom_angle_site_symmetry_3
_geom_angle_publ_flag
O3 S1 O4 117.99(8) . . ?
O3 S1 C7 106.35(8) . . ?
O4 S1 C7 109.79(8) . . ?
O3 S1 C8 107.93(9) . . ?
O4 S1 C8 108.35(8) . . ?
C7 S1 C8 105.76(8) . . ?
C15 S2 C14 90.99(8) . . ?
C2 O1 C1 117.33(13) . . ?
C9 O2 C10 116.55(12) . . ?
O1 C1 H5 109.5 . . ?
O1 C1 H1 109.5 . . ?
H5 C1 H1 109.5 . . ?
O1 C1 H4 109.5 . . ?
H5 C1 H4 109.5 . . ?
H1 C1 H4 109.5 . . ?
O1 C2 C3 124.64(15) . . ?
O1 C2 C9 114.45(14) . . ?
C3 C2 C9 120.90(14) . . ?
C2 C3 C4 118.27(15) . . ?
C2 C3 H10 120.9 . . ?
C4 C3 H10 120.9 . . ?
C3 C4 C5 120.58(15) . . ?
C3 C4 C12 131.80(16) . . ?
C5 C4 C12 107.61(14) . . ?
C11 C5 C4 121.64(15) . . ?
C11 C5 C6 128.86(15) . . ?
C4 C5 C6 109.47(14) . . ?
C7 C6 C15 132.82(15) . . ?
C7 C6 C5 122.97(15) . . ?
C15 C6 C5 104.07(14) . . ?
C6 C7 S1 125.61(13) . . ?
C6 C7 H13 117.2 . . ?
S1 C7 H13 117.2 . . ?
S1 C8 H2 109.5 . . ?
S1 C8 H3 109.5 . . ?
H2 C8 H3 109.5 . . ?
S1 C8 H14 109.5 . . ?
H2 C8 H14 109.5 . . ?
H3 C8 H14 109.5 . . ?
O2 C9 C11 123.94(15) . . ?
O2 C9 C2 115.38(14) . . ?
C11 C9 C2 120.68(15) . . ?
O2 C10 H8 109.5 . . ?
O2 C10 H6 109.5 . . ?
H8 C10 H6 109.5 . . ?
O2 C10 H7 109.5 . . ?
H8 C10 H7 109.5 . . ?
H6 C10 H7 109.5 . . ?
C5 C11 C9 117.90(15) . . ?
C5 C11 H9 121.0 . . ?
C9 C11 H9 121.0 . . ?
C15 C12 C13 113.05(15) . . ?
C15 C12 C4 108.59(15) . . ?
C13 C12 C4 138.28(15) . . ?
C14 C13 C12 111.32(15) . . ?
C14 C13 H12 124.3 . . ?
C12 C13 H12 124.3 . . ?
C13 C14 S2 113.06(13) . . ?
C13 C14 H11 123.5 . . ?
S2 C14 H11 123.5 . . ?
C12 C15 C6 110.20(14) . . ?
C12 C15 S2 111.58(13) . . ?
C6 C15 S2 137.97(13) . . ?
loop_
_geom_bond_atom_site_label_1
_geom_bond_atom_site_label_2
_geom_bond_distance
_geom_bond_site_symmetry_2
_geom_bond_publ_flag
S1 O3 1.4429(13) . ?
S1 O4 1.4451(13) . ?
S1 C7 1.7505(16) . ?
S1 C8 1.7584(18) . ?
S2 C15 1.7176(17) . ?
S2 C14 1.7234(18) . ?
O1 C2 1.3731(19) . ?
O1 C1 1.429(2) . ?
O2 C9 1.375(2) . ?
O2 C10 1.425(2) . ?
C1 H5 0.9800 . ?
C1 H1 0.9800 . ?
C1 H4 0.9800 . ?
C2 C3 1.388(2) . ?
C2 C9 1.413(2) . ?
C3 C4 1.396(2) . ?
C3 H10 0.9500 . ?
C4 C5 1.398(2) . ?
C4 C12 1.471(2) . ?
C5 C11 1.390(2) . ?
C5 C6 1.496(2) . ?
C6 C7 1.344(2) . ?
C6 C15 1.467(2) . ?
C7 H13 0.9500 . ?
C8 H2 0.9800 . ?
C8 H3 0.9800 . ?
C8 H14 0.9800 . ?
C9 C11 1.393(2) . ?
C10 H8 0.9800 . ?
C10 H6 0.9800 . ?
C10 H7 0.9800 . ?
C11 H9 0.9500 . ?
C12 C15 1.388(2) . ?
C12 C13 1.412(2) . ?
C13 C14 1.372(2) . ?
C13 H12 0.9500 . ?
C14 H11 0.9500 . ?
