#------------------------------------------------------------------------------
#$Date: 2020-10-04 06:36:40 +0300 (Sun, 04 Oct 2020) $
#$Revision: 257136 $
#$URL: file:///home/coder/svn-repositories/cod/cif/4/03/87/4038774.cif $
#------------------------------------------------------------------------------
#
# This file is available in the Crystallography Open Database (COD),
# http://www.crystallography.net/
#
# All data on this site have been placed in the public domain by the
# contributors.
#
data_4038774
loop_
_publ_author_name
'Geng, Xinyu'
'Liu, Siyuan'
'Wang, Wenyao'
'Qu, Jingping'
'Wang, Baomin'
_publ_section_title
;
 <i>tert</i>-Amino Effect-Promoted Rearrangement of Aryl Isothiocyanate: A
 Versatile Approach to Benzimidazothiazepines and Benzimidazothioethers.
;
_journal_issue                   19
_journal_name_full               'The Journal of organic chemistry'
_journal_page_first              12635
_journal_page_last               12643
_journal_paper_doi               10.1021/acs.joc.0c01806
_journal_volume                  85
_journal_year                    2020
_chemical_formula_sum            'C11 H12 N2 S'
_chemical_formula_weight         204.29
_space_group_crystal_system      triclinic
_space_group_IT_number           2
_space_group_name_Hall           '-P 1'
_space_group_name_H-M_alt        'P -1'
_atom_sites_solution_hydrogens   geom
_audit_creation_method           SHELXL-2014/7
_cell_angle_alpha                89.0396(17)
_cell_angle_beta                 72.6274(16)
_cell_angle_gamma                80.7426(17)
_cell_formula_units_Z            2
_cell_length_a                   6.5847(7)
_cell_length_b                   8.4285(9)
_cell_length_c                   9.4274(11)
_cell_measurement_reflns_used    8370
_cell_measurement_temperature    173(2)
_cell_measurement_theta_max      27.36
_cell_measurement_theta_min      2.45
_cell_volume                     492.57(9)
_computing_cell_refinement       'Bruker SAINT'
_computing_data_collection       'Bruker APEX2'
_computing_data_reduction        'Bruker SAINT'
_computing_molecular_graphics    'Bruker SHELXTL'
_computing_publication_material  'Bruker SHELXTL'
_computing_structure_refinement  'SHELXL-2014/7 (Sheldrick, 2014)'
_computing_structure_solution    'SHELXS-97 (Sheldrick 2008)'
_diffrn_ambient_temperature      173(2)
_diffrn_measured_fraction_theta_full 0.996
_diffrn_measured_fraction_theta_max 0.996
_diffrn_measurement_device_type  'Bruker APEX-II CCD'
_diffrn_measurement_method       '\f and \w scans'
_diffrn_radiation_type           MoK\a
_diffrn_radiation_wavelength     0.71073
_diffrn_reflns_av_R_equivalents  0.0411
_diffrn_reflns_av_unetI/netI     0.0272
_diffrn_reflns_Laue_measured_fraction_full 0.996
_diffrn_reflns_Laue_measured_fraction_max 0.996
_diffrn_reflns_limit_h_max       7
_diffrn_reflns_limit_h_min       -7
_diffrn_reflns_limit_k_max       10
_diffrn_reflns_limit_k_min       -10
_diffrn_reflns_limit_l_max       11
_diffrn_reflns_limit_l_min       -11
_diffrn_reflns_number            9526
_diffrn_reflns_point_group_measured_fraction_full 0.996
_diffrn_reflns_point_group_measured_fraction_max 0.996
_diffrn_reflns_theta_full        24.994
_diffrn_reflns_theta_max         24.994
_diffrn_reflns_theta_min         2.450
_exptl_absorpt_coefficient_mu    0.286
_exptl_absorpt_correction_type   none
_exptl_crystal_colour            colorless
_exptl_crystal_density_diffrn    1.377
_exptl_crystal_description       needle
_exptl_crystal_F_000             216
_exptl_crystal_size_max          0.360
_exptl_crystal_size_mid          0.040
_exptl_crystal_size_min          0.040
_exptl_transmission_factor_max   0.7456
_exptl_transmission_factor_min   0.5917
_refine_diff_density_max         0.310
_refine_diff_density_min         -0.252
_refine_diff_density_rms         0.045
_refine_ls_extinction_method     none
_refine_ls_goodness_of_fit_ref   1.002
_refine_ls_hydrogen_treatment    'riding mode'
_refine_ls_matrix_type           full
_refine_ls_number_parameters     127
_refine_ls_number_reflns         1725
_refine_ls_number_restraints     0
_refine_ls_restrained_S_all      1.002
_refine_ls_R_factor_all          0.0342
_refine_ls_R_factor_gt           0.0303
_refine_ls_shift/su_max          0.001
_refine_ls_shift/su_mean         0.000
_refine_ls_structure_factor_coef Fsqd
_refine_ls_weighting_details
'w=1/[\s^2^(Fo^2^)+(0.0365P)^2^+0.3392P] where P=(Fo^2^+2Fc^2^)/3'
_refine_ls_weighting_scheme      calc
_refine_ls_wR_factor_gt          0.0791
_refine_ls_wR_factor_ref         0.0815
_reflns_Friedel_coverage         0.000
_reflns_number_gt                1590
_reflns_number_total             1725
_reflns_threshold_expression     'I > 2\s(I)'
_cod_data_source_file            jo0c01806_si_002.cif
_cod_data_source_block           1
_cod_depositor_comments          'Adding full bibliography for 4038774.cif.'
_cod_database_code               4038774
_shelx_shelxl_version_number     2014/7
_shelx_space_group_comment
;
The symmetry employed for this shelxl refinement is uniquely defined
by the following loop, which should always be used as a source of
symmetry information in preference to the above space-group names.
They are only intended as comments.
;
_shelx_estimated_absorpt_t_min   0.904
_shelx_estimated_absorpt_t_max   0.989
_shelx_res_file
;

    1.res created by SHELXL-2014/7


TITL 1 in P-1
CELL 0.71073   6.58470   8.42850   9.42740  89.0396  72.6274  80.7426
ZERR    2   0.00070   0.00090   0.00110   0.0017   0.0016   0.0017
LATT  1
SFAC C H N S
UNIT 22.00 24.00 4.00 2.00
TEMP -100.150

L.S. 10
BOND
FMAP 2
PLAN 10
omit 0 50
acta
size 0.04 0.04 0.36

WGHT    0.036500    0.339200
FVAR       0.57255
S1    4    0.256231    0.777126    0.209147    11.00000    0.01865    0.02489 =
         0.02234    0.00125    0.00017   -0.00296
N1    3    0.642912    0.783469   -0.001687    11.00000    0.01630    0.01985 =
         0.01920    0.00388   -0.00475   -0.00517
N2    3    0.355238    0.819900   -0.088783    11.00000    0.01773    0.01995 =
         0.02395    0.00167   -0.00615   -0.00323
C3    1    0.768317    0.759860    0.103588    11.00000    0.02061    0.02429 =
         0.02281    0.00542   -0.00932   -0.00800
AFIX  23
H3A   2    0.704624    0.841136    0.186040    11.00000   -1.20000
H3B   2    0.917347    0.777786    0.052699    11.00000   -1.20000
AFIX   0
C4    1    0.370474    0.576672    0.251971    11.00000    0.02621    0.02293 =
         0.02504    0.00504   -0.00225   -0.00902
AFIX  23
H4A   2    0.261242    0.535953    0.334818    11.00000   -1.20000
H4B   2    0.399405    0.504163    0.164181    11.00000   -1.20000
AFIX   0
C5    1    0.424041    0.794057    0.028787    11.00000    0.01720    0.01575 =
         0.02237    0.00095   -0.00327   -0.00361
C6    1    0.933278    0.799346   -0.246591    11.00000    0.01822    0.02179 =
         0.02583    0.00319   -0.00416   -0.00416
AFIX  43
H6A   2    1.054181    0.783803   -0.209669    11.00000   -1.20000
AFIX   0
C7    1    0.776493    0.592373    0.168145    11.00000    0.02287    0.02384 =
         0.02742    0.00631   -0.00925   -0.00409
AFIX  23
H7A   2    0.797934    0.512585    0.086963    11.00000   -1.20000
H7B   2    0.903851    0.570045    0.204970    11.00000   -1.20000
AFIX   0
C8    1    0.722744    0.803249   -0.153192    11.00000    0.02053    0.01435 =
         0.01935    0.00150   -0.00454   -0.00406
C9    1    0.954806    0.819493   -0.396021    11.00000    0.02361    0.02645 =
         0.02476    0.00161    0.00030   -0.00564
AFIX  43
H9A   2    1.094856    0.817136   -0.463907    11.00000   -1.20000
AFIX   0
C10   1    0.577317    0.567181    0.294517    11.00000    0.03109    0.02326 =
         0.02424    0.00727   -0.00733   -0.00725
AFIX  23
H10A  2    0.553297    0.649089    0.374413    11.00000   -1.20000
H10B  2    0.607485    0.460351    0.335988    11.00000   -1.20000
AFIX   0
C11   1    0.541850    0.827270   -0.204981    11.00000    0.01967    0.01470 =
         0.02353    0.00097   -0.00590   -0.00325
C12   1    0.568703    0.848649   -0.357019    11.00000    0.02728    0.02293 =
         0.02459    0.00286   -0.01165   -0.00595
AFIX  43
H12A  2    0.448368    0.866203   -0.394516    11.00000   -1.20000
AFIX   0
C13   1    0.776370    0.843258   -0.450230    11.00000    0.03466    0.02646 =
         0.01897    0.00226   -0.00573   -0.00819
AFIX  43
H13A  2    0.798738    0.856005   -0.553813    11.00000   -1.20000

AFIX   0
HKLF 4

REM  1 in P-1
REM R1 =  0.0303 for    1590 Fo > 4sig(Fo)  and  0.0342 for all    1725 data
REM    127 parameters refined using      0 restraints

END

WGHT      0.0225      0.3118

REM Highest difference peak  0.310,  deepest hole -0.252,  1-sigma level  0.045
Q1    1   0.6470  0.7913 -0.1954  11.00000  0.05    0.31
Q2    1   0.8271  0.7969 -0.1941  11.00000  0.05    0.29
Q3    1   0.5507  0.8342 -0.2746  11.00000  0.05    0.21
Q4    1   0.5323  0.7923  0.0218  11.00000  0.05    0.21
Q5    1   0.6993  0.7936 -0.0884  11.00000  0.05    0.21
Q6    1   0.2381  0.8390 -0.1024  11.00000  0.05    0.20
Q7    1   0.7007  0.7624  0.0430  11.00000  0.05    0.20
Q8    1   0.3176  0.8324  0.2744  11.00000  0.05    0.19
Q9    1   0.6736  0.5771  0.2217  11.00000  0.05    0.18
Q10   1   0.4238  0.8325 -0.1474  11.00000  0.05    0.16
;
_shelx_res_checksum              94052
_shelx_hkl_file
;
  -2   0   0  198.78   10.97
  -2   0   0  210.04   10.95
  -2   0   0  206.48   10.98
  -2   0   0  204.79   10.95
  -2   0   0  183.08   10.95
  -2   0   0  206.09   10.97
   2   0   0  193.49   10.94
   2   0   0  185.30   10.96
   2   0   0  192.64   10.97
   2   0   0  216.12   10.98
   2   0   0  184.92   10.95
   2   0   0  191.30   10.95
   2   0   0  202.84   10.94
   2   0   0  205.49   10.94
   2   0   0  204.33   10.94
  -3   0   0   62.83    3.47
  -3   0   0   61.70    3.50
  -3   0   0   62.35    3.46
  -3   0   0   65.54    3.51
  -3   0   0   63.08    3.49
   3   0   0   59.67    3.47
   3   0   0   60.06    3.49
   3   0   0   60.70    3.45
   3   0   0   61.59    3.45
   3   0   0   62.93    3.45
  -4   0   0   56.99    3.15
  -4   0   0   58.65    3.11
  -4   0   0   54.35    3.15
  -4   0   0   50.55    3.09
   4   0   0   56.11    3.09
   4   0   0   56.16    3.12
   4   0   0   53.54    3.14
  -5   0   0   20.09    1.20
  -5   0   0   19.92    1.26
  -5   0   0   17.53    1.16
  -5   0   0   20.00    1.28
   5   0   0   18.55    1.26
   5   0   0   18.89    1.15
   5   0   0   18.78    1.20
   5   0   0   18.95    1.27
  -6   0   0  125.14    7.25
  -6   0   0  131.58    7.28
  -6   0   0  135.39    7.27
   6   0   0  122.92    7.17
   6   0   0  126.46    7.17
   6   0   0  135.04    7.27
   6   0   0  125.96    7.26
   6   0   0  130.20    7.21
  -7   0   0    2.96    0.75
  -7   0   0    3.24    0.64
  -7   0   0    3.58    0.65
   7   0   0    2.80    0.60
   7   0   0    4.99    0.87
   7   0   0    3.44    0.52
  -8   0   0    6.31    1.21
  -8   0   0    6.39    0.93
   8   0   0    6.48    0.98
   8   0   0    8.01    1.11
   8   0   0    5.51    1.19
   7  -1   0   36.45    2.30
   7  -1   0   37.07    2.20
   7  -1   0   33.30    2.30
  -7   1   0   36.85    2.35
  -7   1   0   33.86    2.32
   6  -1   0    1.98    0.47
   6  -1   0    2.67    0.49
   6  -1   0    2.51    0.40
  -6   1   0    2.63    0.52
  -6   1   0    1.73    0.44
  -6   1   0    2.21    0.48
   5  -1   0    0.23    0.29
   5  -1   0    0.34    0.25
   5  -1   0    0.24    0.30
   5  -1   0    0.18    0.20
  -5   1   0    0.69    0.31
  -5   1   0   -0.18    0.30
  -5   1   0   -0.18    0.31
   4  -1   0    3.81    0.45
   4  -1   0    3.83    0.43
   4  -1   0    4.03    0.33
  -4   1   0    3.61    0.41
  -4   1   0    3.58    0.47
  -4   1   0    2.67    0.45
   3  -1   0   71.21    3.95
   3  -1   0   66.70    3.92
   3  -1   0   72.43    3.91
   3  -1   0   68.60    3.97
  -3   1   0   70.10    3.98
  -3   1   0   74.09    3.94
  -3   1   0   71.94    3.98
   2  -1   0   61.91    3.40
   2  -1   0   58.49    3.41
   2  -1   0   64.60    3.38
   2  -1   0   60.10    3.39
  -2   1   0   57.28    3.40
  -2   1   0   61.50    3.38
  -2   1   0   62.82    3.42
  -2   1   0   62.89    3.39
  -2   1   0   60.51    3.42
   1  -1   0   96.78    5.24
   1  -1   0   95.37    5.25
   1  -1   0   90.13    5.25
   1  -1   0   87.17    5.25
   1  -1   0  102.53    5.23
   1  -1   0   99.33    5.24
  -1   1   0   91.95    5.25
  -1   1   0   97.55    5.25
  -1   1   0   83.89    5.25
  -1   1   0   98.77    5.24
  -1   1   0  101.63    5.23
  -1   1   0   94.56    5.24
   0  -1   0   61.40    2.92
   0  -1   0   54.70    2.92
   0  -1   0   48.86    2.92
   0   1   0   55.64    2.92
   0   1   0   45.93    2.94
   0   1   0   55.69    2.92
   0   1   0   48.85    2.92
  -1  -1   0   31.76    1.63
  -1  -1   0   31.27    1.63
  -1  -1   0   28.33    1.63
  -1  -1   0   29.46    1.63
  -1  -1   0   29.29    1.63
  -1  -1   0   27.49    1.63
  -1  -1   0   29.97    1.64
  -1  -1   0   28.24    1.63
   1   1   0   30.79    1.63
   1   1   0   29.11    1.63
   1   1   0   30.28    1.63
   1   1   0   29.05    1.63
   1   1   0   26.85    1.63
   1   1   0   27.56    1.63
   1   1   0   27.75    1.63
   1   1   0   30.83    1.63
   1   1   0   27.26    1.62
   1   1   0   29.76    1.64
  -2  -1   0   31.05    1.76
  -2  -1   0   29.97    1.77
  -2  -1   0   31.05    1.77
  -2  -1   0   32.45    1.76
  -2  -1   0   33.53    1.77
  -2  -1   0   30.73    1.77
  -2  -1   0   30.20    1.77
   2   1   0   32.80    1.76
   2   1   0   31.78    1.77
   2   1   0   30.51    1.75
   2   1   0   28.12    1.77
   2   1   0   29.44    1.76
   2   1   0   31.60    1.79
   2   1   0   33.10    1.77
  -3  -1   0   38.08    2.09
  -3  -1   0   36.21    2.10
  -3  -1   0   37.32    2.11
  -3  -1   0   38.38    2.09
  -3  -1   0   36.72    2.12
  -3  -1   0   38.24    2.11
  -3  -1   0   37.04    2.10
   3   1   0   35.93    2.10
   3   1   0   34.65    2.11
  -4  -1   0   19.37    1.16
  -4  -1   0   19.18    1.13
  -4  -1   0   18.50    1.11
  -4  -1   0   18.13    1.12
  -4  -1   0   18.52    1.19
  -4  -1   0   19.26    1.16
   4   1   0   17.32    1.15
   4   1   0   18.09    1.17
   4   1   0   19.66    1.12
   4   1   0   17.59    1.15
  -5  -1   0   21.33    1.32
  -5  -1   0   22.53    1.38
  -5  -1   0   21.09    1.37
  -5  -1   0   22.94    1.33
   5   1   0   21.65    1.38
   5   1   0   21.16    1.31
   5   1   0   20.79    1.34
   5   1   0   21.30    1.37
  -6  -1   0   10.64    0.90
  -6  -1   0   10.80    0.90
  -6  -1   0    9.45    0.88
   6   1   0    8.66    0.84
   6   1   0    9.46    0.89
   6   1   0    9.90    0.87
   6   1   0   10.25    0.80
  -7  -1   0   25.65    1.80
  -7  -1   0   28.09    1.81
   7   1   0   27.89    1.81
   7   1   0   24.59    1.71
   7   1   0   26.16    1.77
  -8  -1   0    2.01    0.77
  -8  -1   0    3.27    0.75
   8   1   0    2.35    0.65
   8   1   0    2.81    0.72
   7  -2   0    8.58    1.13
   7  -2   0    8.39    1.08
   7  -2   0    9.28    0.94
  -7   2   0    8.48    1.18
  -7   2   0   10.29    1.14
   6  -2   0   48.77    2.71
   6  -2   0   42.58    2.81
   6  -2   0   48.12    2.80
  -6   2   0   46.70    2.82
  -6   2   0   44.39    2.82
  -6   2   0   45.34    2.70
   5  -2   0   10.09    0.82
   5  -2   0    9.40    0.74
  -5   2   0    9.20    0.85
  -5   2   0    8.35    0.83
   4  -2   0   42.12    2.45
   4  -2   0   42.99    2.41
  -4   2   0   40.45    2.47
  -4   2   0   42.76    2.41
  -4   2   0   41.84    2.46
   3  -2   0    0.93    0.20
   3  -2   0    0.81    0.21
  -3   2   0    0.84    0.19
  -3   2   0    0.77    0.23
  -3   2   0    0.67    0.13
  -3   2   0    0.56    0.22
   2  -2   0  124.68    6.54
   2  -2   0  124.28    6.51
   2  -2   0  111.95    6.55
  -2   2   0  118.71    6.53
  -2   2   0  113.87    6.56
  -2   2   0  117.88    6.56
  -2   2   0  116.68    6.51
   1  -2   0   14.33    0.86
   1  -2   0   13.10    0.86
   1  -2   0   15.04    0.84
   1  -2   0   14.66    0.86
  -1   2   0   14.77    0.86
  -1   2   0   15.48    0.84
  -1   2   0   15.75    0.88
  -1   2   0   13.04    0.86
  -1   2   0   15.69    0.85
  -1   2   0   13.91    0.87
  -1  -2   0    5.40    0.37
  -1  -2   0    4.56    0.35
  -1  -2   0    5.20    0.35
  -1  -2   0    5.27    0.38
  -1  -2   0    5.34    0.33
   1   2   0    5.49    0.35
   1   2   0    5.90    0.34
   1   2   0    5.17    0.37
   1   2   0    5.94    0.35
   1   2   0    4.74    0.34
  -2  -2   0  117.76    6.33
  -2  -2   0  120.88    6.32
  -2  -2   0  111.41    6.32
  -2  -2   0  119.96    6.31
  -2  -2   0  104.90    6.31
  -2  -2   0  114.01    6.32
   2   2   0  113.14    6.30
   2   2   0  120.67    6.32
   2   2   0  115.92    6.31
   2   2   0  117.34    6.31
   2   2   0  104.01    6.31
   2   2   0  113.93    6.33
   2   2   0  119.69    6.31
   2   2   0  107.63    6.31
  -3  -2   0  134.11    7.23
  -3  -2   0  135.26    7.24
  -3  -2   0  123.60    7.24
  -3  -2   0  124.08    7.24
  -3  -2   0  138.94    7.24
  -3  -2   0  130.23    7.24
  -3  -2   0  128.83    7.23
   3   2   0  133.80    7.23
   3   2   0  127.82    7.23
  -4  -2   0  126.06    6.96
  -4  -2   0  122.09    6.95
  -4  -2   0  133.91    6.96
  -4  -2   0  128.79    6.93
  -4  -2   0  124.69    6.93
  -4  -2   0  111.29    6.94
  -4  -2   0  133.02    6.95
   4   2   0  128.51    6.94
   4   2   0  127.76    6.95
   4   2   0  120.48    6.94
   4   2   0  118.40    6.95
  -5  -2   0    0.37    0.33
  -5  -2   0    0.62    0.27
  -5  -2   0    0.69    0.27
  -5  -2   0    0.71    0.32
  -5  -2   0    0.78    0.28
  -5  -2   0    1.08    0.25
   5   2   0    0.49    0.29
   5   2   0    0.91    0.29
   5   2   0    0.48    0.30
   5   2   0    0.74    0.25
   5   2   0    0.25    0.26
  -6  -2   0   44.64    2.63
  -6  -2   0   49.46    2.69
  -6  -2   0   45.23    2.66
   6   2   0   45.15    2.64
   6   2   0   44.82    2.63
   6   2   0   44.93    2.67
   6   2   0   43.21    2.65
   6   2   0   45.29    2.66
   6   2   0   42.14    2.66
  -7  -2   0    7.16    0.94
  -7  -2   0    8.59    0.96
   7   2   0    7.61    0.88
   7   2   0    6.73    0.95
   7   2   0    6.81    0.92
   7   2   0    6.81    0.86
  -8  -2   0    4.59    0.75
   8   2   0    5.18    0.74
   8   2   0    6.36    0.98
   8   2   0    3.77    0.75
   8   2   0    4.24    0.70
   7  -3   0    9.14    1.31
   7  -3   0    9.12    1.00
   7  -3   0   10.21    1.16
  -7   3   0    9.36    1.59
  -7   3   0    7.39    1.01
  -7   3   0   10.44    1.26
   6  -3   0    3.83    0.62
   6  -3   0    5.41    0.82
  -6   3   0    4.11    0.57
  -6   3   0    2.82    0.60
  -6   3   0    3.39    0.62
   5  -3   0   39.44    2.26
   5  -3   0   39.25    2.33
  -5   3   0   36.15    2.34
  -5   3   0   36.95    2.35
  -5   3   0   40.34    2.48
   4  -3   0   63.48    3.61
   4  -3   0   67.87    3.58
  -4   3   0   62.85    3.56
  -4   3   0   59.82    3.62
  -4   3   0   61.46    3.63
   3  -3   0  118.98    6.25
   3  -3   0  116.07    6.20
   3  -3   0  110.47    6.27
  -3   3   0  109.80    6.29
  -3   3   0  107.33    6.24
  -3   3   0  112.31    6.29
   2  -3   0    3.16    0.26
   2  -3   0    3.67    0.35
   2  -3   0    3.25    0.35
  -2   3   0    2.97    0.36
  -2   3   0    3.13    0.31
  -2   3   0    2.96    0.39
  -2   3   0    2.99    0.26
   1  -3   0  189.34   11.54
   1  -3   0  211.47   11.52
   1  -3   0  216.95   11.54
  -1   3   0  198.99   11.52
  -1   3   0  202.64   11.54
  -1   3   0  218.83   11.55
  -1   3   0  228.15   11.54
  -1  -3   0   12.82    0.73
  -1  -3   0   10.80    0.72
  -1  -3   0   12.38    0.75
  -1  -3   0   10.29    0.70
   1   3   0   13.68    0.72
   1   3   0   12.52    0.72
   1   3   0   11.52    0.74
  -2  -3   0    2.85    0.30
  -2  -3   0    3.04    0.32
  -2  -3   0    3.21    0.33
   2   3   0    3.17    0.37
   2   3   0    3.43    0.29
   2   3   0    3.20    0.29
  -3  -3   0    1.63    0.27
  -3  -3   0    2.28    0.30
  -3  -3   0    1.89    0.25
  -3  -3   0    2.22    0.31
  -3  -3   0    1.92    0.33
   3   3   0    2.11    0.26
   3   3   0    1.79    0.27
   3   3   0    2.10    0.30
  -4  -3   0    9.40    0.75
  -4  -3   0    9.38    0.72
  -4  -3   0    8.29    0.74
  -4  -3   0   10.14    0.69
  -4  -3   0   11.45    0.72
  -4  -3   0    9.49    0.69
   4   3   0   10.09    0.70
   4   3   0    9.99    0.68
   4   3   0   11.01    0.71
  -5  -3   0   84.91    4.91
  -5  -3   0   87.20    4.88
  -5  -3   0   92.17    4.89
   5   3   0   81.34    4.90
   5   3   0   87.74    4.87
   5   3   0   88.17    4.88
   5   3   0   90.97    4.88
   5   3   0   88.72    4.91
   5   3   0   81.49    4.89
  -6  -3   0   83.71    4.74
  -6  -3   0   82.29    4.76
  -6  -3   0   83.19    5.02
  -6  -3   0   87.14    4.77
   6   3   0   85.46    4.75
   6   3   0   81.32    4.78
   6   3   0   81.25    4.77
   6   3   0   87.82    4.77
   6   3   0   83.84    4.77
   6   3   0   84.44    4.74
   6   3   0   83.48    4.74
  -7  -3   0   18.09    1.23
  -7  -3   0   16.39    1.28
   7   3   0   17.43    1.27
   7   3   0   16.74    1.39
   7   3   0   15.61    1.22
   7   3   0   17.29    1.29
   7   3   0   16.88    1.53
   7   3   0   17.45    1.21
   7   3   0   16.93    1.31
  -8  -3   0    3.45    0.69
  -8  -3   0    3.89    0.65
   8   3   0    3.68    0.64
   8   3   0    3.25    0.63
   8   3   0    5.62    0.93
   8   3   0    3.96    0.91
   8   3   0    2.23    0.74
   6  -4   0   12.84    1.08
   6  -4   0   13.40    1.21
   6  -4   0   11.44    1.26
  -6   4   0   13.26    1.27
  -6   4   0   12.00    1.29
   5  -4   0   28.53    1.96
   5  -4   0   30.71    1.93
   5  -4   0   32.23    1.86
  -5   4   0   28.47    1.97
  -5   4   0   31.53    1.98
   4  -4   0   23.00    1.37
   4  -4   0   21.84    1.41
  -4   4   0   21.37    1.44
  -4   4   0   20.45    1.43
   3  -4   0    1.23    0.27
   3  -4   0    0.77    0.27
   3  -4   0    0.88    0.20
  -3   4   0    0.61    0.29
  -3   4   0    1.38    0.31
  -3   4   0    1.36    0.25
   2  -4   0  161.15    9.07
   2  -4   0  185.90    9.11
   2  -4   0  155.61    9.11
  -2   4   0  162.31    9.13
  -2   4   0  157.67    9.12
  -2   4   0  165.51    9.09
   1  -4   0    0.04    0.20
   1  -4   0    0.02    0.15
   1  -4   0    0.20    0.16
  -1   4   0    0.04    0.16
  -1   4   0   -0.01    0.18
  -1   4   0   -0.10    0.14
  -1   4   0   -0.22    0.13
  -1   4   0   -0.32    0.18
   0  -4   0   37.48    2.34
   0   4   0   42.11    2.35
   0   4   0   43.95    2.36
   0   4   0   43.01    2.35
  -1  -4   0   28.95    1.58
  -1  -4   0   27.82    1.60
  -1  -4   0   24.28    1.56
   1   4   0   25.84    1.58
   1   4   0   29.55    1.57
   1   4   0   27.13    1.56
  -2  -4   0   12.15    0.84
  -2  -4   0   12.12    0.80
  -2  -4   0   11.20    0.79
   2   4   0   13.12    0.83
   2   4   0   12.66    0.79
   2   4   0   13.60    0.78
  -3  -4   0   78.14    4.42
  -3  -4   0   74.55    4.40
  -3  -4   0   72.77    4.39
   3   4   0   79.50    4.42
   3   4   0   80.43    4.35
   3   4   0   84.90    4.38
   3   4   0   79.64    4.39
  -4  -4   0   12.45    0.90
  -4  -4   0   12.79    0.92
  -4  -4   0   13.18    0.88
  -4  -4   0   12.75    0.91
   4   4   0   13.89    0.85
   4   4   0   14.06    0.87
   4   4   0   13.78    0.94
   4   4   0   13.36    0.88
  -5  -4   0    6.58    0.65
  -5  -4   0    6.58    0.71
   5   4   0    6.83    0.74
   5   4   0    6.14    0.65
   5   4   0    6.36    0.62
   5   4   0    7.89    0.62
   5   4   0    7.57    0.61
  -6  -4   0   14.98    1.08
  -6  -4   0   13.73    1.13
   6   4   0   15.40    1.07
   6   4   0   15.53    1.11
   6   4   0   15.00    1.17
   6   4   0   13.95    1.13
   6   4   0   16.77    1.07
   6   4   0   13.98    1.14
   6   4   0   17.12    1.08
  -7  -4   0   22.13    1.65
  -7  -4   0   25.14    1.61
   7   4   0   26.32    1.59
   7   4   0   24.74    1.60
   7   4   0   22.91    1.70
   7   4   0   23.94    1.59
   7   4   0   23.51    1.64
   7   4   0   22.38    1.60
   6  -5   0   10.65    1.10
   6  -5   0   11.99    1.34
   6  -5   0   10.31    1.21
  -6   5   0   10.17    1.33
  -6   5   0   12.00    1.32
   5  -5   0   24.11    1.76
   5  -5   0   22.47    1.66
   5  -5   0   27.76    1.64
  -5   5   0   23.65    1.75
  -5   5   0   25.71    1.60
  -5   5   0   22.98    1.72
   4  -5   0   21.15    1.41
   4  -5   0   21.88    1.37
  -4   5   0   21.05    1.35
  -4   5   0   21.02    1.45
  -4   5   0   20.40    1.45
   3  -5   0   47.86    2.82
   3  -5   0   50.91    2.90
   3  -5   0   54.39    2.88
  -3   5   0   49.00    2.86
  -3   5   0   48.40    2.92
  -3   5   0   50.04    2.92
   2  -5   0   27.73    1.54
   2  -5   0   26.03    1.54
   2  -5   0   24.85    1.49
  -2   5   0   25.19    1.57
  -2   5   0   24.59    1.56
  -2   5   0   25.19    1.51
   1  -5   0   92.97    5.37
   1  -5   0  103.17    5.40
   1  -5   0  102.73    5.39
  -1   5   0   95.41    5.37
  -1   5   0   94.86    5.41
  -1   5   0   96.67    5.38
  -1   5   0   92.00    5.39
   0  -5   0  852.04   50.75
   0  -5   0 1000.00   50.77
   0   5   0  929.66   50.76
   0   5   0  935.96   50.76
   0   5   0  905.88   50.76
  -1  -5   0    1.05    0.29
  -1  -5   0    0.78    0.22
  -1  -5   0    1.31    0.27
   1   5   0    1.32    0.26
   1   5   0    0.70    0.25
   1   5   0    1.00    0.21
  -2  -5   0   42.28    2.42
  -2  -5   0   42.75    2.40
  -2  -5   0   38.19    2.39
   2   5   0   41.17    2.41
   2   5   0   40.68    2.38
   2   5   0   45.65    2.39
  -3  -5   0   11.20    0.84
  -3  -5   0   11.61    0.80
  -3  -5   0   10.24    0.77
   3   5   0   11.30    0.84
   3   5   0   12.59    0.78
   3   5   0   11.22    0.77
  -4  -5   0    5.36    0.58
  -4  -5   0    5.65    0.56
  -4  -5   0    6.08    0.66
   4   5   0    5.66    0.54
   4   5   0    6.28    0.56
   4   5   0    5.44    0.66
  -5  -5   0   61.68    3.61
  -5  -5   0   63.21    3.65
  -5  -5   0   60.05    3.70
   5   5   0   53.92    3.57
   5   5   0   65.97    3.59
   5   5   0   67.39    3.66
   5   5   0   68.96    3.58
  -6  -5   0   74.60    4.39
  -6  -5   0   75.61    4.35
   6   5   0   67.13    4.32
   6   5   0   79.58    4.32
   6   5   0   76.10    4.40
   6   5   0   78.58    4.33
   6   5   0   80.46    4.30
  -7  -5   0    4.73    0.73
   7   5   0    7.91    1.05
   7   5   0    6.74    0.91
   7   5   0    6.88    0.87
   7   5   0    6.68    0.85
   5  -6   0   20.14    1.54
   5  -6   0   20.45    1.47
   5  -6   0   19.85    1.61
  -5   6   0   21.92    1.63
  -5   6   0   18.93    1.67
  -5   6   0   18.59    1.61
   4  -6   0    3.85    0.74
   4  -6   0    3.36    0.55
  -4   6   0    2.74    0.59
  -4   6   0    5.01    0.65
  -4   6   0    2.30    0.56
   3  -6   0    8.61    0.70
   3  -6   0    8.76    0.80
   3  -6   0    8.04    0.78
  -3   6   0    9.17    0.86
  -3   6   0    8.74    0.74
  -3   6   0    9.17    0.86
   2  -6   0   92.21    4.98
   2  -6   0   86.09    4.94
   2  -6   0   90.35    4.98
  -2   6   0   89.34    4.99
  -2   6   0   87.37    5.02
  -2   6   0   86.33    4.96
   1  -6   0   13.05    0.91
   1  -6   0   11.99    0.84
  -1   6   0   12.77    0.87
  -1   6   0   12.52    0.88
  -1   6   0   12.69    0.91
  -1   6   0   13.23    0.85
   0  -6   0    1.15    0.26
   0  -6   0    0.81    0.31
   0  -6   0    1.32    0.32
   0   6   0    1.34    0.27
  -1  -6   0    7.68    0.61
  -1  -6   0    8.17    0.66
   1   6   0    6.63    0.59
   1   6   0    7.78    0.64
   1   6   0    8.14    0.65
  -2  -6   0   25.17    1.59
  -2  -6   0   25.99    1.60
  -2  -6   0   26.60    1.64
   2   6   0   28.74    1.59
   2   6   0   25.85    1.62
   2   6   0   25.92    1.57
  -3  -6   0   13.01    0.95
  -3  -6   0   13.27    0.98
  -3  -6   0   13.71    1.02
   3   6   0   13.50    0.93
   3   6   0   15.02    0.94
   3   6   0   14.93    1.02
  -4  -6   0   47.53    2.82
  -4  -6   0   46.72    2.86
  -4  -6   0   46.87    2.82
   4   6   0   52.35    2.78
   4   6   0   48.67    2.79
   4   6   0   48.42    2.86
  -5  -6   0    7.45    0.83
  -5  -6   0    6.35    0.74
  -5  -6   0    6.62    0.76
   5   6   0    6.32    0.84
   5   6   0    6.25    0.67
   5   6   0    6.54    0.68
  -6  -6   0    0.78    0.45
  -6  -6   0    0.85    0.50
   6   6   0   -0.82    0.40
   6   6   0   -0.58    0.53
   6   6   0   -0.15    0.37
  -7  -6   0    7.96    1.13
  -7  -6   0    8.31    1.07
   7   6   0    7.56    1.09
   7   6   0    7.67    1.46
   7   6   0    9.35    0.97
   7   6   0    8.25    1.15
   5  -7   0   50.40    3.00
   5  -7   0   43.79    2.92
   5  -7   0   43.60    2.86
  -5   7   0   48.50    2.99
  -5   7   0   46.72    2.84
   4  -7   0    5.12    0.89
   4  -7   0    6.87    0.94
   4  -7   0    4.22    1.00
  -4   7   0    5.57    1.03
  -4   7   0    6.20    1.06
  -4   7   0    6.50    0.86
   3  -7   0    5.23    0.81
   3  -7   0    4.51    0.76
  -3   7   0    6.22    0.84
  -3   7   0    6.05    0.93
  -3   7   0    5.17    0.68
   2  -7   0   36.92    2.30
   2  -7   0   39.04    2.31
  -2   7   0   39.39    2.32
  -2   7   0   39.32    2.29
  -2   7   0   39.89    2.37
   1  -7   0    0.12    0.36
   1  -7   0    0.59    0.33
   1  -7   0    0.48    0.32
  -1   7   0    0.07    0.33
  -1   7   0    0.09    0.32
  -1   7   0   -0.12    0.36
   0  -7   0   36.54    2.20
   0  -7   0   37.33    2.23
   0  -7   0   37.68    2.23
   0   7   0   38.13    2.21
   0   7   0   38.60    2.24
  -1  -7   0   14.42    0.97
  -1  -7   0   13.92    1.00
   1   7   0   12.78    0.99
   1   7   0   13.48    0.94
   1   7   0   13.32    0.97
  -2  -7   0   23.54    1.53
  -2  -7   0   22.96    1.50
   2   7   0   25.69    1.50
   2   7   0   23.98    1.54
  -3  -7   0   19.96    1.32
  -3  -7   0   20.57    1.35
  -3  -7   0   20.78    1.39
   3   7   0   20.38    1.38
   3   7   0   20.20    1.30
   3   7   0   19.49    1.29
  -4  -7   0   34.07    2.11
  -4  -7   0   34.67    2.13
  -4  -7   0   35.14    2.18
   4   7   0   34.84    2.07
   4   7   0   34.44    2.08
   4   7   0   35.13    2.17
  -5  -7   0    2.85    0.51
  -5  -7   0    2.41    0.56
  -5  -7   0    2.34    0.58
   5   7   0    1.80    0.57
   5   7   0    3.03    0.51
   5   7   0    3.34    0.45
  -6  -7   0   33.15    2.24
  -6  -7   0   34.43    2.21
   6   7   0   32.70    2.26
   6   7   0   35.82    2.09
   6   7   0   34.02    2.13
   7   7   0    1.29    0.71
   4  -8   0    1.87    0.71
   4  -8   0    1.25    0.67
  -4   8   0    1.17    0.69
  -4   8   0    3.52    0.83
  -4   8   0    3.11    0.65
   3  -8   0   40.51    2.36
   3  -8   0   33.76    2.26
   3  -8   0   30.80    2.27
  -3   8   0   33.70    2.22
  -3   8   0   38.69    2.38
  -3   8   0   40.55    2.49
   2  -8   0    6.64    0.86
   2  -8   0    6.71    0.83
  -2   8   0    9.34    0.84
   1  -8   0   51.68    3.18
   1  -8   0   60.56    3.16
   1  -8   0   50.75    3.17
  -1   8   0   53.36    3.16
  -1   8   0   56.85    3.22
   0  -8   0   45.16    2.83
   0  -8   0   50.17    2.82
   0   8   0   48.72    2.81
   0   8   0   48.94    2.84
  -1  -8   0    9.53    0.82
  -1  -8   0    8.54    0.87
   1   8   0    8.41    0.80
   1   8   0    9.07    0.86
   1   8   0    9.77    0.85
  -2  -8   0   18.39    1.28
  -2  -8   0   18.41    1.32
   2   8   0   18.04    1.25
   2   8   0   19.60    1.33
   2   8   0   18.33    1.27
  -3  -8   0    1.40    0.48
  -3  -8   0    1.94    0.43
   3   8   0    1.48    0.42
   3   8   0    0.95    0.45
   3   8   0    2.29    0.50
  -4  -8   0   57.31    3.53
  -4  -8   0   62.15    3.56
  -4  -8   0   59.08    3.58
   4   8   0   64.97    3.50
   4   8   0   56.58    3.57
   4   8   0   62.63    3.51
  -5  -8   0   81.71    4.70
  -5  -8   0   83.61    4.67
  -5  -8   0   74.25    4.67
   5   8   0   75.92    4.58
   5   8   0   86.52    4.71
   5   8   0   80.57    4.60
  -6  -8   0   10.50    1.21
   6   8   0    9.47    1.05
   6   8   0    8.65    1.04
   3  -9   0    3.90    0.77
   3  -9   0    4.73    0.81
  -3   9   0    7.88    1.28
  -3   9   0    7.23    0.99
   2  -9   0   38.03    2.60
  -2   9   0   45.78    2.71
  -2   9   0   43.69    2.59
   1  -9   0    0.69    0.53
   1  -9   0    1.02    0.54
  -1   9   0    0.87    0.58
  -1   9   0    0.20    0.52
   0  -9   0   16.54    1.37
   0  -9   0   19.80    1.38
   0   9   0   17.13    1.32
   0   9   0   21.31    1.40
  -1  -9   0    1.32    0.52
  -1  -9   0   -0.19    0.51
   1   9   0    0.04    0.47
   1   9   0    0.01    0.43
   1   9   0    0.38    0.48
  -2  -9   0    4.37    0.68
  -2  -9   0    4.89    0.66
   2   9   0    4.04    0.59
   2   9   0    4.43    0.59
   2   9   0    3.17    0.61
  -3  -9   0    1.98    0.58
  -3  -9   0    1.88    0.59
   3   9   0    1.39    0.51
   3   9   0    1.18    0.59
  -4  -9   0   22.39    1.53
  -4  -9   0   17.08    1.54
   4   9   0   18.43    1.42
   4   9   0   20.09    1.57
   4   9   0   19.75    1.42
  -5  -9   0    2.26    0.69
  -5  -9   0    3.60    0.74
   5   9   0    2.44    0.66
   5   9   0    3.28    0.76
   5   9   0    4.26    0.69
   1 -10   0    3.92    0.75
   1 -10   0    3.07    0.73
  -1  10   0    3.23    0.82
  -1  10   0    3.48    0.71
   0 -10   0   11.82    1.19
   0 -10   0   11.21    1.21
   0  10   0    9.19    1.24
   0  10   0    8.87    1.10
  -1 -10   0   10.89    1.24
  -1 -10   0   13.02    1.29
   1  10   0   11.43    1.13
   1  10   0   12.60    1.21
  -2 -10   0    0.39    0.68
  -2 -10   0    1.09    0.65
   2  10   0    0.14    0.55
   2  10   0   -1.15    0.63
   2  10   0    0.41    0.67
  -3 -10   0   -0.85    0.66
  -3 -10   0    0.24    0.70
   3  10   0    0.51    0.66
   3  10   0    0.49    0.60
   3  10   0    0.36    0.70
  -4 -10   0    0.57    0.68
  -4 -10   0   -0.87    0.72
   4  10   0    0.04    0.61
   4  10   0   -0.47    0.74
   4  10  -1    4.95    0.81
   4  10  -1    5.48    0.89
  -4 -10   1    7.16    1.15
   3  10  -1    0.71    0.73
   3  10  -1    1.05    0.66
  -3 -10   1    1.20    0.72
  -3 -10   1    2.73    0.70
   2  10  -1   10.02    1.07
   2  10  -1    8.41    1.23
   2  10  -1   11.93    1.16
  -2 -10   1    9.91    1.20
  -2 -10   1    9.04    1.22
   1  10  -1   -0.61    0.59
   1  10  -1    0.22    0.62
  -1 -10   1    0.83    0.67
  -1 -10   1    0.33    0.65
   0  10  -1   22.09    1.60
   0  10  -1   22.42    1.70
   0 -10   1   21.38    1.64
  -1  10  -1    0.23    0.73
  -1  10  -1   -0.34    0.62
   1 -10   1    1.01    0.70
   1 -10   1    0.53    0.64
  -2  10  -1    3.13    0.84
  -2  10  -1    2.58    0.73
   2 -10   1    2.35    0.80
   2 -10   1    3.75    0.77
   5   9  -1   17.61    1.46
   5   9  -1   18.69    1.58
  -5  -9   1   18.90    1.62
   4   9  -1    6.25    0.86
   4   9  -1    5.50    0.79
   4   9  -1    3.94    0.73
  -4  -9   1    4.61    0.77
  -4  -9   1    5.71    0.77
   3   9  -1   58.05    3.54
   3   9  -1   63.68    3.63
   3   9  -1   60.18    3.54
  -3  -9   1   61.04    3.60
  -3  -9   1   56.38    3.59
  -3  -9   1   64.34    3.65
   2   9  -1   -0.02    0.47
   2   9  -1    0.11    0.49
   2   9  -1    0.13    0.58
  -2  -9   1    0.11    0.51
  -2  -9   1    0.94    0.60
   1   9  -1    4.58    0.61
   1   9  -1    2.68    0.55
   1   9  -1    4.54    0.62
  -1  -9   1    3.76    0.67
  -1  -9   1    4.92    0.63
   0   9  -1   11.48    1.05
   0   9  -1    8.71    0.93
   0  -9   1    9.13    1.00
  -1   9  -1   41.63    2.46
  -1   9  -1   36.97    2.37
   1  -9   1   38.40    2.42
  -2   9  -1    2.96    0.61
  -2   9  -1    2.96    0.72
  -3   9  -1   33.14    2.23
  -3   9  -1   33.54    2.03
   3  -9   1   27.48    2.07
   6   8  -1    5.76    0.94
   6   8  -1    5.52    0.73
  -6  -8   1    7.20    1.13
  -6  -8   1    3.80    0.80
   5   8  -1   11.01    1.10
   5   8  -1   10.59    1.27
   5   8  -1   12.92    1.11
  -5  -8   1   14.05    1.19
  -5  -8   1   12.11    1.28
   4   8  -1   36.02    2.28
   4   8  -1   35.95    2.29
   4   8  -1   39.65    2.41
  -4  -8   1   36.83    2.42
  -4  -8   1   40.37    2.35
   3   8  -1    2.79    0.53
   3   8  -1    2.99    0.58
   3   8  -1    3.10    0.54
  -3  -8   1    5.22    0.82
  -3  -8   1    4.31    0.63
  -3  -8   1    3.92    0.58
   2   8  -1   28.08    1.87
   2   8  -1   29.42    1.83
   2   8  -1   28.83    1.81
  -2  -8   1   28.54    1.85
  -2  -8   1   31.00    1.91
  -2  -8   1   30.03    1.84
   1   8  -1    1.85    0.41
   1   8  -1    1.79    0.45
   1   8  -1    1.47    0.43
  -1  -8   1    1.96    0.48
  -1  -8   1    2.02    0.44
   0   8  -1   12.89    0.96
   0   8  -1   11.91    1.02
   0  -8   1   13.17    0.97
   0  -8   1   12.69    1.02
  -1   8  -1   -0.13    0.44
  -1   8  -1    0.23    0.41
   1  -8   1   -0.27    0.40
   1  -8   1    0.10    0.45
  -2   8  -1    1.25    0.42
  -2   8  -1    0.53    0.58
   2  -8   1    0.07    0.49
   2  -8   1   -0.04    0.42
  -3   8  -1    2.02    0.65
  -3   8  -1    2.86    0.59
  -4   8  -1   28.29    1.92
  -4   8  -1   26.10    1.82
  -4   8  -1   28.68    1.97
   4  -8   1   26.05    1.82
   4  -8   1   22.02    1.85
   6   7  -1   18.14    1.58
   6   7  -1   20.17    1.37
   6   7  -1   18.51    1.40
  -6  -7   1   17.41    1.55
  -6  -7   1   20.91    1.50
   5   7  -1   60.06    3.46
   5   7  -1   58.40    3.35
   5   7  -1   57.40    3.34
  -5  -7   1   57.32    3.39
  -5  -7   1   54.86    3.44
   4   7  -1    0.45    0.50
   4   7  -1    0.85    0.39
   4   7  -1    1.74    0.41
  -4  -7   1    1.48    0.41
  -4  -7   1    2.09    0.46
  -4  -7   1    1.08    0.47
   3   7  -1   35.89    2.15
   3   7  -1   37.68    2.16
   3   7  -1   38.31    2.23
  -3  -7   1   34.37    2.18
  -3  -7   1   34.98    2.23
  -3  -7   1   36.64    2.19
   2   7  -1    4.55    0.69
   2   7  -1    4.66    0.63
   2   7  -1    5.03    0.56
  -2  -7   1    4.69    0.60
  -2  -7   1    4.78    0.71
  -2  -7   1    4.99    0.66
   1   7  -1   -0.34    0.28
   1   7  -1   -0.18    0.33
  -1  -7   1   -0.05    0.36
  -1  -7   1   -0.58    0.28
  -1  -7   1    0.21    0.37
   0   7  -1    1.83    0.39
   0   7  -1    1.75    0.35
   0  -7   1    1.87    0.40
   0  -7   1    1.34    0.35
  -1   7  -1   36.81    2.25
  -1   7  -1   39.45    2.24
  -1   7  -1   37.39    2.28
  -1   7  -1   40.94    2.45
   1  -7   1   36.13    2.25
   1  -7   1   38.72    2.23
  -2   7  -1    2.41    0.47
  -2   7  -1    2.77    0.41
  -2   7  -1    2.00    0.42
   2  -7   1    2.36    0.45
   2  -7   1    2.31    0.42
   2  -7   1    2.49    0.39
  -3   7  -1   39.31    2.33
  -3   7  -1   38.97    2.42
  -3   7  -1   40.03    2.46
   3  -7   1   39.46    2.31
   3  -7   1   39.57    2.39
  -4   7  -1   26.58    1.70
  -4   7  -1   25.26    1.80
  -4   7  -1   24.31    1.78
   4  -7   1   24.93    1.69
   4  -7   1   24.05    1.71
  -5   7  -1   11.36    1.37
   5  -7   1   13.04    1.22
   5  -7   1   12.84    1.30
   7   6  -1    4.57    0.73
   7   6  -1    5.52    0.89
   7   6  -1    5.77    0.88
  -7  -6   1    6.25    1.04
  -7  -6   1    4.91    0.80
   6   6  -1   15.10    1.37
   6   6  -1   14.94    1.14
   6   6  -1   14.02    1.17
  -6  -6   1   15.53    1.22
  -6  -6   1   15.33    1.34
   5   6  -1   10.49    0.87
   5   6  -1   10.21    1.07
   5   6  -1   11.54    0.90
  -5  -6   1   10.61    0.94
  -5  -6   1   10.41    1.04
   4   6  -1  189.70   10.46
   4   6  -1  195.86   10.40
   4   6  -1  187.43   10.41
  -4  -6   1  180.81   10.43
  -4  -6   1  184.46   10.47
   3   6  -1   79.56    4.52
   3   6  -1   78.67    4.47
   3   6  -1   84.13    4.47
  -3  -6   1   77.01    4.48
  -3  -6   1   77.07    4.52
   2   6  -1  138.90    7.75
   2   6  -1  139.08    7.79
   2   6  -1  147.36    7.76
  -2  -6   1  132.22    7.76
  -2  -6   1  138.66    7.76
  -2  -6   1  141.39    7.80
   1   6  -1    6.76    0.62
   1   6  -1    6.98    0.56
   1   6  -1    7.23    0.63
  -1  -6   1    6.36    0.63
  -1  -6   1    6.99    0.66
  -1  -6   1    6.28    0.58
   0   6  -1   37.98    2.20
   0   6  -1   39.13    2.23
   0   6  -1   38.17    2.24
   0  -6   1   38.71    2.23
   0  -6   1   40.84    2.25
   0  -6   1   35.14    2.20
  -1   6  -1   -0.01    0.27
  -1   6  -1   -0.34    0.30
  -1   6  -1   -0.14    0.24
  -1   6  -1    0.03    0.23
   1  -6   1   -0.13    0.27
   1  -6   1   -0.03    0.30
   1  -6   1   -0.05    0.25
  -2   6  -1   49.62    2.97
  -2   6  -1   49.10    2.95
  -2   6  -1   51.51    2.91
   2  -6   1   51.74    2.90
   2  -6   1   51.60    2.92
   2  -6   1   53.12    2.94
  -3   6  -1    2.34    0.36
  -3   6  -1    1.72    0.45
  -3   6  -1    2.10    0.44
   3  -6   1    2.25    0.33
   3  -6   1    1.15    0.40
   3  -6   1    1.47    0.39
  -4   6  -1   15.12    1.01
  -4   6  -1   13.49    1.21
  -4   6  -1   13.20    1.17
   4  -6   1   14.95    1.11
   4  -6   1   12.95    1.11
  -5   6  -1   42.49    2.68
  -5   6  -1   40.74    2.68
   5  -6   1   42.93    2.63
   5  -6   1   42.08    2.58
  -6   6  -1   28.66    2.08
   6  -6   1   25.20    1.96
   6  -6   1   27.33    2.10
   6  -6   1   26.52    1.88
   7   5  -1    9.89    0.96
   7   5  -1    7.95    1.03
   7   5  -1    9.40    1.01
   7   5  -1    9.13    1.21
  -7  -5   1    7.40    1.12
   6   5  -1    0.65    0.45
   6   5  -1    0.80    0.31
   6   5  -1    0.05    0.56
   6   5  -1    0.85    0.37
  -6  -5   1    0.88    0.40
  -6  -5   1    0.76    0.53
   5   5  -1   30.93    1.78
   5   5  -1   31.51    1.82
   5   5  -1   29.83    1.83
  -5  -5   1   28.17    1.90
  -5  -5   1   30.02    1.85
   4   5  -1    0.93    0.31
   4   5  -1    1.37    0.24
   4   5  -1    1.34    0.29
  -4  -5   1    1.08    0.30
  -4  -5   1    0.62    0.34
   3   5  -1    0.64    0.23
   3   5  -1    0.27    0.24
  -3  -5   1    0.73    0.30
  -3  -5   1    0.23    0.26
  -3  -5   1    0.40    0.29
   2   5  -1   -0.02    0.20
   2   5  -1    0.31    0.24
  -2  -5   1   -0.23    0.19
  -2  -5   1    0.01    0.23
  -2  -5   1   -0.03    0.25
   1   5  -1    0.06    0.24
   1   5  -1    0.07    0.16
  -1  -5   1   -0.15    0.23
  -1  -5   1    0.08    0.18
  -1  -5   1   -0.16    0.25
   0   5  -1   50.92    2.98
   0   5  -1   55.36    3.01
   0   5  -1   49.27    3.00
   0  -5   1   58.65    3.01
   0  -5   1   56.10    3.02
   0  -5   1   47.69    2.98
  -1   5  -1    6.86    0.54
  -1   5  -1    6.81    0.59
  -1   5  -1    6.45    0.56
  -1   5  -1    6.41    0.52
   1  -5   1    7.13    0.54
   1  -5   1    7.57    0.58
   1  -5   1    6.84    0.54
  -2   5  -1    1.15    0.23
  -2   5  -1    1.19    0.29
  -2   5  -1    0.73    0.30
   2  -5   1    0.73    0.25
   2  -5   1    1.43    0.30
   2  -5   1    1.02    0.25
  -3   5  -1   17.04    1.20
  -3   5  -1   18.21    1.21
  -3   5  -1   17.35    1.12
   3  -5   1   17.78    1.17
   3  -5   1   19.14    1.17
   3  -5   1   17.55    1.10
  -4   5  -1   58.27    3.60
  -4   5  -1   62.25    3.61
   4  -5   1   65.93    3.55
   4  -5   1   61.32    3.48
   4  -5   1   61.71    3.58
  -5   5  -1   48.13    2.88
  -5   5  -1   43.15    2.87
  -5   5  -1   47.98    2.92
   5  -5   1   47.56    2.86
   5  -5   1   49.97    2.82
  -6   5  -1   52.18    3.38
  -6   5  -1   51.56    3.39
   6  -5   1   59.00    3.27
   6  -5   1   56.28    3.33
   7   4  -1    6.90    0.88
   7   4  -1    6.48    0.88
   7   4  -1    8.15    1.07
   7   4  -1    7.17    0.81
   7   4  -1    6.46    0.89
  -7  -4   1    6.04    0.95
  -7  -4   1    5.65    0.91
   6   4  -1   60.60    3.36
   6   4  -1   63.52    3.34
   6   4  -1   54.30    3.36
   6   4  -1   60.69    3.36
   6   4  -1   53.31    3.35
  -6  -4   1   56.85    3.40
  -6  -4   1   57.35    3.36
   5   4  -1   39.83    2.18
   5   4  -1   37.98    2.20
   5   4  -1   38.12    2.20
   5   4  -1   33.58    2.18
  -5  -4   1   37.39    2.21
  -5  -4   1   38.32    2.23
  -5  -4   1   36.73    2.25
   4   4  -1   69.55    3.67
   4   4  -1   65.27    3.70
   4   4  -1   68.93    3.69
  -4  -4   1   63.23    3.73
  -4  -4   1   62.91    3.69
  -4  -4   1   66.20    3.70
  -4  -4   1   61.56    3.70
   3   4  -1  141.59    7.45
   3   4  -1  131.65    7.45
   3   4  -1  146.09    7.42
  -3  -4   1  125.19    7.45
  -3  -4   1  132.61    7.47
  -3  -4   1  129.51    7.48
   2   4  -1  117.06    6.49
   2   4  -1  124.37    6.49
  -2  -4   1  113.94    6.52
  -2  -4   1  118.58    6.49
  -2  -4   1  111.68    6.49
   1   4  -1    1.90    0.30
   1   4  -1    1.38    0.21
  -1  -4   1    1.66    0.24
  -1  -4   1    1.17    0.21
  -1  -4   1    1.52    0.23
   0   4  -1  195.52   10.56
   0   4  -1  205.64   10.57
   0  -4   1  174.24   10.53
   0  -4   1  203.25   10.58
   0  -4   1  179.45   10.55
  -1   4  -1  115.31    6.21
  -1   4  -1  115.13    6.22
  -1   4  -1  107.23    6.23
  -1   4  -1  101.85    6.21
  -1   4  -1  117.00    6.25
   1  -4   1  108.64    6.21
   1  -4   1  128.58    6.24
   1  -4   1  105.81    6.21
  -2   4  -1  218.93   12.04
  -2   4  -1  209.46   12.08
  -2   4  -1  209.73   12.08
   2  -4   1  215.98   12.06
   2  -4   1  220.31   12.03
   2  -4   1  237.28   12.06
  -3   4  -1   90.53    4.91
  -3   4  -1   85.33    4.96
  -3   4  -1   87.49    4.97
   3  -4   1   82.44    4.94
   3  -4   1   88.46    4.88
   3  -4   1   94.32    4.93
  -4   4  -1    0.45    0.33
  -4   4  -1    0.01    0.33
   4  -4   1    0.07    0.23
   4  -4   1    0.37    0.29
   4  -4   1    0.21    0.29
  -5   4  -1    7.65    0.70
  -5   4  -1    6.25    0.83
  -5   4  -1    7.24    0.84
   5  -4   1    5.32    0.57
   5  -4   1    7.19    0.82
   5  -4   1    6.68    0.71
  -6   4  -1   11.94    1.19
  -6   4  -1   10.25    1.22
   6  -4   1   10.89    1.01
   6  -4   1   12.44    1.15
  -7   4  -1   11.31    1.32
   7  -4   1   11.83    1.46
   7  -4   1   11.12    1.15
   7  -4   1   10.54    1.25
   7   3  -1    8.67    0.95
   7   3  -1    9.42    0.92
   7   3  -1    7.65    0.93
   7   3  -1   10.33    1.06
   7   3  -1   10.60    0.96
  -7  -3   1    7.87    0.96
  -7  -3   1    7.76    0.94
   6   3  -1    3.57    0.57
   6   3  -1    3.20    0.58
   6   3  -1    1.91    0.46
   6   3  -1    2.28    0.44
   6   3  -1    3.37    0.59
  -6  -3   1    2.78    0.44
  -6  -3   1    2.02    0.43
  -6  -3   1    2.32    0.43
   5   3  -1  152.42    8.27
   5   3  -1  150.77    8.28
   5   3  -1  143.90    8.27
   5   3  -1  157.61    8.28
   5   3  -1  139.34    8.32
  -5  -3   1  149.15    8.28
  -5  -3   1  142.15    8.29
  -5  -3   1  155.08    8.29
   4   3  -1  153.23    8.33
   4   3  -1  140.77    8.32
   4   3  -1  159.04    8.32
   4   3  -1  156.24    8.33
  -4  -3   1  148.52    8.36
  -4  -3   1  144.97    8.35
  -4  -3   1  146.64    8.33
  -4  -3   1  152.40    8.33
   3   3  -1   32.63    2.03
   3   3  -1   36.04    2.05
   3   3  -1   39.37    2.03
   3   3  -1   38.93    2.05
  -3  -3   1   35.19    2.08
  -3  -3   1   36.15    2.06
  -3  -3   1   33.60    2.04
  -3  -3   1   34.45    2.04
   2   3  -1   76.64    4.14
   2   3  -1   83.66    4.13
   2   3  -1   78.52    4.15
   2   3  -1   74.49    4.15
  -2  -3   1   77.04    4.16
  -2  -3   1   71.96    4.14
  -2  -3   1   72.93    4.17
  -2  -3   1   66.17    4.13
  -2  -3   1   69.39    4.14
   1   3  -1    3.51    0.30
   1   3  -1    3.23    0.28
  -1  -3   1    3.02    0.31
  -1  -3   1    2.96    0.28
  -1  -3   1    3.40    0.30
   0   3  -1  107.67    5.88
   0   3  -1   98.84    5.88
   0   3  -1  102.99    5.87
   0   3  -1  118.34    5.90
   0  -3   1  102.58    5.88
   0  -3   1  107.27    5.87
   0  -3   1  107.83    5.89
  -1   3  -1  371.74   18.86
  -1   3  -1  342.75   18.88
  -1   3  -1  366.50   18.89
  -1   3  -1  296.93   18.87
   1  -3   1  357.80   18.86
   1  -3   1  345.01   18.88
   1  -3   1  328.26   18.87
   1  -3   1  337.86   18.88
  -2   3  -1   20.69    1.28
  -2   3  -1   22.24    1.23
  -2   3  -1   21.08    1.28
   2  -3   1   19.94    1.26
   2  -3   1   21.31    1.22
   2  -3   1   22.90    1.26
  -3   3  -1   46.18    2.70
  -3   3  -1   45.14    2.69
  -3   3  -1   46.18    2.64
   3  -3   1   50.01    2.62
   3  -3   1   49.66    2.67
   3  -3   1   44.39    2.68
  -4   3  -1   90.29    5.30
  -4   3  -1   90.04    5.28
  -4   3  -1   98.54    5.25
   4  -3   1   96.26    5.25
   4  -3   1   90.37    5.27
   4  -3   1   96.46    5.19
  -5   3  -1   89.98    5.30
  -5   3  -1   90.56    5.32
   5  -3   1   92.64    5.30
   5  -3   1   95.90    5.18
   5  -3   1   97.16    5.26
  -6   3  -1   36.57    2.37
  -6   3  -1   36.03    2.36
   6  -3   1   39.03    2.26
   6  -3   1   37.11    2.33
  -7   3  -1    0.26    0.68
  -7   3  -1    0.36    0.67
   7  -3   1    0.70    0.64
   7  -3   1    0.73    0.53
   7  -3   1    0.10    0.66
   7   2  -1    1.48    0.57
   7   2  -1    0.87    0.45
   7   2  -1    1.09    0.48
  -7  -2   1    0.46    0.49
  -7  -2   1    2.42    0.55
   6   2  -1   42.95    2.54
   6   2  -1   43.67    2.56
   6   2  -1   43.89    2.55
  -6  -2   1   44.14    2.54
  -6  -2   1   43.34    2.57
  -6  -2   1   39.56    2.52
   5   2  -1   48.82    2.76
   5   2  -1   49.65    2.76
   5   2  -1   46.23    2.72
   5   2  -1   45.15    2.74
   5   2  -1   47.80    2.76
  -5  -2   1   47.54    2.75
  -5  -2   1   48.70    2.77
   4   2  -1   16.25    0.97
   4   2  -1   14.78    0.99
   4   2  -1   15.47    0.98
   4   2  -1   14.47    0.98
  -4  -2   1   14.90    0.95
  -4  -2   1   15.46    0.97
  -4  -2   1   15.73    0.98
  -4  -2   1   14.42    0.96
  -4  -2   1   15.38    0.99
   3   2  -1    0.02    0.15
   3   2  -1   -0.17    0.13
   3   2  -1    0.30    0.17
  -3  -2   1   -0.12    0.17
  -3  -2   1   -0.12    0.14
  -3  -2   1    0.12    0.17
  -3  -2   1    0.01    0.16
  -3  -2   1    0.19    0.16
   2   2  -1  173.10    9.12
   2   2  -1  168.17    9.12
   2   2  -1  169.76    9.10
   2   2  -1  170.59    9.11
  -2  -2   1  158.13    9.11
  -2  -2   1  165.59    9.14
  -2  -2   1  162.74    9.11
  -2  -2   1  170.21    9.13
  -2  -2   1  150.81    9.11
   1   2  -1    8.67    0.56
   1   2  -1    9.38    0.57
   1   2  -1   10.10    0.57
   1   2  -1   10.90    0.56
   1   2  -1    8.81    0.58
  -1  -2   1    9.36    0.59
  -1  -2   1    8.84    0.57
  -1  -2   1    9.16    0.55
  -1  -2   1    9.43    0.58
  -1  -2   1   10.08    0.57
   0   2  -1   96.89    4.78
   0   2  -1   80.01    4.77
   0   2  -1   81.49    4.76
   0   2  -1   92.59    4.77
   0   2  -1   87.79    4.77
   0   2  -1   74.24    4.76
   0  -2   1   88.28    4.77
   0  -2   1   97.19    4.77
   0  -2   1   80.92    4.77
   0  -2   1   85.14    4.77
   0  -2   1   86.51    4.78
  -1   2  -1  108.76    6.01
  -1   2  -1  116.95    6.03
  -1   2  -1   92.10    6.01
  -1   2  -1  101.90    6.01
  -1   2  -1  115.29    6.00
  -1   2  -1  110.51    6.03
   1  -2   1  116.76    6.02
   1  -2   1  110.57    6.02
   1  -2   1  112.69    6.01
   1  -2   1  117.13    6.02
   1  -2   1  111.02    6.00
   1  -2   1  101.35    6.02
   1  -2   1  101.56    6.02
  -2   2  -1  196.93   11.09
  -2   2  -1  206.46   11.13
  -2   2  -1  195.35   11.13
  -2   2  -1  205.31   11.10
   2  -2   1  209.65   11.09
   2  -2   1  205.27   11.12
   2  -2   1  209.28   11.09
   2  -2   1  185.55   11.12
  -3   2  -1   72.02    3.90
  -3   2  -1   72.59    3.97
  -3   2  -1   72.48    3.95
   3  -2   1   68.16    3.95
   3  -2   1   74.02    3.89
   3  -2   1   62.09    3.92
  -4   2  -1    1.71    0.33
  -4   2  -1    2.37    0.36
  -4   2  -1    2.30    0.30
   4  -2   1    2.63    0.30
   4  -2   1    2.73    0.38
   4  -2   1    2.50    0.44
  -5   2  -1  104.03    6.05
  -5   2  -1  110.90    6.05
   5  -2   1  110.06    6.00
   5  -2   1  104.71    5.93
   5  -2   1  105.49    6.04
  -6   2  -1   18.83    1.39
  -6   2  -1   17.11    1.40
   6  -2   1   19.79    1.28
   6  -2   1   20.28    1.39
   6  -2   1   17.51    1.25
  -7   2  -1   12.62    1.28
  -7   2  -1   12.32    1.32
   7  -2   1   13.66    1.09
   7  -2   1   10.95    1.26
   7  -2   1   12.84    1.23
   7   1  -1    0.62    0.49
   7   1  -1   -0.22    0.47
  -7  -1   1   -0.59    0.56
  -7  -1   1    0.23    0.53
   6   1  -1   20.03    1.33
   6   1  -1   19.16    1.34
  -6  -1   1   20.74    1.39
  -6  -1   1   18.19    1.38
  -6  -1   1   20.05    1.32
   5   1  -1   51.09    3.15
   5   1  -1   56.11    3.19
   5   1  -1   55.27    3.20
   5   1  -1   54.68    3.14
  -5  -1   1   56.00    3.21
  -5  -1   1   60.57    3.22
  -5  -1   1   55.19    3.17
   4   1  -1  242.39   13.27
   4   1  -1  235.90   13.31
   4   1  -1  232.02   13.28
   4   1  -1  240.43   13.31
  -4  -1   1  234.52   13.29
  -4  -1   1  254.48   13.33
  -4  -1   1  241.47   13.27
  -4  -1   1  244.28   13.32
  -4  -1   1  243.29   13.30
   3   1  -1   93.37    5.39
   3   1  -1   91.79    5.37
   3   1  -1   97.73    5.39
  -3  -1   1   94.38    5.39
  -3  -1   1  104.26    5.41
  -3  -1   1   99.84    5.40
  -3  -1   1  100.17    5.39
  -3  -1   1   94.63    5.37
   2   1  -1  416.27   24.37
   2   1  -1  430.72   24.39
   2   1  -1  436.21   24.37
   2   1  -1  450.45   24.39
   2   1  -1  427.59   24.38
  -2  -1   1  481.94   24.40
  -2  -1   1  431.62   24.38
  -2  -1   1  444.36   24.39
  -2  -1   1  448.59   24.38
  -2  -1   1  472.26   24.40
   1   1  -1   32.66    1.69
   1   1  -1   29.38    1.70
   1   1  -1   30.34    1.70
   1   1  -1   27.32    1.69
   1   1  -1   30.85    1.69
   1   1  -1   28.84    1.68
  -1  -1   1   29.10    1.69
  -1  -1   1   28.54    1.68
  -1  -1   1   30.60    1.70
  -1  -1   1   29.24    1.70
  -1  -1   1   28.95    1.69
  -1  -1   1   32.26    1.70
   0   1  -1    5.01    0.29
   0   1  -1    4.42    0.28
   0   1  -1    4.67    0.28
   0   1  -1    3.98    0.27
   0   1  -1    4.25    0.27
   0   1  -1    4.03    0.28
   0  -1   1    4.20    0.28
   0  -1   1    4.79    0.28
   0  -1   1    4.86    0.28
   0  -1   1    5.35    0.28
   0  -1   1    4.30    0.28
   0  -1   1    4.61    0.28
  -1   1  -1  247.01   12.80
  -1   1  -1  235.31   12.81
  -1   1  -1  237.54   12.83
  -1   1  -1  221.75   12.83
  -1   1  -1  244.72   12.82
  -1   1  -1  211.54   12.82
   1  -1   1  244.54   12.80
   1  -1   1  216.08   12.82
   1  -1   1  229.28   12.83
   1  -1   1  242.28   12.82
   1  -1   1  243.24   12.81
   1  -1   1  226.49   12.82
  -2   1  -1  486.78   26.14
  -2   1  -1  483.86   26.12
  -2   1  -1  474.06   26.15
  -2   1  -1  488.91   26.15
  -2   1  -1  491.59   26.11
   2  -1   1  467.35   26.11
   2  -1   1  498.44   26.12
   2  -1   1  450.20   26.13
   2  -1   1  440.89   26.14
  -3   1  -1   -0.31    0.18
  -3   1  -1   -0.07    0.17
  -3   1  -1   -0.08    0.17
  -3   1  -1   -0.03    0.13
   3  -1   1    0.13    0.13
   3  -1   1    0.04    0.12
   3  -1   1    0.04    0.18
   3  -1   1    0.08    0.13
  -4   1  -1   11.44    0.82
  -4   1  -1   11.95    0.76
  -4   1  -1   12.46    0.86
  -4   1  -1   11.58    0.83
   4  -1   1   12.66    0.74
   4  -1   1   11.55    0.78
   4  -1   1   10.99    0.83
  -5   1  -1  171.41    9.65
  -5   1  -1  180.07    9.64
   5  -1   1  170.14    9.64
   5  -1   1  171.19    9.60
   5  -1   1  172.02    9.55
  -6   1  -1   42.97    2.59
  -6   1  -1   42.04    2.58
   6  -1   1   43.69    2.51
   6  -1   1   41.17    2.58
  -7   1  -1   -0.07    0.56
  -7   1  -1   -0.05    0.54
   7  -1   1    0.68    0.56
   7  -1   1   -0.11    0.47
   7  -1   1    0.00    0.50
  -8   1  -1   45.89    3.05
   8  -1   1   45.50    2.99
   8  -1   1   50.73    2.92
   7   0  -1   13.18    1.20
   7   0  -1   13.23    1.21
  -7   0   1   12.91    1.32
  -7   0   1   14.90    1.19
   6   0  -1   12.65    1.01
   6   0  -1   13.34    1.04
   6   0  -1   14.00    1.05
  -6   0   1   12.92    1.02
  -6   0   1   11.80    1.09
  -6   0   1   13.88    1.10
   5   0  -1   95.51    5.25
   5   0  -1   91.42    5.25
   5   0  -1   94.11    5.16
   5   0  -1   91.89    5.20
  -5   0   1   98.10    5.28
  -5   0   1   83.25    5.19
  -5   0   1   96.10    5.27
  -5   0   1   94.35    5.23
   4   0  -1    7.72    0.61
   4   0  -1    8.01    0.65
   4   0  -1    6.98    0.59
   4   0  -1    9.41    0.66
   4   0  -1    8.54    0.56
  -4   0   1    8.44    0.60
  -4   0   1    9.17    0.62
  -4   0   1    9.11    0.66
  -4   0   1    9.16    0.67
   3   0  -1   13.09    0.81
   3   0  -1   13.38    0.83
   3   0  -1   14.14    0.81
   3   0  -1   12.50    0.87
   3   0  -1   13.79    0.86
   3   0  -1   13.26    0.80
  -3   0   1   14.46    0.88
  -3   0   1   14.51    0.88
  -3   0   1   13.65    0.83
  -3   0   1   13.66    0.80
  -3   0   1   14.84    0.85
   2   0  -1  192.30   10.82
   2   0  -1  193.73   10.84
   2   0  -1  194.46   10.82
   2   0  -1  197.10   10.84
   2   0  -1  185.14   10.82
  -2   0   1  207.60   10.84
  -2   0   1  209.80   10.85
  -2   0   1  194.16   10.83
  -2   0   1  213.13   10.85
  -2   0   1  179.99   10.82
   1   0  -1   16.72    0.93
   1   0  -1   15.22    0.91
   1   0  -1   16.61    0.92
   1   0  -1   16.19    0.92
   1   0  -1   16.63    0.91
   1   0  -1   15.99    0.91
  -1   0   1   15.26    0.92
  -1   0   1   15.28    0.91
  -1   0   1   16.85    0.92
  -1   0   1   16.28    0.92
  -1   0   1   16.05    0.91
  -2   0  -1   80.95    4.41
  -2   0  -1   78.38    4.44
  -2   0  -1   80.42    4.43
  -2   0  -1   83.71    4.42
  -2   0  -1   80.80    4.40
  -2   0  -1   79.83    4.43
   2   0   1   77.03    4.40
   2   0   1   79.27    4.41
   2   0   1   77.76    4.43
   2   0   1   82.44    4.41
   2   0   1   72.59    4.43
   2   0   1   76.13    4.41
   2   0   1   77.53    4.42
   2   0   1   89.04    4.41
  -3   0  -1   84.51    4.73
  -3   0  -1   88.21    4.72
  -3   0  -1   88.19    4.69
  -3   0  -1   83.00    4.74
   3   0   1   88.80    4.69
   3   0   1   77.35    4.72
   3   0   1   81.45    4.68
   3   0   1   82.66    4.71
   3   0   1   83.38    4.68
   3   0   1   86.41    4.69
  -4   0  -1   45.39    2.65
  -4   0  -1   48.58    2.59
  -4   0  -1   48.32    2.64
  -4   0  -1   46.56    2.66
  -4   0  -1   44.70    2.58
   4   0   1   44.53    2.57
   4   0   1   44.90    2.62
   4   0   1   46.84    2.59
   4   0   1   43.41    2.64
  -5   0  -1  107.81    5.73
  -5   0  -1  103.59    5.69
  -5   0  -1   95.47    5.65
  -5   0  -1  108.56    5.77
  -5   0  -1  104.59    5.75
   5   0   1   98.22    5.74
   5   0   1  101.85    5.71
   5   0   1   95.36    5.66
  -6   0  -1    4.70    0.74
  -6   0  -1    6.79    0.74
   6   0   1    5.45    0.64
   6   0   1    5.03    0.76
   6   0   1    5.75    0.57
  -7   0  -1    0.66    0.59
  -7   0  -1    1.27    0.52
   7   0   1    0.28    0.49
   7   0   1    1.03    0.54
   7   0   1    0.36    0.44
  -8   0  -1    0.56    0.71
  -8   0  -1    0.70    0.67
   8   0   1    0.25    0.71
   8   0   1    0.09    0.60
   8   0   1    0.11    0.59
   7  -1  -1    3.19    0.64
   7  -1  -1    2.80    0.60
  -7   1   1    2.42    0.64
  -7   1   1    3.26    0.70
  -7   1   1    2.13    0.88
   6  -1  -1   39.22    2.25
   6  -1  -1   35.82    2.35
   6  -1  -1   39.88    2.35
  -6   1   1   39.05    2.40
  -6   1   1   38.25    2.29
  -6   1   1   36.47    2.37
   5  -1  -1   13.90    0.93
   5  -1  -1   14.04    1.02
   5  -1  -1   13.96    1.03
  -5   1   1   13.46    0.98
  -5   1   1   13.61    1.03
  -5   1   1   14.25    1.03
   4  -1  -1   12.07    0.89
   4  -1  -1   12.95    0.88
   4  -1  -1   13.52    0.84
  -4   1   1   12.48    0.89
  -4   1   1   12.80    0.90
  -4   1   1   13.28    0.86
   3  -1  -1    2.67    0.37
   3  -1  -1    3.07    0.28
   3  -1  -1    3.33    0.32
   3  -1  -1    3.34    0.36
  -3   1   1    3.47    0.36
  -3   1   1    3.23    0.29
  -3   1   1    3.38    0.39
  -3   1   1    2.81    0.37
   2  -1  -1  204.58   11.30
   2  -1  -1  202.10   11.27
   2  -1  -1  199.37   11.30
   2  -1  -1  208.16   11.28
  -2   1   1  208.51   11.31
  -2   1   1  210.18   11.29
  -2   1   1  200.62   11.27
  -2   1   1  210.49   11.31
  -2   1   1  200.50   11.29
   1  -1  -1    8.98    0.56
   1  -1  -1    8.80    0.57
   1  -1  -1    9.46    0.58
   1  -1  -1   10.75    0.58
   1  -1  -1    9.01    0.58
   1  -1  -1    9.43    0.55
  -1   1   1    9.07    0.57
  -1   1   1    9.42    0.58
  -1   1   1   10.18    0.56
  -1   1   1    9.25    0.57
  -1   1   1    9.54    0.58
  -1   1   1   10.13    0.56
   0  -1  -1    0.33    0.06
   0  -1  -1    0.37    0.06
   0  -1  -1    0.33    0.05
   0  -1  -1    0.37    0.06
   0  -1  -1    0.24    0.04
   0  -1  -1    0.38    0.07
   0  -1  -1    0.30    0.07
   0   1   1    0.28    0.05
   0   1   1    0.21    0.04
   0   1   1    0.26    0.06
   0   1   1    0.35    0.06
   0   1   1    0.32    0.06
   0   1   1    0.34    0.06
   0   1   1    0.34    0.06
  -1  -1  -1  250.66   13.64
  -1  -1  -1  242.90   13.64
  -1  -1  -1  245.38   13.64
  -1  -1  -1  251.96   13.63
  -1  -1  -1  250.20   13.64
   1   1   1  244.96   13.64
   1   1   1  236.56   13.64
   1   1   1  256.13   13.63
   1   1   1  237.48   13.64
   1   1   1  253.82   13.63
   1   1   1  261.55   13.64
  -2  -1  -1  628.04   33.35
  -2  -1  -1  598.97   33.36
   2   1   1  656.84   33.34
   2   1   1  608.86   33.35
   2   1   1  580.74   33.35
   2   1   1  585.32   33.35
   2   1   1  561.74   33.35
   2   1   1  650.84   33.35
   2   1   1  594.48   33.34
  -3  -1  -1   41.09    2.34
  -3  -1  -1   41.26    2.36
  -3  -1  -1   40.62    2.36
  -3  -1  -1   39.84    2.37
  -3  -1  -1   42.51    2.34
  -3  -1  -1   43.14    2.35
  -3  -1  -1   42.68    2.33
   3   1   1   39.47    2.36
   3   1   1   41.30    2.34
   3   1   1   41.07    2.34
   3   1   1   41.87    2.34
  -4  -1  -1   33.13    1.85
  -4  -1  -1   31.73    1.86
  -4  -1  -1   27.23    1.84
  -4  -1  -1   33.95    1.81
  -4  -1  -1   31.43    1.88
  -4  -1  -1   31.73    1.82
   4   1   1   32.99    1.82
   4   1   1   29.85    1.85
   4   1   1   33.56    1.82
   4   1   1   30.62    1.88
  -5  -1  -1    8.04    0.67
  -5  -1  -1    8.22    0.62
  -5  -1  -1    8.67    0.75
  -5  -1  -1    8.26    0.70
  -5  -1  -1    8.38    0.67
   5   1   1    7.97    0.73
   5   1   1    7.91    0.62
   5   1   1    7.01    0.63
   5   1   1    6.58    0.67
  -6  -1  -1    6.25    0.73
  -6  -1  -1    6.74    0.75
   6   1   1    5.13    0.76
   6   1   1    6.43    0.58
   6   1   1    6.46    0.68
   6   1   1    5.40    0.58
  -7  -1  -1    2.34    0.53
  -7  -1  -1    3.33    0.54
   7   1   1    1.51    0.48
   7   1   1    1.74    0.59
   7   1   1    2.55    0.40
   7   1   1    1.88    0.52
  -8  -1  -1   60.17    3.53
  -8  -1  -1   62.00    3.57
   8   1   1   58.54    3.56
   8   1   1   51.18    3.53
   8   1   1   57.58    3.52
   7  -2  -1   18.54    1.49
   7  -2  -1   18.09    1.48
   7  -2  -1   16.72    1.32
  -7   2   1   17.61    1.56
  -7   2   1   19.27    1.94
   6  -2  -1    5.46    0.84
   6  -2  -1    6.64    0.85
   6  -2  -1    7.21    0.72
  -6   2   1    7.27    0.89
  -6   2   1    7.49    0.80
  -6   2   1    6.30    0.94
   5  -2  -1  237.87   12.48
   5  -2  -1  224.38   12.53
   5  -2  -1  217.62   12.53
  -5   2   1  219.11   12.55
  -5   2   1  231.19   12.50
  -5   2   1  223.64   12.55
   4  -2  -1   17.17    1.01
   4  -2  -1   16.86    1.08
   4  -2  -1   15.18    1.08
  -4   2   1   16.47    1.04
  -4   2   1   15.12    1.09
  -4   2   1   15.75    1.10
   3  -2  -1    0.02    0.17
   3  -2  -1    0.15    0.17
   3  -2  -1    0.22    0.17
  -3   2   1    0.04    0.20
  -3   2   1    0.00    0.18
  -3   2   1   -0.14    0.18
   2  -2  -1    5.55    0.37
   2  -2  -1    3.98    0.39
   2  -2  -1    4.67    0.39
  -2   2   1    4.27    0.41
  -2   2   1    4.64    0.37
  -2   2   1    4.45    0.40
   1  -2  -1   18.04    1.03
   1  -2  -1   16.61    1.04
   1  -2  -1   16.44    1.05
   1  -2  -1   20.85    1.05
  -1   2   1   18.28    1.06
  -1   2   1   17.80    1.05
  -1   2   1   18.24    1.04
  -1   2   1   18.17    1.04
  -1   2   1   18.36    1.03
  -2  -2  -1   -0.09    0.12
  -2  -2  -1   -0.30    0.13
  -2  -2  -1    0.08    0.13
  -2  -2  -1    0.00    0.10
  -2  -2  -1   -0.17    0.10
  -2  -2  -1   -0.01    0.09
   2   2   1   -0.08    0.10
   2   2   1   -0.04    0.10
   2   2   1   -0.17    0.12
   2   2   1   -0.14    0.12
   2   2   1    0.00    0.12
   2   2   1    0.00    0.09
   2   2   1   -0.15    0.09
   2   2   1   -0.05    0.08
  -3  -2  -1  120.57    6.75
  -3  -2  -1  112.95    6.76
  -3  -2  -1  123.39    6.76
  -3  -2  -1  126.36    6.74
  -3  -2  -1  118.08    6.75
  -3  -2  -1  129.84    6.74
  -3  -2  -1  118.24    6.76
   3   2   1  122.02    6.75
   3   2   1  125.02    6.74
   3   2   1  121.59    6.73
  -4  -2  -1    5.08    0.47
  -4  -2  -1    4.69    0.49
  -4  -2  -1    4.91    0.54
  -4  -2  -1    5.43    0.43
  -4  -2  -1    5.99    0.53
  -4  -2  -1    5.24    0.48
  -4  -2  -1    4.18    0.45
   4   2   1    5.66    0.45
   4   2   1    5.05    0.50
   4   2   1    4.94    0.47
  -5  -2  -1  129.28    7.19
  -5  -2  -1  128.44    7.21
  -5  -2  -1  137.80    7.18
  -5  -2  -1  125.61    7.19
   5   2   1  129.91    7.16
   5   2   1  130.12    7.14
   5   2   1  120.13    7.19
   5   2   1  132.71    7.16
   5   2   1  124.46    7.18
  -6  -2  -1    3.67    0.51
  -6  -2  -1    4.42    0.66
  -6  -2  -1    4.51    0.76
   6   2   1    3.84    0.56
   6   2   1    4.35    0.63
   6   2   1    3.77    0.55
   6   2   1    5.45    0.66
   6   2   1    4.39    0.59
   6   2   1    4.54    0.69
  -7  -2  -1    2.81    0.50
  -7  -2  -1    1.89    0.50
   7   2   1    2.50    0.47
   7   2   1    2.39    0.44
   7   2   1    1.58    0.42
   7   2   1    2.17    0.48
   7   2   1    2.19    0.57
   7   2   1    1.74    0.48
   7   2   1    2.05    0.43
  -8  -2  -1    5.46    0.77
  -8  -2  -1    3.74    0.71
   8   2   1    5.68    0.95
   8   2   1    6.10    1.14
   8   2   1    3.70    0.65
   8   2   1    3.82    0.69
   7  -3  -1    2.60    0.60
   7  -3  -1    3.35    0.97
  -7   3   1    2.17    0.76
  -7   3   1    2.75    0.69
  -7   3   1    1.63    0.85
   6  -3  -1   13.57    1.16
   6  -3  -1   13.92    1.02
   6  -3  -1   12.79    1.20
  -6   3   1   11.81    1.09
  -6   3   1   11.62    1.26
  -6   3   1   14.32    1.22
   5  -3  -1   12.29    1.01
   5  -3  -1   11.74    0.99
   5  -3  -1   12.00    0.88
  -5   3   1   11.84    1.00
  -5   3   1   11.49    0.93
  -5   3   1   11.14    1.04
   4  -3  -1   28.56    1.62
   4  -3  -1   26.28    1.69
   4  -3  -1   27.46    1.68
  -4   3   1   27.66    1.64
  -4   3   1   25.67    1.70
  -4   3   1   27.18    1.70
   3  -3  -1    3.16    0.37
   3  -3  -1    2.09    0.41
   3  -3  -1    2.63    0.39
  -3   3   1    2.61    0.36
  -3   3   1    2.09    0.33
  -3   3   1    2.50    0.44
   2  -3  -1  158.87    7.75
   2  -3  -1  134.50    7.75
  -2   3   1  121.56    7.75
  -2   3   1  145.47    7.73
  -2   3   1  138.88    7.76
   1  -3  -1   16.63    0.98
   1  -3  -1   17.31    1.06
   1  -3  -1   16.28    1.00
   1  -3  -1   16.49    0.99
  -1   3   1   17.09    1.02
  -1   3   1   17.58    1.03
  -1   3   1   17.61    0.99
  -1   3   1   17.91    1.01
   0  -3  -1    2.43    0.24
   0  -3  -1    2.35    0.23
   0   3   1    2.02    0.22
   0   3   1    2.50    0.26
   0   3   1    1.61    0.26
   0   3   1    2.17    0.21
   0   3   1    2.78    0.26
  -1  -3  -1  437.35   25.18
  -1  -3  -1  417.48   25.20
  -1  -3  -1  513.09   25.21
  -1  -3  -1  421.67   25.21
   1   3   1  494.59   25.19
   1   3   1  460.59   25.21
   1   3   1  467.57   25.20
  -2  -3  -1  132.12    7.30
  -2  -3  -1  128.65    7.26
  -2  -3  -1  130.54    7.29
  -2  -3  -1  123.97    7.28
  -2  -3  -1  127.18    7.28
   2   3   1  137.19    7.27
   2   3   1  140.46    7.26
   2   3   1  129.06    7.29
   2   3   1  136.80    7.27
  -3  -3  -1   11.90    0.79
  -3  -3  -1   11.56    0.80
  -3  -3  -1   11.76    0.78
  -3  -3  -1   12.34    0.81
  -3  -3  -1   11.79    0.76
   3   3   1   11.87    0.77
   3   3   1   12.70    0.81
   3   3   1   13.41    0.75
   3   3   1   13.10    0.76
  -4  -3  -1   14.64    1.02
  -4  -3  -1   14.84    1.01
  -4  -3  -1   15.10    0.96
  -4  -3  -1   14.90    0.98
  -4  -3  -1   15.58    0.96
   4   3   1   15.22    0.94
   4   3   1   14.47    0.97
   4   3   1   16.10    0.95
  -5  -3  -1  109.07    6.48
  -5  -3  -1  112.27    6.46
  -5  -3  -1  116.50    6.43
  -5  -3  -1  111.86    6.48
  -5  -3  -1  115.10    6.47
   5   3   1  115.76    6.46
   5   3   1  121.09    6.43
   5   3   1  116.43    6.45
   5   3   1  121.73    6.44
   5   3   1  115.90    6.45
  -6  -3  -1    0.86    0.45
  -6  -3  -1    1.44    0.36
  -6  -3  -1    1.77    0.35
  -6  -3  -1    1.21    0.35
  -6  -3  -1    2.21    0.44
  -6  -3  -1    1.49    0.41
  -6  -3  -1    2.41    0.37
   6   3   1    1.47    0.43
   6   3   1    2.04    0.41
   6   3   1    2.03    0.35
   6   3   1    1.28    0.37
   6   3   1    1.36    0.37
   6   3   1    1.47    0.43
   6   3   1    1.67    0.37
  -7  -3  -1    8.55    1.22
  -7  -3  -1    5.41    0.80
  -7  -3  -1    7.53    0.86
   7   3   1    6.91    0.94
   7   3   1    6.33    0.82
   7   3   1    5.97    0.77
   7   3   1    6.83    0.88
   7   3   1    6.95    0.74
   7   3   1    4.53    0.80
   7   3   1    6.20    0.78
  -8  -3  -1   24.14    2.09
  -8  -3  -1   30.17    1.92
   8   3   1   24.32    1.94
   8   3   1   27.30    1.84
   8   3   1   26.66    1.80
   8   3   1   26.20    1.78
   8   3   1   25.49    1.94
   8   3   1   25.45    1.74
   6  -4  -1    0.25    0.57
   6  -4  -1    0.58    0.57
   6  -4  -1   -0.49    0.46
  -6   4   1    0.59    0.63
  -6   4   1    0.43    0.60
  -6   4   1    0.56    0.57
   5  -4  -1   20.52    1.50
   5  -4  -1   20.84    1.37
   5  -4  -1   21.05    1.46
  -5   4   1   21.94    1.39
  -5   4   1   20.18    1.52
  -5   4   1   19.57    1.54
   4  -4  -1    0.06    0.36
   4  -4  -1   -0.07    0.29
   4  -4  -1   -0.01    0.32
  -4   4   1    0.39    0.32
  -4   4   1    0.47    0.34
  -4   4   1    0.95    0.39
   3  -4  -1    7.94    0.67
   3  -4  -1    8.02    0.62
   3  -4  -1    6.63    0.65
  -3   4   1    7.41    0.69
  -3   4   1    6.95    0.59
  -3   4   1    6.89    0.67
   2  -4  -1   24.35    1.32
   2  -4  -1   19.81    1.32
  -2   4   1   22.61    1.30
  -2   4   1   22.30    1.34
  -2   4   1   19.66    1.34
  -2   4   1   22.43    1.31
   1  -4  -1   77.80    4.38
   1  -4  -1   88.36    4.41
   1  -4  -1   80.98    4.41
   1  -4  -1   74.49    4.40
  -1   4   1   72.66    4.40
  -1   4   1   82.53    4.43
  -1   4   1   78.61    4.41
  -1   4   1   77.24    4.39
   0  -4  -1  135.79    7.94
   0   4   1  150.66    7.95
   0   4   1  146.42    7.95
   0   4   1  143.07    7.95
  -1  -4  -1  108.79    5.29
  -1  -4  -1   85.71    5.28
  -1  -4  -1  100.17    5.30
   1   4   1   94.22    5.28
   1   4   1   93.61    5.28
   1   4   1   89.36    5.29
  -2  -4  -1   59.41    3.31
  -2  -4  -1   55.79    3.29
  -2  -4  -1   54.45    3.29
   2   4   1   59.91    3.29
   2   4   1   64.71    3.28
   2   4   1   58.21    3.31
  -3  -4  -1   21.49    1.35
  -3  -4  -1   21.09    1.36
  -3  -4  -1   22.68    1.38
  -3  -4  -1   21.94    1.38
   3   4   1   24.30    1.35
   3   4   1   23.03    1.38
   3   4   1   25.38    1.33
  -4  -4  -1    0.72    0.32
  -4  -4  -1    0.83    0.27
  -4  -4  -1    0.88    0.24
  -4  -4  -1    0.63    0.21
  -4  -4  -1    0.86    0.28
   4   4   1    1.01    0.21
   4   4   1    0.86    0.27
   4   4   1    0.92    0.24
   4   4   1    1.03    0.24
  -5  -4  -1   53.68    3.71
  -5  -4  -1   58.29    3.53
  -5  -4  -1   65.52    3.52
  -5  -4  -1   60.72    3.53
  -5  -4  -1   61.69    3.51
   5   4   1   62.05    3.48
   5   4   1   61.42    3.48
   5   4   1   66.16    3.48
   5   4   1   62.90    3.53
  -6  -4  -1    0.09    0.39
  -6  -4  -1    0.02    0.36
  -6  -4  -1   -0.22    0.40
   6   4   1    0.61    0.37
   6   4   1    0.05    0.30
   6   4   1   -0.33    0.32
   6   4   1   -0.61    0.38
   6   4   1    0.16    0.40
   6   4   1    0.24    0.33
   6   4   1    0.46    0.38
  -7  -4  -1    8.10    0.84
   7   4   1    6.55    0.77
   7   4   1    5.94    0.74
   7   4   1    5.73    0.93
   7   4   1    5.88    0.93
   7   4   1    6.60    0.81
   7   4   1    6.11    0.87
   7   4   1    6.38    0.84
   8   4   1   29.04    2.12
   8   4   1   32.09    2.03
   8   4   1   32.34    1.98
   8   4   1   29.64    2.05
   8   4   1   31.16    1.97
   8   4   1   29.94    2.03
   8   4   1   26.87    2.11
   6  -5  -1   16.28    1.42
   6  -5  -1   16.91    1.35
   6  -5  -1   17.43    1.55
  -6   5   1   17.88    1.60
  -6   5   1   14.97    1.44
   5  -5  -1   46.49    2.72
   5  -5  -1   42.20    2.74
   5  -5  -1   45.73    2.65
  -5   5   1   40.96    2.77
  -5   5   1   44.05    2.76
  -5   5   1   46.19    2.66
   4  -5  -1   39.41    2.28
   4  -5  -1   37.06    2.34
   4  -5  -1   39.17    2.32
  -4   5   1   40.05    2.37
  -4   5   1   38.07    2.29
  -4   5   1   36.81    2.36
   3  -5  -1    0.10    0.31
   3  -5  -1   -0.41    0.30
   3  -5  -1   -0.18    0.29
  -3   5   1   -0.04    0.27
  -3   5   1   -0.41    0.29
  -3   5   1   -0.36    0.33
   2  -5  -1   71.28    3.71
   2  -5  -1   63.79    3.66
   2  -5  -1   60.64    3.71
   2  -5  -1   68.54    3.71
  -2   5   1   64.51    3.74
  -2   5   1   63.41    3.69
  -2   5   1   67.30    3.73
   1  -5  -1    0.10    0.25
   1  -5  -1    0.45    0.19
   1  -5  -1    0.29    0.19
   1  -5  -1    0.66    0.26
  -1   5   1    0.37    0.21
  -1   5   1    0.23    0.25
  -1   5   1    0.42    0.19
  -1   5   1    0.41    0.20
   0  -5  -1  886.77   42.62
   0  -5  -1  807.87   42.63
   0  -5  -1  706.88   42.61
   0   5   1  766.75   42.62
   0   5   1  746.37   42.62
   0   5   1  742.42   42.62
  -1  -5  -1  767.20   39.93
  -1  -5  -1  759.18   39.95
  -1  -5  -1  692.35   39.93
   1   5   1  722.33   39.92
   1   5   1  728.22   39.95
   1   5   1  693.95   39.93
  -2  -5  -1   44.59    2.70
  -2  -5  -1   42.03    2.69
  -2  -5  -1   49.50    2.72
   2   5   1   48.71    2.72
   2   5   1   48.36    2.69
   2   5   1   52.38    2.69
  -3  -5  -1   21.83    1.49
  -3  -5  -1   24.88    1.51
  -3  -5  -1   23.79    1.49
  -3  -5  -1   25.48    1.53
   3   5   1   25.24    1.48
   3   5   1   25.87    1.53
   3   5   1   28.11    1.48
  -4  -5  -1   -0.04    0.26
  -4  -5  -1   -0.27    0.32
  -4  -5  -1   -0.29    0.29
  -4  -5  -1   -0.23    0.24
   4   5   1   -0.37    0.28
   4   5   1   -0.38    0.22
   4   5   1    0.22    0.25
  -5  -5  -1   13.71    0.99
  -5  -5  -1   11.72    0.98
  -5  -5  -1   11.94    0.94
   5   5   1   11.99    0.99
   5   5   1   13.03    0.89
   5   5   1   12.42    0.87
   5   5   1   13.58    0.87
  -6  -5  -1   68.31    4.13
  -6  -5  -1   70.27    4.11
  -6  -5  -1   70.04    4.13
   6   5   1   74.95    4.08
   6   5   1   71.84    4.06
   6   5   1   70.33    4.14
   6   5   1   72.35    4.12
   6   5   1   74.73    4.06
  -7  -5  -1    3.52    0.57
   7   5   1    3.53    0.59
   7   5   1    2.56    0.59
   7   5   1    2.36    0.60
   7   5   1    2.90    0.56
   7   5   1    4.49    0.67
   7   5   1    2.93    0.70
   5  -6  -1   -0.18    0.55
   5  -6  -1    0.72    0.62
   5  -6  -1   -0.56    0.59
  -5   6   1   -0.37    0.63
  -5   6   1   -0.36    0.58
  -5   6   1    0.84    0.68
   4  -6  -1    0.10    0.48
   4  -6  -1    0.78    0.49
   4  -6  -1    0.52    0.48
  -4   6   1    0.92    0.51
  -4   6   1    0.98    0.56
  -4   6   1    1.00    0.45
   3  -6  -1    2.71    0.46
   3  -6  -1    2.57    0.48
  -3   6   1    3.71    0.45
  -3   6   1    2.29    0.51
  -3   6   1    2.70    0.46
   2  -6  -1    8.13    0.69
   2  -6  -1    7.50    0.64
   2  -6  -1    7.83    0.70
  -2   6   1    6.65    0.65
  -2   6   1    7.08    0.71
  -2   6   1    7.69    0.74
   1  -6  -1    9.29    0.73
   1  -6  -1    9.85    0.70
   1  -6  -1    9.19    0.74
   1  -6  -1    9.55    0.67
  -1   6   1    9.00    0.72
  -1   6   1    8.31    0.69
  -1   6   1    8.89    0.67
  -1   6   1    8.17    0.75
   0  -6  -1    9.39    0.72
   0  -6  -1    8.26    0.68
   0  -6  -1    7.55    0.61
   0   6   1    7.59    0.63
   0   6   1    7.03    0.65
   0   6   1    7.51    0.66
  -1  -6  -1   33.56    1.99
  -1  -6  -1   34.37    2.02
   1   6   1   34.94    1.99
   1   6   1   33.54    2.00
   1   6   1   34.51    2.01
  -2  -6  -1   32.92    1.96
  -2  -6  -1   31.94    1.94
  -2  -6  -1   30.38    1.92
   2   6   1   33.75    1.93
   2   6   1   33.70    1.97
   2   6   1   35.78    1.94
  -3  -6  -1    7.41    0.68
  -3  -6  -1    7.07    0.64
  -3  -6  -1    6.87    0.64
   3   6   1    8.11    0.65
   3   6   1    7.59    0.61
   3   6   1    7.49    0.70
  -4  -6  -1   24.54    1.58
  -4  -6  -1   24.91    1.55
   4   6   1   24.45    1.52
   4   6   1   25.79    1.49
   4   6   1   24.45    1.59
  -5  -6  -1   14.60    1.10
  -5  -6  -1   14.34    1.08
   5   6   1   14.29    0.99
   5   6   1   14.27    1.11
   5   6   1   15.02    1.02
  -6  -6  -1   -0.04    0.62
  -6  -6  -1    0.39    0.47
  -6  -6  -1    0.51    0.47
   6   6   1    0.27    0.49
   6   6   1    0.57    0.40
   6   6   1    0.42    0.36
  -7  -6  -1    0.62    0.57
   7   6   1   -0.10    0.43
   7   6   1    0.73    0.50
   7   6   1    1.04    0.62
   7   6   1   -0.39    0.60
   5  -7  -1   34.21    2.28
   5  -7  -1   30.02    2.21
   5  -7  -1   30.99    2.15
  -5   7   1   33.56    2.33
  -5   7   1   34.12    2.19
   4  -7  -1   17.73    1.49
   4  -7  -1   16.32    1.42
  -4   7   1   21.09    1.60
  -4   7   1   22.70    1.62
  -4   7   1   20.17    1.44
   3  -7  -1    3.96    0.58
   3  -7  -1    3.68    0.59
  -3   7   1    4.49    0.57
  -3   7   1    5.67    0.95
  -3   7   1    3.97    0.58
   2  -7  -1   10.73    0.95
   2  -7  -1   12.94    0.96
  -2   7   1   11.14    0.92
  -2   7   1   12.46    1.02
  -2   7   1   12.54    0.96
   1  -7  -1   22.02    1.44
   1  -7  -1   21.86    1.44
   1  -7  -1   24.03    1.41
   1  -7  -1   21.55    1.38
  -1   7   1   22.51    1.41
  -1   7   1   23.61    1.47
   0  -7  -1  337.91   18.74
   0  -7  -1  321.38   18.74
   0  -7  -1  348.51   18.73
   0   7   1  346.92   18.73
   0   7   1  343.82   18.74
  -1  -7  -1  192.44   11.33
  -1  -7  -1  211.56   11.34
  -1  -7  -1  204.31   11.35
   1   7   1  207.81   11.33
   1   7   1  207.35   11.35
   1   7   1  204.92   11.33
  -2  -7  -1   27.28    1.72
  -2  -7  -1   27.03    1.68
   2   7   1   28.73    1.67
   2   7   1   26.48    1.66
   2   7   1   28.15    1.72
  -3  -7  -1   38.69    2.32
  -3  -7  -1   39.26    2.35
   3   7   1   39.43    2.29
   3   7   1   37.92    2.29
   3   7   1   40.72    2.36
  -4  -7  -1    7.43    0.80
  -4  -7  -1    6.57    0.71
   4   7   1    6.11    0.65
   4   7   1    4.31    0.76
   4   7   1    5.76    0.64
  -5  -7  -1   24.86    1.64
  -5  -7  -1   21.80    1.61
   5   7   1   24.08    1.68
   5   7   1   25.66    1.54
   5   7   1   25.44    1.57
  -6  -7  -1   47.47    3.13
  -6  -7  -1   53.00    3.13
   6   7   1   51.87    3.04
   6   7   1   54.83    3.16
  -7  -7  -1    5.21    0.81
  -7  -7  -1    3.24    0.79
   7   7   1    4.80    0.81
   7   7   1    4.36    0.65
   7   7   1    3.26    0.79
   4  -8  -1   15.07    1.45
   4  -8  -1   16.71    1.40
  -4   8   1   17.58    1.41
   3  -8  -1    0.59    0.65
   3  -8  -1    0.91    0.58
   3  -8  -1    1.17    0.59
  -3   8   1    2.03    0.60
  -3   8   1    2.30    0.72
   2  -8  -1    6.10    0.84
  -2   8   1    8.69    1.02
  -2   8   1    6.11    0.82
   1  -8  -1    5.10    0.80
   1  -8  -1    5.02    0.77
  -1   8   1    4.33    0.69
  -1   8   1    5.50    0.81
   0  -8  -1   30.30    2.12
   0  -8  -1   33.35    2.14
   0  -8  -1   38.31    2.13
   0   8   1   35.76    2.11
   0   8   1   35.89    2.12
   0   8   1   36.79    2.15
  -1  -8  -1   59.54    3.51
  -1  -8  -1   63.97    3.51
   1   8   1   57.33    3.47
   1   8   1   60.75    3.50
   1   8   1   61.43    3.49
  -2  -8  -1   10.72    0.87
  -2  -8  -1    8.31    0.92
   2   8   1   10.41    0.91
   2   8   1    9.56    0.85
   2   8   1    9.90    0.83
  -3  -8  -1    1.30    0.43
  -3  -8  -1    1.64    0.50
   3   8   1    1.47    0.40
   3   8   1    1.30    0.42
   3   8   1    1.26    0.50
  -4  -8  -1   -0.33    0.45
  -4  -8  -1    0.22    0.50
   4   8   1   -0.66    0.40
   4   8   1   -0.32    0.43
  -5  -8  -1    0.48    0.57
  -5  -8  -1    1.22    0.54
   5   8   1    0.29    0.57
   5   8   1    0.70    0.49
  -6  -8  -1   23.45    1.88
  -6  -8  -1   27.12    1.90
   6   8   1   28.74    2.08
   6   8   1   27.00    1.78
   3  -9  -1    3.05    0.68
  -3   9   1    3.77    0.87
  -3   9   1    3.03    0.74
   2  -9  -1    1.59    0.64
   2  -9  -1    1.74    0.62
  -2   9   1    3.02    0.64
  -2   9   1    2.34    0.75
   1  -9  -1   29.68    2.10
   1  -9  -1   36.84    2.09
  -1   9   1   31.45    2.08
  -1   9   1   34.28    2.18
   0  -9  -1   17.57    1.42
   0  -9  -1   21.53    1.42
   0   9   1   19.97    1.42
   0   9   1   18.40    1.38
  -1  -9  -1    3.51    0.62
  -1  -9  -1    2.70    0.56
   1   9   1    2.82    0.51
   1   9   1    2.55    0.55
   1   9   1    2.17    0.52
  -2  -9  -1    2.42    0.56
  -2  -9  -1    2.48    0.60
   2   9   1    1.37    0.52
   2   9   1    1.69    0.50
   2   9   1    1.68    0.49
  -3  -9  -1   23.86    1.85
  -3  -9  -1   30.81    1.85
   3   9   1   27.68    1.77
   3   9   1   27.69    1.75
   3   9   1   26.48    1.86
  -4  -9  -1    0.79    0.62
  -4  -9  -1    0.03    0.57
   4   9   1   -0.92    0.55
   4   9   1   -0.16    0.61
  -5  -9  -1    5.96    0.88
  -5  -9  -1    8.56    1.10
   5   9   1    7.76    0.99
   5   9   1    6.77    0.91
   1 -10  -1    4.46    0.78
  -1  10   1    4.31    0.75
  -1  10   1    4.47    0.82
   0 -10  -1  143.30    7.44
   0 -10  -1  117.78    7.41
   0  10   1  132.13    7.42
   0  10   1  130.86    7.39
  -1 -10  -1   54.35    3.08
  -1 -10  -1   48.53    3.07
   1  10   1   50.72    3.04
   1  10   1   45.96    2.99
  -2 -10  -1   10.94    1.22
   2  10   1   10.04    1.04
   2  10   1    8.54    1.17
   2  10   1    9.76    1.08
  -3 -10  -1    0.25    0.63
  -3 -10  -1    0.76    0.72
   3  10   1    0.60    0.60
   3  10   1    0.59    0.65
   3  10   1    0.39    0.72
  -4 -10  -1    1.18    0.75
  -4 -10  -1    1.31    1.10
   4  10   1    1.28    0.68
   4  10   1   -0.38    0.72
   3  10  -2    1.07    0.81
   3  10  -2    2.53    0.71
  -3 -10   2    3.04    0.83
  -3 -10   2    1.91    0.75
  -3 -10   2    3.06    0.74
   2  10  -2   47.74    3.02
   2  10  -2   47.64    2.99
   2  10  -2   52.59    3.09
  -2 -10   2   43.24    3.03
  -2 -10   2   55.26    3.07
   1  10  -2   14.58    1.34
   1  10  -2   13.04    1.21
  -1 -10   2   12.01    1.31
   0  10  -2   13.10    1.31
   0  10  -2   12.91    1.18
   0 -10   2   11.76    1.26
  -1  10  -2    1.01    0.64
  -1  10  -2    1.88    0.77
   1 -10   2    2.65    0.71
   1 -10   2    1.21    0.68
  -2  10  -2   12.65    1.23
   4   9  -2    6.55    0.98
   4   9  -2    4.39    0.76
   4   9  -2    7.61    1.17
  -4  -9   2    5.82    0.86
  -4  -9   2    6.46    1.07
   3   9  -2    4.35    0.76
   3   9  -2    4.45    0.65
   3   9  -2    4.60    0.68
  -3  -9   2    3.83    0.72
  -3  -9   2    3.02    0.77
   2   9  -2   16.89    1.30
   2   9  -2   14.02    1.24
   2   9  -2   14.81    1.18
  -2  -9   2   15.83    1.25
  -2  -9   2   12.43    1.25
  -2  -9   2   14.50    1.34
   1   9  -2    6.14    0.92
   1   9  -2    5.74    0.81
   1   9  -2    6.07    0.89
  -1  -9   2    4.94    0.74
  -1  -9   2    5.41    0.85
   0   9  -2   35.38    2.18
   0   9  -2   35.67    2.26
   0  -9   2   40.01    2.22
   0  -9   2   30.99    2.22
  -1   9  -2    3.20    0.57
  -1   9  -2    0.60    0.60
   1  -9   2    1.83    0.56
   1  -9   2    3.05    0.63
  -2   9  -2   48.68    2.97
  -2   9  -2   48.29    2.83
   2  -9   2   51.83    2.87
   2  -9   2   41.66    2.87
  -3   9  -2    1.46    0.60
  -3   9  -2    0.95    0.75
   3  -9   2    1.67    0.61
   3  -9   2    0.93    0.64
   5   8  -2    0.37    0.53
   5   8  -2    0.23    0.73
   5   8  -2    0.44    0.53
  -5  -8   2    0.26    0.67
  -5  -8   2    0.54    0.61
   4   8  -2    9.16    0.96
   4   8  -2    8.51    0.92
   4   8  -2    8.47    1.13
  -4  -8   2    9.31    1.13
  -4  -8   2    8.91    1.03
   3   8  -2    8.51    0.84
   3   8  -2    7.72    0.88
   3   8  -2    8.67    1.07
  -3  -8   2    9.42    0.95
  -3  -8   2    9.41    1.07
   2   8  -2    1.29    0.42
   2   8  -2    0.37    0.46
   2   8  -2    1.00    0.48
  -2  -8   2    0.75    0.44
  -2  -8   2    0.89    0.47
  -2  -8   2    0.81    0.49
   1   8  -2    4.44    0.65
   1   8  -2    4.89    0.72
   1   8  -2    5.17    0.74
  -1  -8   2    5.09    0.63
  -1  -8   2    4.69    0.57
  -1  -8   2    4.84    0.74
   0   8  -2    6.37    0.74
   0   8  -2    7.16    0.77
   0   8  -2    7.83    0.82
   0  -8   2    6.72    0.81
   0  -8   2    7.87    0.78
  -1   8  -2   23.50    1.60
  -1   8  -2   24.51    1.52
   1  -8   2   26.07    1.54
   1  -8   2   20.92    1.56
  -2   8  -2    1.76    0.43
  -2   8  -2    1.18    0.54
  -2   8  -2    1.89    0.50
   2  -8   2    0.26    0.51
   2  -8   2    1.35    0.46
  -3   8  -2    8.31    1.08
  -3   8  -2    9.34    0.90
  -3   8  -2    7.95    1.02
   3  -8   2    7.43    0.83
   3  -8   2    5.46    0.97
  -4   8  -2    2.12    0.68
   4  -8   2    2.85    0.69
   4  -8   2    2.93    0.67
   6   7  -2   18.04    1.42
   6   7  -2   18.54    1.38
   6   7  -2   18.93    1.64
  -6  -7   2   19.93    1.50
  -6  -7   2   16.93    1.59
   5   7  -2   26.59    1.77
   5   7  -2   27.37    1.79
   5   7  -2   27.67    1.92
  -5  -7   2   26.63    1.91
  -5  -7   2   28.76    1.83
   4   7  -2  106.86    5.85
   4   7  -2  102.16    5.85
  -4  -7   2  103.40    5.89
  -4  -7   2  102.41    5.93
   3   7  -2   12.71    0.96
   3   7  -2   11.43    0.94
  -3  -7   2   12.27    1.07
  -3  -7   2   13.64    1.00
   2   7  -2  159.04    9.06
   2   7  -2  166.06    9.08
  -2  -7   2  159.95    9.08
  -2  -7   2  170.95    9.13
  -2  -7   2  159.90    9.07
   1   7  -2    2.77    0.48
   1   7  -2    2.89    0.46
   1   7  -2    2.69    0.40
  -1  -7   2    4.32    0.54
  -1  -7   2    3.39    0.61
  -1  -7   2    3.44    0.50
   0   7  -2   19.12    1.30
   0   7  -2   20.13    1.25
   0  -7   2   18.09    1.28
   0  -7   2   19.78    1.26
   0  -7   2   20.45    1.32
  -1   7  -2   25.41    1.62
  -1   7  -2   25.05    1.59
  -1   7  -2   26.12    1.55
   1  -7   2   25.71    1.55
   1  -7   2   24.61    1.59
  -2   7  -2   72.86    4.35
  -2   7  -2   77.77    4.28
  -2   7  -2   73.19    4.32
   2  -7   2   78.73    4.28
   2  -7   2   72.61    4.30
   2  -7   2   79.45    4.31
  -3   7  -2   22.75    1.60
  -3   7  -2   23.14    1.55
  -3   7  -2   22.98    1.42
   3  -7   2   22.22    1.50
   3  -7   2   20.96    1.50
   3  -7   2   21.95    1.42
  -4   7  -2   54.32    3.20
  -4   7  -2   52.04    3.20
  -4   7  -2   50.19    3.09
   4  -7   2   52.91    3.13
   4  -7   2   52.82    3.12
  -5   7  -2    3.24    1.15
  -5   7  -2    3.41    0.78
   5  -7   2    3.38    0.69
   5  -7   2    3.21    0.75
   6   6  -2   -0.11    0.43
   6   6  -2    0.30    0.52
   6   6  -2    0.07    0.68
  -6  -6   2   -0.54    0.58
  -6  -6   2    0.17    0.48
   5   6  -2   -0.68    0.40
   5   6  -2   -0.13    0.35
  -5  -6   2    0.19    0.48
  -5  -6   2    0.58    0.40
   4   6  -2   15.79    1.12
   4   6  -2   16.41    1.10
   4   6  -2   16.51    1.07
  -4  -6   2   16.12    1.17
  -4  -6   2   15.66    1.22
   3   6  -2   23.15    1.38
   3   6  -2   21.51    1.37
  -3  -6   2   21.85    1.39
  -3  -6   2   20.08    1.43
   2   6  -2    0.45    0.28
   2   6  -2    0.81    0.31
  -2  -6   2    0.39    0.31
  -2  -6   2    0.29    0.29
  -2  -6   2    0.52    0.31
   1   6  -2   58.60    3.44
   1   6  -2   62.52    3.46
  -1  -6   2   58.16    3.44
  -1  -6   2   61.99    3.45
  -1  -6   2   62.75    3.49
   0   6  -2   21.36    1.44
   0   6  -2   23.94    1.41
   0   6  -2   23.30    1.46
   0  -6   2   23.59    1.43
   0  -6   2   25.71    1.48
   0  -6   2   23.39    1.44
  -1   6  -2    7.66    0.69
  -1   6  -2    7.47    0.61
  -1   6  -2    7.55    0.70
  -1   6  -2    8.32    0.65
   1  -6   2    8.26    0.74
   1  -6   2    7.54    0.64
   1  -6   2    6.83    0.68
  -2   6  -2   49.62    3.00
  -2   6  -2   50.15    2.99
  -2   6  -2   50.70    3.01
   2  -6   2   53.54    2.97
   2  -6   2   54.20    2.95
  -3   6  -2    0.19    0.38
  -3   6  -2    0.02    0.37
   3  -6   2   -0.51    0.36
   3  -6   2   -0.26    0.30
   3  -6   2   -0.29    0.34
  -4   6  -2    0.54    0.56
  -4   6  -2    0.02    0.47
   4  -6   2    0.68    0.47
   4  -6   2    0.17    0.43
   4  -6   2    1.57    0.37
  -5   6  -2    1.45    0.63
  -5   6  -2    0.74    0.61
   5  -6   2    1.70    0.56
   5  -6   2    1.25    0.59
  -6   6  -2   -0.45    0.76
  -6   6  -2    2.06    0.76
   6  -6   2   -0.66    0.61
   6  -6   2   -0.66    0.72
   7   5  -2   -0.27    0.58
   7   5  -2    0.57    0.73
   7   5  -2    0.87    0.50
   7   5  -2    0.50    0.42
  -7  -5   2    0.69    0.61
  -7  -5   2    1.62    0.67
   6   5  -2    0.90    0.34
   6   5  -2    1.68    0.43
   6   5  -2    0.05    0.48
  -6  -5   2    0.61    0.49
  -6  -5   2    0.40    0.51
   5   5  -2   21.80    1.46
   5   5  -2   24.01    1.39
   5   5  -2   22.59    1.44
  -5  -5   2   21.92    1.52
  -5  -5   2   21.57    1.47
   4   5  -2  147.31    7.37
   4   5  -2  133.87    7.40
   4   5  -2  128.59    7.40
  -4  -5   2  128.00    7.41
  -4  -5   2  126.02    7.45
   3   5  -2    0.04    0.24
   3   5  -2   -0.04    0.24
   3   5  -2   -0.14    0.21
  -3  -5   2   -0.02    0.27
  -3  -5   2    0.63    0.27
  -3  -5   2    0.03    0.29
   2   5  -2  162.20    8.98
   2   5  -2  168.76    8.95
   2   5  -2  168.77    8.98
  -2  -5   2  164.64    8.97
  -2  -5   2  155.42    8.98
  -2  -5   2  152.97    9.01
   1   5  -2   52.00    2.87
   1   5  -2   49.61    2.86
  -1  -5   2   48.73    2.89
  -1  -5   2   47.33    2.86
  -1  -5   2   54.88    2.87
   0   5  -2  101.65    5.50
   0   5  -2   93.05    5.46
   0   5  -2   95.92    5.47
   0  -5   2   92.18    5.47
   0  -5   2  101.19    5.50
   0  -5   2  106.37    5.48
  -1   5  -2    6.72    0.61
  -1   5  -2    7.32    0.56
  -1   5  -2    6.79    0.59
   1  -5   2    7.55    0.59
   1  -5   2    7.77    0.59
   1  -5   2    6.76    0.54
   1  -5   2    6.74    0.55
  -2   5  -2   54.84    3.20
  -2   5  -2   56.96    3.14
  -2   5  -2   53.65    3.19
   2  -5   2   54.01    3.16
   2  -5   2   59.41    3.17
   2  -5   2   55.59    3.14
  -3   5  -2    1.76    0.38
  -3   5  -2    1.69    0.39
   3  -5   2    2.08    0.35
   3  -5   2    1.89    0.30
   3  -5   2    1.77    0.35
  -4   5  -2   35.89    2.23
  -4   5  -2   33.39    2.20
   4  -5   2   40.49    2.18
   4  -5   2   35.85    2.09
   4  -5   2   35.61    2.19
  -5   5  -2    0.92    0.53
  -5   5  -2    1.20    0.61
  -5   5  -2    1.42    0.52
   5  -5   2    1.24    0.52
   5  -5   2    1.34    0.47
  -6   5  -2   59.95    3.65
  -6   5  -2   54.76    3.60
   6  -5   2   62.72    3.52
   6  -5   2   60.16    3.58
   7   4  -2   34.72    2.17
   7   4  -2   36.69    2.14
   7   4  -2   34.05    2.17
  -7  -4   2   32.74    2.19
  -7  -4   2   32.07    2.25
   6   4  -2    5.64    0.77
   6   4  -2    4.99    0.66
   6   4  -2    6.34    0.78
   6   4  -2    7.29    0.67
  -6  -4   2    5.83    0.80
  -6  -4   2    6.32    0.87
   5   4  -2   21.19    1.38
   5   4  -2   23.06    1.35
   5   4  -2   20.30    1.39
  -5  -4   2   22.14    1.42
  -5  -4   2   21.48    1.45
  -5  -4   2   21.95    1.40
   4   4  -2    0.86    0.22
   4   4  -2    0.56    0.26
   4   4  -2    0.76    0.30
  -4  -4   2    0.88    0.30
  -4  -4   2    0.12    0.30
  -4  -4   2    0.73    0.30
   3   4  -2  166.39    8.96
   3   4  -2  186.14    8.94
   3   4  -2  160.77    8.96
  -3  -4   2  147.60    8.94
  -3  -4   2  156.05    8.99
  -3  -4   2  155.12    8.96
  -3  -4   2  160.58    8.97
   2   4  -2   11.26    0.71
   2   4  -2    9.93    0.68
  -2  -4   2    9.97    0.68
  -2  -4   2   10.51    0.70
  -2  -4   2    9.51    0.72
   1   4  -2  111.28    5.76
   1   4  -2  112.31    5.73
   1   4  -2  106.36    5.75
  -1  -4   2   88.55    5.74
  -1  -4   2   89.56    5.72
  -1  -4   2  116.05    5.74
  -1  -4   2  100.72    5.77
   0   4  -2    3.94    0.41
   0   4  -2    4.59    0.44
   0   4  -2    4.28    0.36
   0  -4   2    4.46    0.41
   0  -4   2    4.73    0.41
   0  -4   2    3.71    0.40
  -1   4  -2   86.30    4.71
  -1   4  -2   83.74    4.68
  -1   4  -2   81.03    4.70
   1  -4   2   88.37    4.69
   1  -4   2   96.55    4.70
   1  -4   2   73.36    4.67
   1  -4   2   81.02    4.68
  -2   4  -2   61.21    3.36
  -2   4  -2   58.81    3.42
  -2   4  -2   57.90    3.40
   2  -4   2   61.00    3.37
   2  -4   2   57.08    3.39
   2  -4   2   65.03    3.39
  -3   4  -2   59.62    3.56
  -3   4  -2   61.26    3.55
  -3   4  -2   61.46    3.49
   3  -4   2   57.81    3.53
   3  -4   2   66.71    3.53
   3  -4   2   66.63    3.49
  -4   4  -2   24.03    1.57
  -4   4  -2   23.14    1.53
  -4   4  -2   25.70    1.63
   4  -4   2   23.51    1.52
   4  -4   2   24.67    1.49
   4  -4   2   23.36    1.42
  -5   4  -2   11.10    0.99
  -5   4  -2   10.88    1.02
   5  -4   2   11.37    0.89
   5  -4   2   11.53    0.98
  -6   4  -2    1.74    0.60
  -6   4  -2    2.99    0.66
   6  -4   2    4.26    0.76
   6  -4   2    3.28    0.65
  -7   4  -2    7.60    1.33
  -7   4  -2    6.93    1.26
   7  -4   2    7.01    1.16
   7  -4   2    8.60    1.06
   7   3  -2    1.84    0.46
   7   3  -2    1.04    0.48
   7   3  -2    0.67    0.59
   7   3  -2    1.82    0.52
  -7  -3   2    0.82    0.57
   6   3  -2   11.91    0.99
   6   3  -2   14.78    0.99
   6   3  -2   14.13    1.06
  -6  -3   2   12.19    1.06
  -6  -3   2   13.03    1.07
   5   3  -2    0.11    0.31
   5   3  -2    0.26    0.23
   5   3  -2    0.32    0.28
   5   3  -2   -0.07    0.28
  -5  -3   2    0.20    0.33
  -5  -3   2    0.46    0.32
   4   3  -2   77.92    4.41
   4   3  -2   75.10    4.38
   4   3  -2   84.26    4.40
  -4  -3   2   76.36    4.44
  -4  -3   2   78.49    4.42
   3   3  -2   27.55    1.59
   3   3  -2   28.19    1.59
   3   3  -2   30.35    1.58
  -3  -3   2   24.90    1.57
  -3  -3   2   27.58    1.59
  -3  -3   2   27.06    1.61
  -3  -3   2   23.65    1.57
   2   3  -2    1.39    0.21
   2   3  -2    2.00    0.26
   2   3  -2    2.00    0.25
   2   3  -2    1.61    0.23
  -2  -3   2    1.44    0.25
  -2  -3   2    1.72    0.23
  -2  -3   2    1.89    0.25
   1   3  -2  134.07    7.37
   1   3  -2  139.76    7.38
  -1  -3   2  128.43    7.39
  -1  -3   2  112.94    7.35
  -1  -3   2  132.09    7.37
  -1  -3   2  153.53    7.36
   0   3  -2   50.58    2.59
   0   3  -2   45.49    2.57
   0   3  -2   48.43    2.58
   0  -3   2   43.34    2.59
   0  -3   2   42.41    2.57
  -1   3  -2   98.50    5.15
  -1   3  -2   96.14    5.18
  -1   3  -2  101.69    5.18
  -1   3  -2   80.85    5.14
   1  -3   2   96.36    5.15
   1  -3   2  100.92    5.16
   1  -3   2   85.01    5.15
   1  -3   2   94.44    5.15
   1  -3   2   84.32    5.16
  -2   3  -2   -0.08    0.13
  -2   3  -2   -0.14    0.16
  -2   3  -2   -0.12    0.18
   2  -3   2   -0.01    0.16
   2  -3   2   -0.04    0.15
   2  -3   2    0.04    0.14
  -3   3  -2    3.13    0.42
  -3   3  -2    2.94    0.43
  -3   3  -2    3.55    0.34
   3  -3   2    3.15    0.36
   3  -3   2    2.65    0.43
   3  -3   2    3.31    0.39
  -4   3  -2   51.75    2.81
  -4   3  -2   47.95    2.91
  -4   3  -2   49.81    2.88
   4  -3   2   51.69    2.86
   4  -3   2   49.90    2.80
   4  -3   2   47.17    2.88
  -5   3  -2   24.60    1.66
  -5   3  -2   25.75    1.64
   5  -3   2   24.13    1.63
   5  -3   2   25.35    1.49
   5  -3   2   27.05    1.59
  -6   3  -2   75.36    4.62
  -6   3  -2   78.15    4.61
   6  -3   2   78.78    4.60
   6  -3   2   85.03    4.55
  -7   3  -2   13.53    1.41
  -7   3  -2   15.36    1.47
   7  -3   2   14.30    1.26
   7  -3   2   16.53    1.37
   7   2  -2   16.30    1.28
   7   2  -2   16.89    1.35
   7   2  -2   17.48    1.31
  -7  -2   2   17.05    1.36
  -7  -2   2   16.52    1.39
   6   2  -2    1.36    0.38
   6   2  -2    0.24    0.39
   6   2  -2   -0.09    0.34
  -6  -2   2    0.54    0.42
  -6  -2   2    0.74    0.41
  -6  -2   2    0.54    0.36
   5   2  -2  128.69    7.16
   5   2  -2  124.45    7.17
   5   2  -2  135.82    7.18
  -5  -2   2  129.34    7.19
  -5  -2   2  123.48    7.18
  -5  -2   2  128.78    7.18
   4   2  -2   93.47    5.27
   4   2  -2   94.63    5.29
   4   2  -2   98.95    5.28
  -4  -2   2   95.50    5.30
  -4  -2   2   93.26    5.25
  -4  -2   2   94.04    5.29
  -4  -2   2   90.96    5.29
   3   2  -2  197.62   10.84
   3   2  -2  206.24   10.83
   3   2  -2  190.25   10.81
  -3  -2   2  198.97   10.85
  -3  -2   2  191.99   10.82
  -3  -2   2  193.09   10.85
  -3  -2   2  195.92   10.84
   2   2  -2  310.60   15.87
   2   2  -2  288.63   15.88
  -2  -2   2  288.90   15.89
  -2  -2   2  275.76   15.86
  -2  -2   2  279.17   15.89
   1   2  -2   10.86    0.64
  -1  -2   2   10.15    0.63
  -1  -2   2   10.01    0.65
  -1  -2   2   10.61    0.64
  -1  -2   2   10.17    0.62
   0   2  -2   59.69    2.85
   0   2  -2   43.70    2.83
   0   2  -2   51.60    2.84
   0   2  -2   50.98    2.83
   0   2  -2   44.40    2.82
   0   2  -2   56.30    2.85
   0  -2   2   55.73    2.84
   0  -2   2   52.03    2.84
   0  -2   2   47.70    2.84
   0  -2   2   47.66    2.83
  -1   2  -2  247.66   14.23
  -1   2  -2  269.42   14.21
  -1   2  -2  223.26   14.21
  -1   2  -2  288.55   14.24
  -1   2  -2  267.92   14.24
   1  -2   2  258.82   14.23
   1  -2   2  253.05   14.21
   1  -2   2  245.73   14.21
   1  -2   2  277.00   14.23
   1  -2   2  238.75   14.23
   1  -2   2  276.18   14.24
  -2   2  -2   35.98    1.96
  -2   2  -2   34.00    1.98
  -2   2  -2   35.36    1.92
  -2   2  -2   35.29    1.98
   2  -2   2   34.30    1.95
   2  -2   2   36.74    1.94
   2  -2   2   32.39    1.91
   2  -2   2   31.18    1.96
  -3   2  -2  311.39   17.01
  -3   2  -2  313.33   16.94
  -3   2  -2  328.39   17.00
  -3   2  -2  279.12   17.00
   3  -2   2  297.66   16.93
   3  -2   2  309.47   16.98
   3  -2   2  319.05   16.95
  -4   2  -2   89.28    4.85
  -4   2  -2   84.37    4.94
  -4   2  -2   90.80    4.95
  -4   2  -2   87.05    4.92
   4  -2   2   90.20    4.86
   4  -2   2   81.74    4.92
   4  -2   2   88.24    4.90
  -5   2  -2    4.05    0.67
  -5   2  -2    5.98    0.56
  -5   2  -2    6.24    0.67
   5  -2   2    5.46    0.50
   5  -2   2    5.11    0.67
   5  -2   2    5.42    0.60
  -6   2  -2   16.88    1.31
  -6   2  -2   17.26    1.32
   6  -2   2   16.72    1.31
   6  -2   2   17.39    1.21
  -7   2  -2   16.48    1.37
  -7   2  -2   12.92    1.37
   7  -2   2   14.29    1.34
   7  -2   2   16.74    1.23
   7   1  -2    7.62    0.95
   7   1  -2    7.32    1.00
  -7  -1   2    7.32    1.03
  -7  -1   2    7.98    1.07
   6   1  -2    7.70    0.78
   6   1  -2    7.91    0.82
   6   1  -2    6.67    0.86
  -6  -1   2    6.49    0.89
  -6  -1   2    6.84    0.81
   5   1  -2    0.26    0.26
   5   1  -2    0.02    0.26
   5   1  -2    0.52    0.27
   5   1  -2    0.71    0.30
  -5  -1   2    0.33    0.30
  -5  -1   2    0.22    0.34
  -5  -1   2    0.88    0.22
   4   1  -2  203.67   11.03
   4   1  -2  203.01   11.02
  -4  -1   2  192.73   11.02
  -4  -1   2  199.01   11.04
  -4  -1   2  203.96   11.03
  -4  -1   2  192.90   10.98
   3   1  -2  176.90    9.81
   3   1  -2  179.18    9.83
   3   1  -2  183.67    9.82
  -3  -1   2  175.49    9.78
  -3  -1   2  177.15    9.82
  -3  -1   2  177.01    9.83
  -3  -1   2  174.35    9.82
   2   1  -2   73.59    3.88
   2   1  -2   70.88    3.86
   2   1  -2   70.54    3.85
   2   1  -2   71.24    3.89
  -2  -1   2   71.15    3.89
  -2  -1   2   62.17    3.87
  -2  -1   2   71.55    3.89
  -2  -1   2   67.87    3.88
  -2  -1   2   68.46    3.86
   1   1  -2  564.13   28.82
   1   1  -2  482.62   28.77
   1   1  -2  514.08   28.75
  -1  -1   2  539.17   28.78
  -1  -1   2  525.07   28.76
  -1  -1   2  520.01   28.78
   0   1  -2    2.78    0.22
   0   1  -2    2.58    0.20
   0   1  -2    2.35    0.21
   0   1  -2    3.15    0.23
   0  -1   2    2.73    0.21
   0  -1   2    2.81    0.22
   0  -1   2    2.64    0.23
   0  -1   2    3.32    0.22
  -1   1  -2    5.10    0.33
  -1   1  -2    4.40    0.30
  -1   1  -2    3.82    0.33
  -1   1  -2    4.48    0.36
  -1   1  -2    4.39    0.29
  -1   1  -2    3.92    0.31
   1  -1   2    4.19    0.32
   1  -1   2    4.64    0.31
   1  -1   2    4.00    0.33
   1  -1   2    5.31    0.35
   1  -1   2    4.85    0.31
   1  -1   2    4.39    0.29
  -2   1  -2    4.63    0.35
  -2   1  -2    4.35    0.37
  -2   1  -2    4.70    0.37
  -2   1  -2    4.10    0.38
   2  -1   2    4.63    0.32
   2  -1   2    4.10    0.34
  -3   1  -2    3.91    0.38
  -3   1  -2    4.44    0.44
  -3   1  -2    3.42    0.43
   3  -1   2    3.90    0.39
   3  -1   2    4.75    0.34
  -4   1  -2   67.68    3.82
  -4   1  -2   65.75    3.81
  -4   1  -2   70.46    3.79
  -4   1  -2   68.25    3.72
   4  -1   2   65.80    3.78
   4  -1   2   68.31    3.74
   4  -1   2   62.29    3.80
  -5   1  -2   -0.15    0.31
  -5   1  -2    0.44    0.34
  -5   1  -2    0.32    0.23
  -5   1  -2   -0.25    0.28
   5  -1   2    0.00    0.23
   5  -1   2   -0.07    0.30
   5  -1   2    0.11    0.25
  -6   1  -2   86.64    4.69
  -6   1  -2   78.03    4.71
   6  -1   2   79.48    4.71
   6  -1   2   81.30    4.66
   6  -1   2   83.62    4.63
  -7   1  -2   24.79    1.87
  -7   1  -2   26.19    1.86
   7  -1   2   27.27    1.87
   7  -1   2   28.43    1.78
  -8   1  -2    0.11    0.68
  -8   1  -2    0.56    0.72
   8  -1   2   -0.69    0.58
   8  -1   2    0.13    0.61
   7   0  -2   17.38    1.37
   7   0  -2   18.24    1.38
  -7   0   2   17.14    1.39
  -7   0   2   15.32    1.47
   6   0  -2    0.59    0.39
   6   0  -2    0.65    0.40
  -6   0   2    0.65    0.47
  -6   0   2    0.41    0.43
   5   0  -2   26.31    1.63
   5   0  -2   27.55    1.63
  -5   0   2   25.56    1.62
  -5   0   2   25.08    1.65
   4   0  -2   70.02    3.77
   4   0  -2   65.61    3.72
   4   0  -2   68.98    3.78
  -4   0   2   68.33    3.77
  -4   0   2   58.41    3.74
  -4   0   2   68.37    3.79
   3   0  -2    2.38    0.35
   3   0  -2    2.18    0.32
  -3   0   2    1.88    0.28
  -3   0   2    2.63    0.36
  -3   0   2    2.24    0.30
   2   0  -2    2.11    0.25
   2   0  -2    2.41    0.25
  -2   0   2    2.24    0.26
  -2   0   2    2.28    0.28
  -2   0   2    2.38    0.26
   1   0  -2   16.80    0.94
   1   0  -2   15.76    0.97
   1   0  -2   17.57    0.97
  -1   0   2   16.38    0.97
  -1   0   2   16.54    0.97
  -1   0   2   17.89    0.94
  -1   0   2   16.81    0.98
  -1   0   2   17.12    0.98
   0   0  -2  294.60   16.66
   0   0  -2  303.71   16.66
   0   0  -2  319.74   16.66
   0   0  -2  304.86   16.65
   0   0  -2  285.50   16.66
   0   0   2  304.42   16.66
   0   0   2  304.85   16.65
   0   0   2  315.11   16.66
   0   0   2  297.83   16.66
  -1   0  -2   56.31    3.24
  -1   0  -2   64.81    3.24
  -1   0  -2   54.90    3.22
  -1   0  -2   64.24    3.22
  -1   0  -2   53.00    3.23
  -1   0  -2   58.00    3.22
   1   0   2   64.93    3.21
   1   0   2   56.72    3.23
   1   0   2   55.68    3.22
   1   0   2   66.68    3.23
   1   0   2   51.90    3.23
   1   0   2   56.75    3.22
   1   0   2   53.49    3.23
  -2   0  -2   76.70    4.10
  -2   0  -2   74.38    4.18
  -2   0  -2   76.54    4.13
  -2   0  -2   77.09    4.11
  -2   0  -2   72.61    4.13
  -2   0  -2   72.50    4.13
   2   0   2   74.04    4.10
   2   0   2   70.36    4.14
   2   0   2   70.20    4.12
   2   0   2   76.11    4.11
   2   0   2   75.67    4.09
  -3   0  -2    9.60    0.59
  -3   0  -2    8.64    0.62
  -3   0  -2    8.35    0.62
   3   0   2    9.06    0.56
   3   0   2    8.35    0.56
   3   0   2    8.05    0.59
   3   0   2    8.68    0.53
  -4   0  -2   83.73    4.87
  -4   0  -2   84.10    4.86
  -4   0  -2   90.10    4.84
  -4   0  -2   88.28    4.79
   4   0   2   88.68    4.81
   4   0   2   83.57    4.84
  -5   0  -2    1.31    0.30
  -5   0  -2    1.31    0.24
  -5   0  -2    1.26    0.32
  -5   0  -2    1.17    0.36
   5   0   2    1.05    0.35
   5   0   2    1.01    0.25
   5   0   2    1.17    0.30
  -6   0  -2  210.41   11.62
  -6   0  -2  221.30   11.58
  -6   0  -2  200.27   11.60
   6   0   2  200.05   11.60
   6   0   2  208.87   11.51
   6   0   2  208.24   11.57
  -7   0  -2   -0.46    0.46
  -7   0  -2    0.61    0.48
   7   0   2    0.32    0.36
   7   0   2    0.44    0.53
   7   0   2   -0.26    0.43
  -8   0  -2   24.69    2.06
  -8   0  -2   31.46    2.05
   8   0   2   25.87    2.00
   8   0   2   29.39    1.94
   8   0   2   28.78    2.08
   7  -1  -2   48.72    3.23
   7  -1  -2   46.12    2.76
  -7   1   2   40.63    2.87
  -7   1   2   41.99    2.75
   6  -1  -2   14.55    1.18
   6  -1  -2   15.80    1.09
   6  -1  -2   15.83    1.19
  -6   1   2   15.31    1.16
  -6   1   2   13.94    1.24
   5  -1  -2   62.23    3.33
   5  -1  -2   57.77    3.33
  -5   1   2   52.58    3.34
  -5   1   2   58.55    3.31
  -5   1   2   55.98    3.35
   4  -1  -2   38.31    2.25
   4  -1  -2   41.24    2.30
   4  -1  -2   39.29    2.30
  -4   1   2   38.11    2.32
  -4   1   2   39.32    2.29
  -4   1   2   37.37    2.26
  -4   1   2   42.41    2.34
   3  -1  -2  414.72   22.40
   3  -1  -2  399.16   22.44
   3  -1  -2  421.58   22.44
  -3   1   2  399.53   22.46
  -3   1   2  394.95   22.41
  -3   1   2  416.67   22.44
   2  -1  -2    2.72    0.30
   2  -1  -2    2.47    0.28
   2  -1  -2    2.90    0.24
   2  -1  -2    2.83    0.30
  -2   1   2    2.69    0.29
  -2   1   2    2.56    0.32
  -2   1   2    2.66    0.27
  -2   1   2    2.44    0.27
   1  -1  -2  203.13   10.10
   1  -1  -2  175.87   10.04
   1  -1  -2  214.55   10.03
   1  -1  -2  170.37   10.04
  -1   1   2  176.36   10.04
  -1   1   2  177.33   10.03
  -1   1   2  170.40   10.05
  -1   1   2  171.81   10.04
   0  -1  -2  610.43   32.11
   0   1   2  560.25   32.11
  -1  -1  -2  156.22    8.94
  -1  -1  -2  156.00    8.92
  -1  -1  -2  156.08    8.94
  -1  -1  -2  157.31    8.94
  -1  -1  -2  174.89    8.95
  -1  -1  -2  183.30    8.94
   1   1   2  184.02    8.95
   1   1   2  164.28    8.94
   1   1   2  159.36    8.92
   1   1   2  154.20    8.94
   1   1   2  151.84    8.94
   1   1   2  152.28    8.94
  -2  -1  -2  162.62    8.79
  -2  -1  -2  159.89    8.80
  -2  -1  -2  156.12    8.80
  -2  -1  -2  154.33    8.80
  -2  -1  -2  166.02    8.79
   2   1   2  158.80    8.78
   2   1   2  163.65    8.79
   2   1   2  154.62    8.79
  -3  -1  -2  496.04   27.11
  -3  -1  -2  516.26   27.08
  -3  -1  -2  501.31   27.11
  -3  -1  -2  470.92   27.12
   3   1   2  484.45   27.08
   3   1   2  469.09   27.07
   3   1   2  521.89   27.07
   3   1   2  485.40   27.09
  -4  -1  -2    0.37    0.20
  -4  -1  -2    0.56    0.25
  -4  -1  -2    0.16    0.19
  -4  -1  -2    0.26    0.16
  -4  -1  -2    0.16    0.22
   4   1   2    0.09    0.19
   4   1   2    0.27    0.17
   4   1   2    0.30    0.24
  -5  -1  -2   42.07    2.34
  -5  -1  -2   40.42    2.43
  -5  -1  -2   45.94    2.41
  -5  -1  -2   40.08    2.45
   5   1   2   39.93    2.37
   5   1   2   39.76    2.36
   5   1   2   40.64    2.41
  -6  -1  -2   62.66    3.61
  -6  -1  -2   63.60    3.57
  -6  -1  -2   65.87    3.54
   6   1   2   59.65    3.59
   6   1   2   57.57    3.46
   6   1   2   60.83    3.48
   6   1   2   58.97    3.54
  -7  -1  -2   14.82    1.30
  -7  -1  -2   15.24    1.41
  -7  -1  -2   17.77    1.25
   7   1   2   14.58    1.23
   7   1   2   16.83    1.11
   7   1   2   14.74    1.35
  -8  -1  -2    3.19    0.73
   8   1   2    4.43    0.71
   8   1   2    4.22    0.81
   8   1   2    2.69    0.65
   7  -2  -2   10.81    1.22
  -7   2   2   10.17    1.28
  -7   2   2   11.34    1.25
   6  -2  -2    6.01    0.88
   6  -2  -2    6.87    0.88
  -6   2   2    6.91    0.99
  -6   2   2    6.02    0.91
   5  -2  -2   21.23    1.41
   5  -2  -2   22.06    1.41
  -5   2   2   21.60    1.45
  -5   2   2   20.85    1.40
  -5   2   2   19.48    1.44
   4  -2  -2   97.06    5.64
   4  -2  -2  104.04    5.64
   4  -2  -2  106.31    5.58
  -4   2   2   94.70    5.57
  -4   2   2  101.08    5.63
  -4   2   2   96.45    5.66
  -4   2   2  103.01    5.67
   3  -2  -2   25.50    1.38
   3  -2  -2   22.47    1.41
   3  -2  -2   24.49    1.42
  -3   2   2   23.85    1.44
  -3   2   2   22.44    1.37
  -3   2   2   23.74    1.40
  -3   2   2   22.55    1.43
   2  -2  -2    6.94    0.48
   2  -2  -2    8.67    0.55
   2  -2  -2    6.62    0.52
   2  -2  -2    8.22    0.50
  -2   2   2    6.94    0.52
  -2   2   2    7.35    0.50
  -2   2   2    7.10    0.57
   1  -2  -2   99.96    5.53
   1  -2  -2   95.09    5.53
  -1   2   2  100.75    5.55
  -1   2   2  103.57    5.53
  -1   2   2  100.87    5.53
  -1   2   2  100.06    5.54
   0  -2  -2    2.23    0.18
   0  -2  -2    2.05    0.19
   0  -2  -2    1.91    0.21
   0  -2  -2    2.40    0.21
   0  -2  -2    2.33    0.23
   0   2   2    1.97    0.19
   0   2   2    1.52    0.20
   0   2   2    2.03    0.22
   0   2   2    1.70    0.21
   0   2   2    1.84    0.17
   0   2   2    2.34    0.20
  -1  -2  -2   76.69    4.52
  -1  -2  -2   75.28    4.51
  -1  -2  -2   79.29    4.52
  -1  -2  -2   79.32    4.53
  -1  -2  -2   93.33    4.51
  -1  -2  -2   93.50    4.53
   1   2   2   73.19    4.52
   1   2   2   76.68    4.52
   1   2   2   87.05    4.52
   1   2   2   82.31    4.51
  -2  -2  -2   16.28    0.97
  -2  -2  -2   16.02    0.98
  -2  -2  -2   15.66    0.98
  -2  -2  -2   17.18    0.96
  -2  -2  -2   16.30    0.94
   2   2   2   17.00    0.95
   2   2   2   17.40    0.94
   2   2   2   16.39    0.97
   2   2   2   16.07    0.98
   2   2   2   15.89    0.97
  -3  -2  -2    7.72    0.57
  -3  -2  -2    7.09    0.56
  -3  -2  -2    7.54    0.53
  -3  -2  -2    7.54    0.53
   3   2   2    7.59    0.53
   3   2   2    7.42    0.49
   3   2   2    7.35    0.53
   3   2   2    7.62    0.52
  -4  -2  -2  236.39   12.56
  -4  -2  -2  225.13   12.58
  -4  -2  -2  223.90   12.60
  -4  -2  -2  216.30   12.60
  -4  -2  -2  228.38   12.59
   4   2   2  227.56   12.57
   4   2   2  230.24   12.58
   4   2   2  235.00   12.54
  -5  -2  -2   10.47    0.86
  -5  -2  -2   10.49    0.80
  -5  -2  -2   10.06    0.78
  -5  -2  -2   10.06    0.71
  -5  -2  -2   10.95    0.78
   5   2   2    9.54    0.73
   5   2   2    9.22    0.80
   5   2   2   10.15    0.71
   5   2   2    9.99    0.74
  -6  -2  -2  193.53   10.05
  -6  -2  -2  186.76   10.07
  -6  -2  -2  182.39   10.09
   6   2   2  180.65   10.01
   6   2   2  169.23   10.07
   6   2   2  178.44   10.06
   6   2   2  175.08   10.02
   6   2   2  177.95    9.98
  -7  -2  -2   18.02    1.33
  -7  -2  -2   20.12    1.49
  -7  -2  -2   20.27    1.39
   7   2   2   17.97    1.23
   7   2   2   17.86    1.35
   7   2   2   20.12    1.48
   7   2   2   17.09    1.25
   7   2   2   18.46    1.38
   7   2   2   18.68    1.28
  -8  -2  -2    2.37    0.66
   8   2   2    3.12    0.69
   8   2   2    3.57    0.61
   8   2   2    2.99    0.64
   8   2   2    2.69    0.79
   8   2   2    3.22    0.58
   6  -3  -2   14.02    1.21
   6  -3  -2   14.53    1.19
  -6   3   2   11.00    1.30
  -6   3   2   12.98    1.17
   5  -3  -2   78.29    4.62
   5  -3  -2   83.47    4.53
   5  -3  -2   82.98    4.62
  -5   3   2   82.04    4.66
  -5   3   2   81.02    4.59
  -5   3   2   74.70    4.65
   4  -3  -2    5.53    0.63
   4  -3  -2    5.66    0.65
   4  -3  -2    5.19    0.55
  -4   3   2    5.57    0.67
  -4   3   2    5.14    0.59
  -4   3   2    6.41    0.67
   3  -3  -2  109.74    6.44
   3  -3  -2  118.70    6.44
   3  -3  -2  123.63    6.40
  -3   3   2  116.78    6.46
  -3   3   2  112.32    6.42
  -3   3   2  111.19    6.46
   2  -3  -2   11.78    0.73
   2  -3  -2   12.45    0.73
  -2   3   2   11.11    0.76
  -2   3   2   10.31    0.69
  -2   3   2    9.53    0.71
  -2   3   2   10.62    0.77
   1  -3  -2   54.75    3.39
   1  -3  -2   71.63    3.41
  -1   3   2   59.35    3.38
  -1   3   2   59.54    3.40
  -1   3   2   58.82    3.41
   0  -3  -2    1.64    0.21
   0  -3  -2    1.64    0.24
   0  -3  -2    1.40    0.23
   0  -3  -2    1.91    0.26
   0  -3  -2    1.44    0.18
   0  -3  -2    2.20    0.30
   0   3   2    1.59    0.23
   0   3   2    1.56    0.25
   0   3   2    1.77    0.24
   0   3   2    1.34    0.19
  -1  -3  -2   73.12    3.95
  -1  -3  -2   67.27    3.94
   1   3   2   72.97    3.93
   1   3   2   70.15    3.95
  -2  -3  -2   10.33    0.68
  -2  -3  -2   10.52    0.70
  -2  -3  -2   11.06    0.70
   2   3   2   11.43    0.66
   2   3   2   10.68    0.68
  -3  -3  -2  208.59   13.07
  -3  -3  -2  241.57   13.05
  -3  -3  -2  234.94   13.08
  -3  -3  -2  242.40   13.09
   3   3   2  232.99   13.04
   3   3   2  246.30   13.08
   3   3   2  252.63   13.05
  -4  -3  -2    1.45    0.25
  -4  -3  -2    1.74    0.29
  -4  -3  -2    1.73    0.34
   4   3   2    1.27    0.27
   4   3   2    1.96    0.32
   4   3   2    1.28    0.25
   4   3   2    1.35    0.24
  -5  -3  -2    5.57    0.62
  -5  -3  -2    5.78    0.56
  -5  -3  -2    5.29    0.65
  -5  -3  -2    6.14    0.53
   5   3   2    4.86    0.58
   5   3   2    4.73    0.49
   5   3   2    4.03    0.56
   5   3   2    6.20    0.54
  -6  -3  -2   26.42    1.72
  -6  -3  -2   26.96    1.82
  -6  -3  -2   27.07    1.74
   6   3   2   22.53    1.70
   6   3   2   28.05    1.64
   6   3   2   25.99    1.58
   6   3   2   27.33    1.61
   6   3   2   26.91    1.64
  -7  -3  -2   15.60    1.44
   7   3   2   15.01    1.18
   7   3   2   13.89    1.12
   7   3   2   16.17    1.24
   7   3   2   14.54    1.27
   7   3   2   14.97    1.06
   7   3   2   15.13    1.13
   7   3   2   15.04    1.11
  -8  -3  -2   -0.65    0.71
  -8  -3  -2    0.00    0.72
  -8  -3  -2   -0.59    0.70
   8   3   2    1.26    0.53
   8   3   2    0.36    0.64
   8   3   2   -0.90    0.54
   8   3   2    0.07    0.69
   8   3   2   -0.49    0.50
   8   3   2   -0.77    0.55
   6  -4  -2   10.39    1.15
   6  -4  -2   10.59    1.20
  -6   4   2   11.94    1.19
  -6   4   2   10.47    1.39
   5  -4  -2   14.65    1.15
   5  -4  -2   15.48    1.04
   5  -4  -2   14.07    1.17
  -5   4   2   11.60    1.21
  -5   4   2   13.84    1.24
  -5   4   2   13.98    1.13
   4  -4  -2  131.31    7.65
   4  -4  -2  145.80    7.60
   4  -4  -2  139.41    7.65
  -4   4   2  128.41    7.67
  -4   4   2  143.45    7.69
  -4   4   2  131.12    7.62
   3  -4  -2   62.40    3.69
   3  -4  -2   65.24    3.69
   3  -4  -2   70.14    3.66
  -3   4   2   62.62    3.67
  -3   4   2   67.27    3.71
  -3   4   2   60.84    3.71
   2  -4  -2   21.15    1.36
   2  -4  -2   23.75    1.37
   2  -4  -2   25.56    1.35
  -2   4   2   23.40    1.38
  -2   4   2   21.24    1.34
  -2   4   2   21.41    1.31
  -2   4   2   20.95    1.39
   1  -4  -2   58.73    3.28
   1  -4  -2   53.85    3.29
   1  -4  -2   68.54    3.33
  -1   4   2   57.69    3.31
  -1   4   2   57.87    3.33
  -1   4   2   56.87    3.29
   0  -4  -2   22.99    1.38
   0  -4  -2   24.70    1.38
   0  -4  -2   22.06    1.35
   0   4   2   25.94    1.40
   0   4   2   24.86    1.40
   0   4   2   23.31    1.39
  -1  -4  -2  155.14    9.08
  -1  -4  -2  156.92    9.10
  -1  -4  -2  176.98    9.12
   1   4   2  172.68    9.10
   1   4   2  168.68    9.12
   1   4   2  159.30    9.08
  -2  -4  -2   98.19    5.99
  -2  -4  -2  108.24    5.99
  -2  -4  -2  110.90    6.00
   2   4   2  111.83    5.98
   2   4   2  110.03    6.00
  -3  -4  -2   28.15    1.66
  -3  -4  -2   28.63    1.64
  -3  -4  -2   26.14    1.65
   3   4   2   29.09    1.66
   3   4   2   28.07    1.62
  -4  -4  -2   59.97    3.49
  -4  -4  -2   61.91    3.45
  -4  -4  -2   57.74    3.50
  -4  -4  -2   58.59    3.50
   4   4   2   66.31    3.44
   4   4   2   61.82    3.49
   4   4   2   63.79    3.45
  -5  -4  -2   28.75    1.82
  -5  -4  -2   30.04    1.77
  -5  -4  -2   29.92    1.79
  -5  -4  -2   28.42    1.82
   5   4   2   29.00    1.79
   5   4   2   31.76    1.74
   5   4   2   29.39    1.80
   5   4   2   29.33    1.74
  -6  -4  -2  107.08    6.17
  -6  -4  -2  105.32    6.18
  -6  -4  -2  108.43    6.14
   6   4   2  115.18    6.09
   6   4   2  113.28    6.15
   6   4   2  110.06    6.14
   6   4   2  108.75    6.09
   6   4   2  105.01    6.11
  -7  -4  -2    4.34    0.67
   7   4   2    4.41    0.70
   7   4   2    5.39    0.70
   7   4   2    6.81    0.91
   7   4   2    6.08    0.83
   7   4   2    5.56    0.82
   7   4   2    5.97    0.67
  -8  -4  -2    9.01    1.32
   8   4   2   11.88    1.35
   8   4   2   10.11    1.15
   8   4   2   11.63    1.27
   8   4   2    9.23    1.12
   8   4   2   10.84    1.04
   8   4   2   10.68    1.16
   8   4   2   10.11    1.02
   5  -5  -2   20.17    1.46
   5  -5  -2   20.03    1.39
   5  -5  -2   19.22    1.51
  -5   5   2   21.52    1.45
  -5   5   2   17.17    1.58
   4  -5  -2    5.35    0.69
   4  -5  -2    4.76    0.79
   4  -5  -2    4.82    0.75
  -4   5   2    6.38    0.75
  -4   5   2    6.20    0.88
  -4   5   2    5.84    0.83
   3  -5  -2   10.77    0.86
   3  -5  -2    9.92    0.81
   3  -5  -2   10.09    0.85
  -3   5   2    9.76    0.81
  -3   5   2   11.95    0.89
  -3   5   2   10.44    0.90
   2  -5  -2   32.28    2.04
   2  -5  -2   34.76    2.00
   2  -5  -2   36.55    1.98
  -2   5   2   31.47    1.93
  -2   5   2   34.13    2.03
  -2   5   2   33.39    1.98
   1  -5  -2   19.58    1.17
   1  -5  -2   17.49    1.12
   1  -5  -2   19.11    1.12
   1  -5  -2   20.63    1.17
  -1   5   2   17.78    1.14
  -1   5   2   17.25    1.12
  -1   5   2   18.28    1.17
   0  -5  -2   22.28    1.23
   0  -5  -2   17.98    1.19
   0  -5  -2   22.73    1.26
   0   5   2   19.70    1.20
   0   5   2   18.29    1.21
   0   5   2   18.30    1.22
  -1  -5  -2  106.36    5.84
  -1  -5  -2   98.38    5.82
  -1  -5  -2  112.88    5.84
   1   5   2  101.96    5.81
   1   5   2  103.81    5.84
   1   5   2  104.93    5.82
  -2  -5  -2   18.02    1.09
  -2  -5  -2   16.51    1.12
  -2  -5  -2   15.61    1.12
   2   5   2   19.11    1.11
   2   5   2   18.85    1.07
  -3  -5  -2   43.23    2.52
  -3  -5  -2   42.21    2.50
  -3  -5  -2   41.90    2.51
   3   5   2   45.70    2.48
   3   5   2   44.55    2.52
  -4  -5  -2   32.63    2.03
  -4  -5  -2   33.00    2.04
   4   5   2   35.19    1.99
   4   5   2   36.07    1.97
   4   5   2   34.90    2.06
  -5  -5  -2    8.00    0.80
  -5  -5  -2    9.12    0.78
  -5  -5  -2    9.57    0.83
   5   5   2    8.12    0.81
   5   5   2    9.46    0.71
   5   5   2    9.57    0.70
  -6  -5  -2   96.94    5.65
  -6  -5  -2   95.80    5.59
  -6  -5  -2   94.70    5.57
   6   5   2  101.49    5.58
   6   5   2  101.72    5.57
   6   5   2   95.29    5.51
   6   5   2  102.10    5.51
  -7  -5  -2    2.22    0.61
  -7  -5  -2    2.89    0.55
   7   5   2    2.57    0.46
   7   5   2    1.96    0.55
   7   5   2    1.46    0.56
   7   5   2    1.65    0.55
   7   5   2    2.77    0.62
  -8  -5  -2    0.45    0.71
   8   5   2    1.27    0.72
   8   5   2   -0.16    0.64
   8   5   2    0.13    0.54
   8   5   2   -0.62    0.62
   8   5   2    0.77    0.76
   5  -6  -2    9.62    1.18
   5  -6  -2    7.42    0.99
   5  -6  -2    9.06    1.09
  -5   6   2    7.83    1.10
  -5   6   2    8.35    1.30
   4  -6  -2    7.28    0.87
   4  -6  -2    8.20    0.93
   4  -6  -2    7.18    0.95
  -4   6   2    8.22    1.08
  -4   6   2    8.04    0.90
   3  -6  -2   37.80    2.20
   3  -6  -2   37.23    2.23
  -3   6   2   37.02    2.28
  -3   6   2   34.86    2.19
   2  -6  -2   32.18    1.86
   2  -6  -2   33.20    1.80
   2  -6  -2   30.42    1.87
  -2   6   2   26.33    1.79
  -2   6   2   32.63    1.91
  -2   6   2   30.45    1.85
   1  -6  -2   12.91    0.90
   1  -6  -2   14.69    0.98
   1  -6  -2   15.86    0.97
   1  -6  -2   14.47    0.93
  -1   6   2   11.72    0.92
  -1   6   2   12.83    0.93
  -1   6   2   13.58    0.98
   0  -6  -2   52.49    3.08
   0  -6  -2   56.34    3.11
   0  -6  -2   56.76    3.12
   0   6   2   53.61    3.09
   0   6   2   54.23    3.09
   0   6   2   53.06    3.10
  -1  -6  -2   -0.09    0.31
  -1  -6  -2    0.22    0.24
   1   6   2    0.41    0.26
   1   6   2    0.43    0.29
   1   6   2    0.40    0.26
  -2  -6  -2   59.96    3.36
  -2  -6  -2   57.07    3.33
  -2  -6  -2   55.46    3.33
   2   6   2   61.81    3.33
   2   6   2   59.28    3.30
   2   6   2   58.40    3.35
  -3  -6  -2   88.62    5.24
  -3  -6  -2   94.12    5.27
  -3  -6  -2   92.27    5.26
   3   6   2   96.53    5.28
   3   6   2   96.25    5.23
  -4  -6  -2   17.49    1.18
  -4  -6  -2   16.73    1.14
   4   6   2   17.16    1.09
   4   6   2   15.45    1.17
   4   6   2   16.77    1.08
  -5  -6  -2    7.20    0.78
  -5  -6  -2    5.06    0.71
   5   6   2    6.45    0.63
   5   6   2    7.04    0.78
  -6  -6  -2   11.82    1.12
  -6  -6  -2   12.71    1.10
   6   6   2   13.56    1.11
   6   6   2   12.63    0.96
   6   6   2   12.62    0.97
   6   6   2   12.96    1.14
  -7  -6  -2    2.60    0.63
  -7  -6  -2    2.10    0.65
   7   6   2    3.24    0.66
   7   6   2    3.00    0.52
   7   6   2    2.73    0.64
   4  -7  -2   17.17    1.35
   4  -7  -2   13.74    1.40
  -4   7   2   20.32    1.39
  -4   7   2   17.22    1.56
   3  -7  -2    0.64    0.49
   3  -7  -2    0.64    0.52
  -3   7   2    0.58    0.48
  -3   7   2    1.19    0.59
   2  -7  -2    4.14    0.66
   2  -7  -2    5.45    0.75
   2  -7  -2    2.84    0.52
  -2   7   2    3.52    0.57
  -2   7   2    3.41    0.52
   1  -7  -2   -0.31    0.26
   1  -7  -2    0.43    0.34
   1  -7  -2   -0.66    0.35
   1  -7  -2    0.00    0.41
  -1   7   2   -0.08    0.33
  -1   7   2   -0.34    0.37
   0  -7  -2   17.58    1.11
   0  -7  -2   17.68    1.18
   0  -7  -2   17.41    1.16
   0   7   2   14.56    1.14
   0   7   2   15.92    1.11
  -1  -7  -2  314.40   17.13
  -1  -7  -2  305.59   17.12
  -1  -7  -2  306.71   17.14
   1   7   2  314.52   17.13
   1   7   2  314.01   17.12
   1   7   2  306.56   17.11
  -2  -7  -2   30.20    1.72
  -2  -7  -2   26.57    1.75
   2   7   2   27.97    1.70
   2   7   2   28.15    1.74
   2   7   2   27.25    1.69
  -3  -7  -2    8.36    0.77
  -3  -7  -2    8.70    0.83
   3   7   2    8.52    0.74
   3   7   2    9.24    0.82
   3   7   2    8.83    0.73
  -4  -7  -2   36.96    2.21
  -4  -7  -2   33.14    2.17
   4   7   2   36.51    2.21
   4   7   2   36.76    2.13
  -5  -7  -2    5.00    0.79
  -5  -7  -2    5.60    0.81
   5   7   2    5.58    0.86
   5   7   2    4.71    0.68
  -6  -7  -2   17.97    1.57
  -6  -7  -2   21.97    1.55
   6   7   2   23.62    1.62
   6   7   2   21.27    1.44
  -7  -7  -2    1.06    0.69
  -7  -7  -2    1.30    0.67
   7   7   2    1.25    0.58
   7   7   2    0.05    0.71
   7   7   2    1.13    0.72
   3  -8  -2   10.17    1.12
   3  -8  -2    8.80    1.12
  -3   8   2   13.11    1.11
   2  -8  -2   14.62    1.35
   2  -8  -2   18.32    1.34
  -2   8   2   19.07    1.48
  -2   8   2   19.92    1.32
   1  -8  -2   25.84    1.55
   1  -8  -2   20.50    1.54
  -1   8   2   22.88    1.57
  -1   8   2   21.82    1.51
   0  -8  -2    0.48    0.42
   0  -8  -2    0.65    0.49
   0  -8  -2    0.90    0.46
   0   8   2    0.70    0.37
   0   8   2    1.61    0.41
   0   8   2    1.28    0.45
  -1  -8  -2   31.82    2.12
  -1  -8  -2   37.24    2.10
  -1  -8  -2   31.96    2.10
   1   8   2   35.89    2.08
   1   8   2   34.67    2.10
   1   8   2   35.35    2.09
  -2  -8  -2    0.63    0.38
  -2  -8  -2   -0.34    0.45
   2   8   2   -0.06    0.50
   2   8   2    0.04    0.38
   2   8   2    0.14    0.40
  -3  -8  -2   43.86    2.75
  -3  -8  -2   47.62    2.73
   3   8   2   45.98    2.69
   3   8   2   45.51    2.74
  -4  -8  -2   10.44    0.97
  -4  -8  -2    9.49    1.08
   4   8   2    9.11    1.00
   4   8   2    9.87    0.95
  -5  -8  -2   27.83    1.86
  -5  -8  -2   27.94    1.89
   5   8   2   26.20    1.76
   5   8   2   27.92    1.90
  -6  -8  -2   10.30    1.30
  -6  -8  -2   12.05    1.26
   6   8   2   12.19    1.28
   6   8   2   11.80    1.10
   2  -9  -2    3.34    0.70
   2  -9  -2    2.38    0.72
  -2   9   2    4.10    0.70
  -2   9   2    4.03    0.80
   1  -9  -2    2.99    0.64
  -1   9   2    3.30    0.76
  -1   9   2    3.73    0.64
   0  -9  -2    0.44    0.56
   0  -9  -2    0.55    0.51
   0   9   2   -0.08    0.50
   0   9   2    0.36    0.53
  -1  -9  -2  101.52    5.53
  -1  -9  -2   91.81    5.55
   1   9   2  100.06    5.53
   1   9   2   97.09    5.51
   1   9   2   96.04    5.51
  -2  -9  -2    9.66    1.04
  -2  -9  -2   14.19    1.16
  -2  -9  -2   10.50    1.14
   2   9   2   11.95    1.02
   2   9   2   12.13    1.00
   2   9   2   12.17    1.12
  -3  -9  -2    0.26    0.59
  -3  -9  -2    0.68    0.53
   3   9   2   -0.45    0.54
   3   9   2   -0.91    0.50
  -4  -9  -2    5.49    0.80
  -4  -9  -2    6.73    0.98
   4   9   2    4.27    0.68
   4   9   2    3.72    0.69
  -5  -9  -2   25.33    1.99
  -5  -9  -2   30.45    1.97
   5   9   2   26.99    1.97
   5   9   2   28.55    1.87
   1 -10  -2    3.38    0.74
   1 -10  -2    2.28    0.75
  -1  10   2    4.44    0.85
  -1  10   2    2.86    1.02
   0 -10  -2   10.40    1.16
   0 -10  -2    8.40    1.17
   0  10   2    8.75    1.17
  -1 -10  -2   98.01    6.17
  -1 -10  -2  119.46    6.18
   1  10   2  102.86    6.13
   1  10   2  111.52    6.14
  -2 -10  -2    7.01    1.08
  -2 -10  -2    4.40    0.81
   2  10   2    5.08    0.72
   2  10   2    4.32    0.76
  -3 -10  -2   13.53    1.33
  -3 -10  -2   11.50    1.39
   3  10   2   14.20    1.33
   3  10   2   13.19    1.18
  -4 -10  -2    2.16    0.76
  -4 -10  -2    1.74    0.77
   4  10   2   -0.30    0.69
   4  10   2    0.49    0.62
   2  10  -3    1.73    0.68
   2  10  -3    1.47    0.72
   2  10  -3    2.27    0.80
  -2 -10   3    3.94    0.73
  -2 -10   3    1.96    0.70
  -2 -10   3    1.36    0.83
   1  10  -3   29.17    2.02
   1  10  -3   27.78    1.96
  -1 -10   3   29.35    2.03
  -1 -10   3   32.09    2.15
  -1 -10   3   26.72    2.00
   0  10  -3    0.12    0.62
   0  10  -3   -0.27    0.69
   0 -10   3    0.01    0.70
   0 -10   3    1.17    0.66
  -1  10  -3    0.38    0.66
  -1  10  -3    1.36    0.83
   1 -10   3    3.31    0.72
   1 -10   3    1.51    0.70
   4   9  -3    8.71    1.26
   4   9  -3    6.38    1.06
   3   9  -3    4.66    0.75
   3   9  -3    5.89    0.84
   3   9  -3    5.84    0.73
  -3  -9   3    5.42    0.85
  -3  -9   3    7.24    1.04
   2   9  -3   11.20    1.17
   2   9  -3    9.40    1.08
   2   9  -3    8.12    1.01
  -2  -9   3   10.56    1.11
  -2  -9   3   11.22    1.24
   1   9  -3   42.06    2.61
   1   9  -3   40.43    2.65
   1   9  -3   46.45    2.67
  -1  -9   3   47.47    2.74
  -1  -9   3   45.03    2.66
  -1  -9   3   37.79    2.62
   0   9  -3    0.85    0.52
   0   9  -3    1.44    0.61
   0  -9   3    2.11    0.58
   0  -9   3    1.20    0.59
  -1   9  -3   12.60    1.23
  -1   9  -3   13.63    1.10
   1  -9   3   10.42    1.17
   1  -9   3   14.88    1.17
  -2   9  -3   26.30    1.90
  -2   9  -3   25.31    1.72
   2  -9   3   23.62    1.78
   2  -9   3   29.94    1.77
   3  -9   3   24.96    1.99
   3  -9   3   34.60    1.97
   5   8  -3    1.69    0.61
   5   8  -3    1.57    0.76
  -5  -8   3    3.21    0.73
   4   8  -3    0.24    0.52
   4   8  -3    0.32    0.51
  -4  -8   3    0.75    0.63
  -4  -8   3    0.28    0.66
   3   8  -3    3.81    0.63
   3   8  -3    4.12    0.58
  -3  -8   3    4.60    0.65
  -3  -8   3    3.58    0.68
   2   8  -3    1.52    0.50
   2   8  -3    1.00    0.50
  -2  -8   3    2.04    0.53
  -2  -8   3    0.80    0.53
   1   8  -3   20.36    1.40
   1   8  -3   19.15    1.33
   1   8  -3   18.81    1.37
  -1  -8   3   21.07    1.46
  -1  -8   3   17.96    1.36
  -1  -8   3   20.21    1.37
   0   8  -3   -0.42    0.44
   0   8  -3    0.18    0.39
   0   8  -3    0.27    0.42
   0  -8   3   -0.05    0.44
   0  -8   3   -0.11    0.49
   0  -8   3    0.65    0.44
  -1   8  -3   13.72    1.22
  -1   8  -3   14.89    1.26
  -1   8  -3   16.27    1.09
   1  -8   3   17.97    1.15
   1  -8   3   12.61    1.15
  -2   8  -3   10.64    1.07
  -2   8  -3   12.47    1.06
  -2   8  -3   12.13    0.93
   2  -8   3    8.81    1.03
   2  -8   3   12.47    0.98
  -3   8  -3    6.84    1.04
  -3   8  -3    6.18    0.98
   3  -8   3    6.45    0.83
   3  -8   3    5.06    0.94
  -4   8  -3   15.98    1.50
  -4   8  -3   16.21    1.65
   4  -8   3   15.17    1.39
   4  -8   3   17.90    1.28
   4  -8   3   14.47    1.34
   6   7  -3   22.64    1.67
  -6  -7   3   26.75    1.80
  -6  -7   3   21.80    1.89
   5   7  -3   38.37    2.40
   5   7  -3   37.71    2.39
  -5  -7   3   37.74    2.53
  -5  -7   3   41.77    2.46
   4   7  -3   16.60    1.18
   4   7  -3   14.83    1.20
  -4  -7   3   15.43    1.33
  -4  -7   3   16.79    1.31
   3   7  -3    9.76    0.89
   3   7  -3   10.61    0.91
  -3  -7   3   11.78    0.96
  -3  -7   3   10.26    1.03
   2   7  -3    9.98    0.85
   2   7  -3   10.32    0.89
  -2  -7   3   10.95    0.97
  -2  -7   3   10.83    0.88
   1   7  -3   54.11    3.13
   1   7  -3   53.88    3.17
  -1  -7   3   57.41    3.20
  -1  -7   3   53.11    3.14
  -1  -7   3   54.17    3.14
   0   7  -3   16.14    1.18
   0   7  -3   18.43    1.22
   0   7  -3   17.59    1.16
   0  -7   3   16.54    1.19
   0  -7   3   18.73    1.18
   0  -7   3   18.69    1.27
  -1   7  -3   32.87    2.16
  -1   7  -3   36.50    2.10
   1  -7   3   32.60    2.13
   1  -7   3   39.56    2.47
   1  -7   3   37.51    2.12
  -2   7  -3   15.15    1.14
  -2   7  -3   14.74    1.13
   2  -7   3   15.44    1.07
   2  -7   3   15.07    1.11
  -3   7  -3   35.66    2.11
  -3   7  -3   34.34    2.24
  -3   7  -3   36.72    2.24
   3  -7   3   36.72    2.13
   3  -7   3   33.59    2.18
  -4   7  -3    3.70    0.70
  -4   7  -3    4.32    0.71
   4  -7   3    3.21    0.55
   4  -7   3    4.85    0.86
   4  -7   3    3.99    0.71
  -5   7  -3   28.75    2.05
  -5   7  -3   29.84    2.11
   5  -7   3   27.53    1.99
   5  -7   3   27.99    1.94
   6   6  -3    2.78    0.64
   6   6  -3    3.46    0.57
  -6  -6   3    3.89    0.76
   5   6  -3    9.78    1.01
   5   6  -3   10.13    0.94
  -5  -6   3   11.73    1.15
  -5  -6   3   11.27    1.02
   4   6  -3   10.39    0.84
   4   6  -3   11.18    0.95
   4   6  -3   12.18    0.92
  -4  -6   3   12.24    1.05
  -4  -6   3   11.76    1.00
   3   6  -3    0.03    0.31
   3   6  -3   -0.16    0.32
   3   6  -3   -0.10    0.30
  -3  -6   3    0.55    0.35
  -3  -6   3   -0.30    0.34
   2   6  -3   59.37    3.39
   2   6  -3   61.64    3.44
   2   6  -3   60.35    3.42
  -2  -6   3   62.33    3.44
  -2  -6   3   59.89    3.47
  -2  -6   3   56.59    3.43
   1   6  -3   21.78    1.36
   1   6  -3   22.77    1.33
   1   6  -3   19.75    1.32
  -1  -6   3   20.23    1.34
  -1  -6   3   21.06    1.38
  -1  -6   3   22.56    1.34
   0   6  -3    3.22    0.45
   0   6  -3    3.21    0.55
   0   6  -3    3.03    0.55
   0  -6   3    3.09    0.42
   0  -6   3    3.64    0.53
   0  -6   3    3.46    0.50
  -1   6  -3    1.45    0.37
  -1   6  -3    1.49    0.29
  -1   6  -3    1.00    0.34
   1  -6   3    1.69    0.37
   1  -6   3    1.59    0.34
   1  -6   3    1.45    0.37
  -2   6  -3   84.54    4.77
  -2   6  -3   79.50    4.77
   2  -6   3   88.82    4.72
   2  -6   3   83.39    4.74
  -3   6  -3    5.38    0.70
  -3   6  -3    4.29    0.72
   3  -6   3    4.44    0.64
   3  -6   3    3.73    0.63
   3  -6   3    4.91    0.58
  -4   6  -3   61.81    3.86
  -4   6  -3   65.87    3.87
   4  -6   3   66.93    3.73
   4  -6   3   68.65    3.81
  -5   6  -3   15.87    1.39
  -5   6  -3   17.38    1.44
   5  -6   3   15.90    1.28
   5  -6   3   14.65    1.33
  -6   6  -3    4.57    1.14
  -6   6  -3    2.60    0.81
   6  -6   3    1.84    0.79
   6   5  -3    1.54    0.46
   6   5  -3    1.65    0.57
   6   5  -3    1.52    0.39
  -6  -5   3    1.75    0.56
  -6  -5   3    1.20    0.59
   5   5  -3    1.86    0.46
   5   5  -3    2.06    0.42
   5   5  -3    2.79    0.53
  -5  -5   3    2.95    0.59
  -5  -5   3    1.60    0.46
   4   5  -3  102.12    5.29
   4   5  -3   95.61    5.32
   4   5  -3   89.61    5.32
  -4  -5   3   97.07    5.34
  -4  -5   3   90.77    5.38
  -4  -5   3   91.91    5.33
   3   5  -3   52.25    2.92
   3   5  -3   50.64    2.92
   3   5  -3   55.31    2.89
  -3  -5   3   49.17    2.92
  -3  -5   3   50.38    2.97
  -3  -5   3   46.80    2.88
   2   5  -3  132.42    7.44
   2   5  -3  138.04    7.45
   2   5  -3  145.11    7.42
  -2  -5   3  130.55    7.44
  -2  -5   3  129.15    7.41
  -2  -5   3  127.52    7.47
   1   5  -3  275.74   14.76
   1   5  -3  262.17   14.77
   1   5  -3  266.74   14.78
  -1  -5   3  280.11   14.76
  -1  -5   3  258.95   14.80
  -1  -5   3  263.45   14.77
   0   5  -3   22.94    1.45
   0   5  -3   24.73    1.42
   0   5  -3   23.67    1.46
   0  -5   3   24.31    1.47
   0  -5   3   24.35    1.44
  -1   5  -3   24.57    1.53
  -1   5  -3   23.74    1.54
  -1   5  -3   25.02    1.48
   1  -5   3   26.33    1.52
   1  -5   3   26.37    1.51
   1  -5   3   25.12    1.49
  -2   5  -3   23.91    1.56
  -2   5  -3   26.01    1.56
  -2   5  -3   25.42    1.49
   2  -5   3   22.75    1.51
   2  -5   3   27.97    1.54
   2  -5   3   25.50    1.50
  -3   5  -3   10.30    0.92
  -3   5  -3   13.35    1.01
  -3   5  -3   10.82    0.88
   3  -5   3   11.74    0.85
   3  -5   3   10.68    0.84
   3  -5   3   11.16    0.79
  -4   5  -3   15.72    1.16
  -4   5  -3   15.67    1.17
   4  -5   3   15.16    1.09
   4  -5   3   14.74    1.00
   4  -5   3   15.20    1.12
  -5   5  -3    8.60    1.01
  -5   5  -3    8.77    1.10
   5  -5   3    8.94    0.97
   5  -5   3   10.30    0.91
   5  -5   3    8.96    0.76
  -6   5  -3    1.28    0.70
  -6   5  -3    2.76    0.71
   6  -5   3    1.25    0.67
   6  -5   3    2.02    0.60
   7   4  -3   -0.56    0.43
   7   4  -3   -0.33    0.51
   7   4  -3    0.26    0.60
  -7  -4   3    1.20    0.67
  -7  -4   3   -0.13    0.61
   6   4  -3   24.81    1.51
   6   4  -3   22.41    1.55
   6   4  -3   23.71    1.59
  -6  -4   3   21.79    1.60
  -6  -4   3   21.62    1.63
   5   4  -3   41.03    2.49
   5   4  -3   41.27    2.47
   5   4  -3   45.87    2.45
  -5  -4   3   39.50    2.53
  -5  -4   3   40.78    2.49
   4   4  -3    6.48    0.57
   4   4  -3    5.49    0.64
   4   4  -3    6.25    0.60
  -4  -4   3    6.74    0.64
  -4  -4   3    6.64    0.70
   3   4  -3   12.71    0.77
   3   4  -3   11.25    0.80
   3   4  -3   11.49    0.80
  -3  -4   3   10.48    0.84
  -3  -4   3   10.90    0.79
  -3  -4   3   10.58    0.80
   2   4  -3   13.16    0.81
   2   4  -3   12.45    0.80
   2   4  -3   13.78    0.81
  -2  -4   3   12.33    0.85
  -2  -4   3   11.54    0.80
  -2  -4   3   11.44    0.81
  -2  -4   3   10.04    0.77
   1   4  -3   22.51    1.32
   1   4  -3   21.35    1.31
   1   4  -3   24.42    1.32
  -1  -4   3   21.32    1.31
  -1  -4   3   20.76    1.35
   0   4  -3  178.38   10.11
   0   4  -3  181.84   10.13
   0   4  -3  185.44   10.14
   0  -4   3  174.11   10.14
   0  -4   3  205.74   10.12
   0  -4   3  174.54   10.12
  -1   4  -3  128.64    7.11
  -1   4  -3  125.21    7.06
  -1   4  -3  125.09    7.10
   1  -4   3  126.04    7.08
   1  -4   3  126.29    7.08
   1  -4   3  136.23    7.08
  -2   4  -3  171.64    9.54
  -2   4  -3  166.57    9.47
  -2   4  -3  171.72    9.52
   2  -4   3  178.90    9.51
   2  -4   3  183.56    9.49
   2  -4   3  158.75    9.50
  -3   4  -3  174.91    9.76
  -3   4  -3  172.26    9.69
  -3   4  -3  173.85    9.78
   3  -4   3  182.31    9.74
   3  -4   3  166.62    9.74
   3  -4   3  184.59    9.71
  -4   4  -3   38.75    2.25
  -4   4  -3   37.85    2.34
  -4   4  -3   38.69    2.37
   4  -4   3   41.15    2.26
   4  -4   3   38.19    2.34
   4  -4   3   40.71    2.31
  -5   4  -3   33.24    2.18
  -5   4  -3   34.37    2.15
   5  -4   3   35.25    2.10
   5  -4   3   33.62    2.15
   5  -4   3   36.10    2.02
  -6   4  -3    8.95    1.09
  -6   4  -3    8.64    1.13
   6  -4   3    9.63    0.96
   6  -4   3    9.44    1.08
   6  -4   3    8.80    0.81
  -7   4  -3    9.45    1.56
  -7   4  -3   10.04    1.41
   7  -4   3    9.82    1.14
   7  -4   3   10.53    1.25
   7   3  -3   23.04    2.07
   7   3  -3   20.02    1.62
   7   3  -3   21.93    1.51
  -7  -3   3   21.26    1.65
   6   3  -3    1.37    0.45
   6   3  -3    1.41    0.39
   6   3  -3    1.19    0.55
  -6  -3   3    1.56    0.51
  -6  -3   3    1.57    0.48
   5   3  -3    0.30    0.26
  -5  -3   3   -0.07    0.36
  -5  -3   3    0.82    0.35
   4   3  -3   30.78    1.88
   4   3  -3   33.82    1.86
  -4  -3   3   30.05    1.92
  -4  -3   3   31.65    1.89
   3   3  -3  101.51    5.65
   3   3  -3  109.91    5.64
  -3  -3   3   98.50    5.66
  -3  -3   3   99.21    5.63
  -3  -3   3   97.16    5.68
   2   3  -3    2.49    0.29
   2   3  -3    2.54    0.35
   2   3  -3    2.57    0.33
  -2  -3   3    2.52    0.33
  -2  -3   3    2.13    0.35
  -2  -3   3    2.13    0.35
   1   3  -3  163.86    9.52
   1   3  -3  173.96    9.53
   1   3  -3  196.72    9.53
  -1  -3   3  172.29    9.52
  -1  -3   3  168.20    9.53
  -1  -3   3  160.29    9.54
   0   3  -3   59.11    3.17
   0   3  -3   53.92    3.15
   0   3  -3   57.89    3.17
   0  -3   3   53.60    3.15
   0  -3   3   51.31    3.16
   0  -3   3   62.49    3.15
  -1   3  -3  162.26    9.40
  -1   3  -3  183.72    9.42
  -1   3  -3  174.17    9.39
  -1   3  -3  175.27    9.42
   1  -3   3  166.98    9.40
   1  -3   3  152.28    9.39
   1  -3   3  171.62    9.40
   1  -3   3  177.72    9.40
  -2   3  -3    1.99    0.36
  -2   3  -3    1.70    0.24
  -2   3  -3    1.48    0.28
  -2   3  -3    1.37    0.25
   2  -3   3    1.81    0.30
   2  -3   3    1.15    0.22
   2  -3   3    1.99    0.33
   2  -3   3    1.19    0.24
  -3   3  -3   29.42    1.78
  -3   3  -3   30.58    1.78
  -3   3  -3   29.73    1.75
   3  -3   3   30.98    1.71
   3  -3   3   26.34    1.76
   3  -3   3   29.99    1.73
  -4   3  -3   14.57    1.06
  -4   3  -3   14.48    1.01
  -4   3  -3   14.27    1.05
   4  -3   3   15.22    0.91
   4  -3   3   14.05    0.98
   4  -3   3   13.45    1.02
  -5   3  -3   -0.01    0.37
  -5   3  -3    0.53    0.37
   5  -3   3    0.09    0.25
   5  -3   3    0.21    0.31
   5  -3   3    0.18    0.39
  -6   3  -3    7.21    0.95
  -6   3  -3    6.68    0.99
   6  -3   3    7.99    0.68
   6  -3   3    7.50    1.01
   6  -3   3    9.25    0.89
  -7   3  -3    1.75    0.72
  -7   3  -3    2.41    0.72
   7  -3   3    1.95    0.70
   7  -3   3    1.51    0.59
   7   2  -3    0.39    0.67
   7   2  -3    0.29    0.46
   7   2  -3   -0.05    0.48
  -7  -2   3    0.92    0.62
  -7  -2   3   -0.03    0.60
   6   2  -3   55.51    3.05
   6   2  -3   50.51    3.09
   6   2  -3   56.28    3.08
  -6  -2   3   54.20    3.36
  -6  -2   3   52.57    3.11
  -6  -2   3   45.00    3.09
   5   2  -3    4.96    0.58
   5   2  -3    4.78    0.69
   5   2  -3    5.81    0.64
  -5  -2   3    6.29    0.69
  -5  -2   3    5.63    0.67
  -5  -2   3    5.90    0.66
   4   2  -3  117.39    6.67
   4   2  -3  125.77    6.66
   4   2  -3  121.58    6.64
  -4  -2   3  118.37    6.68
  -4  -2   3  116.36    6.68
  -4  -2   3  116.67    6.63
  -4  -2   3  120.45    6.68
   3   2  -3   12.63    0.84
   3   2  -3   13.02    0.82
   3   2  -3   12.76    0.79
  -3  -2   3   12.60    0.84
  -3  -2   3   12.56    0.86
  -3  -2   3   13.33    0.80
   2   2  -3  270.25   15.52
   2   2  -3  307.01   15.51
  -2  -2   3  276.39   15.52
  -2  -2   3  277.58   15.50
  -2  -2   3  277.71   15.53
   1   2  -3  138.93    7.49
  -1  -2   3  141.34    7.48
  -1  -2   3  133.93    7.49
  -1  -2   3  126.86    7.50
   0   2  -3  100.24    6.38
   0   2  -3  127.75    6.41
   0   2  -3  119.18    6.39
   0  -2   3  123.51    6.40
   0  -2   3  106.84    6.38
   0  -2   3  112.20    6.41
   0  -2   3  121.60    6.40
  -1   2  -3   19.29    1.06
  -1   2  -3   15.67    1.01
  -1   2  -3   17.93    1.01
  -1   2  -3   16.43    1.04
  -1   2  -3   18.13    1.01
  -1   2  -3   20.13    1.05
   1  -2   3   16.28    1.02
   1  -2   3   17.14    1.04
   1  -2   3   18.66    1.03
   1  -2   3   17.13    1.03
  -2   2  -3  242.84   12.85
  -2   2  -3  235.76   12.87
  -2   2  -3  221.01   12.86
   2  -2   3  242.64   12.84
   2  -2   3  224.04   12.85
  -3   2  -3   21.85    1.32
  -3   2  -3   21.30    1.35
  -3   2  -3   22.07    1.35
   3  -2   3   21.05    1.30
   3  -2   3   22.70    1.28
  -4   2  -3  163.66    9.28
  -4   2  -3  169.23    9.24
  -4   2  -3  169.85    9.28
   4  -2   3  173.91    9.20
   4  -2   3  155.46    9.25
   4  -2   3  166.75    9.24
  -5   2  -3   68.49    3.79
  -5   2  -3   63.36    3.83
  -5   2  -3   66.82    3.84
   5  -2   3   67.35    3.71
   5  -2   3   68.56    3.77
   5  -2   3   61.52    3.81
  -6   2  -3    1.12    0.47
  -6   2  -3    1.27    0.50
   6  -2   3    1.36    0.42
   6  -2   3    0.95    0.30
   6  -2   3    1.31    0.49
  -7   2  -3   12.87    1.34
  -7   2  -3   15.02    1.33
   7  -2   3   14.14    1.34
   7  -2   3   15.12    1.22
   8  -2   3   15.83    1.56
   7   1  -3    0.75    0.52
   7   1  -3    1.00    0.49
   7   1  -3    1.82    0.59
  -7  -1   3    0.43    0.63
   6   1  -3    0.00    0.35
   6   1  -3   -0.07    0.36
   6   1  -3    0.19    0.46
  -6  -1   3    0.13    0.48
  -6  -1   3   -0.08    0.46
   5   1  -3    0.16    0.25
   5   1  -3   -0.42    0.32
   5   1  -3   -0.16    0.28
   5   1  -3   -0.21    0.26
  -5  -1   3    0.17    0.32
  -5  -1   3    0.38    0.32
  -5  -1   3   -0.11    0.33
   4   1  -3    5.58    0.52
   4   1  -3    5.86    0.51
   4   1  -3    4.26    0.55
  -4  -1   3    5.01    0.57
  -4  -1   3    4.95    0.54
  -4  -1   3    5.13    0.44
  -4  -1   3    5.00    0.54
   3   1  -3   23.17    1.40
   3   1  -3   24.07    1.39
   3   1  -3   25.00    1.38
  -3  -1   3   22.82    1.41
  -3  -1   3   23.05    1.35
  -3  -1   3   22.62    1.41
  -3  -1   3   23.23    1.40
   2   1  -3   29.85    1.62
   2   1  -3   31.24    1.59
   2   1  -3   27.20    1.63
  -2  -1   3   26.67    1.58
  -2  -1   3   28.10    1.63
  -2  -1   3   27.70    1.63
  -2  -1   3   25.27    1.62
   1   1  -3   17.75    1.11
   1   1  -3   19.20    1.14
   1   1  -3   23.15    1.15
  -1  -1   3   18.80    1.15
  -1  -1   3   18.27    1.13
  -1  -1   3   19.19    1.15
  -1  -1   3   20.71    1.13
   0   1  -3  120.08    7.37
   0   1  -3  146.58    7.37
   0   1  -3  137.71    7.38
   0   1  -3  128.77    7.37
   0  -1   3  128.01    7.38
   0  -1   3  141.42    7.37
   0  -1   3  134.26    7.37
  -1   1  -3    0.40    0.10
  -1   1  -3    0.46    0.13
  -1   1  -3    0.17    0.10
  -1   1  -3    0.44    0.15
  -1   1  -3    0.24    0.13
   1  -1   3    0.23    0.10
   1  -1   3    0.17    0.10
   1  -1   3    0.34    0.10
   1  -1   3    0.38    0.11
   1  -1   3    0.40    0.13
   1  -1   3    0.19    0.10
  -2   1  -3  168.94    9.70
  -2   1  -3  174.83    9.66
  -2   1  -3  184.90    9.71
  -2   1  -3  189.88    9.68
   2  -1   3  177.27    9.68
   2  -1   3  167.31    9.66
   2  -1   3  166.83    9.69
  -3   1  -3   98.89    5.91
  -3   1  -3  109.00    5.88
  -3   1  -3  109.43    5.92
   3  -1   3  103.76    5.89
   3  -1   3  108.66    5.87
  -4   1  -3   25.60    1.58
  -4   1  -3   26.50    1.55
  -4   1  -3   25.64    1.60
   4  -1   3   26.04    1.51
   4  -1   3   24.98    1.54
  -5   1  -3    5.06    0.65
  -5   1  -3    5.86    0.61
  -5   1  -3    5.02    0.70
   5  -1   3    5.53    0.51
   5  -1   3    4.29    0.69
   5  -1   3    5.81    0.61
  -6   1  -3    0.98    0.49
  -6   1  -3    0.52    0.40
  -6   1  -3    1.10    0.44
   6  -1   3    0.61    0.34
   6  -1   3    0.42    0.45
   6  -1   3    1.02    0.31
  -7   1  -3    7.21    1.04
  -7   1  -3    8.69    1.00
   7  -1   3    6.83    1.05
   7  -1   3    7.71    0.72
   7  -1   3    6.94    0.91
  -8   1  -3   14.65    1.44
  -8   1  -3   11.79    1.42
   8  -1   3   13.50    1.31
   8  -1   3   13.36    1.50
   7   0  -3   14.27    1.25
   7   0  -3   15.07    1.28
  -7   0   3   16.96    1.40
  -7   0   3   14.35    1.69
   6   0  -3    8.40    0.89
   6   0  -3    9.42    0.89
  -6   0   3    7.67    0.95
  -6   0   3    7.01    0.99
   5   0  -3    1.97    0.37
   5   0  -3    1.76    0.36
  -5   0   3    1.85    0.41
  -5   0   3    1.03    0.41
   4   0  -3  225.92   12.51
   4   0  -3  241.83   12.51
  -4   0   3  216.99   12.51
  -4   0   3  219.71   12.53
   3   0  -3   66.00    3.76
   3   0  -3   70.94    3.76
  -3   0   3   64.87    3.77
  -3   0   3   66.71    3.76
  -3   0   3   66.15    3.79
   2   0  -3  507.44   25.41
   2   0  -3  467.93   25.42
  -2   0   3  446.49   25.44
  -2   0   3  455.22   25.43
  -2   0   3  435.77   25.42
   1   0  -3  497.33   28.90
   1   0  -3  519.40   28.93
   1   0  -3  579.49   28.93
  -1   0   3  566.55   28.90
  -1   0   3  508.81   28.93
  -1   0   3  504.57   28.93
  -1   0   3  511.49   28.93
   0   0  -3   77.34    4.20
   0   0  -3   73.37    4.19
   0   0  -3   72.75    4.19
   0   0  -3   73.37    4.19
   0   0   3   80.12    4.19
   0   0   3   75.91    4.20
   0   0   3   75.64    4.18
   0   0   3   78.86    4.20
   0   0   3   74.96    4.19
  -1   0  -3   26.08    1.64
  -1   0  -3   29.06    1.66
  -1   0  -3   30.43    1.62
  -1   0  -3   33.61    1.66
  -1   0  -3   29.80    1.67
   1   0   3   31.75    1.65
   1   0   3   26.69    1.64
   1   0   3   27.35    1.64
   1   0   3   29.10    1.62
   1   0   3   27.18    1.64
  -2   0  -3  345.98   19.01
  -2   0  -3  333.25   19.03
  -2   0  -3  368.80   19.04
  -2   0  -3  338.84   19.04
  -2   0  -3  351.47   19.00
   2   0   3  324.63   19.02
   2   0   3  345.17   19.00
   2   0   3  347.10   19.02
   2   0   3  359.10   19.00
  -3   0  -3    3.50    0.39
  -3   0  -3    4.02    0.34
  -3   0  -3    2.89    0.38
  -3   0  -3    2.48    0.40
   3   0   3    3.23    0.28
   3   0   3    3.36    0.37
   3   0   3    3.70    0.33
  -4   0  -3  142.53    7.76
  -4   0  -3  145.29    7.72
  -4   0  -3  135.29    7.76
   4   0   3  137.25    7.67
   4   0   3  132.51    7.73
   4   0   3  142.34    7.71
  -5   0  -3   27.29    1.76
  -5   0  -3   29.34    1.78
  -5   0  -3   28.91    1.80
   5   0   3   28.34    1.73
   5   0   3   28.59    1.68
  -6   0  -3   26.14    1.74
  -6   0  -3   29.33    1.70
  -6   0  -3   27.14    1.78
   6   0   3   25.86    1.62
   6   0   3   23.37    1.76
   6   0   3   27.71    1.70
  -7   0  -3    5.48    0.93
  -7   0  -3    7.32    0.87
  -7   0  -3    4.37    0.74
   7   0   3    5.67    0.91
   7   0   3    5.89    0.95
   7   0   3    6.41    0.69
  -8   0  -3   49.72    3.17
   8   0   3   50.72    3.08
   8   0   3   49.28    3.17
   6  -1  -3   19.29    1.33
   6  -1  -3   18.05    1.36
  -6   1   3   16.52    1.44
  -6   1   3   18.68    1.38
   5  -1  -3   -0.17    0.31
   5  -1  -3   -0.17    0.32
  -5   1   3   -0.38    0.37
  -5   1   3    0.16    0.41
   4  -1  -3    0.42    0.25
   4  -1  -3    0.21    0.27
  -4   1   3    0.47    0.29
  -4   1   3    0.26    0.30
   3  -1  -3   34.14    1.86
   3  -1  -3   31.20    1.85
  -3   1   3   31.68    1.86
  -3   1   3   30.81    1.88
  -3   1   3   30.87    1.85
   2  -1  -3   53.44    3.00
  -2   1   3   51.96    3.00
  -2   1   3   54.37    2.99
   1  -1  -3   67.50    3.62
  -1   1   3   62.19    3.62
  -1   1   3   63.93    3.63
  -1   1   3   65.91    3.62
   0  -1  -3  212.96   11.57
   0  -1  -3  211.58   11.56
   0  -1  -3  211.11   11.63
   0  -1  -3  208.11   11.56
   0  -1  -3  215.86   11.59
   0   1   3  207.61   11.57
   0   1   3  204.54   11.57
   0   1   3  204.24   11.56
   0   1   3  214.74   11.56
   0   1   3  213.13   11.58
  -1  -1  -3   10.42    0.60
  -1  -1  -3   11.34    0.65
  -1  -1  -3    9.84    0.62
  -1  -1  -3   10.47    0.62
   1   1   3   10.29    0.62
   1   1   3    9.49    0.60
   1   1   3   10.73    0.63
   1   1   3    9.65    0.62
  -2  -1  -3  266.67   14.04
  -2  -1  -3  247.56   14.05
  -2  -1  -3  238.26   14.04
   2   1   3  247.36   14.03
   2   1   3  245.53   14.03
   2   1   3  285.01   14.04
  -3  -1  -3   93.84    5.24
  -3  -1  -3   92.04    5.23
  -3  -1  -3   95.18    5.23
   3   1   3   94.39    5.21
   3   1   3   93.42    5.19
  -4  -1  -3   66.53    3.94
  -4  -1  -3   72.41    3.94
  -4  -1  -3   73.90    3.89
  -4  -1  -3   68.50    3.93
   4   1   3   69.23    3.87
   4   1   3   66.13    3.92
   4   1   3   69.84    3.90
  -5  -1  -3    8.32    0.78
  -5  -1  -3    8.31    0.72
  -5  -1  -3    8.58    0.73
  -5  -1  -3    9.27    0.70
   5   1   3    7.47    0.72
   5   1   3    7.49    0.63
   5   1   3    8.13    0.63
  -6  -1  -3    0.27    0.43
  -6  -1  -3    1.16    0.39
   6   1   3    0.93    0.32
   6   1   3    0.48    0.38
   6   1   3    0.68    0.30
   6   1   3    0.30    0.42
   6   1   3    1.08    0.30
  -7  -1  -3    0.02    0.56
  -7  -1  -3    0.25    0.47
   7   1   3    0.25    0.54
   7   1   3   -0.35    0.47
   7   1   3   -0.76    0.36
  -8  -1  -3   29.68    2.17
  -8  -1  -3   28.99    2.06
   8   1   3   28.80    1.89
   8   1   3   29.52    2.03
   8   1   3   27.92    2.10
   6  -2  -3    6.02    0.89
   6  -2  -3    5.21    0.87
  -6   2   3    5.41    0.79
  -6   2   3    5.76    0.75
   5  -2  -3    4.72    0.69
   5  -2  -3    3.61    0.54
  -5   2   3    3.08    0.62
  -5   2   3    4.17    0.55
   4  -2  -3   48.88    2.93
   4  -2  -3   54.14    2.94
  -4   2   3   51.22    2.93
  -4   2   3   48.34    2.96
   3  -2  -3   82.43    4.82
   3  -2  -3   91.07    4.83
   3  -2  -3   90.90    4.78
  -3   2   3   82.23    4.82
  -3   2   3   86.66    4.80
  -3   2   3   82.43    4.85
   2  -2  -3    3.74    0.37
   2  -2  -3    5.01    0.42
   2  -2  -3    4.08    0.40
  -2   2   3    3.83    0.45
  -2   2   3    4.35    0.39
  -2   2   3    3.61    0.38
   1  -2  -3  127.64    7.31
   1  -2  -3  147.52    7.30
  -1   2   3  128.68    7.32
  -1   2   3  133.61    7.31
  -1   2   3  122.91    7.32
   0  -2  -3    8.37    0.55
   0  -2  -3    9.13    0.55
   0   2   3    8.76    0.55
   0   2   3    8.56    0.54
   0   2   3    8.41    0.52
   0   2   3    8.42    0.55
   0   2   3    8.66    0.53
  -1  -2  -3  205.85   11.87
  -1  -2  -3  198.00   11.85
  -1  -2  -3  247.39   11.89
   1   2   3  210.44   11.86
   1   2   3  198.04   11.87
   1   2   3  242.46   11.86
   1   2   3  207.64   11.87
  -2  -2  -3   32.76    2.01
  -2  -2  -3   34.38    2.00
  -2  -2  -3   35.09    2.02
  -2  -2  -3   35.46    1.99
   2   2   3   34.25    2.00
   2   2   3   33.52    2.00
   2   2   3   40.74    1.99
   2   2   3   35.26    1.97
  -3  -2  -3    5.93    0.46
  -3  -2  -3    5.55    0.46
  -3  -2  -3    5.58    0.50
  -3  -2  -3    5.34    0.51
   3   2   3    5.99    0.40
   3   2   3    5.82    0.38
   3   2   3    5.88    0.44
   3   2   3    4.88    0.45
  -4  -2  -3   11.61    0.84
  -4  -2  -3   11.91    0.86
  -4  -2  -3   11.06    0.83
   4   2   3   12.15    0.80
   4   2   3   13.13    0.74
   4   2   3   12.17    0.79
  -5  -2  -3   67.89    3.95
  -5  -2  -3   69.83    3.94
  -5  -2  -3   75.21    3.90
  -5  -2  -3   67.44    3.97
   5   2   3   66.47    3.94
   5   2   3   68.42    3.91
   5   2   3   68.49    3.89
   5   2   3   69.34    3.85
  -6  -2  -3   44.62    2.75
  -6  -2  -3   46.05    2.70
  -6  -2  -3   47.16    2.72
   6   2   3   45.79    2.64
   6   2   3   44.08    2.58
   6   2   3   44.91    2.65
   6   2   3   44.95    2.71
  -7  -2  -3   51.99    2.98
  -7  -2  -3   49.04    3.06
   7   2   3   49.42    2.99
   7   2   3   47.93    2.86
   7   2   3   47.25    3.03
   7   2   3   50.82    2.90
  -8  -2  -3   12.72    1.30
  -8  -2  -3   13.30    1.46
   8   2   3   12.02    1.39
   8   2   3   11.79    1.30
   8   2   3   13.34    1.13
   6  -3  -3   15.50    1.26
   6  -3  -3   14.17    1.28
  -6   3   3   13.11    1.61
  -6   3   3   14.46    1.30
   5  -3  -3   37.47    2.09
   5  -3  -3   37.59    2.20
   5  -3  -3   35.01    2.20
  -5   3   3   31.76    2.24
  -5   3   3   35.04    2.22
   4  -3  -3   78.60    4.41
   4  -3  -3   82.30    4.41
  -4   3   3   75.80    4.44
  -4   3   3   72.96    4.35
  -4   3   3   77.42    4.40
   3  -3  -3   26.32    1.61
   3  -3  -3   28.78    1.63
   3  -3  -3   28.46    1.57
  -3   3   3   25.28    1.57
  -3   3   3   24.62    1.64
  -3   3   3   25.93    1.61
   2  -3  -3  249.32   13.05
   2  -3  -3  266.68   13.02
   2  -3  -3  220.46   13.04
  -2   3   3  234.77   13.02
  -2   3   3  224.64   13.04
  -2   3   3  222.19   13.06
   1  -3  -3    0.92    0.19
   1  -3  -3    0.80    0.22
   1  -3  -3    0.60    0.15
  -1   3   3    0.47    0.21
  -1   3   3    0.44    0.17
  -1   3   3    0.59    0.21
   0  -3  -3    1.60    0.23
   0  -3  -3    1.29    0.21
   0  -3  -3    1.12    0.26
   0  -3  -3    1.29    0.17
   0  -3  -3    1.27    0.29
   0   3   3    1.46    0.22
   0   3   3    1.02    0.18
   0   3   3    1.05    0.19
   0   3   3    1.09    0.16
   0   3   3    1.28    0.20
  -1  -3  -3   89.63    4.86
  -1  -3  -3   86.71    4.85
   1   3   3   83.16    4.85
   1   3   3   90.07    4.85
   1   3   3   87.72    4.86
  -2  -3  -3  133.37    7.12
  -2  -3  -3  125.14    7.08
  -2  -3  -3  128.30    7.11
  -2  -3  -3  125.53    7.12
   2   3   3  124.00    7.11
   2   3   3  126.13    7.11
   2   3   3  138.86    7.08
   2   3   3  126.18    7.08
  -3  -3  -3   56.77    3.24
  -3  -3  -3   57.81    3.26
  -3  -3  -3   54.84    3.25
  -3  -3  -3   56.73    3.22
   3   3   3   60.19    3.20
   3   3   3   58.16    3.24
   3   3   3   57.40    3.24
  -4  -3  -3  188.44   10.57
  -4  -3  -3  192.88   10.54
  -4  -3  -3  185.14   10.57
  -4  -3  -3  189.96   10.55
   4   3   3  193.96   10.55
   4   3   3  194.84   10.50
   4   3   3  189.35   10.54
  -5  -3  -3   29.61    1.88
  -5  -3  -3   31.60    1.84
  -5  -3  -3   30.12    1.89
  -5  -3  -3   32.52    1.79
   5   3   3   29.26    1.77
   5   3   3   30.64    1.84
   5   3   3   32.38    1.79
   5   3   3   29.18    1.82
  -6  -3  -3    4.11    0.70
  -6  -3  -3    4.35    0.76
   6   3   3    3.55    0.52
   6   3   3    2.24    0.49
   6   3   3    2.82    0.41
   6   3   3    2.52    0.35
   6   3   3    3.06    0.43
  -7  -3  -3    0.45    0.55
  -7  -3  -3   -0.27    0.54
  -7  -3  -3    0.54    0.40
   7   3   3    0.27    0.34
   7   3   3    0.93    0.38
   7   3   3    1.34    0.40
   7   3   3    0.47    0.61
   7   3   3    0.69    0.43
  -8  -3  -3   20.03    1.77
   8   3   3   20.15    1.73
   8   3   3   21.16    1.47
   8   3   3   21.56    1.67
   8   3   3   20.57    1.60
   8   3   3   22.16    1.55
   6  -4  -3   -0.62    0.57
  -6   4   3    1.14    0.73
   5  -4  -3    1.65    0.53
   5  -4  -3    0.61    0.50
  -5   4   3    1.52    0.57
  -5   4   3    2.11    0.62
   4  -4  -3   24.26    1.55
   4  -4  -3   22.51    1.53
   4  -4  -3   24.53    1.45
  -4   4   3   21.68    1.58
  -4   4   3   23.63    1.52
   3  -4  -3   77.11    4.05
   3  -4  -3   71.78    4.09
   3  -4  -3   74.08    4.10
  -3   4   3   68.82    4.04
  -3   4   3   70.94    4.13
  -3   4   3   69.73    4.08
   2  -4  -3   14.81    1.00
   2  -4  -3   16.53    1.04
   2  -4  -3   16.98    1.01
  -2   4   3   15.63    0.99
  -2   4   3   14.88    1.01
  -2   4   3   15.19    1.05
   1  -4  -3  118.69    6.15
   1  -4  -3  102.05    6.11
   1  -4  -3  125.03    6.13
  -1   4   3  105.94    6.13
  -1   4   3  106.44    6.12
  -1   4   3  104.12    6.14
   0  -4  -3   87.67    4.40
   0  -4  -3   83.86    4.38
   0  -4  -3   75.46    4.36
   0  -4  -3   76.15    4.35
   0   4   3   77.13    4.37
   0   4   3   72.14    4.37
   0   4   3   76.85    4.38
  -1  -4  -3   18.50    1.09
  -1  -4  -3   20.43    1.12
  -1  -4  -3   17.22    1.07
   1   4   3   15.47    1.07
   1   4   3   16.59    1.06
  -2  -4  -3    8.45    0.64
  -2  -4  -3    9.82    0.69
  -2  -4  -3    7.99    0.66
   2   4   3    9.40    0.65
   2   4   3    9.69    0.62
  -3  -4  -3    0.81    0.27
  -3  -4  -3    1.13    0.22
  -3  -4  -3    1.19    0.28
   3   4   3    0.42    0.23
   3   4   3    1.37    0.23
   3   4   3    0.97    0.23
  -4  -4  -3    1.67    0.30
  -4  -4  -3    2.22    0.40
  -4  -4  -3    2.47    0.37
  -4  -4  -3    1.99    0.34
   4   4   3    2.20    0.33
   4   4   3    2.12    0.31
   4   4   3    2.07    0.30
  -5  -4  -3   70.77    4.06
  -5  -4  -3   71.82    4.04
  -5  -4  -3   71.21    4.09
  -5  -4  -3   68.67    4.09
   5   4   3   72.50    4.06
   5   4   3   73.63    4.00
   5   4   3   70.83    4.05
  -6  -4  -3   25.45    1.70
  -6  -4  -3   26.48    1.64
  -6  -4  -3   26.26    1.71
   6   4   3   24.30    1.62
   6   4   3   25.37    1.54
   6   4   3   25.63    1.61
  -7  -4  -3   59.66    3.65
  -7  -4  -3   59.62    3.59
   7   4   3   66.82    3.49
   7   4   3   53.57    3.48
   7   4   3   56.50    3.57
   7   4   3   61.62    3.49
   7   4   3   62.28    3.52
  -8  -4  -3    8.88    1.28
  -8  -4  -3    8.01    1.27
   8   4   3    7.19    1.02
   8   4   3    8.59    1.22
   8   4   3    7.93    1.01
   8   4   3    6.77    1.20
   8   4   3    7.47    1.03
   5  -5  -3    9.42    1.08
   5  -5  -3   11.61    1.15
   5  -5  -3    9.12    1.21
  -5   5   3   11.12    1.14
  -5   5   3   11.26    1.28
   4  -5  -3   71.65    4.08
   4  -5  -3   71.98    4.09
   4  -5  -3   72.61    4.03
  -4   5   3   67.01    4.13
  -4   5   3   70.04    4.08
   3  -5  -3    0.50    0.32
   3  -5  -3   -0.27    0.35
   3  -5  -3   -0.01    0.37
  -3   5   3    0.06    0.29
  -3   5   3    0.66    0.36
  -3   5   3   -0.07    0.40
   2  -5  -3   63.72    3.60
   2  -5  -3   68.98    3.58
  -2   5   3   63.52    3.62
  -2   5   3   59.04    3.55
  -2   5   3   59.91    3.58
   1  -5  -3    1.14    0.29
   1  -5  -3    1.27    0.32
   1  -5  -3    0.34    0.23
   1  -5  -3    0.55    0.21
  -1   5   3    0.41    0.25
  -1   5   3    0.57    0.27
  -1   5   3    0.59    0.29
   0  -5  -3   20.74    1.22
   0  -5  -3   20.92    1.28
   0  -5  -3   21.46    1.25
   0   5   3   18.77    1.24
   0   5   3   19.59    1.22
   0   5   3   19.42    1.23
  -1  -5  -3    3.27    0.51
  -1  -5  -3    4.39    0.44
  -1  -5  -3    2.92    0.46
   1   5   3    3.89    0.42
   1   5   3    3.67    0.42
  -2  -5  -3   67.77    3.87
  -2  -5  -3   66.48    3.86
  -2  -5  -3   69.80    3.88
   2   5   3   70.33    3.84
   2   5   3   68.65    3.87
  -3  -5  -3   13.57    0.91
  -3  -5  -3   13.14    0.94
  -3  -5  -3   12.21    0.94
   3   5   3   14.33    0.93
   3   5   3   13.84    0.87
  -4  -5  -3   51.90    3.17
  -4  -5  -3   53.58    3.17
  -4  -5  -3   55.78    3.16
   4   5   3   57.07    3.17
   4   5   3   55.10    3.16
   4   5   3   56.56    3.11
  -5  -5  -3   10.97    0.96
  -5  -5  -3   10.95    0.97
  -5  -5  -3   12.51    0.92
   5   5   3   13.17    0.93
   5   5   3   12.22    0.84
   5   5   3   11.40    0.92
  -6  -5  -3   35.58    2.28
  -6  -5  -3   36.77    2.25
  -6  -5  -3   34.41    2.28
   6   5   3   37.46    2.15
   6   5   3   37.21    2.24
   6   5   3   38.58    2.25
  -7  -5  -3   14.21    1.20
  -7  -5  -3   12.77    1.29
   7   5   3   14.19    1.13
   7   5   3   14.22    1.17
   7   5   3   13.89    1.20
  -8  -5  -3   25.13    1.96
  -8  -5  -3   23.36    1.96
   8   5   3   25.37    1.95
   8   5   3   27.45    1.85
   8   5   3   23.37    1.93
   8   5   3   29.19    1.87
   5  -6  -3    9.85    1.24
   5  -6  -3   11.32    1.29
   5  -6  -3   11.43    1.19
  -5   6   3   14.07    1.29
   4  -6  -3    4.44    0.84
   4  -6  -3    3.90    0.60
   4  -6  -3    2.33    0.64
  -4   6   3    4.14    0.67
  -4   6   3    3.26    0.71
   3  -6  -3   77.83    4.27
   3  -6  -3   71.85    4.31
  -3   6   3   77.44    4.36
  -3   6   3   73.19    4.30
   2  -6  -3   18.06    1.26
   2  -6  -3   19.22    1.24
  -2   6   3   18.36    1.23
  -2   6   3   18.53    1.29
   1  -6  -3   65.76    3.51
   1  -6  -3   59.01    3.47
   1  -6  -3   62.07    3.47
   1  -6  -3   59.89    3.52
  -1   6   3   59.45    3.50
  -1   6   3   62.63    3.52
   0  -6  -3    0.54    0.39
   0  -6  -3    1.59    0.32
   0  -6  -3    1.00    0.34
   0   6   3    1.15    0.29
   0   6   3    1.29    0.28
  -1  -6  -3   31.54    1.84
  -1  -6  -3   30.15    1.85
  -1  -6  -3   30.42    1.82
   1   6   3   29.32    1.80
   1   6   3   31.76    1.82
   1   6   3   30.65    1.82
  -2  -6  -3    0.36    0.34
  -2  -6  -3    0.46    0.28
  -2  -6  -3   -0.15    0.36
   2   6   3    0.59    0.29
   2   6   3    0.32    0.28
  -3  -6  -3   38.92    2.50
  -3  -6  -3   43.44    2.49
  -3  -6  -3   40.64    2.51
   3   6   3   46.79    2.47
   3   6   3   43.65    2.51
  -4  -6  -3   19.61    1.32
  -4  -6  -3   19.89    1.29
  -4  -6  -3   17.58    1.28
   4   6   3   18.50    1.29
   4   6   3   21.46    1.24
  -5  -6  -3   -0.03    0.35
  -5  -6  -3   -0.61    0.39
  -5  -6  -3   -0.43    0.39
   5   6   3   -0.39    0.31
   5   6   3    0.30    0.39
   5   6   3   -0.27    0.40
  -6  -6  -3   44.52    2.78
  -6  -6  -3   43.58    2.84
   6   6   3   49.68    2.80
   6   6   3   50.03    2.71
   6   6   3   43.74    2.78
  -7  -6  -3   12.73    1.22
  -7  -6  -3   10.06    1.28
   7   6   3   11.65    1.05
   7   6   3   12.73    1.20
   7   6   3   14.36    1.21
   4  -7  -3   15.30    1.28
   4  -7  -3   13.85    1.45
   4  -7  -3   13.68    1.37
  -4   7   3   17.03    1.39
  -4   7   3   17.97    1.57
   3  -7  -3   11.32    1.03
   3  -7  -3   10.57    1.11
  -3   7   3   12.51    1.21
  -3   7   3   12.54    1.09
   2  -7  -3    0.27    0.45
   2  -7  -3    0.44    0.47
  -2   7   3    1.31    0.51
  -2   7   3    0.42    0.45
   1  -7  -3    4.60    0.66
   1  -7  -3    3.97    0.73
  -1   7   3    3.76    0.50
  -1   7   3    3.74    0.53
   0  -7  -3    1.85    0.36
   0  -7  -3    1.14    0.46
   0  -7  -3    2.12    0.42
   0   7   3    1.18    0.36
   0   7   3    1.36    0.37
   0   7   3    1.75    0.36
  -1  -7  -3   16.68    1.18
  -1  -7  -3   17.18    1.15
  -1  -7  -3   16.12    1.14
   1   7   3   15.82    1.10
   1   7   3   15.95    1.14
   1   7   3   17.03    1.12
  -2  -7  -3   26.99    1.59
  -2  -7  -3   22.84    1.60
  -2  -7  -3   24.08    1.61
   2   7   3   25.00    1.55
   2   7   3   26.58    1.59
  -3  -7  -3    1.29    0.37
  -3  -7  -3    1.31    0.40
  -3  -7  -3    0.49    0.39
   3   7   3    0.82    0.38
   3   7   3    1.16    0.36
  -4  -7  -3   22.84    1.63
  -4  -7  -3   26.40    1.64
  -4  -7  -3   24.87    1.67
   4   7   3   26.45    1.57
   4   7   3   25.72    1.65
  -5  -7  -3   56.09    3.25
  -5  -7  -3   51.85    3.27
   5   7   3   56.62    3.18
   5   7   3   55.26    3.26
  -6  -7  -3   49.20    3.15
  -6  -7  -3   50.91    3.20
   6   7   3   52.40    3.07
   6   7   3   53.83    3.18
   6   7   3   56.13    3.17
  -7  -7  -3   42.19    2.98
  -7  -7  -3   46.23    2.95
   7   7   3   48.46    2.94
   7   7   3   48.48    2.84
   7   7   3   51.42    2.98
   3  -8  -3   25.98    1.83
   3  -8  -3   21.24    1.81
  -3   8   3   26.69    1.83
  -3   8   3   30.82    2.00
   2  -8  -3   19.49    1.42
   2  -8  -3   16.11    1.44
  -2   8   3   19.40    1.41
  -2   8   3   20.95    1.52
   1  -8  -3   20.30    1.57
   1  -8  -3   23.91    1.56
  -1   8   3   24.32    1.60
  -1   8   3   23.22    1.52
   0  -8  -3    2.28    0.47
   0  -8  -3    1.77    0.54
   0   8   3    1.95    0.47
   0   8   3    1.65    0.41
   0   8   3    0.96    0.47
  -1  -8  -3   23.90    1.70
  -1  -8  -3   26.13    1.72
  -1  -8  -3   27.33    1.68
   1   8   3   27.59    1.68
   1   8   3   26.42    1.66
  -2  -8  -3    1.13    0.53
  -2  -8  -3    2.36    0.55
  -2  -8  -3    2.85    0.49
   2   8   3    2.00    0.50
   2   8   3    2.66    0.49
  -3  -8  -3   71.94    4.33
  -3  -8  -3   76.48    4.31
   3   8   3   75.24    4.32
   3   8   3   75.90    4.26
  -4  -8  -3   18.19    1.28
  -4  -8  -3   16.63    1.33
   4   8   3   17.83    1.23
   4   8   3   13.11    1.26
  -5  -8  -3    0.82    0.60
  -5  -8  -3    0.37    0.56
   5   8   3   -0.19    0.54
   5   8   3   -0.31    0.49
  -6  -8  -3    1.51    0.70
  -6  -8  -3    2.14    0.69
   6   8   3    1.37    0.60
   6   8   3    1.47    0.69
   6   8   3    2.18    0.73
   2  -9  -3    0.48    0.69
   2  -9  -3    0.82    0.70
  -2   9   3    0.97    0.84
  -2   9   3    2.23    0.79
   1  -9  -3   13.30    1.34
   1  -9  -3   16.89    1.35
  -1   9   3   17.85    1.47
  -1   9   3   16.11    1.31
   0  -9  -3    1.79    0.61
   0  -9  -3    2.76    0.79
   0   9   3    1.44    0.56
   0   9   3    1.67    0.58
  -1  -9  -3   -0.03    0.53
  -1  -9  -3    1.17    0.58
   1   9   3    1.02    0.52
   1   9   3    1.08    0.52
   1   9   3    0.67    0.49
  -2  -9  -3   19.64    1.44
  -2  -9  -3   15.47    1.42
   2   9   3   18.02    1.32
   2   9   3   18.08    1.37
  -3  -9  -3    4.94    0.78
  -3  -9  -3    7.55    0.98
   3   9   3    6.30    0.86
   3   9   3    6.63    0.96
  -4  -9  -3    2.94    0.67
  -4  -9  -3    2.65    0.72
   4   9   3    2.72    0.63
   4   9   3    1.62    0.58
  -5  -9  -3   18.11    1.61
  -5  -9  -3   19.78    1.55
   5   9   3   16.89    1.40
   5   9   3   17.80    1.51
   0 -10  -3   10.11    1.26
   0 -10  -3    9.68    1.34
   0  10   3    9.98    1.27
  -1 -10  -3    0.67    0.70
  -1 -10  -3    1.49    0.71
   1  10   3   -0.04    0.78
   1  10   3    1.17    0.67
  -2 -10  -3   20.31    1.63
  -2 -10  -3   17.16    1.62
   2  10   3   18.32    1.48
   2  10   3   22.83    1.59
  -3 -10  -3    6.06    0.90
   3  10   3    6.50    1.12
   3  10   3    6.92    1.00
  -4 -10  -3    5.61    1.03
  -4 -10  -3    7.04    1.18
   4  10   3    3.71    0.78
   4  10   3    6.64    0.99
   1  10  -4    8.98    1.45
   1  10  -4   10.83    1.24
   1  10  -4   10.44    1.37
  -1 -10   4   11.59    1.26
  -1 -10   4   13.22    1.51
   0  10  -4   20.34    1.56
   0 -10   4   21.14    1.75
   0 -10   4   22.43    1.61
   0 -10   4   17.35    1.58
  -1  10  -4    5.90    0.82
   1 -10   4    9.04    1.12
   1 -10   4    6.29    0.88
   3   9  -4   54.72    3.63
   3   9  -4   61.18    3.62
  -3  -9   4   65.47    3.69
  -3  -9   4   63.51    3.77
   2   9  -4    3.92    0.74
   2   9  -4    4.92    0.83
   2   9  -4    3.43    0.67
  -2  -9   4    4.78    0.74
  -2  -9   4    4.67    0.80
   1   9  -4   31.86    2.38
   1   9  -4   36.92    2.33
   1   9  -4   39.54    2.43
  -1  -9   4   41.48    2.48
  -1  -9   4   37.75    2.37
   0   9  -4   38.14    2.24
   0   9  -4   35.16    2.32
   0  -9   4   30.93    2.25
   0  -9   4   39.89    2.30
  -1   9  -4   -1.00    0.50
  -1   9  -4    0.02    0.64
   1  -9   4    0.34    0.59
   1  -9   4   -0.33    0.60
  -2   9  -4    1.50    0.68
   2  -9   4    1.60    0.63
  -3   9  -4    2.70    0.77
   3  -9   4    3.49    0.69
   3  -9   4    2.88    0.71
   4   8  -4    0.20    0.58
   4   8  -4    0.04    0.54
  -4  -8   4    1.60    0.69
  -4  -8   4    1.52    0.70
   3   8  -4   72.57    4.21
   3   8  -4   68.80    4.22
  -3  -8   4   75.81    4.33
  -3  -8   4   74.62    4.26
   2   8  -4    1.53    0.50
   2   8  -4    0.75    0.52
  -2  -8   4    3.06    0.55
  -2  -8   4    2.14    0.62
   1   8  -4    0.18    0.51
   1   8  -4    0.99    0.44
  -1  -8   4    0.29    0.52
  -1  -8   4    0.37    0.47
   0   8  -4   21.02    1.34
   0   8  -4   18.98    1.45
   0  -8   4   20.89    1.43
   0  -8   4   22.50    1.50
   0  -8   4   16.52    1.36
  -1   8  -4    3.91    0.64
  -1   8  -4    4.50    0.70
  -1   8  -4    4.52    0.68
   1  -8   4    2.98    0.59
   1  -8   4    4.55    0.64
   1  -8   4    6.71    0.91
  -2   8  -4    9.58    1.07
  -2   8  -4    9.67    1.02
  -2   8  -4    9.20    0.87
   2  -8   4   10.99    0.95
   2  -8   4    7.41    0.99
  -3   8  -4   23.23    1.68
  -3   8  -4   21.58    1.65
   3  -8   4   23.36    1.49
   3  -8   4   18.07    1.54
  -4   8  -4    7.39    1.29
  -4   8  -4    9.76    1.36
   4  -8   4    5.74    0.82
   4  -8   4    7.92    1.00
   5   7  -4    6.86    0.89
   5   7  -4    7.84    0.97
  -5  -7   4    8.27    1.09
  -5  -7   4    9.10    1.26
   4   7  -4    1.47    0.52
   4   7  -4    1.91    0.53
  -4  -7   4    1.80    0.66
   3   7  -4   10.89    0.97
   3   7  -4   11.72    1.03
  -3  -7   4   10.61    1.11
  -3  -7   4   11.39    1.07
   2   7  -4    3.99    0.72
   2   7  -4    5.29    0.59
  -2  -7   4    5.56    0.84
  -2  -7   4    6.73    0.76
   1   7  -4    4.17    0.50
   1   7  -4    3.52    0.53
  -1  -7   4    4.16    0.68
  -1  -7   4    5.19    0.77
   0   7  -4   73.32    4.13
   0   7  -4   69.14    4.17
   0  -7   4   75.51    4.15
   0  -7   4   67.14    4.13
   0  -7   4   79.41    4.20
  -1   7  -4    2.84    0.42
  -1   7  -4    3.37    0.62
  -1   7  -4    1.93    0.47
   1  -7   4    2.96    0.46
   1  -7   4    2.67    0.49
  -2   7  -4   -0.71    0.44
  -2   7  -4   -0.34    0.43
  -2   7  -4   -0.54    0.33
   2  -7   4   -0.49    0.42
   2  -7   4   -0.50    0.41
  -3   7  -4   25.65    1.80
  -3   7  -4   27.34    1.82
   3  -7   4   28.02    1.70
   3  -7   4   26.17    1.75
  -4   7  -4   48.52    2.97
  -4   7  -4   45.58    2.91
   4  -7   4   45.06    2.83
   4  -7   4   48.57    2.78
  -5   7  -4    3.74    0.82
  -5   7  -4    3.36    0.77
   5  -7   4    3.49    0.62
   5  -7   4    1.65    0.72
   5  -7   4    2.19    0.66
   6   6  -4   27.20    1.78
   6   6  -4   27.61    1.85
  -6  -6   4   27.45    2.05
   5   6  -4   34.99    2.21
   5   6  -4   36.35    2.24
  -5  -6   4   34.89    2.34
  -5  -6   4   35.68    2.23
   4   6  -4   10.18    0.95
   4   6  -4   10.75    0.87
   4   6  -4   11.40    0.97
  -4  -6   4   11.81    0.99
  -4  -6   4    9.75    1.06
   3   6  -4  106.43    5.98
   3   6  -4  106.92    5.94
  -3  -6   4  104.49    6.04
  -3  -6   4  107.28    5.99
   2   6  -4   35.41    2.13
   2   6  -4   34.98    2.15
   2   6  -4   36.73    2.17
  -2  -6   4   36.35    2.20
  -2  -6   4   36.24    2.16
   1   6  -4   25.36    1.59
   1   6  -4   25.26    1.56
   1   6  -4   24.73    1.57
  -1  -6   4   24.30    1.56
  -1  -6   4   27.07    1.64
  -1  -6   4   26.03    1.57
   0   6  -4    3.51    0.47
   0   6  -4    3.08    0.45
   0   6  -4    2.88    0.41
   0  -6   4    3.01    0.52
   0  -6   4    3.22    0.44
  -1   6  -4    0.10    0.35
  -1   6  -4   -0.14    0.33
   1  -6   4    0.21    0.40
   1  -6   4    0.03    0.32
   1  -6   4   -0.38    0.34
  -2   6  -4   40.38    2.51
  -2   6  -4   43.27    2.52
   2  -6   4   41.76    2.48
   2  -6   4   43.78    2.46
  -3   6  -4    5.76    0.78
  -3   6  -4    7.53    0.85
   3  -6   4    6.85    0.69
   3  -6   4    6.96    0.73
   3  -6   4    7.13    0.75
  -4   6  -4   37.51    2.47
  -4   6  -4   40.09    2.49
   4  -6   4   39.86    2.33
   4  -6   4   38.70    2.54
   4  -6   4   41.14    2.41
  -5   6  -4   31.28    2.15
  -5   6  -4   30.86    2.09
   5  -6   4   31.61    2.05
   5  -6   4   30.46    2.01
   5  -6   4   29.62    1.89
   6  -6   4    1.47    0.68
   6  -6   4    1.65    0.77
   6  -6   4    3.20    0.93
   6   5  -4    4.03    0.67
   6   5  -4    3.01    0.50
   6   5  -4    3.17    0.58
  -6  -5   4    3.53    0.71
  -6  -5   4    2.49    0.65
   5   5  -4   10.15    0.97
   5   5  -4   10.01    0.91
   5   5  -4    9.90    0.84
  -5  -5   4    9.40    1.10
  -5  -5   4    8.79    0.97
   4   5  -4    0.83    0.38
   4   5  -4    0.89    0.36
   4   5  -4    0.26    0.31
  -4  -5   4    0.94    0.39
  -4  -5   4    0.64    0.40
  -4  -5   4    0.53    0.46
   3   5  -4    4.32    0.54
   3   5  -4    3.73    0.56
   3   5  -4    4.56    0.56
  -3  -5   4    4.19    0.49
  -3  -5   4    3.99    0.58
  -3  -5   4    3.71    0.52
   2   5  -4    0.94    0.31
   2   5  -4    0.44    0.28
   2   5  -4    0.58    0.30
  -2  -5   4    1.21    0.33
  -2  -5   4    0.77    0.34
   1   5  -4   13.44    0.91
   1   5  -4   13.05    0.86
   1   5  -4   12.67    0.90
  -1  -5   4   12.09    0.89
  -1  -5   4   12.02    0.93
  -1  -5   4   12.53    0.87
   0   5  -4   91.93    5.25
   0   5  -4   93.11    5.25
   0   5  -4   92.97    5.22
   0  -5   4   93.98    5.26
   0  -5   4   92.60    5.24
   0  -5   4   97.29    5.22
  -1   5  -4    0.98    0.27
  -1   5  -4    0.94    0.32
  -1   5  -4    1.20    0.31
   1  -5   4    0.80    0.29
   1  -5   4    1.43    0.30
   1  -5   4    1.11    0.30
  -2   5  -4   26.75    1.58
  -2   5  -4   27.13    1.68
  -2   5  -4   24.75    1.66
   2  -5   4   28.97    1.62
   2  -5   4   28.97    1.62
   2  -5   4   25.06    1.62
   2  -5   4   27.58    1.63
  -3   5  -4    2.37    0.44
  -3   5  -4    3.42    0.43
   3  -5   4    3.19    0.55
   3  -5   4    3.19    0.47
   3  -5   4    2.93    0.55
  -4   5  -4   33.80    2.14
  -4   5  -4   32.05    2.08
  -4   5  -4   34.06    2.01
   4  -5   4   33.05    2.07
   4  -5   4   34.42    2.05
   4  -5   4   34.51    1.99
  -5   5  -4    1.06    0.52
  -5   5  -4    0.58    0.58
   5  -5   4    1.11    0.52
   5  -5   4    0.81    0.39
   5  -5   4    0.92    0.46
  -6   5  -4   31.82    2.23
  -6   5  -4   29.09    2.15
   6  -5   4   32.15    2.14
   6  -5   4   31.61    2.04
   6   4  -4   -0.23    0.55
   6   4  -4    0.62    0.40
   6   4  -4   -0.28    0.44
  -6  -4   4    0.16    0.59
  -6  -4   4    0.34    0.54
   5   4  -4   50.13    2.75
   5   4  -4   41.27    2.75
  -5  -4   4   44.03    2.76
  -5  -4   4   49.39    2.85
   4   4  -4   -0.03    0.28
   4   4  -4   -0.19    0.35
   4   4  -4   -0.11    0.25
  -4  -4   4    0.40    0.47
  -4  -4   4    0.15    0.33
  -4  -4   4    0.54    0.38
   3   4  -4   84.69    4.90
   3   4  -4   86.54    4.90
   3   4  -4   95.06    4.88
  -3  -4   4   84.99    4.94
  -3  -4   4   83.72    4.90
   2   4  -4   50.46    2.61
   2   4  -4   43.85    2.61
   2   4  -4   45.19    2.62
  -2  -4   4   46.08    2.61
  -2  -4   4   42.56    2.64
  -2  -4   4   44.79    2.62
   1   4  -4  202.85   10.61
   1   4  -4  186.21   10.61
   1   4  -4  190.89   10.62
  -1  -4   4  199.71   10.62
  -1  -4   4  180.28   10.63
   0   4  -4   57.87    3.21
   0   4  -4   55.91    3.20
   0   4  -4   52.52    3.17
   0  -4   4   57.44    3.18
   0  -4   4   60.20    3.17
   0  -4   4   54.38    3.21
  -1   4  -4   48.67    2.75
  -1   4  -4   48.99    2.80
  -1   4  -4   49.20    2.81
   1  -4   4   48.05    2.77
   1  -4   4   49.69    2.77
   1  -4   4   48.98    2.78
  -2   4  -4   63.56    3.74
  -2   4  -4   70.54    3.81
  -2   4  -4   66.98    3.83
  -2   4  -4   69.33    3.81
   2  -4   4   68.50    3.78
   2  -4   4   69.69    3.78
   2  -4   4   62.35    3.78
  -3   4  -4  115.05    6.53
  -3   4  -4  121.19    6.53
  -3   4  -4  111.67    6.50
   3  -4   4  108.12    6.49
   3  -4   4  117.90    6.49
   3  -4   4  123.69    6.47
  -4   4  -4    2.24    0.43
  -4   4  -4    1.25    0.42
   4  -4   4    1.57    0.35
   4  -4   4    1.85    0.40
   4  -4   4    2.23    0.33
  -5   4  -4   67.90    4.13
  -5   4  -4   70.98    4.18
   5  -4   4   71.48    4.15
   5  -4   4   72.83    4.10
   5  -4   4   73.62    4.03
  -6   4  -4    8.96    1.07
  -6   4  -4   10.87    1.18
   6  -4   4    9.27    0.98
   6  -4   4    8.60    1.14
   6  -4   4    8.93    0.81
  -7   4  -4    5.02    0.86
   7  -4   4    5.13    0.81
   7  -4   4    4.48    0.85
   6   3  -4   61.13    3.30
   6   3  -4   54.10    3.32
  -6  -3   4   54.58    3.39
  -6  -3   4   54.99    3.35
   5   3  -4    2.33    0.43
   5   3  -4    2.13    0.36
   5   3  -4    2.28    0.51
  -5  -3   4    2.26    0.48
  -5  -3   4    2.38    0.51
   4   3  -4   -0.16    0.23
   4   3  -4    0.20    0.26
  -4  -3   4    0.04    0.33
  -4  -3   4    0.31    0.31
   3   3  -4    5.45    0.48
   3   3  -4    4.58    0.51
  -3  -3   4    4.27    0.51
  -3  -3   4    3.84    0.57
   2   3  -4    0.00    0.20
   2   3  -4    0.21    0.19
  -2  -3   4    0.36    0.21
  -2  -3   4    0.15    0.22
  -2  -3   4   -0.02    0.22
   1   3  -4  105.86    6.17
   1   3  -4  127.35    6.18
   1   3  -4  110.35    6.18
  -1  -3   4  108.45    6.18
  -1  -3   4  113.34    6.17
  -1  -3   4  101.60    6.19
   0   3  -4   22.20    1.32
   0   3  -4   23.02    1.35
   0   3  -4   24.28    1.37
   0  -3   4   23.30    1.31
   0  -3   4   22.30    1.33
   0  -3   4   23.25    1.34
   0  -3   4   20.55    1.35
  -1   3  -4   25.34    1.45
  -1   3  -4   26.26    1.52
  -1   3  -4   26.95    1.50
   1  -3   4   25.65    1.48
   1  -3   4   24.15    1.46
   1  -3   4   24.07    1.48
  -2   3  -4   70.66    3.98
  -2   3  -4   68.83    3.95
  -2   3  -4   72.75    3.96
   2  -3   4   68.78    3.91
   2  -3   4   69.14    3.94
   2  -3   4   71.40    3.93
  -3   3  -4    8.24    0.66
  -3   3  -4    8.23    0.71
  -3   3  -4    8.48    0.71
   3  -3   4    8.82    0.65
   3  -3   4    7.34    0.70
   3  -3   4    9.13    0.62
  -4   3  -4   27.66    1.67
  -4   3  -4   27.92    1.72
  -4   3  -4   25.04    1.70
   4  -3   4   26.98    1.59
   4  -3   4   25.84    1.69
   4  -3   4   27.97    1.64
  -5   3  -4   15.63    1.20
  -5   3  -4   16.49    1.24
  -5   3  -4   15.68    1.16
   5  -3   4   16.21    1.05
   5  -3   4   15.93    1.12
   5  -3   4   15.13    1.19
  -6   3  -4    0.20    0.50
  -6   3  -4   -0.77    0.48
   6  -3   4   -0.15    0.43
   6  -3   4    0.06    0.33
   6  -3   4   -0.42    0.52
  -7   3  -4    1.93    0.67
  -7   3  -4    2.34    0.72
   7  -3   4    2.64    0.62
   7  -3   4    1.68    0.73
   6   2  -4    0.34    0.36
   6   2  -4    0.87    0.40
   6   2  -4    1.20    0.50
  -6  -2   4    1.23    0.51
  -6  -2   4    1.23    0.61
  -6  -2   4    0.72    0.55
   5   2  -4  103.19    5.56
   5   2  -4  104.17    5.53
   5   2  -4   92.73    5.58
  -5  -2   4   97.58    5.60
  -5  -2   4   97.29    5.60
  -5  -2   4   96.70    5.60
   4   2  -4    2.53    0.39
   4   2  -4    2.61    0.43
   4   2  -4    3.07    0.39
  -4  -2   4    2.93    0.43
  -4  -2   4    2.46    0.39
  -4  -2   4    2.69    0.41
   3   2  -4   61.77    3.61
   3   2  -4   67.71    3.61
   3   2  -4   66.18    3.57
  -3  -2   4   63.59    3.58
  -3  -2   4   61.09    3.62
  -3  -2   4   62.48    3.64
   2   2  -4   13.70    0.79
   2   2  -4   11.56    0.78
  -2  -2   4   12.09    0.77
  -2  -2   4   11.08    0.81
  -2  -2   4   11.67    0.79
   1   2  -4   81.69    4.06
   1   2  -4   65.94    4.04
  -1  -2   4   70.16    4.05
  -1  -2   4   75.52    4.04
  -1  -2   4   69.12    4.06
   0   2  -4   62.08    3.46
   0   2  -4   68.59    3.48
   0  -2   4   59.15    3.45
   0  -2   4   63.49    3.45
   0  -2   4   56.00    3.46
  -1   2  -4  284.86   14.15
  -1   2  -4  240.94   14.14
  -1   2  -4  243.83   14.12
  -1   2  -4  273.83   14.17
  -1   2  -4  262.65   14.12
   1  -2   4  237.68   14.13
   1  -2   4  261.64   14.14
   1  -2   4  263.40   14.14
   1  -2   4  244.02   14.14
  -2   2  -4    8.01    0.62
  -2   2  -4    8.86    0.58
  -2   2  -4    7.65    0.59
   2  -2   4    7.67    0.55
   2  -2   4    7.46    0.52
   2  -2   4    7.25    0.54
  -3   2  -4  249.97   13.95
  -3   2  -4  256.45   13.96
  -3   2  -4  246.50   13.92
   3  -2   4  240.54   13.92
   3  -2   4  268.31   13.91
  -4   2  -4   30.46    1.93
  -4   2  -4   32.19    1.95
  -4   2  -4   32.20    1.90
   4  -2   4   33.70    1.85
   4  -2   4   30.34    1.88
  -5   2  -4   97.56    5.26
  -5   2  -4   89.51    5.30
  -5   2  -4   93.53    5.31
   5  -2   4   91.66    5.25
   5  -2   4   89.06    5.29
   5  -2   4   96.33    5.19
  -6   2  -4   26.17    1.71
  -6   2  -4   26.89    1.81
  -6   2  -4   24.68    1.76
   6  -2   4   24.33    1.77
   6  -2   4   27.14    1.68
   6  -2   4   26.02    1.58
  -7   2  -4   27.54    1.86
  -7   2  -4   24.25    1.87
   7  -2   4   25.37    1.90
   7  -2   4   25.34    1.77
   7  -2   4   25.77    1.61
   8  -2   4    3.35    0.85
   8  -2   4    2.46    0.69
   6   1  -4   25.29    1.59
   6   1  -4   25.14    1.61
   6   1  -4   23.84    1.67
  -6  -1   4   22.37    1.70
  -6  -1   4   23.24    1.68
   5   1  -4   15.81    1.06
   5   1  -4   14.70    1.17
   5   1  -4   16.39    1.10
  -5  -1   4   15.35    1.15
  -5  -1   4   14.70    1.17
  -5  -1   4   15.31    1.14
   4   1  -4    2.39    0.42
   4   1  -4    2.06    0.31
   4   1  -4    2.08    0.37
  -4  -1   4    2.06    0.38
  -4  -1   4    2.12    0.39
  -4  -1   4    1.92    0.39
   3   1  -4    1.27    0.25
   3   1  -4    1.17    0.28
   3   1  -4    1.43    0.25
  -3  -1   4    0.91    0.27
  -3  -1   4    1.28    0.28
  -3  -1   4    1.59    0.29
  -3  -1   4    1.35    0.21
   2   1  -4  165.24    9.35
   2   1  -4  194.54    9.33
   2   1  -4  179.84    9.35
   2   1  -4  144.81    9.31
  -2  -1   4  172.09    9.32
  -2  -1   4  163.72    9.36
  -2  -1   4  163.34    9.35
  -2  -1   4  169.26    9.36
   1   1  -4   27.79    1.43
   1   1  -4   22.40    1.43
   1   1  -4   26.63    1.45
  -1  -1   4   23.45    1.46
  -1  -1   4   22.64    1.44
  -1  -1   4   25.54    1.42
   0   1  -4    4.50    0.38
   0   1  -4    5.41    0.40
   0   1  -4    4.38    0.36
   0  -1   4    4.85    0.35
   0  -1   4    4.40    0.36
   0  -1   4    4.52    0.37
  -1   1  -4    2.17    0.31
  -1   1  -4    2.15    0.30
  -1   1  -4    1.80    0.26
   1  -1   4    1.35    0.24
   1  -1   4    1.53    0.23
   1  -1   4    1.42    0.22
   1  -1   4    1.64    0.22
  -2   1  -4  131.78    7.01
  -2   1  -4  123.49    7.00
  -2   1  -4  136.11    6.97
   2  -1   4  113.63    6.97
   2  -1   4  122.33    6.96
   2  -1   4  129.05    6.97
  -3   1  -4    7.12    0.59
  -3   1  -4    6.72    0.59
  -3   1  -4    7.57    0.53
   3  -1   4    7.45    0.51
   3  -1   4    6.48    0.47
   3  -1   4    6.53    0.55
  -4   1  -4   93.94    5.34
  -4   1  -4   94.67    5.33
  -4   1  -4   95.16    5.29
   4  -1   4   93.07    5.30
   4  -1   4   95.76    5.27
  -5   1  -4   81.58    4.66
  -5   1  -4   79.50    4.65
   5  -1   4   79.91    4.60
   5  -1   4   83.78    4.55
  -6   1  -4    1.56    0.46
  -6   1  -4    1.28    0.53
  -6   1  -4    1.33    0.44
   6  -1   4    1.60    0.51
   6  -1   4    1.60    0.42
   6  -1   4    1.86    0.35
  -7   1  -4    2.92    0.62
  -7   1  -4    2.41    0.63
  -7   1  -4    2.52    0.71
   7  -1   4    2.45    0.68
   7  -1   4    3.06    0.46
   7  -1   4    2.76    0.55
  -8   1  -4    1.44    0.75
  -8   1  -4    2.58    0.76
   8  -1   4    1.75    0.69
   8  -1   4    0.28    0.78
   8  -1   4    1.57    0.56
   6   0  -4    1.73    0.45
   6   0  -4    1.72    0.46
   6   0  -4    1.92    0.56
  -6   0   4    2.10    0.63
  -6   0   4    1.16    0.55
   5   0  -4   42.18    2.42
   5   0  -4   43.93    2.39
   5   0  -4   38.74    2.46
  -5   0   4   40.10    2.69
  -5   0   4   38.83    2.44
  -5   0   4   37.47    2.46
   4   0  -4   10.49    0.91
   4   0  -4   13.13    0.84
   4   0  -4   12.21    0.85
  -4   0   4   11.49    0.94
  -4   0   4   10.46    0.87
  -4   0   4   11.02    0.87
   3   0  -4   62.82    3.72
   3   0  -4   66.66    3.70
   3   0  -4   72.16    3.69
  -3   0   4   63.66    3.72
  -3   0   4   62.37    3.71
  -3   0   4   65.16    3.71
   2   0  -4   14.19    0.85
   2   0  -4   13.24    0.87
  -2   0   4   13.63    0.90
  -2   0   4   13.52    0.86
  -2   0   4   13.07    0.86
   1   0  -4  329.19   19.25
   1   0  -4  342.35   19.28
   1   0  -4  389.29   19.28
  -1   0   4  339.45   19.28
  -1   0   4  339.67   19.28
  -1   0   4  367.88   19.25
  -1   0   4  345.70   19.28
   0   0  -4   44.56    2.61
   0   0  -4   54.19    2.63
   0   0   4   45.20    2.63
   0   0   4   44.81    2.61
   0   0   4   45.34    2.62
  -1   0  -4  163.45    9.74
  -1   0  -4  196.84    9.73
  -1   0  -4  172.81    9.72
  -1   0  -4  192.49    9.76
   1   0   4  186.85    9.73
   1   0   4  156.55    9.74
   1   0   4  179.11    9.74
   1   0   4  176.48    9.74
   1   0   4  171.93    9.72
   1   0   4  171.94    9.75
  -2   0  -4   10.93    0.72
  -2   0  -4   10.56    0.70
  -2   0  -4   11.44    0.72
   2   0   4    9.82    0.69
   2   0   4   10.55    0.67
   2   0   4   10.96    0.68
   2   0   4   10.82    0.65
  -3   0  -4   17.57    1.05
  -3   0  -4   19.32    1.11
  -3   0  -4   16.69    1.12
   3   0   4   16.99    1.06
   3   0   4   17.26    1.03
  -4   0  -4    5.25    0.48
  -4   0  -4    4.80    0.52
  -4   0  -4    4.23    0.54
   4   0   4    4.95    0.40
   4   0   4    4.28    0.49
   4   0   4    5.12    0.45
  -5   0  -4   34.93    2.12
  -5   0  -4   34.78    2.14
   5   0   4   36.02    2.04
   5   0   4   33.70    2.09
  -6   0  -4    6.23    0.81
  -6   0  -4    7.30    0.80
  -6   0  -4    6.53    0.88
   6   0   4    6.65    0.65
   6   0   4    7.67    0.76
  -7   0  -4   16.83    1.43
  -7   0  -4   17.24    1.38
   7   0   4   15.64    1.32
   7   0   4   16.38    1.40
   7   0   4   17.16    1.18
  -8   0  -4    0.74    0.72
  -8   0  -4    0.61    0.80
   8   0   4    2.47    0.81
   8   0   4    1.81    0.66
   8   0   4    1.01    0.53
   6  -1  -4    2.99    0.54
   6  -1  -4    2.78    0.56
  -6   1   4    3.00    0.67
  -6   1   4    3.22    0.66
   5  -1  -4   58.67    3.14
   5  -1  -4   54.75    3.15
  -5   1   4   49.47    3.19
  -5   1   4   51.66    3.17
   4  -1  -4    0.20    0.29
   4  -1  -4    0.14    0.27
  -4   1   4    0.12    0.31
  -4   1   4   -0.11    0.30
   3  -1  -4   30.57    1.86
   3  -1  -4   35.21    1.86
  -3   1   4   31.06    1.86
  -3   1   4   30.36    1.89
  -3   1   4   30.35    1.87
   2  -1  -4   15.66    0.99
   2  -1  -4   17.90    1.01
  -2   1   4   16.51    1.01
  -2   1   4   15.51    1.01
  -2   1   4   14.75    1.00
   1  -1  -4   79.12    4.05
  -1   1   4   71.74    4.05
  -1   1   4   70.17    4.06
  -1   1   4   69.30    4.05
   0  -1  -4    5.93    0.42
   0  -1  -4    5.91    0.41
   0  -1  -4    7.38    0.48
   0   1   4    5.87    0.42
   0   1   4    5.81    0.42
   0   1   4    5.85    0.44
   0   1   4    5.78    0.39
  -1  -1  -4  337.90   17.15
  -1  -1  -4  286.82   17.13
   1   1   4  300.71   17.13
   1   1   4  300.44   17.12
   1   1   4  357.06   17.18
   1   1   4  286.65   17.11
  -2  -1  -4  141.88    8.31
  -2  -1  -4  150.35    8.32
  -2  -1  -4  163.76    8.31
   2   1   4  147.29    8.29
   2   1   4  147.84    8.30
  -3  -1  -4  505.56   27.06
  -3  -1  -4  513.81   27.04
  -3  -1  -4  421.34   27.03
   3   1   4  509.27   27.02
   3   1   4  507.87   27.00
  -4  -1  -4   -0.05    0.23
  -4  -1  -4   -0.33    0.25
  -4  -1  -4    0.09    0.21
  -4  -1  -4   -0.07    0.23
   4   1   4   -0.41    0.21
   4   1   4    0.23    0.20
   4   1   4   -0.22    0.18
  -5  -1  -4  119.62    6.93
  -5  -1  -4  126.94    6.91
  -5  -1  -4  123.05    6.91
  -5  -1  -4  134.58    6.86
   5   1   4  111.22    6.82
   5   1   4  121.53    6.90
   5   1   4  125.04    6.86
  -6  -1  -4   -0.31    0.41
  -6  -1  -4    0.06    0.37
   6   1   4   -0.38    0.30
   6   1   4   -0.36    0.23
   6   1   4    0.06    0.37
  -7  -1  -4   15.32    1.41
  -7  -1  -4   16.08    1.35
   7   1   4   17.80    1.19
   7   1   4   16.47    1.32
   7   1   4   17.02    1.40
  -8  -1  -4    4.81    0.91
  -8  -1  -4    4.94    0.81
   8   1   4    5.79    1.06
   8   1   4    5.16    0.89
   8   1   4    5.81    0.88
   6  -2  -4   19.46    1.46
  -6   2   4   19.17    1.54
   5  -2  -4    6.90    0.80
   5  -2  -4    7.75    0.81
  -5   2   4    5.42    0.90
  -5   2   4    6.33    0.87
   4  -2  -4   14.88    1.05
   4  -2  -4   15.33    1.05
  -4   2   4   14.66    1.07
  -4   2   4   14.34    1.12
   3  -2  -4  127.88    6.51
   3  -2  -4  115.89    6.50
  -3   2   4  111.42    6.50
  -3   2   4  110.47    6.52
   2  -2  -4    2.15    0.34
   2  -2  -4    3.04    0.41
  -2   2   4    2.31    0.40
  -2   2   4    1.95    0.29
  -2   2   4    2.50    0.33
   1  -2  -4  276.02   14.51
   1  -2  -4  234.31   14.53
   1  -2  -4  300.83   14.55
  -1   2   4  266.67   14.54
  -1   2   4  253.35   14.54
  -1   2   4  252.34   14.54
   0  -2  -4    3.42    0.41
   0  -2  -4    3.42    0.32
   0  -2  -4    3.76    0.33
   0   2   4    3.01    0.26
   0   2   4    2.65    0.34
   0   2   4    2.88    0.32
   0   2   4    3.01    0.32
   0   2   4    2.79    0.28
  -1  -2  -4  141.29    6.94
  -1  -2  -4  120.53    6.92
   1   2   4  120.51    6.90
   1   2   4  119.35    6.91
   1   2   4  123.69    6.92
  -2  -2  -4    0.87    0.15
  -2  -2  -4    1.53    0.23
  -2  -2  -4    1.01    0.25
  -2  -2  -4    0.89    0.20
   2   2   4    1.18    0.21
   2   2   4    1.08    0.19
   2   2   4    1.08    0.20
  -3  -2  -4   46.53    2.73
  -3  -2  -4   48.04    2.72
  -3  -2  -4   48.24    2.70
   3   2   4   48.51    2.69
   3   2   4   46.15    2.69
  -4  -2  -4    1.91    0.34
  -4  -2  -4    1.90    0.30
  -4  -2  -4    1.61    0.30
   4   2   4    1.73    0.28
   4   2   4    1.75    0.27
  -5  -2  -4    0.54    0.29
  -5  -2  -4    0.11    0.32
  -5  -2  -4    0.08    0.33
   5   2   4   -0.36    0.31
   5   2   4    0.23    0.27
   5   2   4    0.29    0.23
  -6  -2  -4    2.08    0.43
  -6  -2  -4    1.79    0.49
  -6  -2  -4    1.87    0.44
   6   2   4    1.93    0.47
   6   2   4    1.72    0.36
   6   2   4    1.83    0.43
  -7  -2  -4    2.33    0.68
  -7  -2  -4    3.34    0.56
  -7  -2  -4    3.46    0.65
   7   2   4    2.86    0.50
   7   2   4    2.82    0.42
   7   2   4    3.48    0.61
  -8  -2  -4   10.24    1.41
  -8  -2  -4   12.12    1.28
   8   2   4   11.66    1.27
   8   2   4   10.73    1.34
   8   2   4   11.30    1.10
   6  -3  -4    7.99    1.29
  -6   3   4    8.65    1.19
   5  -3  -4   51.14    2.97
   5  -3  -4   49.80    2.98
  -5   3   4   50.02    3.00
  -5   3   4   47.63    3.04
   4  -3  -4    1.95    0.43
   4  -3  -4    1.77    0.41
  -4   3   4    1.96    0.48
  -4   3   4    2.18    0.47
   3  -3  -4   44.83    2.49
   3  -3  -4   42.30    2.48
  -3   3   4   41.92    2.51
  -3   3   4   40.87    2.48
   2  -3  -4    5.14    0.53
   2  -3  -4    3.87    0.48
   2  -3  -4    4.44    0.46
  -2   3   4    4.64    0.48
  -2   3   4    4.62    0.52
  -2   3   4    4.35    0.49
   1  -3  -4  106.93    5.61
   1  -3  -4   97.81    5.58
   1  -3  -4  104.42    5.58
  -1   3   4   96.64    5.59
  -1   3   4   96.78    5.60
  -1   3   4  100.54    5.59
   0  -3  -4    0.64    0.20
   0  -3  -4    0.54    0.17
   0  -3  -4    0.81    0.27
   0   3   4    0.55    0.19
   0   3   4    0.61    0.14
   0   3   4    0.22    0.18
   0   3   4    0.54    0.18
  -1  -3  -4  240.38   12.89
   1   3   4  230.11   12.88
   1   3   4  239.49   12.87
   1   3   4  225.06   12.89
  -2  -3  -4   20.41    1.19
  -2  -3  -4   20.16    1.17
  -2  -3  -4   17.10    1.19
  -2  -3  -4   21.15    1.23
   2   3   4   19.54    1.19
   2   3   4   19.28    1.18
  -3  -3  -4  259.27   14.31
  -3  -3  -4  253.83   14.35
  -3  -3  -4  261.70   14.33
  -3  -3  -4  262.58   14.35
   3   3   4  259.18   14.33
   3   3   4  263.51   14.33
   3   3   4  258.71   14.28
  -4  -3  -4   11.41    0.82
  -4  -3  -4   10.78    0.79
  -4  -3  -4   10.28    0.82
   4   3   4   10.74    0.76
   4   3   4   10.68    0.76
   4   3   4   10.91    0.69
  -5  -3  -4  142.52    8.07
  -5  -3  -4  145.43    8.06
   5   3   4  140.35    7.95
   5   3   4  146.06    8.02
   5   3   4  145.62    8.00
  -6  -3  -4    3.12    0.52
  -6  -3  -4    4.10    0.76
   6   3   4    3.09    0.45
   6   3   4    2.77    0.42
   6   3   4    3.10    0.49
  -7  -3  -4   43.63    2.67
  -7  -3  -4   40.32    2.70
   7   3   4   40.42    2.51
   7   3   4   45.05    2.57
   7   3   4   42.94    2.64
  -8  -3  -4    0.83    0.75
   8   3   4   -0.19    0.65
   8   3   4    0.31    0.69
   8   3   4    0.58    0.56
   5  -4  -4    0.81    0.54
   5  -4  -4    0.13    0.52
  -5   4   4    0.72    0.63
  -5   4   4    0.76    0.64
   4  -4  -4   -0.41    0.35
   4  -4  -4   -0.04    0.44
  -4   4   4   -0.30    0.48
  -4   4   4    0.57    0.44
   3  -4  -4   28.69    1.84
   3  -4  -4   28.03    1.77
   3  -4  -4   28.02    1.74
  -3   4   4   28.73    1.80
  -3   4   4   28.99    1.76
   2  -4  -4   43.33    2.51
   2  -4  -4   44.98    2.55
   2  -4  -4   47.19    2.50
  -2   4   4   40.86    2.52
  -2   4   4   41.64    2.55
   1  -4  -4   12.49    0.88
   1  -4  -4   12.57    0.82
   1  -4  -4   11.66    0.79
  -1   4   4   11.83    0.84
  -1   4   4   12.33    0.81
  -1   4   4   11.56    0.82
   0  -4  -4   18.54    1.10
   0  -4  -4   19.51    1.14
   0  -4  -4   18.08    1.17
   0   4   4   17.94    1.11
   0   4   4   17.64    1.11
   0   4   4   18.62    1.11
   0   4   4   17.34    1.08
  -1  -4  -4    6.95    0.64
  -1  -4  -4    7.56    0.60
  -1  -4  -4    7.87    0.61
   1   4   4    8.74    0.59
   1   4   4    7.95    0.57
   1   4   4    7.57    0.57
  -2  -4  -4   38.36    2.14
  -2  -4  -4   35.30    2.12
  -2  -4  -4   35.68    2.11
   2   4   4   37.28    2.09
   2   4   4   35.79    2.11
   2   4   4   36.75    2.11
  -3  -4  -4    5.56    0.57
  -3  -4  -4    5.43    0.50
  -3  -4  -4    4.70    0.52
   3   4   4    4.81    0.50
   3   4   4    5.56    0.50
   3   4   4    5.57    0.48
  -4  -4  -4    3.97    0.57
  -4  -4  -4    4.91    0.49
  -4  -4  -4    3.81    0.54
  -4  -4  -4    3.59    0.50
   4   4   4    4.22    0.43
   4   4   4    3.66    0.50
   4   4   4    4.11    0.52
  -5  -4  -4    1.47    0.37
  -5  -4  -4    1.86    0.44
  -5  -4  -4    1.55    0.40
  -5  -4  -4    2.03    0.37
   5   4   4    1.30    0.35
   5   4   4    1.67    0.28
   5   4   4    1.79    0.38
  -6  -4  -4    0.45    0.46
  -6  -4  -4    0.24    0.41
   6   4   4   -0.54    0.35
   6   4   4    0.03    0.27
   6   4   4    0.66    0.38
  -7  -4  -4    5.92    1.10
  -7  -4  -4    6.96    1.03
   7   4   4    7.00    1.03
   7   4   4    5.90    0.82
   7   4   4    6.11    0.86
  -8  -4  -4    0.51    0.75
  -8  -4  -4   -0.22    0.71
   8   4   4    1.12    0.73
   8   4   4    0.84    0.60
   8   4   4    0.22    0.55
   5  -5  -4    4.07    0.73
   5  -5  -4    4.22    0.73
  -5   5   4    5.91    0.81
   4  -5  -4   44.39    2.87
   4  -5  -4   50.64    2.90
  -4   5   4   49.56    2.97
  -4   5   4   48.09    2.89
   3  -5  -4   64.25    3.79
   3  -5  -4   66.56    3.74
   3  -5  -4   64.87    3.76
  -3   5   4   64.93    3.79
  -3   5   4   67.83    3.83
   2  -5  -4   29.27    1.98
   2  -5  -4   33.67    1.87
   2  -5  -4   29.40    1.90
  -2   5   4   31.03    1.88
  -2   5   4   32.42    1.91
   1  -5  -4  189.82   10.03
   1  -5  -4  179.29   10.06
  -1   5   4  178.38   10.05
  -1   5   4  177.47   10.04
   0  -5  -4    4.50    0.61
   0  -5  -4    4.97    0.52
   0  -5  -4    5.07    0.53
   0  -5  -4    4.59    0.45
   0   5   4    4.83    0.44
   0   5   4    4.48    0.54
   0   5   4    4.24    0.49
   0   5   4    4.10    0.49
  -1  -5  -4   24.05    1.53
  -1  -5  -4   24.69    1.50
  -1  -5  -4   25.41    1.49
   1   5   4   23.31    1.47
   1   5   4   24.80    1.49
   1   5   4   26.03    1.47
  -2  -5  -4   15.30    1.06
  -2  -5  -4   15.07    1.03
  -2  -5  -4   15.42    1.01
   2   5   4   15.10    1.00
   2   5   4   15.40    1.01
   2   5   4   16.76    0.99
  -3  -5  -4   48.69    2.88
  -3  -5  -4   49.24    2.88
  -3  -5  -4   49.11    2.86
   3   5   4   49.66    2.86
   3   5   4   51.53    2.82
   3   5   4   49.79    2.85
  -4  -5  -4   34.51    2.12
  -4  -5  -4   33.20    2.10
  -4  -5  -4   35.44    2.09
   4   5   4   35.50    2.09
   4   5   4   36.13    2.09
   4   5   4   35.65    2.03
  -5  -5  -4   53.21    3.05
  -5  -5  -4   50.98    3.08
  -5  -5  -4   50.68    3.08
   5   5   4   54.23    2.97
   5   5   4   54.52    3.05
   5   5   4   50.51    3.05
  -6  -5  -4    0.38    0.48
  -6  -5  -4    0.25    0.46
   6   5   4    0.41    0.50
   6   5   4   -0.16    0.42
   6   5   4    0.87    0.35
  -7  -5  -4   16.58    1.53
  -7  -5  -4   16.73    1.50
   7   5   4   18.04    1.37
   7   5   4   19.69    1.39
  -8  -5  -4    3.22    0.87
  -8  -5  -4    3.56    0.86
   8   5   4    4.39    0.79
   8   5   4    4.01    0.72
   8   5   4    4.27    0.85
   4  -6  -4    0.06    0.53
   4  -6  -4   -0.69    0.59
  -4   6   4   -1.01    0.61
  -4   6   4    0.11    0.69
   3  -6  -4    0.50    0.44
   3  -6  -4    0.79    0.40
   3  -6  -4    0.30    0.52
  -3   6   4    0.44    0.58
  -3   6   4    0.04    0.49
   2  -6  -4   14.82    1.04
   2  -6  -4   12.34    1.10
  -2   6   4   15.08    1.04
  -2   6   4   13.59    1.11
   1  -6  -4    0.35    0.43
   1  -6  -4    0.32    0.31
   1  -6  -4    0.94    0.36
  -1   6   4    0.41    0.34
  -1   6   4    0.10    0.36
  -1   6   4    0.17    0.29
   0  -6  -4   58.90    3.54
   0  -6  -4   65.76    3.52
   0  -6  -4   64.86    3.49
   0   6   4   62.61    3.50
   0   6   4   57.28    3.49
   0   6   4   60.01    3.50
  -1  -6  -4   33.19    2.11
  -1  -6  -4   36.71    2.09
  -1  -6  -4   35.60    2.06
   1   6   4   32.16    2.02
   1   6   4   36.72    2.05
   1   6   4   35.29    2.07
  -2  -6  -4   36.94    2.27
  -2  -6  -4   37.63    2.24
  -2  -6  -4   37.42    2.26
   2   6   4   40.52    2.22
   2   6   4   37.94    2.25
  -3  -6  -4   86.22    4.91
  -3  -6  -4   81.63    4.91
  -3  -6  -4   86.61    4.90
   3   6   4   87.18    4.90
   3   6   4   91.48    4.86
   3   6   4   87.10    4.90
  -4  -6  -4    3.56    0.52
  -4  -6  -4    3.68    0.65
  -4  -6  -4    3.34    0.48
   4   6   4    3.48    0.49
   4   6   4    4.76    0.54
   4   6   4    4.44    0.62
  -5  -6  -4    7.86    0.86
  -5  -6  -4    8.12    0.91
  -5  -6  -4    7.87    0.90
   5   6   4    8.44    0.74
   5   6   4    9.33    0.88
   5   6   4    9.65    0.87
  -6  -6  -4    1.06    0.49
  -6  -6  -4    1.58    0.55
   6   6   4    1.82    0.52
   6   6   4    0.29    0.52
   6   6   4    0.94    0.41
  -7  -6  -4    0.28    0.66
  -7  -6  -4   -0.26    0.63
  -7  -6  -4    0.71    0.58
   7   6   4   -0.14    0.52
   7   6   4    0.28    0.57
   3  -7  -4   54.36    3.09
   3  -7  -4   46.84    3.12
  -3   7   4   55.74    3.23
  -3   7   4   51.50    3.12
   2  -7  -4   -0.11    0.48
   2  -7  -4   -0.89    0.50
  -2   7   4   -0.12    0.46
  -2   7   4    0.94    0.54
   1  -7  -4   39.01    2.69
   1  -7  -4   47.54    2.67
  -1   7   4   47.84    2.70
  -1   7   4   46.18    2.68
   0  -7  -4    0.92    0.43
   0  -7  -4    0.20    0.46
   0   7   4    0.50    0.35
   0   7   4    1.04    0.37
   0   7   4   -0.32    0.37
  -1  -7  -4   48.84    2.68
  -1  -7  -4   42.92    2.70
  -1  -7  -4   47.38    2.69
   1   7   4   47.22    2.65
   1   7   4   46.81    2.67
   1   7   4   40.45    2.67
  -2  -7  -4    1.84    0.44
  -2  -7  -4    1.55    0.48
  -2  -7  -4    1.53    0.40
   2   7   4    1.81    0.40
   2   7   4    2.45    0.42
  -3  -7  -4   29.77    1.97
  -3  -7  -4   31.47    1.98
  -3  -7  -4   32.71    1.95
   3   7   4   32.58    1.91
   3   7   4   31.70    1.95
  -4  -7  -4    3.20    0.51
  -4  -7  -4    2.40    0.53
  -4  -7  -4    3.33    0.54
   4   7   4    3.06    0.50
   4   7   4    2.28    0.44
   4   7   4    3.51    0.56
  -5  -7  -4    9.43    1.01
  -5  -7  -4   11.71    1.08
   5   7   4   11.93    0.91
   5   7   4    9.11    1.02
   5   7   4   11.96    1.03
  -6  -7  -4    0.88    0.55
  -6  -7  -4    0.32    0.62
   6   7   4    0.94    0.59
   6   7   4    0.79    0.50
   6   7   4    0.93    0.60
  -7  -7  -4   24.54    1.96
   7   7   4   24.58    1.73
   7   7   4   29.44    1.92
   3  -8  -4    0.63    0.65
  -3   8   4   -1.24    0.77
  -3   8   4    0.36    0.93
   2  -8  -4   23.86    1.61
   2  -8  -4   18.28    1.62
  -2   8   4   23.77    1.71
  -2   8   4   22.73    1.58
   1  -8  -4   12.31    1.10
  -1   8   4   11.59    1.12
  -1   8   4   11.43    1.06
   0  -8  -4    1.64    0.58
   0  -8  -4    3.48    0.52
   0  -8  -4    2.33    0.56
   0   8   4    2.36    0.46
   0   8   4    3.01    0.50
   0   8   4    1.26    0.51
  -1  -8  -4    0.80    0.55
  -1  -8  -4    0.06    0.46
   1   8   4    0.60    0.41
   1   8   4    0.99    0.45
  -2  -8  -4   12.57    1.11
  -2  -8  -4   11.05    1.18
  -2  -8  -4   12.39    1.07
   2   8   4   12.06    1.05
   2   8   4   13.10    1.03
  -3  -8  -4   12.49    1.10
  -3  -8  -4   12.70    1.07
   3   8   4   10.50    1.00
   3   8   4   11.35    1.10
  -4  -8  -4   37.75    2.32
  -4  -8  -4   35.64    2.35
   4   8   4   37.40    2.25
   4   8   4   37.34    2.31
  -5  -8  -4   36.83    2.45
  -5  -8  -4   37.51    2.40
   5   8   4   39.33    2.41
   5   8   4   38.13    2.40
   5   8   4   36.52    2.29
  -6  -8  -4    6.08    0.85
  -6  -8  -4    7.41    1.21
   6   8   4    6.05    0.94
   6   8   4    7.55    1.09
   6   8   4    5.93    1.03
   1  -9  -4    7.44    1.11
  -1   9   4    7.73    1.17
   0  -9  -4   16.15    1.32
   0  -9  -4   12.62    1.31
   0   9   4   16.17    1.24
  -1  -9  -4    7.10    0.98
  -1  -9  -4    5.93    0.72
  -1  -9  -4    4.85    0.82
   1   9   4    5.52    0.87
   1   9   4    3.92    0.65
  -2  -9  -4    4.19    0.72
  -2  -9  -4    5.22    0.98
   2   9   4    6.01    0.91
   2   9   4    4.03    0.68
  -3  -9  -4    0.45    0.61
  -3  -9  -4    0.43    0.61
   3   9   4    0.51    0.58
   3   9   4    0.26    0.57
  -4  -9  -4   -0.98    0.66
  -4  -9  -4    1.06    0.65
   4   9   4    1.04    0.58
   4   9   4    0.48    0.59
  -5  -9  -4   21.81    1.90
   5   9   4   23.67    1.77
   5   9   4   22.45    1.77
   5   9   4   20.23    1.58
  -1 -10  -4    0.91    0.75
  -1 -10  -4    1.63    0.87
  -1 -10  -4    1.55    0.73
   1  10   4    0.40    0.64
  -2 -10  -4    5.08    0.89
  -2 -10  -4    7.91    1.18
   2  10   4    6.83    1.11
   2  10   4    6.49    0.99
  -3 -10  -4    2.19    0.72
  -3 -10  -4    2.05    0.76
   3  10   4    2.14    0.68
   3  10   4    1.44    0.72
  -4 -10  -4   19.34    1.67
   4  10   4   18.56    1.49
   4  10   4   18.31    1.58
   3   9  -5   12.92    1.30
  -3  -9   5   16.02    1.61
   2   9  -5   43.06    3.13
   2   9  -5   51.55    3.11
  -2  -9   5   55.29    3.17
  -2  -9   5   56.31    3.29
   1   9  -5    0.77    0.64
   1   9  -5    0.55    0.63
  -1  -9   5    2.37    0.78
  -1  -9   5    2.33    0.66
   0   9  -5    9.58    1.08
   0   9  -5    9.90    1.17
   0  -9   5   12.93    1.43
   0  -9   5   10.25    1.14
  -1   9  -5   21.85    1.66
  -1   9  -5   20.78    1.71
   1  -9   5   22.69    1.60
   2  -9   5   14.62    1.34
  -4  -8   5   11.50    1.38
   3   8  -5   -0.16    0.56
   3   8  -5    0.12    0.58
  -3  -8   5    0.90    0.64
  -3  -8   5    0.53    0.71
   2   8  -5   27.99    1.88
   2   8  -5   26.03    1.91
  -2  -8   5   30.53    1.93
  -2  -8   5   30.53    2.05
   1   8  -5   34.37    2.49
   1   8  -5   39.85    2.43
  -1  -8   5   44.48    2.60
  -1  -8   5   42.58    2.49
   0   8  -5    3.01    0.52
   0   8  -5    3.43    0.61
   0  -8   5    2.65    0.61
   0  -8   5    3.09    0.61
  -1   8  -5    8.44    1.05
  -1   8  -5   11.42    1.05
  -1   8  -5    9.93    0.91
   1  -8   5    9.65    0.99
  -2   8  -5   19.69    1.55
  -2   8  -5   19.74    1.40
   2  -8   5   22.47    1.51
  -3   8  -5    0.07    0.63
  -3   8  -5    0.87    0.74
   3  -8   5   -0.11    0.63
   3  -8   5    0.73    0.61
  -4   8  -5    0.37    0.70
  -4   8  -5   -0.13    0.77
   4  -8   5   -1.29    0.63
   4   7  -5    5.62    0.91
   4   7  -5    5.75    0.74
  -4  -7   5    6.42    0.88
  -4  -7   5    7.43    1.08
   3   7  -5   15.41    1.24
   3   7  -5   14.85    1.23
  -3  -7   5   17.37    1.29
  -3  -7   5   14.38    1.41
   2   7  -5   18.99    1.36
   2   7  -5   18.23    1.33
   2   7  -5   17.13    1.35
  -2  -7   5   20.14    1.54
  -2  -7   5   20.55    1.39
   1   7  -5   -0.31    0.39
   1   7  -5   -0.43    0.43
   1   7  -5   -0.20    0.40
  -1  -7   5    0.07    0.47
  -1  -7   5   -0.06    0.43
   0   7  -5   47.81    2.72
   0   7  -5   42.44    2.78
   0   7  -5   45.92    2.76
   0  -7   5   48.03    2.76
   0  -7   5   45.86    2.81
   0  -7   5   50.53    2.82
  -1   7  -5   35.35    2.36
  -1   7  -5   38.71    2.36
   1  -7   5   42.59    2.34
   1  -7   5   33.21    2.30
   1  -7   5   44.44    2.38
  -2   7  -5    3.85    0.59
  -2   7  -5    5.83    0.81
   2  -7   5    4.60    0.58
   2  -7   5    2.69    0.55
  -3   7  -5    0.80    0.44
  -3   7  -5    1.09    0.56
  -3   7  -5    0.13    0.51
   3  -7   5    0.92    0.53
   3  -7   5    0.55    0.52
  -4   7  -5    1.53    0.67
  -4   7  -5    2.08    0.66
   4  -7   5    1.65    0.54
   4  -7   5    2.54    0.62
  -5   7  -5   14.34    1.49
   5  -7   5   10.73    1.18
   5  -7   5   10.63    1.31
   5  -7   5   11.87    1.12
   5   6  -5   32.97    2.12
   5   6  -5   31.79    2.09
  -5  -6   5   34.62    2.30
   4   6  -5   11.39    1.03
   4   6  -5   12.05    1.07
   4   6  -5   11.52    0.97
  -4  -6   5   11.13    1.22
  -4  -6   5   12.00    1.14
   3   6  -5   65.50    3.77
   3   6  -5   64.03    3.73
   3   6  -5   61.74    3.76
  -3  -6   5   65.68    3.85
  -3  -6   5   68.77    3.78
   2   6  -5  186.64   10.29
   2   6  -5  186.03   10.28
   2   6  -5  176.53   10.30
  -2  -6   5  185.91   10.35
  -2  -6   5  190.87   10.30
   1   6  -5   -0.40    0.34
   1   6  -5   -0.64    0.36
   1   6  -5   -0.04    0.34
  -1  -6   5    0.23    0.39
  -1  -6   5   -0.37    0.36
   0   6  -5    0.52    0.35
   0   6  -5    0.61    0.32
   0   6  -5    0.55    0.37
   0  -6   5    0.56    0.38
   0  -6   5   -0.20    0.37
  -1   6  -5    0.76    0.39
  -1   6  -5    0.28    0.36
   1  -6   5   -0.06    0.38
   1  -6   5    0.13    0.36
   1  -6   5    0.04    0.36
  -2   6  -5   19.74    1.41
  -2   6  -5   21.24    1.44
   2  -6   5   19.14    1.36
   2  -6   5   23.26    1.40
   2  -6   5   21.47    1.35
  -3   6  -5   10.59    0.99
  -3   6  -5   10.92    1.03
   3  -6   5   11.85    0.91
   3  -6   5   10.75    0.94
  -4   6  -5    2.55    0.59
  -4   6  -5    2.42    0.58
   4  -6   5    2.32    0.54
   4  -6   5    2.05    0.78
   4  -6   5    2.13    0.48
  -5   6  -5    6.62    1.23
  -5   6  -5    7.06    1.14
   5  -6   5    7.73    0.90
   5  -6   5    9.78    1.01
   5  -6   5    7.96    1.08
   6  -6   5    5.50    1.03
   6  -6   5    5.98    0.90
   5   5  -5   46.69    2.86
   5   5  -5   49.54    2.83
   5   5  -5   48.40    2.88
  -5  -5   5   46.50    2.88
  -5  -5   5   46.75    2.99
   4   5  -5    1.29    0.39
   4   5  -5    1.72    0.48
   4   5  -5    1.67    0.43
  -4  -5   5    2.42    0.55
  -4  -5   5    2.03    0.49
   3   5  -5    0.40    0.33
   3   5  -5    0.37    0.36
   3   5  -5    0.93    0.35
  -3  -5   5    0.76    0.38
  -3  -5   5    1.02    0.44
   2   5  -5    3.30    0.57
   2   5  -5    2.78    0.42
   2   5  -5    2.74    0.41
  -2  -5   5    3.82    0.64
  -2  -5   5    3.63    0.60
   1   5  -5  115.33    6.37
   1   5  -5  117.05    6.38
   1   5  -5  108.06    6.38
  -1  -5   5  111.53    6.41
  -1  -5   5  118.71    6.38
   0   5  -5   36.66    2.18
   0   5  -5   38.39    2.14
   0   5  -5   35.28    2.18
   0  -5   5   36.99    2.16
   0  -5   5   36.99    2.19
  -1   5  -5   98.76    5.67
  -1   5  -5   93.50    5.66
   1  -5   5  108.97    5.68
   1  -5   5  100.80    5.64
   1  -5   5  102.17    5.65
  -2   5  -5    0.73    0.38
  -2   5  -5    0.36    0.37
  -2   5  -5    0.41    0.27
   2  -5   5    0.52    0.33
   2  -5   5   -0.35    0.32
   2  -5   5    0.84    0.33
   2  -5   5    0.92    0.37
  -3   5  -5   -0.62    0.37
  -3   5  -5   -0.46    0.28
  -3   5  -5   -0.46    0.39
   3  -5   5   -0.07    0.32
   3  -5   5   -0.49    0.33
  -4   5  -5   51.11    3.13
  -4   5  -5   53.25    3.19
   4  -5   5   55.63    3.11
   4  -5   5   51.44    3.12
   4  -5   5   54.34    3.06
  -5   5  -5   71.92    4.20
  -5   5  -5   68.64    4.24
   5  -5   5   72.47    4.19
   5  -5   5   71.57    4.08
   5  -5   5   73.86    4.15
  -6   5  -5   16.73    1.59
  -6   5  -5   18.62    1.52
   6  -5   5   15.50    1.26
   6  -5   5   17.54    1.54
   6  -5   5   17.32    1.39
   6   4  -5    2.67    0.52
  -6  -4   5    4.24    0.79
   5   4  -5   10.75    0.93
   5   4  -5   10.36    0.99
   5   4  -5   11.48    1.08
  -5  -4   5    9.95    1.06
  -5  -4   5   12.26    1.22
   4   4  -5   11.59    0.95
   4   4  -5   11.16    1.00
   4   4  -5   11.91    0.89
  -4  -4   5   10.03    1.00
  -4  -4   5   11.62    1.11
   3   4  -5  128.98    7.37
   3   4  -5  139.61    7.36
   3   4  -5  126.30    7.36
  -3  -4   5  129.81    7.41
  -3  -4   5  128.12    7.37
  -3  -4   5  138.67    7.36
   2   4  -5   34.21    2.05
   2   4  -5   33.58    2.04
   2   4  -5   36.53    2.05
  -2  -4   5   33.61    2.09
  -2  -4   5   36.15    2.04
  -2  -4   5   33.38    2.05
   1   4  -5   59.21    3.44
   1   4  -5   63.71    3.46
   1   4  -5   58.89    3.46
  -1  -4   5   59.78    3.49
  -1  -4   5   63.20    3.46
  -1  -4   5   60.67    3.45
   0   4  -5   49.58    2.81
   0   4  -5   48.69    2.77
   0   4  -5   48.84    2.80
   0  -4   5   47.32    2.81
   0  -4   5   49.60    2.79
  -1   4  -5   42.31    2.36
  -1   4  -5   40.72    2.41
  -1   4  -5   41.17    2.42
   1  -4   5   40.77    2.37
   1  -4   5   41.78    2.38
   1  -4   5   41.94    2.40
  -2   4  -5    0.54    0.30
  -2   4  -5    1.09    0.35
  -2   4  -5    0.49    0.30
  -2   4  -5    0.38    0.21
   2  -4   5    0.80    0.30
   2  -4   5    0.70    0.26
   2  -4   5    0.41    0.27
  -3   4  -5    6.60    0.72
  -3   4  -5    5.60    0.67
  -3   4  -5    5.10    0.72
   3  -4   5    5.58    0.67
   3  -4   5    6.85    0.60
   3  -4   5    6.65    0.62
  -4   4  -5    4.96    0.74
  -4   4  -5    5.33    0.77
  -4   4  -5    3.84    0.70
   4  -4   5    6.30    0.59
   4  -4   5    5.89    0.66
   4  -4   5    5.68    0.74
  -5   4  -5    3.17    0.63
  -5   4  -5    4.79    0.78
  -5   4  -5    3.24    0.63
   5  -4   5    3.10    0.45
   5  -4   5    3.03    0.57
   5  -4   5    3.98    0.73
  -6   4  -5   14.60    1.42
  -6   4  -5   15.38    1.38
   6  -4   5   16.67    1.45
   6  -4   5   17.31    1.31
   6  -4   5   16.06    1.15
  -7   4  -5    0.28    0.75
   7  -4   5    0.78    0.61
   7  -4   5   -0.50    0.49
   7  -4   5    0.48    0.80
   6   3  -5   -0.11    0.43
  -6  -3   5    0.65    0.67
  -6  -3   5   -0.23    0.65
   5   3  -5   50.16    3.01
   5   3  -5   55.34    2.99
  -5  -3   5   49.51    3.04
  -5  -3   5   48.42    3.09
   4   3  -5    1.55    0.34
   4   3  -5    1.34    0.37
  -4  -3   5    1.99    0.45
  -4  -3   5    2.83    0.47
   3   3  -5   64.72    3.81
   3   3  -5   71.73    3.80
  -3  -3   5   67.38    3.86
  -3  -3   5   63.78    3.81
   2   3  -5  133.31    6.94
   2   3  -5  122.53    6.94
  -2  -3   5  120.23    6.94
  -2  -3   5  122.01    6.97
   1   3  -5   43.95    2.49
   1   3  -5   45.29    2.50
  -1  -3   5   41.26    2.51
  -1  -3   5   41.71    2.48
  -1  -3   5   44.96    2.48
   0   3  -5   47.83    2.60
   0   3  -5   44.93    2.58
   0   3  -5   46.27    2.57
   0  -3   5   45.03    2.58
   0  -3   5   42.63    2.59
  -1   3  -5   83.61    4.45
  -1   3  -5   80.44    4.41
  -1   3  -5   81.98    4.46
   1  -3   5   69.11    4.43
   1  -3   5   76.61    4.41
   1  -3   5   83.96    4.43
  -2   3  -5   -0.22    0.25
  -2   3  -5    0.07    0.24
  -2   3  -5   -0.22    0.28
   2  -3   5    0.03    0.22
   2  -3   5   -0.03    0.20
   2  -3   5    0.01    0.21
  -3   3  -5  166.62    9.17
  -3   3  -5  163.58    9.19
  -3   3  -5  161.01    9.21
   3  -3   5  170.41    9.15
   3  -3   5  164.45    9.16
  -4   3  -5   -0.19    0.37
  -4   3  -5   -0.35    0.33
  -4   3  -5   -0.18    0.32
   4  -3   5   -0.49    0.35
   4  -3   5    0.05    0.29
   4  -3   5    0.25    0.27
  -5   3  -5   83.44    4.61
  -5   3  -5   81.92    4.55
  -5   3  -5   75.51    4.59
   5  -3   5   75.01    4.58
   5  -3   5   80.31    4.48
   5  -3   5   80.84    4.53
  -6   3  -5    2.79    0.56
  -6   3  -5    1.69    0.55
  -6   3  -5    2.22    0.66
   6  -3   5    2.67    0.53
   6  -3   5    2.49    0.64
   6  -3   5    1.99    0.41
  -7   3  -5   18.35    1.65
  -7   3  -5   20.60    1.63
   7  -3   5   18.95    1.70
   7  -3   5   19.32    1.38
   7  -3   5   20.21    1.52
   6   2  -5   26.03    1.70
  -6  -2   5   25.13    1.81
  -6  -2   5   24.67    1.85
   5   2  -5    0.52    0.33
   5   2  -5    0.70    0.36
   5   2  -5    0.38    0.42
  -5  -2   5    0.76    0.49
  -5  -2   5   -0.43    0.47
   4   2  -5   39.31    2.40
   4   2  -5   44.26    2.39
  -4  -2   5   41.50    2.46
  -4  -2   5   39.59    2.42
  -4  -2   5   37.94    2.45
   3   2  -5   43.45    2.57
   3   2  -5   46.81    2.52
   3   2  -5   47.45    2.56
  -3  -2   5   42.42    2.61
  -3  -2   5   42.85    2.58
  -3  -2   5   42.51    2.52
   2   2  -5   17.92    1.17
   2   2  -5   20.03    1.17
  -2  -2   5   18.08    1.17
  -2  -2   5   18.35    1.20
  -2  -2   5   19.18    1.15
   1   2  -5   15.73    1.02
   1   2  -5   18.04    1.04
  -1  -2   5   16.10    1.05
  -1  -2   5   15.49    1.02
  -1  -2   5   17.20    1.02
   0   2  -5  213.84   11.82
   0   2  -5  212.21   11.81
   0   2  -5  230.94   11.85
   0  -2   5  207.81   11.81
   0  -2   5  208.22   11.84
   0  -2   5  212.90   11.82
  -1   2  -5   57.85    3.38
  -1   2  -5   63.96    3.38
  -1   2  -5   60.70    3.35
  -1   2  -5   63.13    3.41
   1  -2   5   54.29    3.35
   1  -2   5   57.94    3.38
   1  -2   5   60.49    3.37
   1  -2   5   62.55    3.35
  -2   2  -5    0.58    0.25
  -2   2  -5    0.42    0.26
  -2   2  -5    0.29    0.21
   2  -2   5    0.41    0.18
   2  -2   5    0.47    0.19
   2  -2   5    0.40    0.17
  -3   2  -5   57.38    3.34
  -3   2  -5   59.39    3.36
  -3   2  -5   61.26    3.32
   3  -2   5   54.42    3.31
   3  -2   5   60.64    3.30
   3  -2   5   57.57    3.26
  -4   2  -5   48.37    2.71
  -4   2  -5   47.10    2.76
  -4   2  -5   44.74    2.75
   4  -2   5   44.98    2.70
   4  -2   5   48.52    2.67
  -5   2  -5    2.71    0.44
  -5   2  -5    2.26    0.50
  -5   2  -5    1.61    0.45
   5  -2   5    2.94    0.47
   5  -2   5    3.05    0.56
  -6   2  -5   55.37    3.09
  -6   2  -5   54.03    3.20
  -6   2  -5   48.55    3.15
   6  -2   5   51.61    2.99
   6  -2   5   52.37    3.09
   6  -2   5   50.05    3.16
  -7   2  -5   15.00    1.31
  -7   2  -5   11.00    1.38
  -7   2  -5   10.73    1.26
   7  -2   5   11.26    0.97
   7  -2   5   12.22    1.18
   7  -2   5   11.17    1.35
   6   1  -5    7.88    0.88
   6   1  -5    6.63    0.85
  -6  -1   5    8.31    1.04
  -6  -1   5    5.30    0.82
   5   1  -5   78.10    4.08
   5   1  -5   73.79    4.11
   5   1  -5   67.51    4.13
  -5  -1   5   69.53    4.14
  -5  -1   5   69.95    4.15
  -5  -1   5   70.27    4.15
   4   1  -5    4.50    0.62
   4   1  -5    4.48    0.53
   4   1  -5    4.32    0.53
  -4  -1   5    4.21    0.63
  -4  -1   5    3.45    0.49
  -4  -1   5    3.71    0.51
   3   1  -5  145.32    8.39
   3   1  -5  164.88    8.36
   3   1  -5  155.86    8.38
  -3  -1   5  143.18    8.33
  -3  -1   5  150.12    8.41
  -3  -1   5  147.12    8.40
  -3  -1   5  149.56    8.40
   2   1  -5   66.48    4.02
   2   1  -5   80.09    4.00
   2   1  -5   73.06    4.02
  -2  -1   5   68.20    4.02
  -2  -1   5   71.11    3.98
  -2  -1   5   69.86    4.04
   1   1  -5   27.45    1.67
   1   1  -5   29.87    1.69
   1   1  -5   30.84    1.66
  -1  -1   5   29.31    1.65
  -1  -1   5   26.83    1.68
  -1  -1   5   28.37    1.70
   0   1  -5    8.75    0.58
   0   1  -5    7.92    0.56
   0   1  -5    8.64    0.61
   0  -1   5    8.14    0.55
   0  -1   5    7.31    0.55
   0  -1   5    7.01    0.58
  -1   1  -5    2.99    0.38
  -1   1  -5    3.45    0.43
  -1   1  -5    3.95    0.35
   1  -1   5    3.45    0.34
   1  -1   5    3.04    0.37
   1  -1   5    3.58    0.32
   1  -1   5    3.33    0.32
  -2   1  -5   18.52    1.10
  -2   1  -5   16.77    1.10
   2  -1   5   17.92    1.05
   2  -1   5   16.46    1.05
   2  -1   5   17.04    1.03
  -3   1  -5  134.51    7.14
  -3   1  -5  128.05    7.19
  -3   1  -5  129.77    7.18
   3  -1   5  119.67    7.15
   3  -1   5  129.83    7.14
   3  -1   5  130.59    7.11
  -4   1  -5   10.21    0.82
  -4   1  -5    9.73    0.83
  -4   1  -5   10.03    0.78
   4  -1   5   10.35    0.72
   4  -1   5   10.36    0.77
  -5   1  -5   75.90    4.41
  -5   1  -5   77.23    4.43
   5  -1   5   78.07    4.32
   5  -1   5   75.72    4.37
  -6   1  -5   15.13    1.10
  -6   1  -5   13.74    1.17
  -6   1  -5   13.33    1.23
   6  -1   5   13.41    1.12
   6  -1   5   14.26    0.99
  -7   1  -5    7.25    1.20
  -7   1  -5    7.84    1.12
   7  -1   5    9.42    0.83
   7  -1   5    7.64    1.19
   7  -1   5    7.94    0.99
  -8   1  -5   16.73    1.72
  -8   1  -5   19.73    1.67
   8  -1   5   19.17    1.53
   8  -1   5   16.48    1.36
   8  -1   5   17.66    1.68
   6   0  -5   -0.27    0.50
   6   0  -5    0.25    0.63
  -6   0   5    0.20    0.66
   5   0  -5    0.86    0.48
   5   0  -5    1.14    0.40
   5   0  -5    1.60    0.38
  -5   0   5    1.26    0.49
  -5   0   5    1.00    0.52
   4   0  -5   26.33    1.79
   4   0  -5   32.34    1.75
   4   0  -5   29.49    1.76
  -4   0   5   27.08    1.79
  -4   0   5   29.38    1.80
  -4   0   5   27.59    1.80
   3   0  -5   -0.24    0.27
   3   0  -5    0.14    0.21
   3   0  -5    0.53    0.25
  -3   0   5   -0.02    0.30
  -3   0   5   -0.01    0.27
  -3   0   5   -0.13    0.27
   2   0  -5    3.79    0.40
   2   0  -5    2.64    0.42
   2   0  -5    3.08    0.37
   2   0  -5    3.09    0.43
  -2   0   5    3.09    0.41
  -2   0   5    2.82    0.32
  -2   0   5    2.84    0.40
  -2   0   5    2.72    0.45
   1   0  -5   27.12    1.58
   1   0  -5   24.58    1.55
   1   0  -5   28.53    1.59
  -1   0   5   26.68    1.58
  -1   0   5   26.76    1.59
  -1   0   5   28.70    1.54
   0   0  -5  260.43   12.90
   0   0  -5  258.80   12.91
   0   0  -5  220.39   12.88
   0   0   5  225.04   12.87
   0   0   5  221.46   12.90
   0   0   5  217.80   12.88
  -1   0  -5   47.51    2.53
  -1   0  -5   41.50    2.53
  -1   0  -5   46.97    2.57
  -1   0  -5   51.94    2.58
   1   0   5   44.42    2.54
   1   0   5   39.85    2.53
   1   0   5   44.03    2.52
   1   0   5   44.97    2.55
  -2   0  -5   14.23    0.88
  -2   0  -5   13.15    0.90
  -2   0  -5   14.05    0.91
   2   0   5   14.18    0.86
   2   0   5   13.00    0.85
   2   0   5   14.27    0.86
  -3   0  -5   10.32    0.74
  -3   0  -5    9.59    0.73
  -3   0  -5   10.80    0.68
  -3   0  -5   10.30    0.76
   3   0   5   10.51    0.67
   3   0   5    9.12    0.72
   3   0   5   10.12    0.67
  -4   0  -5   78.85    4.45
  -4   0  -5   81.29    4.37
  -4   0  -5   78.28    4.43
   4   0   5   77.96    4.38
   4   0   5   77.87    4.35
   4   0   5   74.77    4.41
  -5   0  -5   25.47    1.68
  -5   0  -5   25.88    1.71
  -5   0  -5   29.25    1.66
   5   0   5   24.94    1.55
   5   0   5   27.74    1.60
   5   0   5   25.53    1.66
  -6   0  -5   66.79    4.07
  -6   0  -5   70.30    4.11
   6   0   5   72.83    3.98
   6   0   5   70.05    4.04
  -7   0  -5   10.02    1.25
  -7   0  -5   11.04    1.15
   7   0   5   10.92    1.23
   7   0   5   11.48    0.94
   7   0   5   10.91    1.11
  -8   0  -5   14.81    1.64
  -8   0  -5   15.08    1.58
   8   0   5   16.05    1.47
   8   0   5   17.52    1.60
   8   0   5   16.01    1.28
   6  -1  -5    1.27    0.56
   6  -1  -5    1.85    1.04
   6  -1  -5    0.61    0.55
  -6   1   5    1.15    0.68
   5  -1  -5   31.89    1.88
   5  -1  -5   31.77    1.91
   5  -1  -5   27.83    1.96
  -5   1   5   29.05    1.95
  -5   1   5   27.96    1.96
   4  -1  -5   15.62    1.08
   4  -1  -5   16.82    1.08
  -4   1   5   14.03    1.11
  -4   1   5   13.17    1.12
  -4   1   5   15.96    1.10
   3  -1  -5  115.56    5.91
   3  -1  -5  103.48    5.91
  -3   1   5  106.05    5.92
  -3   1   5  101.13    5.92
  -3   1   5  101.43    5.93
   2  -1  -5    1.06    0.27
   2  -1  -5    1.17    0.28
   2  -1  -5    1.14    0.24
  -2   1   5    1.25    0.26
  -2   1   5    1.27    0.27
  -2   1   5    1.24    0.27
   1  -1  -5  245.83   11.80
   1  -1  -5  204.87   11.79
   1  -1  -5  221.96   11.80
  -1   1   5  205.43   11.79
  -1   1   5  212.13   11.80
  -1   1   5  206.25   11.80
  -1   1   5  199.48   11.75
   0  -1  -5   92.02    4.64
   0  -1  -5   78.30    4.61
   0  -1  -5   90.75    4.64
   0   1   5   77.66    4.62
   0   1   5   81.45    4.63
   0   1   5   78.34    4.60
  -1  -1  -5   12.44    0.74
  -1  -1  -5   11.92    0.80
  -1  -1  -5   13.03    0.80
  -1  -1  -5   10.79    0.74
   1   1   5   10.72    0.71
   1   1   5   11.76    0.73
  -2  -1  -5   17.24    1.01
  -2  -1  -5   16.43    1.02
  -2  -1  -5   14.13    0.98
   2   1   5   15.38    0.97
   2   1   5   15.72    0.96
  -3  -1  -5  105.07    6.08
  -3  -1  -5  113.72    6.07
  -3  -1  -5  108.78    6.07
   3   1   5  108.10    6.04
   3   1   5  107.59    6.03
  -4  -1  -5    5.79    0.58
  -4  -1  -5    4.63    0.56
  -4  -1  -5    4.17    0.59
   4   1   5    5.82    0.50
   4   1   5    4.24    0.55
   4   1   5    5.99    0.47
  -5  -1  -5   67.59    3.91
  -5  -1  -5   66.84    3.87
  -5  -1  -5   69.29    3.89
   5   1   5   65.71    3.87
   5   1   5   69.04    3.83
   5   1   5   66.02    3.78
  -6  -1  -5   37.72    2.44
  -6  -1  -5   39.81    2.40
   6   1   5   41.25    2.32
   6   1   5   38.45    2.38
   6   1   5   38.22    2.25
  -7  -1  -5    0.59    0.57
  -7  -1  -5   -0.70    0.58
   7   1   5   -0.49    0.43
   7   1   5    0.63    0.51
  -8  -1  -5    6.57    1.22
  -8  -1  -5    6.97    1.31
   8   1   5    6.35    1.13
   8   1   5    6.88    1.26
   8   1   5    7.20    0.96
   5  -2  -5   11.64    1.04
   5  -2  -5   13.25    1.06
  -5   2   5    9.39    1.15
  -5   2   5   11.38    1.14
   4  -2  -5    0.37    0.40
   4  -2  -5    0.40    0.39
  -4   2   5    0.90    0.44
  -4   2   5    0.44    0.49
   3  -2  -5    8.30    0.73
   3  -2  -5    7.99    0.69
  -3   2   5    7.38    0.74
  -3   2   5    7.90    0.74
  -3   2   5    7.91    0.73
   2  -2  -5   11.06    0.79
   2  -2  -5   12.45    0.84
  -2   2   5   10.97    0.82
  -2   2   5   11.50    0.80
  -2   2   5   10.74    0.81
   1  -2  -5    0.63    0.20
   1  -2  -5    0.65    0.29
  -1   2   5    0.34    0.23
  -1   2   5    0.30    0.21
  -1   2   5    0.48    0.21
   0  -2  -5  173.92    8.52
   0  -2  -5  164.18    8.50
   0  -2  -5  149.57    8.48
   0  -2  -5  147.35    8.48
   0   2   5  147.70    8.48
   0   2   5  154.99    8.50
   0   2   5  149.97    8.49
   0   2   5  141.71    8.47
  -1  -2  -5    3.85    0.40
  -1  -2  -5    3.46    0.46
  -1  -2  -5    4.80    0.45
   1   2   5    3.62    0.40
   1   2   5    4.11    0.36
   1   2   5    3.62    0.35
  -2  -2  -5   52.70    2.91
  -2  -2  -5   56.86    2.90
  -2  -2  -5   49.14    2.89
   2   2   5   48.22    2.87
   2   2   5   48.37    2.84
   2   2   5   50.49    2.88
  -3  -2  -5  147.71    8.44
  -3  -2  -5  161.42    8.43
  -3  -2  -5  148.66    8.45
   3   2   5  148.28    8.42
   3   2   5  153.74    8.41
  -4  -2  -5    5.11    0.62
  -4  -2  -5    5.71    0.60
  -4  -2  -5    5.79    0.57
   4   2   5    5.51    0.49
   4   2   5    5.76    0.52
  -5  -2  -5   41.52    2.46
  -5  -2  -5   39.92    2.48
  -5  -2  -5   42.19    2.43
   5   2   5   39.56    2.44
   5   2   5   40.82    2.36
   5   2   5   41.47    2.39
  -6  -2  -5    3.35    0.55
  -6  -2  -5    3.29    0.56
  -6  -2  -5    3.07    0.49
   6   2   5    3.25    0.50
   6   2   5    2.61    0.54
   6   2   5    3.07    0.47
  -7  -2  -5    8.29    1.12
  -7  -2  -5    8.79    0.99
   7   2   5    8.38    1.00
   7   2   5    8.02    0.75
   7   2   5    7.94    0.92
  -8  -2  -5    0.87    0.81
  -8  -2  -5    1.43    0.66
   8   2   5    0.73    0.72
   8   2   5    1.92    0.72
   8   2   5    1.03    0.59
   5  -3  -5   21.32    1.53
   5  -3  -5   20.25    1.51
  -5   3   5   21.17    1.59
  -5   3   5   21.30    1.64
   4  -3  -5   55.76    3.13
   4  -3  -5   59.27    3.14
  -4   3   5   44.70    3.12
  -4   3   5   52.58    3.18
   3  -3  -5   45.42    2.64
   3  -3  -5   45.01    2.65
  -3   3   5   45.20    2.69
  -3   3   5   45.42    2.66
   2  -3  -5   16.15    1.04
   2  -3  -5   16.87    1.08
   2  -3  -5   15.56    1.01
  -2   3   5   15.47    1.08
  -2   3   5   15.19    1.06
   1  -3  -5   39.00    2.21
   1  -3  -5   38.55    2.20
   1  -3  -5   39.93    2.25
  -1   3   5   37.37    2.22
  -1   3   5   37.49    2.23
  -1   3   5   38.51    2.22
   0  -3  -5   98.05    5.04
   0  -3  -5   88.37    5.03
   0  -3  -5   94.99    5.06
   0   3   5   89.71    5.04
   0   3   5   88.00    5.02
   0   3   5   89.22    5.03
   0   3   5   83.96    5.00
  -1  -3  -5   49.15    2.67
  -1  -3  -5   45.62    2.64
   1   3   5   45.99    2.62
   1   3   5   46.84    2.63
   1   3   5   44.03    2.61
  -2  -3  -5    8.83    0.68
  -2  -3  -5    9.31    0.67
  -2  -3  -5    8.36    0.70
   2   3   5    9.12    0.61
   2   3   5    9.90    0.66
   2   3   5    9.05    0.64
  -3  -3  -5  168.34    9.04
  -3  -3  -5  158.53    9.07
  -3  -3  -5  161.17    9.08
   3   3   5  164.59    9.00
   3   3   5  162.15    9.05
   3   3   5  164.85    9.04
  -4  -3  -5   84.81    4.92
  -4  -3  -5   87.84    4.87
  -4  -3  -5   87.61    4.91
   4   3   5   86.69    4.88
   4   3   5   86.82    4.86
  -5  -3  -5   24.04    1.62
  -5  -3  -5   24.25    1.59
   5   3   5   24.88    1.50
   5   3   5   24.81    1.52
  -6  -3  -5   61.25    3.70
  -6  -3  -5   63.14    3.68
   6   3   5   60.34    3.57
   6   3   5   63.46    3.67
   6   3   5   64.97    3.61
  -7  -3  -5    0.08    0.60
  -7  -3  -5    0.36    0.59
   7   3   5    0.05    0.40
   7   3   5    0.83    0.60
   7   3   5    0.52    0.45
  -8  -3  -5    3.10    0.85
   8   3   5    2.94    0.65
   8   3   5    4.02    0.81
   5  -4  -5   10.71    1.14
  -5   4   5   10.38    1.22
  -5   4   5   12.38    1.97
   4  -4  -5   -0.01    0.51
   4  -4  -5    0.03    0.44
  -4   4   5   -0.44    0.52
  -4   4   5   -0.04    0.58
   3  -4  -5    2.33    0.41
   3  -4  -5    2.10    0.50
  -3   4   5    2.28    0.48
  -3   4   5    2.04    0.45
   2  -4  -5   12.42    0.85
   2  -4  -5   11.38    0.93
   2  -4  -5   11.77    0.86
  -2   4   5   12.52    0.91
  -2   4   5   12.20    0.92
  -2   4   5   12.38    0.93
   1  -4  -5   14.48    0.93
   1  -4  -5   13.59    1.01
   1  -4  -5   14.55    0.93
  -1   4   5   13.66    0.94
  -1   4   5   13.15    0.96
  -1   4   5   14.90    0.97
   0  -4  -5    1.75    0.30
   0  -4  -5    1.59    0.30
   0  -4  -5    2.15    0.40
   0   4   5    2.08    0.30
   0   4   5    2.13    0.31
   0   4   5    2.10    0.32
   0   4   5    2.29    0.31
  -1  -4  -5   14.45    0.95
  -1  -4  -5   14.30    1.00
   1   4   5   14.78    0.92
   1   4   5   15.35    0.94
   1   4   5   13.32    0.91
  -2  -4  -5   16.84    1.05
  -2  -4  -5   16.08    1.08
  -2  -4  -5   16.10    1.11
   2   4   5   17.20    1.06
   2   4   5   17.01    1.04
   2   4   5   16.60    1.02
  -3  -4  -5   24.03    1.54
  -3  -4  -5   25.13    1.58
  -3  -4  -5   24.89    1.50
   3   4   5   25.23    1.52
   3   4   5   26.01    1.48
   3   4   5   25.64    1.52
  -4  -4  -5   18.22    1.26
  -4  -4  -5   18.87    1.25
  -4  -4  -5   17.53    1.19
   4   4   5   18.37    1.13
   4   4   5   18.92    1.19
   4   4   5   19.39    1.19
  -5  -4  -5   61.34    3.65
  -5  -4  -5   63.53    3.64
   5   4   5   63.41    3.60
   5   4   5   63.46    3.58
   5   4   5   61.71    3.51
  -6  -4  -5   17.59    1.37
  -6  -4  -5   16.32    1.34
   6   4   5   17.90    1.24
   6   4   5   18.03    1.21
  -7  -4  -5    1.43    0.64
  -7  -4  -5    0.71    0.60
   7   4   5    0.90    0.52
   7   4   5    1.88    0.65
   7   4   5    0.67    0.47
  -8  -4  -5    5.64    0.93
  -8  -4  -5    5.99    0.98
   8   4   5    6.52    0.97
   8   4   5    8.57    1.05
   8   4   5    7.70    1.25
   4  -5  -5   16.29    1.29
   4  -5  -5   14.51    1.25
  -4   5   5   16.50    1.41
  -4   5   5   13.35    1.29
   3  -5  -5   15.32    1.09
   3  -5  -5   13.58    1.08
   3  -5  -5   13.29    1.16
  -3   5   5   14.69    1.14
  -3   5   5   14.43    1.22
   2  -5  -5    9.94    0.80
   2  -5  -5    8.74    0.91
  -2   5   5    9.01    0.80
  -2   5   5   10.89    0.90
  -2   5   5   10.21    0.87
   1  -5  -5   12.37    1.05
   1  -5  -5   14.57    0.99
  -1   5   5   15.33    1.02
  -1   5   5   13.28    0.98
  -1   5   5   15.75    1.00
   0  -5  -5  122.61    6.52
   0  -5  -5  120.83    6.50
   0  -5  -5  112.73    6.55
   0   5   5  115.07    6.48
   0   5   5  117.39    6.52
   0   5   5  119.08    6.52
   0   5   5  110.85    6.50
  -1  -5  -5   17.23    1.06
  -1  -5  -5   16.44    1.09
  -1  -5  -5   14.25    1.14
   1   5   5   16.58    1.05
   1   5   5   17.01    1.08
  -2  -5  -5   56.67    3.15
  -2  -5  -5   53.59    3.18
  -2  -5  -5   53.87    3.16
   2   5   5   54.86    3.15
   2   5   5   56.26    3.12
  -3  -5  -5    5.57    0.70
  -3  -5  -5    6.28    0.62
  -3  -5  -5    5.37    0.65
   3   5   5    6.28    0.55
   3   5   5    5.24    0.62
   3   5   5    5.80    0.59
  -4  -5  -5   27.33    1.85
  -4  -5  -5   30.79    1.88
  -4  -5  -5   30.51    1.84
   4   5   5   30.93    1.83
   4   5   5   30.76    1.77
   4   5   5   30.56    1.84
  -5  -5  -5   19.63    1.27
  -5  -5  -5   18.05    1.32
  -5  -5  -5   18.19    1.33
  -5  -5  -5   17.60    1.22
   5   5   5   18.42    1.25
   5   5   5   17.04    1.14
   5   5   5   19.07    1.24
  -6  -5  -5   44.94    2.82
  -6  -5  -5   43.89    2.82
   6   5   5   44.92    2.70
   6   5   5   46.73    2.75
   6   5   5   50.03    2.77
  -7  -5  -5    2.99    0.73
  -7  -5  -5    3.29    0.70
   7   5   5    4.06    0.66
   7   5   5    3.43    0.58
   4  -6  -5    2.80    0.65
   4  -6  -5    4.01    0.73
  -4   6   5    3.55    0.82
  -4   6   5    5.63    1.11
   3  -6  -5    8.58    0.93
   3  -6  -5    6.45    1.02
   3  -6  -5   11.22    1.02
  -3   6   5    9.58    1.01
  -3   6   5    9.55    1.13
   2  -6  -5    9.52    0.86
  -2   6   5    7.71    0.88
  -2   6   5    9.97    0.96
   1  -6  -5   45.48    2.50
   1  -6  -5   37.69    2.54
  -1   6   5   42.83    2.50
  -1   6   5   42.56    2.51
  -1   6   5   43.27    2.48
   0  -6  -5    1.13    0.46
   0  -6  -5    1.34    0.39
   0  -6  -5    1.21    0.39
   0   6   5    0.63    0.33
   0   6   5    1.12    0.35
   0   6   5    1.54    0.37
   0   6   5    1.00    0.35
  -1  -6  -5   16.87    1.10
  -1  -6  -5   16.43    1.13
  -1  -6  -5   14.16    1.18
   1   6   5   17.19    1.12
   1   6   5   16.60    1.09
  -2  -6  -5    0.36    0.34
  -2  -6  -5    0.68    0.36
  -2  -6  -5    0.41    0.43
   2   6   5    0.53    0.32
   2   6   5    0.66    0.31
  -3  -6  -5   72.55    4.05
  -3  -6  -5   69.13    4.08
  -3  -6  -5   68.10    4.06
   3   6   5   71.13    4.05
   3   6   5   70.06    4.05
   3   6   5   75.17    4.01
  -4  -6  -5    3.93    0.65
  -4  -6  -5    3.93    0.73
  -4  -6  -5    3.71    0.67
   4   6   5    3.14    0.53
   4   6   5    4.42    0.56
   4   6   5    3.88    0.62
  -5  -6  -5   29.83    2.06
  -5  -6  -5   31.66    2.01
  -5  -6  -5   31.04    2.05
   5   6   5   32.31    1.89
   5   6   5   33.55    2.00
   5   6   5   31.78    2.01
  -6  -6  -5   12.31    1.15
  -6  -6  -5   12.85    1.26
  -6  -6  -5   13.19    1.24
   6   6   5   12.40    1.11
   6   6   5   13.89    1.16
   6   6   5   13.71    1.14
  -7  -6  -5    1.11    0.69
  -7  -6  -5    0.86    0.67
   7   6   5    1.49    0.60
   7   6   5    0.30    0.64
   3  -7  -5   21.18    1.67
  -3   7   5   20.86    1.72
   2  -7  -5    3.70    0.61
   2  -7  -5    2.40    0.67
  -2   7   5    3.16    0.67
  -2   7   5    4.44    0.66
   1  -7  -5   19.26    1.59
   1  -7  -5   25.88    1.57
  -1   7   5   23.92    1.55
  -1   7   5   23.69    1.57
   0  -7  -5   34.91    2.49
   0  -7  -5   45.86    2.48
   0   7   5   42.37    2.47
   0   7   5   41.75    2.44
   0   7   5   40.99    2.53
  -1  -7  -5    9.90    0.89
  -1  -7  -5    7.72    0.94
  -1  -7  -5   10.67    0.87
   1   7   5    8.87    0.86
   1   7   5    9.26    0.87
   1   7   5    8.73    0.82
  -2  -7  -5   11.42    1.08
  -2  -7  -5   13.42    1.01
  -2  -7  -5   11.47    1.03
   2   7   5   12.56    0.97
   2   7   5   12.91    0.95
   2   7   5   13.04    0.99
  -3  -7  -5    1.26    0.50
  -3  -7  -5    0.66    0.42
  -3  -7  -5    0.88    0.46
   3   7   5    0.77    0.42
   3   7   5    1.16    0.43
   3   7   5    0.55    0.40
  -4  -7  -5    5.72    0.87
  -4  -7  -5    3.69    0.60
   4   7   5    4.25    0.67
   4   7   5    4.98    0.78
   4   7   5    4.95    0.81
  -5  -7  -5    0.28    0.50
  -5  -7  -5   -0.50    0.52
  -5  -7  -5    0.90    0.57
   5   7   5   -0.17    0.54
   5   7   5   -0.02    0.50
   5   7   5   -0.69    0.40
  -6  -7  -5   -0.10    0.75
  -6  -7  -5   -0.03    0.64
  -6  -7  -5    0.12    0.57
   6   7   5   -0.62    0.46
   6   7   5    0.35    0.60
   6   7   5   -0.07    0.57
  -7  -7  -5    0.54    0.73
  -7  -7  -5    1.37    0.75
   7   7   5    1.82    0.71
   7   7   5   -0.51    0.63
   7   7   5    0.99    0.66
   2  -8  -5    0.80    0.72
   2  -8  -5    3.12    0.71
  -2   8   5    1.66    0.73
   1  -8  -5   12.90    1.24
  -1   8   5   13.82    1.19
  -1   8   5   13.88    1.24
   0  -8  -5    7.41    0.94
   0   8   5    5.55    0.83
   0   8   5    7.82    0.89
  -1  -8  -5   43.80    2.85
  -1  -8  -5   39.96    2.87
  -1  -8  -5   51.16    2.82
   1   8   5   48.69    2.83
   1   8   5   49.06    2.81
   1   8   5   51.92    2.87
  -2  -8  -5    4.94    0.89
  -2  -8  -5    4.84    1.13
  -2  -8  -5    6.24    0.88
   2   8   5    6.99    0.89
   2   8   5    6.64    0.80
   2   8   5    6.30    0.80
  -3  -8  -5   81.12    4.80
  -3  -8  -5   86.56    4.80
   3   8   5   83.95    4.77
   3   8   5   84.28    4.74
   3   8   5   80.09    4.77
  -4  -8  -5   22.52    1.78
  -4  -8  -5   27.87    1.77
   4   8   5   24.00    1.65
   4   8   5   26.00    1.76
   4   8   5   24.82    1.72
  -5  -8  -5   40.34    2.54
  -5  -8  -5   37.32    2.58
   5   8   5   41.75    2.55
   5   8   5   41.44    2.52
   5   8   5   39.46    2.42
  -6  -8  -5   14.31    2.25
  -6  -8  -5   16.75    1.45
   6   8   5   16.12    1.30
   6   8   5   16.90    1.45
   1  -9  -5   -0.20    0.71
   1  -9  -5   -0.61    0.71
  -1   9   5    1.42    0.72
   0  -9  -5    6.06    1.08
   0   9   5    5.52    0.84
  -1  -9  -5    2.74    0.73
  -1  -9  -5    3.44    0.88
  -1  -9  -5    3.62    0.72
   1   9   5    1.71    0.62
   1   9   5    3.85    0.64
  -2  -9  -5    1.43    0.70
  -2  -9  -5    2.57    0.69
  -2  -9  -5    1.82    0.67
   2   9   5    2.55    0.64
   2   9   5    2.23    0.61
  -3  -9  -5    1.33    0.64
  -3  -9  -5    1.32    0.77
  -3  -9  -5    0.14    0.67
   3   9   5    0.82    0.67
   3   9   5    0.70    0.61
   3   9   5    0.97    0.60
  -4  -9  -5    0.62    0.75
  -4  -9  -5    2.88    0.71
  -4  -9  -5    1.89    0.90
   4   9   5    2.29    0.66
   4   9   5    2.25    0.67
   4   9   5    2.06    0.72
  -5  -9  -5    2.01    0.80
  -5  -9  -5    1.20    0.71
   5   9   5    0.51    0.79
   5   9   5    1.31    0.65
  -2 -10  -5    4.21    0.87
   2  10   5    4.14    1.05
   1   9  -6   36.03    2.43
  -1  -9   6   40.59    2.65
  -1  -9   6   39.13    2.73
   0   9  -6    0.80    0.63
   0  -9   6    1.70    0.67
   0  -9   6    1.40    0.80
  -1   9  -6   69.19    4.37
   1  -9   6   78.56    4.42
  -2   9  -6    1.13    0.92
   2  -9   6    2.51    0.72
   2  -9   6    0.72    0.68
   3   8  -6    9.04    1.12
   3   8  -6    7.17    1.26
  -3  -8   6    7.75    1.36
  -3  -8   6   11.30    1.26
   2   8  -6    3.35    0.70
   2   8  -6    4.21    0.70
  -2  -8   6    5.44    0.77
  -2  -8   6    5.77    0.86
   1   8  -6    7.03    0.92
  -1  -8   6    7.45    1.00
  -1  -8   6    5.98    0.87
   0   8  -6   36.26    2.63
   0   8  -6   44.64    2.58
   0  -8   6   47.12    2.75
   0  -8   6   42.94    2.62
  -1   8  -6    1.99    0.79
  -1   8  -6    2.46    0.67
   1  -8   6    2.01    0.63
  -2   8  -6   -0.34    0.62
  -2   8  -6    0.70    0.63
   2  -8   6   -0.73    0.60
   2  -8   6   -0.24    0.59
  -3   8  -6   39.37    2.63
  -3   8  -6   44.55    2.68
   3  -8   6   34.50    2.53
   3  -8   6   43.24    2.52
   4   7  -6    5.63    1.09
   4   7  -6    4.30    0.71
   3   7  -6   16.43    1.35
   3   7  -6   15.40    1.34
  -3  -7   6   19.40    1.45
  -3  -7   6   17.07    1.55
   2   7  -6   13.02    1.18
   2   7  -6   14.32    1.18
   2   7  -6   14.25    1.33
  -2  -7   6   14.06    1.39
  -2  -7   6   14.76    1.25
   1   7  -6   10.53    1.03
   1   7  -6   11.27    1.00
   1   7  -6   11.07    0.97
  -1  -7   6   10.85    1.01
  -1  -7   6   11.87    1.25
   0   7  -6    0.98    0.51
   0   7  -6    0.63    0.41
   0   7  -6    1.30    0.48
   0  -7   6    1.17    0.58
   0  -7   6    1.70    0.53
  -1   7  -6   56.23    3.36
  -1   7  -6   59.74    3.46
  -1   7  -6   53.13    3.45
   1  -7   6   59.89    3.42
   1  -7   6   64.67    3.48
  -2   7  -6    2.26    0.57
  -2   7  -6    2.18    0.57
   2  -7   6    1.12    0.51
   2  -7   6    2.12    0.54
  -3   7  -6   70.17    4.37
  -3   7  -6   77.05    4.42
   3  -7   6   77.04    4.30
  -4   7  -6   16.07    1.51
  -4   7  -6   14.02    1.38
   4  -7   6   13.89    1.20
   4  -7   6   12.79    1.28
  -5   7  -6    1.25    0.84
  -5   7  -6   -0.40    0.81
   5  -7   6   -1.05    0.67
   5  -7   6   -0.53    0.76
   4   6  -6    8.17    1.00
   4   6  -6   11.02    1.07
   4   6  -6   10.00    1.02
  -4  -6   6    9.93    1.31
   3   6  -6   55.05    3.22
   3   6  -6   53.41    3.19
   3   6  -6   50.48    3.21
  -3  -6   6   57.85    3.25
  -3  -6   6   56.37    3.34
   2   6  -6   32.02    1.95
   2   6  -6   31.67    1.94
   2   6  -6   27.74    1.96
  -2  -6   6   31.90    1.97
  -2  -6   6   32.89    2.10
   1   6  -6   24.14    1.62
   1   6  -6   25.65    1.59
   1   6  -6   23.03    1.63
  -1  -6   6   26.15    1.63
  -1  -6   6   26.81    1.72
   0   6  -6   47.84    3.10
   0   6  -6   54.13    3.06
   0   6  -6   51.80    3.10
   0  -6   6   54.46    3.09
   0  -6   6   56.82    3.14
  -1   6  -6   50.76    3.04
  -1   6  -6   51.78    3.09
  -1   6  -6   46.90    3.07
   1  -6   6   54.09    3.05
   1  -6   6   59.02    3.11
  -2   6  -6    2.54    0.52
  -2   6  -6    1.86    0.51
   2  -6   6    2.67    0.49
  -3   6  -6   89.87    5.32
  -3   6  -6   95.53    5.35
   3  -6   6   88.48    5.26
   3  -6   6   98.14    5.26
  -4   6  -6    1.67    0.63
  -4   6  -6    1.48    0.62
   4  -6   6    2.98    0.52
   4  -6   6    1.27    0.56
  -5   6  -6    0.65    0.72
  -5   6  -6    0.44    0.75
   5  -6   6    0.49    0.54
   5  -6   6    0.66    0.61
   5  -6   6    0.87    0.63
   5   5  -6   58.79    3.52
  -5  -5   6   61.08    3.70
   4   5  -6   10.25    0.96
   4   5  -6    8.80    0.95
   4   5  -6   10.24    1.02
  -4  -5   6   10.73    1.21
  -4  -5   6    8.68    1.02
   3   5  -6    8.08    0.81
   3   5  -6    7.56    0.80
   3   5  -6    6.66    0.85
  -3  -5   6    8.69    0.88
  -3  -5   6    9.82    0.86
  -3  -5   6    6.90    1.02
   2   5  -6   24.05    1.59
   2   5  -6   24.25    1.59
   2   5  -6   24.16    1.58
  -2  -5   6   25.67    1.59
  -2  -5   6   25.58    1.59
  -2  -5   6   25.78    1.67
   1   5  -6   13.35    1.07
   1   5  -6   13.93    1.09
   1   5  -6   15.99    1.06
  -1  -5   6   16.72    1.16
  -1  -5   6   15.50    1.10
   0   5  -6    7.83    0.79
   0   5  -6    7.43    0.80
   0  -5   6    9.38    0.78
   0  -5   6   10.20    0.85
  -1   5  -6   48.79    3.00
  -1   5  -6   51.87    3.02
   1  -5   6   55.66    3.02
   1  -5   6   50.46    2.97
  -2   5  -6    0.20    0.39
  -2   5  -6    0.14    0.37
   2  -5   6    0.16    0.34
   2  -5   6   -0.12    0.32
   2  -5   6   -0.44    0.34
  -3   5  -6    2.70    0.53
  -3   5  -6    2.57    0.48
   3  -5   6    2.22    0.43
   3  -5   6    1.51    0.44
  -4   5  -6    3.68    0.62
  -4   5  -6    2.92    0.58
   4  -5   6    2.05    0.47
   4  -5   6    2.33    0.51
  -5   5  -6   10.74    1.18
  -5   5  -6   10.74    1.29
   5  -5   6   12.59    0.99
   5  -5   6   11.74    1.10
   5  -5   6   11.37    1.21
  -6   5  -6    8.15    1.30
   6  -5   6    6.91    1.26
   6  -5   6    5.68    1.04
   6  -5   6    6.20    0.89
   5   4  -6    1.19    0.46
   5   4  -6    1.07    0.66
  -5  -4   6    0.82    0.68
  -5  -4   6   -0.29    0.60
   4   4  -6    0.38    0.41
   4   4  -6   -0.41    0.48
   4   4  -6   -0.18    0.41
  -4  -4   6    0.28    0.48
  -4  -4   6    0.94    0.59
   3   4  -6   21.11    1.40
   3   4  -6   22.20    1.44
   3   4  -6   21.27    1.41
  -3  -4   6   20.62    1.43
  -3  -4   6   22.22    1.51
   2   4  -6  180.91    9.94
   2   4  -6  180.29    9.94
   2   4  -6  170.47    9.94
  -2  -4   6  189.72    9.94
  -2  -4   6  175.59    9.99
  -2  -4   6  176.72    9.94
   1   4  -6  122.47    6.81
   1   4  -6  117.17    6.83
   1   4  -6  124.33    6.84
  -1  -4   6  121.75    6.82
  -1  -4   6  126.84    6.82
  -1  -4   6  120.98    6.86
   0   4  -6    4.59    0.49
   0   4  -6    3.24    0.44
   0   4  -6    3.80    0.59
   0  -4   6    4.57    0.61
   0  -4   6    3.93    0.55
  -1   4  -6  161.94    9.00
  -1   4  -6  166.02    8.94
  -1   4  -6  156.47    8.98
   1  -4   6  159.60    8.94
   1  -4   6  162.08    8.98
   1  -4   6  163.58    8.96
  -2   4  -6    1.46    0.39
  -2   4  -6    2.19    0.28
  -2   4  -6    1.47    0.41
  -2   4  -6    1.93    0.40
   2  -4   6    1.58    0.36
   2  -4   6    2.19    0.36
   2  -4   6    1.59    0.50
  -3   4  -6  155.42    8.67
  -3   4  -6  155.91    8.66
  -3   4  -6  150.43    8.69
   3  -4   6  156.13    8.62
   3  -4   6  159.76    8.60
   3  -4   6  153.75    8.63
  -4   4  -6   -0.85    0.41
  -4   4  -6   -0.33    0.40
  -4   4  -6   -0.61    0.46
   4  -4   6    0.45    0.45
   4  -4   6    0.09    0.36
   4  -4   6   -0.57    0.32
  -5   4  -6    3.25    0.66
  -5   4  -6    3.07    0.65
  -5   4  -6    2.57    0.58
   5  -4   6    1.85    0.58
   5  -4   6    2.93    0.47
   5  -4   6    2.50    0.52
  -6   4  -6    3.31    0.71
  -6   4  -6    3.38    0.68
  -6   4  -6    2.34    0.81
   6  -4   6    2.36    0.52
   6  -4   6    2.35    0.74
   6  -4   6    2.70    0.60
  -7   4  -6   23.49    1.96
  -7   4  -6   24.08    1.88
   7  -4   6   23.76    1.71
   7  -4   6   19.94    1.57
   7  -4   6   21.61    1.90
   5   3  -6   42.68    2.67
   5   3  -6   45.22    2.65
  -5  -3   6   47.67    2.84
  -5  -3   6   40.63    2.70
   4   3  -6   38.62    2.31
   4   3  -6   36.99    2.32
  -4  -3   6   40.44    2.42
  -4  -3   6   37.65    2.35
   3   3  -6    3.29    0.55
   3   3  -6    3.36    0.56
  -3  -3   6    2.90    0.50
  -3  -3   6    3.47    0.45
   2   3  -6    4.76    0.57
   2   3  -6    5.32    0.60
  -2  -3   6    5.21    0.66
  -2  -3   6    4.75    0.59
   1   3  -6   27.22    1.68
   1   3  -6   27.07    1.66
  -1  -3   6   28.33    1.70
  -1  -3   6   26.94    1.70
  -1  -3   6   28.09    1.65
   0   3  -6   82.79    4.70
   0   3  -6   84.21    4.66
   0   3  -6   82.25    4.68
   0  -3   6   82.09    4.70
   0  -3   6   85.65    4.67
   0  -3   6   83.36    4.66
  -1   3  -6   48.71    2.68
  -1   3  -6   46.81    2.71
  -1   3  -6   42.81    2.66
  -1   3  -6   49.30    2.64
   1  -3   6   46.51    2.68
   1  -3   6   43.76    2.63
   1  -3   6   48.58    2.67
  -2   3  -6   17.62    1.22
  -2   3  -6   18.64    1.18
  -2   3  -6   16.99    1.20
   2  -3   6   19.25    1.15
   2  -3   6   18.49    1.16
   2  -3   6   18.57    1.14
  -3   3  -6   34.97    2.22
  -3   3  -6   39.14    2.20
  -3   3  -6   35.44    2.23
   3  -3   6   39.86    2.16
   3  -3   6   35.72    2.17
   3  -3   6   36.57    2.14
  -4   3  -6    1.74    0.44
  -4   3  -6    2.14    0.49
  -4   3  -6    1.98    0.44
   4  -3   6    1.98    0.35
   4  -3   6    2.04    0.39
  -5   3  -6   59.02    3.73
  -5   3  -6   67.32    3.76
  -5   3  -6   64.45    3.68
   5  -3   6   63.57    3.67
   5  -3   6   64.63    3.62
   5  -3   6   61.45    3.73
  -6   3  -6   15.16    1.16
  -6   3  -6   11.63    1.30
  -6   3  -6   10.82    1.23
   6  -3   6   10.87    1.26
   6  -3   6   11.54    1.11
   6  -3   6   12.54    0.99
  -7   3  -6    1.28    0.77
  -7   3  -6    1.99    0.74
  -7   3  -6   -0.61    0.82
   7  -3   6    2.12    0.82
   7  -3   6    0.81    0.65
   7  -3   6    0.09    0.53
   5   2  -6   19.73    1.46
   5   2  -6   19.91    1.42
  -5  -2   6   20.59    1.53
  -5  -2   6   21.81    1.61
   4   2  -6    0.48    0.35
   4   2  -6   -0.13    0.31
   4   2  -6    0.46    0.36
  -4  -2   6   -0.33    0.47
  -4  -2   6   -0.15    0.42
   3   2  -6    7.94    0.69
   3   2  -6    9.10    0.72
   3   2  -6    7.71    0.69
  -3  -2   6    7.10    0.74
  -3  -2   6    7.06    0.80
   2   2  -6  103.39    5.79
   2   2  -6  105.20    5.83
   2   2  -6  102.95    5.83
  -2  -2   6  105.99    5.87
  -2  -2   6  103.46    5.84
   1   2  -6    6.79    0.62
   1   2  -6    6.64    0.58
  -1  -2   6    7.13    0.58
  -1  -2   6    6.89    0.65
   0   2  -6    3.57    0.42
   0   2  -6    3.54    0.49
   0   2  -6    3.64    0.45
   0  -2   6    3.40    0.47
   0  -2   6    3.69    0.44
   0  -2   6    3.37    0.41
  -1   2  -6  194.64   10.69
  -1   2  -6  191.05   10.67
  -1   2  -6  200.56   10.66
   1  -2   6  189.54   10.66
   1  -2   6  178.22   10.63
   1  -2   6  196.60   10.66
   1  -2   6  200.00   10.64
  -2   2  -6    0.52    0.29
  -2   2  -6   -0.22    0.24
  -2   2  -6   -0.07    0.28
   2  -2   6    0.18    0.21
   2  -2   6    0.34    0.20
   2  -2   6    0.20    0.24
  -3   2  -6   38.15    2.38
  -3   2  -6   39.52    2.38
  -3   2  -6   44.23    2.34
   3  -2   6   38.24    2.32
   3  -2   6   40.79    2.30
   3  -2   6   40.26    2.31
  -4   2  -6    1.02    0.42
  -4   2  -6    0.65    0.37
   4  -2   6    0.77    0.29
   4  -2   6    0.86    0.29
  -5   2  -6   12.08    0.98
  -5   2  -6   11.69    1.07
  -5   2  -6   11.26    1.02
   5  -2   6   13.13    0.87
   5  -2   6   10.61    0.93
  -6   2  -6    3.18    0.71
  -6   2  -6    2.96    0.62
   6  -2   6    4.52    0.79
   6  -2   6    4.35    0.62
   6  -2   6    3.65    0.70
  -7   2  -6   24.50    1.90
  -7   2  -6   27.31    1.86
  -7   2  -6   19.96    1.79
   7  -2   6   25.63    1.71
   7  -2   6   21.30    1.87
   7  -2   6   22.64    1.55
   5   1  -6   34.64    1.97
   5   1  -6   29.63    2.03
   5   1  -6   32.81    2.01
  -5  -1   6   31.00    2.08
  -5  -1   6   29.91    2.10
   4   1  -6   39.38    2.19
   4   1  -6   36.88    2.23
   4   1  -6   36.15    2.25
  -4  -1   6   35.40    2.27
  -4  -1   6   37.13    2.31
   3   1  -6    0.50    0.27
   3   1  -6    0.95    0.30
  -3  -1   6    0.24    0.36
  -3  -1   6    0.51    0.35
  -3  -1   6    0.77    0.25
   2   1  -6  326.89   18.81
   2   1  -6  334.15   18.81
   2   1  -6  363.53   18.78
  -2  -1   6  345.82   18.77
  -2  -1   6  336.99   18.82
  -2  -1   6  339.61   18.83
   1   1  -6   41.26    2.44
   1   1  -6   40.16    2.42
   1   1  -6   43.07    2.42
  -1  -1   6   45.25    2.40
  -1  -1   6   41.55    2.46
  -1  -1   6   42.24    2.43
   0   1  -6   49.45    2.82
   0   1  -6   51.21    2.80
   0   1  -6   49.45    2.79
   0  -1   6   47.46    2.81
   0  -1   6   48.07    2.79
   0  -1   6   49.79    2.78
  -1   1  -6    0.71    0.23
  -1   1  -6    0.59    0.28
  -1   1  -6    1.04    0.26
   1  -1   6    0.76    0.21
   1  -1   6    0.09    0.20
   1  -1   6    0.71    0.20
  -2   1  -6   11.44    0.86
  -2   1  -6   11.36    0.84
  -2   1  -6   12.64    0.81
   2  -1   6   12.36    0.79
   2  -1   6   10.87    0.79
   2  -1   6   12.55    0.78
  -3   1  -6    4.22    0.55
  -3   1  -6    4.47    0.53
  -3   1  -6    4.99    0.58
   3  -1   6    4.44    0.47
   3  -1   6    4.16    0.48
   3  -1   6    5.11    0.47
  -4   1  -6   56.39    3.08
  -4   1  -6   52.34    3.12
  -4   1  -6   53.69    3.13
   4  -1   6   54.30    3.04
   4  -1   6   52.03    3.07
   4  -1   6   51.78    3.01
  -5   1  -6   21.78    1.55
  -5   1  -6   23.84    1.59
   5  -1   6   24.10    1.44
   5  -1   6   23.22    1.51
  -6   1  -6   32.78    1.95
  -6   1  -6   30.60    2.09
  -6   1  -6   28.55    2.03
   6  -1   6   30.25    1.99
   6  -1   6   32.00    1.88
  -7   1  -6   -0.03    0.70
  -7   1  -6    0.67    0.58
   7  -1   6    1.09    0.49
   7  -1   6    0.96    0.60
   7  -1   6    1.25    0.70
  -8   1  -6   16.18    1.69
  -8   1  -6   15.92    1.68
   8  -1   6   14.55    1.30
   8  -1   6   15.14    1.63
   8  -1   6   16.88    1.46
   5   0  -6   63.07    3.63
   5   0  -6   65.72    3.61
   5   0  -6   62.71    3.67
  -5   0   6   58.45    3.68
  -5   0   6   59.92    3.66
   4   0  -6    0.60    0.39
   4   0  -6    1.07    0.43
   4   0  -6    0.82    0.35
  -4   0   6    0.57    0.45
  -4   0   6    0.81    0.44
  -4   0   6    0.38    0.42
   3   0  -6    4.07    0.54
   3   0  -6    4.64    0.61
   3   0  -6    3.92    0.56
  -3   0   6    4.25    0.53
  -3   0   6    4.10    0.60
  -3   0   6    4.41    0.59
   2   0  -6   32.57    1.98
   2   0  -6   35.22    1.98
  -2   0   6   33.05    1.98
  -2   0   6   35.69    2.02
  -2   0   6   30.58    1.90
   1   0  -6   23.89    1.48
   1   0  -6   25.02    1.51
   1   0  -6   27.11    1.50
  -1   0   6   24.19    1.52
  -1   0   6   23.86    1.49
  -1   0   6   25.73    1.45
   0   0  -6    0.81    0.21
   0   0  -6    0.80    0.28
   0   0  -6    0.87    0.25
   0   0   6    1.11    0.23
   0   0   6    0.71    0.22
   0   0   6    0.79    0.20
  -1   0  -6  279.00   14.28
  -1   0  -6  244.34   14.24
  -1   0  -6  273.16   14.28
  -1   0  -6  269.56   14.23
   1   0   6  228.52   14.23
   1   0   6  258.21   14.23
   1   0   6  256.70   14.26
   1   0   6  259.72   14.24
  -2   0  -6   13.07    0.86
  -2   0  -6   12.45    0.88
  -2   0  -6   13.11    0.89
   2   0   6   12.66    0.85
   2   0   6   13.02    0.84
  -3   0  -6   10.58    0.82
  -3   0  -6   10.38    0.76
  -3   0  -6    9.95    0.79
   3   0   6   11.52    0.74
   3   0   6   10.41    0.72
   3   0   6    9.73    0.74
  -4   0  -6   28.13    1.58
  -4   0  -6   25.90    1.65
  -4   0  -6   25.45    1.69
   4   0   6   27.11    1.57
   4   0   6   25.74    1.62
   4   0   6   26.72    1.59
  -5   0  -6   79.64    4.63
  -5   0  -6   85.99    4.58
  -5   0  -6   79.50    4.65
   5   0   6   81.60    4.56
   5   0   6   78.11    4.58
   5   0   6   80.31    4.61
  -6   0  -6    0.39    0.45
  -6   0  -6    0.74    0.54
   6   0   6    1.06    0.39
   6   0   6    0.97    0.46
   6   0   6    0.55    0.36
  -7   0  -6   39.60    2.69
  -7   0  -6   39.10    2.61
   7   0   6   42.17    2.58
   7   0   6   41.82    2.45
  -8   0  -6    3.12    0.78
  -8   0  -6    1.58    0.85
   8   0   6    3.56    0.64
   8   0   6    2.17    0.81
   8   0   6    2.23    0.94
   5  -1  -6   12.82    1.09
   5  -1  -6   12.53    1.06
   5  -1  -6   12.64    1.21
  -5   1   6    9.68    1.17
  -5   1   6   10.35    1.19
   4  -1  -6   14.55    1.15
   4  -1  -6   14.36    1.08
   4  -1  -6   14.66    1.06
  -4   1   6   12.60    1.13
  -4   1   6   14.46    1.12
  -4   1   6   14.29    1.13
   3  -1  -6    1.89    0.41
   3  -1  -6    2.04    0.38
   3  -1  -6    2.00    0.36
  -3   1   6    2.30    0.40
  -3   1   6    1.59    0.40
  -3   1   6    2.50    0.45
   2  -1  -6  258.46   14.67
   2  -1  -6  285.30   14.67
   2  -1  -6  260.35   14.68
  -2   1   6  268.31   14.69
  -2   1   6  261.97   14.68
  -2   1   6  259.74   14.68
   1  -1  -6    5.14    0.55
   1  -1  -6    5.23    0.50
   1  -1  -6    4.58    0.49
  -1   1   6    4.31    0.50
  -1   1   6    4.42    0.40
  -1   1   6    5.01    0.49
  -1   1   6    4.72    0.52
   0  -1  -6   24.74    1.41
   0  -1  -6   22.21    1.37
   0  -1  -6   24.80    1.42
   0   1   6   22.43    1.39
   0   1   6   23.49    1.35
   0   1   6   22.38    1.40
  -1  -1  -6   70.27    4.17
  -1  -1  -6   79.29    4.20
  -1  -1  -6   81.32    4.20
   1   1   6   74.69    4.18
   1   1   6   71.49    4.15
   1   1   6   70.78    4.16
  -2  -1  -6    0.47    0.25
  -2  -1  -6    0.37    0.29
  -2  -1  -6    0.35    0.27
   2   1   6    0.86    0.22
   2   1   6    0.64    0.19
  -3  -1  -6    4.87    0.56
  -3  -1  -6    5.01    0.56
  -3  -1  -6    5.66    0.54
   3   1   6    4.74    0.46
   3   1   6    5.00    0.47
   3   1   6    4.46    0.52
  -4  -1  -6    3.98    0.58
  -4  -1  -6    4.89    0.60
  -4  -1  -6    5.01    0.65
   4   1   6    4.16    0.58
   4   1   6    5.41    0.52
   4   1   6    5.03    0.48
  -5  -1  -6    3.02    0.53
  -5  -1  -6    3.69    0.65
  -5  -1  -6    3.45    0.61
   5   1   6    4.30    0.54
   5   1   6    2.84    0.48
   5   1   6    4.01    0.46
  -6  -1  -6    9.54    1.03
  -6  -1  -6    8.66    0.94
   6   1   6    8.89    0.83
   6   1   6   10.15    0.96
  -7  -1  -6   11.71    1.12
  -7  -1  -6   10.65    1.27
   7   1   6    9.97    0.97
   7   1   6   10.05    1.14
  -8  -1  -6   29.97    2.30
  -8  -1  -6   31.60    2.23
   8   1   6   33.08    2.04
   8   1   6   29.19    2.24
   5  -2  -6   40.02    2.43
   5  -2  -6   40.74    2.44
   5  -2  -6   36.59    2.52
  -5   2   6   37.95    2.52
   4  -2  -6   10.16    0.94
   4  -2  -6   11.87    1.10
   4  -2  -6   10.90    0.96
  -4   2   6   10.98    1.04
  -4   2   6    9.16    1.04
   3  -2  -6    9.32    0.79
   3  -2  -6    9.08    0.80
  -3   2   6    8.67    0.86
  -3   2   6    9.23    0.84
  -3   2   6    8.12    0.85
   2  -2  -6   63.94    3.43
   2  -2  -6   57.94    3.40
   2  -2  -6   59.34    3.43
  -2   2   6   59.68    3.42
  -2   2   6   60.01    3.43
  -2   2   6   57.94    3.43
   1  -2  -6   15.06    1.04
   1  -2  -6   16.25    1.08
   1  -2  -6   15.79    1.04
  -1   2   6   16.59    1.05
  -1   2   6   15.76    1.04
  -1   2   6   16.37    1.03
   0  -2  -6   12.45    0.84
   0  -2  -6   11.81    0.79
   0  -2  -6   12.02    0.80
   0  -2  -6   13.03    0.86
   0   2   6   11.95    0.80
   0   2   6   12.11    0.80
   0   2   6   11.26    0.75
   0   2   6   12.06    0.83
  -1  -2  -6  197.91   10.41
  -1  -2  -6  206.72   10.40
  -1  -2  -6  174.83   10.37
   1   2   6  172.47   10.36
   1   2   6  187.40   10.36
   1   2   6  187.64   10.39
  -2  -2  -6    9.29    0.72
  -2  -2  -6    8.31    0.75
  -2  -2  -6    9.64    0.76
   2   2   6    9.95    0.63
   2   2   6    9.55    0.69
   2   2   6    9.70    0.66
  -3  -2  -6   22.94    1.46
  -3  -2  -6   23.92    1.44
  -3  -2  -6   23.27    1.44
   3   2   6   23.58    1.40
   3   2   6   22.70    1.41
  -4  -2  -6   10.36    0.84
  -4  -2  -6    9.91    0.88
  -4  -2  -6   10.55    0.81
   4   2   6   10.69    0.74
   4   2   6    9.94    0.77
  -5  -2  -6  109.05    6.21
  -5  -2  -6  107.33    6.26
  -5  -2  -6  112.37    6.24
   5   2   6  108.42    6.22
   5   2   6  111.83    6.15
   5   2   6  113.02    6.19
  -6  -2  -6    3.98    0.70
  -6  -2  -6    2.80    0.61
  -6  -2  -6    2.28    0.57
   6   2   6    2.43    0.39
   6   2   6    2.75    0.58
   6   2   6    2.74    0.46
  -7  -2  -6   30.82    2.15
  -7  -2  -6   28.01    2.04
   7   2   6   31.12    2.07
   7   2   6   33.12    1.96
  -8  -2  -6    1.40    0.70
  -8  -2  -6    0.25    0.80
   8   2   6    0.63    0.62
   8   2   6    1.36    1.03
   5  -3  -6    1.56    0.83
   4  -3  -6   10.76    1.05
   4  -3  -6   10.87    1.00
  -4   3   6   11.25    1.15
  -4   3   6   10.87    1.11
   3  -3  -6    1.16    0.46
   3  -3  -6    1.19    0.38
  -3   3   6    1.56    0.46
  -3   3   6    1.54    0.45
  -3   3   6    0.34    0.40
   2  -3  -6   70.07    3.95
   2  -3  -6   67.69    3.92
  -2   3   6   68.46    3.94
  -2   3   6   69.81    3.92
  -2   3   6   69.24    3.94
   1  -3  -6   22.24    1.39
   1  -3  -6   23.12    1.41
   1  -3  -6   23.09    1.47
  -1   3   6   23.19    1.42
  -1   3   6   23.14    1.42
  -1   3   6   23.36    1.44
   0  -3  -6   38.62    2.33
   0  -3  -6   40.85    2.38
   0  -3  -6   40.67    2.34
   0   3   6   40.84    2.33
   0   3   6   41.37    2.34
   0   3   6   41.56    2.35
   0   3   6   39.99    2.29
  -1  -3  -6  110.90    6.27
  -1  -3  -6  114.58    6.30
  -1  -3  -6  120.33    6.28
   1   3   6  113.16    6.27
   1   3   6  111.18    6.24
   1   3   6  105.05    6.24
  -2  -3  -6    2.46    0.38
  -2  -3  -6    1.78    0.39
  -2  -3  -6    1.92    0.31
   2   3   6    2.25    0.30
   2   3   6    2.25    0.30
   2   3   6    2.89    0.43
  -3  -3  -6   12.54    0.96
  -3  -3  -6   12.81    0.92
  -3  -3  -6   12.69    0.92
   3   3   6   13.04    0.87
   3   3   6   12.03    0.80
   3   3   6   12.85    0.87
  -4  -3  -6    9.74    0.83
  -4  -3  -6    9.28    0.86
   4   3   6   10.07    0.76
   4   3   6   10.01    0.76
  -5  -3  -6    3.31    0.54
  -5  -3  -6    3.88    0.68
   5   3   6    4.06    0.52
   5   3   6    3.05    0.44
  -6  -3  -6    4.00    0.65
  -6  -3  -6    3.82    0.62
   6   3   6    4.56    0.68
   6   3   6    2.91    0.62
   6   3   6    5.07    0.62
  -7  -3  -6   40.95    2.63
  -7  -3  -6   38.20    2.64
   7   3   6   44.02    2.51
   7   3   6   39.99    2.61
  -8  -3  -6   -0.21    0.68
  -8  -3  -6    0.08    0.82
   8   3   6   -1.70    0.89
   8   3   6   -0.52    0.63
   4  -4  -6   14.14    1.27
   4  -4  -6   14.41    1.21
  -4   4   6   16.27    1.34
  -4   4   6   13.43    1.34
   3  -4  -6    8.10    0.88
   3  -4  -6    8.61    0.92
  -3   4   6    9.97    0.94
  -3   4   6    9.20    1.00
   2  -4  -6  165.84    9.57
   2  -4  -6  168.65    9.55
  -2   4   6  176.89    9.58
  -2   4   6  175.65    9.55
  -2   4   6  172.37    9.57
   1  -4  -6   -0.16    0.28
   1  -4  -6   -0.55    0.40
   1  -4  -6    0.63    0.34
  -1   4   6    0.03    0.31
  -1   4   6   -0.09    0.30
  -1   4   6   -0.11    0.31
   0  -4  -6    5.83    0.58
   0  -4  -6    5.49    0.67
   0   4   6    5.00    0.48
   0   4   6    5.69    0.58
   0   4   6    6.06    0.60
   0   4   6    4.84    0.58
  -1  -4  -6   23.64    1.50
  -1  -4  -6   23.14    1.44
   1   4   6   23.86    1.42
   1   4   6   23.50    1.45
  -2  -4  -6    3.64    0.55
  -2  -4  -6    3.40    0.53
  -2  -4  -6    3.13    0.60
   2   4   6    3.99    0.51
   2   4   6    3.35    0.44
  -3  -4  -6   62.21    3.68
  -3  -4  -6   64.45    3.65
  -3  -4  -6   64.87    3.71
   3   4   6   62.28    3.60
   3   4   6   65.50    3.66
   3   4   6   66.82    3.66
  -4  -4  -6   48.83    2.94
  -4  -4  -6   49.44    2.96
   4   4   6   52.07    2.90
   4   4   6   52.27    2.91
   4   4   6   48.57    2.83
  -5  -4  -6   55.42    3.38
  -5  -4  -6   57.46    3.37
   5   4   6   59.32    3.32
   5   4   6   57.27    3.30
  -6  -4  -6   18.82    1.56
  -6  -4  -6   21.07    1.52
   6   4   6   20.44    1.36
   6   4   6   20.58    1.41
  -7  -4  -6    5.99    1.08
  -7  -4  -6    4.47    0.83
   7   4   6    4.88    0.71
   7   4   6    6.58    0.87
   7   4   6    6.53    1.08
  -8  -4  -6   14.90    1.62
   8   4   6   14.57    1.30
   8   4   6   11.46    1.53
   8   4   6   14.64    1.25
   4  -5  -6   10.70    1.14
   4  -5  -6    9.81    1.23
  -4   5   6   10.70    1.32
   3  -5  -6    1.41    0.57
   3  -5  -6    0.38    0.45
  -3   5   6   -0.31    0.56
  -3   5   6    0.72    0.58
   2  -5  -6   14.84    1.10
   2  -5  -6   13.09    1.19
   2  -5  -6   17.85    1.11
  -2   5   6   16.32    1.18
  -2   5   6   15.08    1.19
  -2   5   6   14.37    1.12
   1  -5  -6    2.07    0.52
   1  -5  -6    3.46    0.61
  -1   5   6    2.39    0.41
  -1   5   6    2.42    0.45
  -1   5   6    1.95    0.42
   0  -5  -6   10.67    0.81
   0  -5  -6    8.17    0.87
   0   5   6    9.62    0.73
   0   5   6    9.70    0.77
   0   5   6    9.94    0.79
   0   5   6    9.98    0.81
  -1  -5  -6   67.06    3.78
  -1  -5  -6   60.82    3.81
   1   5   6   67.19    3.78
   1   5   6   70.50    3.77
  -2  -5  -6    0.87    0.44
  -2  -5  -6    1.18    0.37
  -2  -5  -6    0.68    0.37
   2   5   6    1.62    0.32
   2   5   6    1.28    0.33
  -3  -5  -6    3.59    0.60
  -3  -5  -6    3.00    0.58
  -3  -5  -6    3.60    0.53
   3   5   6    3.23    0.54
   3   5   6    3.63    0.48
   3   5   6    3.53    0.55
  -4  -5  -6   22.20    1.51
  -4  -5  -6   23.61    1.55
  -4  -5  -6   22.49    1.44
   4   5   6   22.46    1.38
   4   5   6   22.91    1.46
   4   5   6   23.54    1.46
  -5  -5  -6   33.83    2.11
  -5  -5  -6   31.40    2.11
   5   5   6   33.93    2.02
   5   5   6   31.68    1.93
   5   5   6   34.58    2.04
  -6  -5  -6    8.22    1.12
  -6  -5  -6    8.53    1.05
   6   5   6    9.13    0.94
   6   5   6    9.54    0.94
  -7  -5  -6   33.60    2.35
  -7  -5  -6   31.71    2.38
   7   5   6   37.31    2.22
   7   5   6   37.20    2.25
   3  -6  -6    3.08    0.68
   3  -6  -6    2.63    0.58
  -3   6   6    3.43    0.74
   2  -6  -6   24.07    1.88
  -2   6   6   31.36    1.90
  -2   6   6   30.48    1.88
   1  -6  -6   28.90    2.14
   1  -6  -6   37.80    2.11
  -1   6   6   33.39    2.08
  -1   6   6   37.48    2.13
  -1   6   6   34.73    2.11
   0  -6  -6   21.88    1.68
   0  -6  -6   26.92    1.64
   0   6   6   27.19    1.62
   0   6   6   26.49    1.62
  -1  -6  -6    5.51    0.84
  -1  -6  -6    8.59    0.80
   1   6   6    7.64    0.76
   1   6   6    7.93    0.72
  -2  -6  -6    0.31    0.45
  -2  -6  -6    0.35    0.37
   2   6   6   -0.27    0.33
   2   6   6    0.56    0.35
   2   6   6   -0.07    0.36
  -3  -6  -6   12.91    1.03
  -3  -6  -6   13.09    1.13
  -3  -6  -6   13.42    1.06
   3   6   6   13.97    0.94
   3   6   6   13.53    1.00
   3   6   6   12.89    1.01
  -4  -6  -6    4.96    0.76
  -4  -6  -6    3.77    0.62
   4   6   6    3.70    0.55
   4   6   6    5.19    0.68
   4   6   6    4.47    0.59
  -5  -6  -6   19.10    1.53
  -5  -6  -6   19.89    1.54
   5   6   6   20.71    1.34
   5   6   6   22.93    1.46
   5   6   6   22.11    1.44
  -6  -6  -6   20.35    1.73
  -6  -6  -6   23.28    1.75
   6   6   6   25.04    1.64
   6   6   6   24.60    1.66
  -7  -6  -6    4.02    0.85
  -7  -6  -6    3.51    0.80
   7   6   6    4.14    0.72
   7   6   6    6.36    0.98
   2  -7  -6    4.38    0.76
  -2   7   6    7.22    1.07
  -2   7   6    7.88    1.20
   1  -7  -6    4.96    0.88
  -1   7   6    3.19    0.63
   0  -7  -6    9.37    0.93
   0   7   6    8.17    0.89
   0   7   6    8.31    1.01
   0   7   6    7.63    0.88
  -1  -7  -6   48.15    2.74
  -1  -7  -6   39.99    2.76
   1   7   6   46.93    2.70
   1   7   6   46.67    2.71
  -2  -7  -6    4.94    0.73
  -2  -7  -6    6.30    0.80
  -2  -7  -6    5.33    0.83
   2   7   6    6.12    0.72
   2   7   6    5.50    0.82
  -3  -7  -6   45.70    2.63
  -3  -7  -6   45.02    2.68
  -3  -7  -6   40.08    2.68
   3   7   6   45.28    2.56
   3   7   6   43.24    2.63
   3   7   6   42.37    2.60
  -4  -7  -6    4.40    0.61
  -4  -7  -6    3.36    0.64
  -4  -7  -6    3.54    0.64
   4   7   6    4.70    0.77
   4   7   6    3.09    0.50
   4   7   6    3.41    0.60
  -5  -7  -6   23.36    1.79
  -5  -7  -6   23.55    1.78
  -5  -7  -6   25.77    1.74
   5   7   6   26.29    1.70
   5   7   6   24.20    1.57
   5   7   6   24.91    1.72
  -6  -7  -6    0.94    0.67
  -6  -7  -6    2.51    0.73
   6   7   6    2.00    0.52
   6   7   6    0.60    0.62
   6   7   6    2.45    0.61
   1  -8  -6   10.08    1.28
  -1   8   6   15.32    1.32
   0   8   6   14.58    1.29
   0   8   6   17.93    1.32
  -1  -8  -6    1.37    0.67
  -1  -8  -6    1.60    0.65
   1   8   6    1.15    0.52
   1   8   6    2.19    0.59
  -2  -8  -6    2.48    0.70
  -2  -8  -6    3.79    0.67
  -2  -8  -6    3.73    0.63
   2   8   6    4.30    0.64
   2   8   6    3.32    0.61
  -3  -8  -6   24.48    1.70
  -3  -8  -6   25.02    1.66
  -3  -8  -6   22.03    1.74
   3   8   6   20.87    1.54
   3   8   6   23.74    1.63
   3   8   6   22.27    1.62
  -4  -8  -6   25.97    1.82
  -4  -8  -6   26.83    1.81
  -4  -8  -6   22.75    1.81
   4   8   6   24.05    1.66
   4   8   6   24.77    1.74
   4   8   6   26.24    1.77
  -5  -8  -6    1.24    0.65
  -5  -8  -6   -0.70    0.69
  -5  -8  -6    0.63    0.71
   5   8   6    0.87    0.64
   5   8   6    0.00    0.59
   5   8   6    1.11    0.56
  -6  -8  -6   15.87    1.58
  -6  -8  -6   17.71    1.73
   6   8   6   16.39    1.33
   0  -9  -6    1.37    0.76
   0   9   6    0.85    0.89
  -1  -9  -6    2.51    0.79
  -1  -9  -6    3.12    0.78
   1   9   6    1.20    0.63
   1   9   6    1.61    0.68
  -2  -9  -6    1.42    0.71
  -2  -9  -6    1.57    0.65
  -2  -9  -6    1.65    0.76
   2   9   6    1.46    0.64
   2   9   6   -0.21    0.61
  -3  -9  -6   13.64    1.44
  -3  -9  -6   13.99    1.44
  -3  -9  -6   12.14    1.33
   3   9   6   12.63    1.19
   3   9   6   12.29    1.28
   3   9   6   12.44    1.29
  -4  -9  -6    1.63    0.75
  -4  -9  -6    2.45    0.77
  -4  -9  -6    2.46    0.75
   4   9   6    1.56    0.67
   4   9   6    2.41    0.75
   4   9   6    0.99    0.65
   2   8  -7    0.60    0.68
  -2  -8   7    1.97    0.85
  -2  -8   7    1.47    0.74
   1   8  -7   19.16    1.54
  -1  -8   7   19.94    1.60
  -1  -8   7   23.82    1.85
   0   8  -7   -1.18    0.66
   0   8  -7    1.34    0.85
   0  -8   7    0.12    0.63
   0  -8   7    0.10    0.75
  -1   8  -7   29.75    2.10
  -1   8  -7   25.11    1.95
  -1   8  -7   27.31    1.85
   1  -8   7   29.82    2.10
   1  -8   7   29.21    1.92
  -2   8  -7   11.75    1.30
  -2   8  -7    9.33    1.24
   2  -8   7    8.71    1.13
  -3   8  -7    1.51    0.81
  -3   8  -7    1.22    0.87
   3  -8   7   -0.12    0.66
   3  -8   7    1.54    0.69
   3   7  -7    3.97    0.69
   3   7  -7    5.88    0.81
  -3  -7   7    6.85    1.12
   2   7  -7    4.42    0.70
   2   7  -7    5.91    0.75
   2   7  -7    5.67    0.93
  -2  -7   7    5.18    0.86
  -2  -7   7    6.83    1.02
   1   7  -7    2.50    0.61
   1   7  -7    2.03    0.58
   1   7  -7    1.79    0.59
  -1  -7   7    1.78    0.59
  -1  -7   7    2.02    0.72
   0   7  -7   -0.35    0.53
   0   7  -7    0.69    0.55
   0   7  -7    0.16    0.57
   0  -7   7    0.72    0.70
   0  -7   7    0.33    0.57
  -1   7  -7    9.35    1.09
  -1   7  -7   12.32    1.14
   1  -7   7   10.59    1.05
   1  -7   7   10.20    1.72
  -2   7  -7   70.55    4.12
  -2   7  -7   62.99    4.06
   2  -7   7   74.10    4.02
  -3   7  -7   11.57    1.20
  -3   7  -7   12.01    1.30
   3  -7   7   10.40    1.05
   3  -7   7    7.78    1.06
  -4   7  -7   22.87    1.83
  -4   7  -7   26.81    1.92
   4  -7   7   23.35    1.63
   4  -7   7   18.91    1.66
   4   6  -7   -0.62    0.55
   4   6  -7   -0.57    0.90
   3   6  -7   16.89    1.41
   3   6  -7   18.57    1.44
   3   6  -7   17.28    1.40
  -3  -6   7   20.43    1.46
  -3  -6   7   20.35    1.65
   2   6  -7   37.42    2.47
   2   6  -7   39.22    2.45
   2   6  -7   39.59    2.45
  -2  -6   7   42.59    2.61
  -2  -6   7   41.89    2.47
   1   6  -7    0.69    0.48
   1   6  -7    0.96    0.45
   1   6  -7    0.61    0.45
  -1  -6   7    0.85    0.62
  -1  -6   7    0.93    0.54
   0   6  -7   22.10    1.43
   0   6  -7   22.81    1.52
   0   6  -7   18.99    1.52
   0  -6   7   23.97    1.59
   0  -6   7   21.69    1.51
  -1   6  -7   54.24    3.19
  -1   6  -7   47.42    3.16
   1  -6   7   60.06    3.20
   1  -6   7   52.98    3.13
  -2   6  -7   20.41    1.58
  -2   6  -7   23.87    1.62
   2  -6   7   23.59    1.52
  -3   6  -7   27.39    1.82
  -3   6  -7   21.91    1.71
   3  -6   7   26.77    1.65
   3  -6   7   23.30    1.64
  -4   6  -7   53.90    3.30
  -4   6  -7   56.07    3.36
   4  -6   7   50.76    3.21
   4  -6   7   55.60    3.18
  -5   6  -7    1.16    0.74
  -5   6  -7    1.23    0.84
   5  -6   7   -0.07    0.57
   5  -6   7    0.39    0.67
   5  -6   7    0.56    0.99
   4   5  -7   21.67    1.53
   4   5  -7   17.60    1.47
  -4  -5   7   20.72    1.75
  -4  -5   7   21.57    1.54
   3   5  -7    0.75    0.47
   3   5  -7    0.36    0.53
   3   5  -7    0.33    0.45
  -3  -5   7    0.32    0.52
  -3  -5   7   -0.45    0.60
   2   5  -7    5.58    0.79
   2   5  -7    3.90    0.76
   2   5  -7    4.78    0.74
  -2  -5   7    6.05    0.81
  -2  -5   7    5.87    0.75
  -2  -5   7    5.55    0.95
   1   5  -7    9.72    0.91
   1   5  -7    9.62    0.91
   1   5  -7   10.94    0.87
  -1  -5   7   11.65    1.05
  -1  -5   7    8.59    0.91
   0   5  -7    0.98    0.41
   0   5  -7    1.38    0.45
   0  -5   7    1.00    0.46
   0  -5   7    1.78    0.44
  -1   5  -7    8.24    0.86
  -1   5  -7    9.78    0.89
   1  -5   7   10.57    0.93
   1  -5   7    8.41    0.82
  -2   5  -7    4.09    0.75
  -2   5  -7    3.35    0.53
   2  -5   7    3.36    0.50
   2  -5   7    3.33    0.51
  -3   5  -7   24.62    1.62
  -3   5  -7   23.65    1.65
  -3   5  -7   23.15    1.60
   3  -5   7   22.57    1.52
   3  -5   7   23.91    1.54
  -4   5  -7   20.55    1.53
  -4   5  -7   20.92    1.58
  -4   5  -7   22.04    1.57
   4  -5   7   19.06    1.46
   4  -5   7   20.52    1.41
  -5   5  -7   31.40    2.17
  -5   5  -7   31.68    2.19
  -5   5  -7   31.05    2.09
   5  -5   7   29.22    2.00
   5  -5   7   28.64    1.91
   5  -5   7   30.15    2.29
  -6   5  -7    7.75    1.27
  -6   5  -7    5.60    0.95
   6  -5   7    7.03    0.93
   6  -5   7    4.66    0.91
   4   4  -7    8.14    0.97
   4   4  -7   10.90    1.06
   4   4  -7    9.75    0.97
  -4  -4   7    9.89    1.23
  -4  -4   7    8.34    1.03
   3   4  -7   21.31    1.44
   3   4  -7   21.06    1.43
   3   4  -7   17.17    1.45
  -3  -4   7   21.03    1.46
  -3  -4   7   24.37    1.61
   2   4  -7   26.33    1.67
   2   4  -7   26.74    1.67
   2   4  -7   24.93    1.66
  -2  -4   7   26.51    1.67
  -2  -4   7   26.64    1.78
   1   4  -7   87.43    5.18
   1   4  -7   89.23    5.19
   1   4  -7   93.43    5.17
  -1  -4   7   93.59    5.18
  -1  -4   7   92.07    5.23
  -1  -4   7   95.72    5.18
   0   4  -7    0.79    0.38
   0   4  -7    1.11    0.36
   0  -4   7    0.67    0.39
   0  -4   7    0.28    0.37
  -1   4  -7  143.63    8.30
  -1   4  -7  144.05    8.28
   1  -4   7  155.41    8.29
   1  -4   7  151.13    8.26
  -2   4  -7  126.04    7.22
  -2   4  -7  126.21    7.25
  -2   4  -7  122.14    7.20
   2  -4   7  134.41    7.19
   2  -4   7  136.09    7.20
  -3   4  -7   84.26    4.82
  -3   4  -7   81.08    4.86
   3  -4   7   83.53    4.78
   3  -4   7   87.10    4.78
   3  -4   7   87.37    4.77
  -4   4  -7   44.35    2.70
  -4   4  -7   44.75    2.65
  -4   4  -7   41.21    2.71
   4  -4   7   43.97    2.62
   4  -4   7   46.02    2.59
  -5   4  -7    1.62    0.58
  -5   4  -7    2.50    0.61
  -5   4  -7    1.24    0.67
   5  -4   7    0.91    0.51
   5  -4   7    1.48    0.75
   5  -4   7    1.46    0.46
  -6   4  -7    0.43    0.80
  -6   4  -7    1.09    0.67
  -6   4  -7    1.31    0.68
   6  -4   7    0.82    0.60
   6  -4   7    0.98    0.53
   6  -4   7    1.14    0.76
   5   3  -7    0.85    0.50
  -5  -3   7    1.56    0.78
   4   3  -7   29.16    1.94
   4   3  -7   30.95    1.97
  -4  -3   7   30.03    2.00
  -4  -3   7   32.99    2.13
   3   3  -7    0.24    0.39
   3   3  -7   -0.28    0.40
  -3  -3   7    0.28    0.45
  -3  -3   7    0.53    0.52
   2   3  -7   14.22    1.06
   2   3  -7   14.92    1.05
  -2  -3   7   16.07    1.16
  -2  -3   7   13.80    1.07
   1   3  -7    0.84    0.35
   1   3  -7    0.39    0.30
  -1  -3   7    0.02    0.44
  -1  -3   7    0.29    0.35
  -1  -3   7    0.09    0.31
   0   3  -7   19.59    1.39
   0   3  -7   20.79    1.36
   0  -3   7   21.98    1.41
   0  -3   7   23.12    1.33
   0  -3   7   21.47    1.35
  -1   3  -7   25.30    1.62
  -1   3  -7   25.12    1.58
  -1   3  -7   27.52    1.54
   1  -3   7   26.54    1.59
   1  -3   7   26.77    1.57
   1  -3   7   22.84    1.51
  -2   3  -7    2.94    0.58
  -2   3  -7    2.68    0.45
  -2   3  -7    2.71    0.43
   2  -3   7    3.72    0.55
   2  -3   7    2.38    0.39
  -3   3  -7   13.16    0.99
  -3   3  -7   12.43    1.03
  -3   3  -7   13.04    1.02
   3  -3   7   12.19    0.94
   3  -3   7   13.43    0.92
  -4   3  -7   62.99    3.59
  -4   3  -7   55.71    3.57
  -4   3  -7   65.48    3.53
   4  -3   7   59.25    3.51
   4  -3   7   62.28    3.48
   4  -3   7   59.82    3.45
  -5   3  -7    5.13    0.94
  -5   3  -7    7.31    1.01
  -5   3  -7    7.46    0.85
   5  -3   7    5.81    0.73
   5  -3   7    5.65    0.83
  -6   3  -7    2.00    0.77
  -6   3  -7    2.09    0.66
   6  -3   7    1.67    0.50
   6  -3   7    2.28    0.60
   6  -3   7    1.86    0.74
  -7   3  -7    2.33    0.93
   7  -3   7    2.96    0.90
   7  -3   7    1.81    0.60
   7  -3   7    3.40    0.72
   5   2  -7   -0.53    0.53
   5   2  -7   -0.39    0.45
  -5  -2   7   -0.13    0.71
   4   2  -7   41.62    2.58
   4   2  -7   42.09    2.60
  -4  -2   7   42.21    2.65
  -4  -2   7   46.34    2.75
   3   2  -7    7.45    0.80
   3   2  -7    8.92    0.86
   3   2  -7    8.84    0.84
  -3  -2   7    7.15    0.89
  -3  -2   7    8.23    1.01
   2   2  -7   10.20    0.91
   2   2  -7    8.36    0.78
   2   2  -7    9.21    0.78
  -2  -2   7    9.41    0.80
  -2  -2   7    9.80    0.87
   1   2  -7   96.93    5.42
   1   2  -7   91.96    5.43
   1   2  -7   94.14    5.39
  -1  -2   7   99.92    5.42
  -1  -2   7  100.40    5.46
   0   2  -7   18.56    1.17
   0   2  -7   18.08    1.23
   0   2  -7   18.07    1.20
   0  -2   7   17.01    1.18
   0  -2   7   19.26    1.17
   0  -2   7   19.35    1.23
  -1   2  -7   77.84    4.39
  -1   2  -7   75.82    4.44
  -1   2  -7   76.94    4.41
   1  -2   7   81.03    4.38
   1  -2   7   78.16    4.41
   1  -2   7   79.41    4.39
  -2   2  -7  115.01    6.69
  -2   2  -7  117.34    6.67
  -2   2  -7  126.03    6.65
   2  -2   7  122.23    6.64
   2  -2   7  121.26    6.64
   2  -2   7  113.36    6.62
  -3   2  -7  198.40   11.35
  -3   2  -7  210.75   11.35
   3  -2   7  196.69   11.29
   3  -2   7  206.60   11.27
   3  -2   7  207.62   11.29
  -4   2  -7   82.89    4.95
  -4   2  -7   92.56    4.97
   4  -2   7   86.23    4.84
   4  -2   7   83.82    4.89
   4  -2   7   87.03    4.86
  -5   2  -7    0.38    0.45
  -5   2  -7   -0.94    0.49
   5  -2   7    0.00    0.38
   5  -2   7   -0.38    0.33
  -6   2  -7   10.11    1.22
  -6   2  -7    8.47    1.09
   6  -2   7    8.82    1.01
   6  -2   7    9.22    0.87
  -7   2  -7    7.15    1.36
  -7   2  -7    8.64    1.25
   7  -2   7    8.22    1.38
   7  -2   7    7.85    1.12
   7  -2   7    8.38    0.94
   5   1  -7    4.74    0.86
   5   1  -7    7.29    0.94
   5   1  -7    5.97    0.85
  -5  -1   7    7.14    1.21
   4   1  -7   25.77    1.76
   4   1  -7   29.11    1.74
   4   1  -7   25.95    1.80
  -4  -1   7   29.00    1.92
  -4  -1   7   28.28    1.84
   3   1  -7   35.02    1.99
   3   1  -7   33.73    2.03
   3   1  -7   31.17    2.02
  -3  -1   7   32.92    2.10
  -3  -1   7   32.89    2.08
   2   1  -7   20.96    1.41
   2   1  -7   22.46    1.42
  -2  -1   7   22.35    1.43
  -2  -1   7   22.63    1.48
  -2  -1   7   23.78    1.51
   1   1  -7   27.89    1.76
   1   1  -7   28.52    1.73
   1   1  -7   28.01    1.74
  -1  -1   7   30.04    1.75
  -1  -1   7   30.89    1.80
   0   1  -7   47.02    2.81
   0   1  -7   49.21    2.79
   0   1  -7   48.63    2.77
   0  -1   7   48.89    2.77
   0  -1   7   49.08    2.81
  -1   1  -7   86.79    4.51
  -1   1  -7   80.62    4.53
  -1   1  -7   75.38    4.54
   1  -1   7   79.15    4.50
   1  -1   7   79.45    4.52
   1  -1   7   81.27    4.49
  -2   1  -7   19.60    1.17
  -2   1  -7   18.11    1.21
  -2   1  -7   18.23    1.23
   2  -1   7   18.57    1.14
   2  -1   7   16.92    1.14
   2  -1   7   18.62    1.16
  -3   1  -7  114.70    6.07
  -3   1  -7  109.99    6.13
  -3   1  -7  105.68    6.12
   3  -1   7  101.37    6.07
   3  -1   7  109.77    6.05
   3  -1   7  110.86    6.07
  -4   1  -7   72.72    4.07
  -4   1  -7   67.90    4.04
   4  -1   7   68.99    4.00
   4  -1   7   70.83    3.97
  -5   1  -7   -0.37    0.40
  -5   1  -7    0.03    0.46
   5  -1   7   -0.06    0.26
   5  -1   7    0.10    0.39
   5  -1   7   -0.35    0.33
  -6   1  -7   15.11    1.34
  -6   1  -7   16.35    1.45
  -6   1  -7   18.67    1.31
   6  -1   7   16.99    1.22
   6  -1   7   16.57    1.30
  -7   1  -7   14.63    1.55
  -7   1  -7   18.91    1.66
   7  -1   7   19.29    1.47
   7  -1   7   19.11    1.34
   5   0  -7    5.53    0.89
   5   0  -7    3.73    0.67
  -5   0   7    4.45    0.82
   4   0  -7   52.92    3.28
   4   0  -7   56.87    3.27
   4   0  -7   54.65    3.31
  -4   0   7   58.47    3.37
  -4   0   7   57.68    3.35
   3   0  -7   11.80    0.97
   3   0  -7   10.77    0.93
   3   0  -7   12.45    0.92
  -3   0   7   10.78    1.02
  -3   0   7   11.89    1.05
   2   0  -7   -0.23    0.28
   2   0  -7   -0.22    0.29
   2   0  -7    0.22    0.33
  -2   0   7   -0.19    0.32
  -2   0   7   -0.66    0.36
   1   0  -7   12.26    0.96
   1   0  -7   14.10    0.95
   1   0  -7   12.15    0.92
  -1   0   7   14.75    0.97
  -1   0   7   13.23    0.87
  -1   0   7   13.73    0.94
   0   0  -7   20.61    1.29
   0   0  -7   19.99    1.29
   0   0  -7   18.44    1.27
   0   0   7   20.88    1.24
   0   0   7   21.43    1.28
  -1   0  -7    9.76    0.77
  -1   0  -7    9.52    0.76
  -1   0  -7    9.30    0.67
   1   0   7    8.26    0.68
   1   0   7    9.66    0.72
   1   0   7    9.37    0.66
  -2   0  -7   32.05    1.95
  -2   0  -7   34.24    1.97
   2   0   7   34.15    1.90
   2   0   7   28.22    1.89
   2   0   7   34.43    1.92
  -3   0  -7   42.85    2.53
  -3   0  -7   45.21    2.45
  -3   0  -7   42.59    2.54
   3   0   7   39.35    2.48
   3   0   7   43.92    2.46
   3   0   7   42.98    2.47
  -4   0  -7    0.78    0.36
  -4   0  -7    0.98    0.42
  -4   0  -7    0.96    0.33
   4   0   7    1.43    0.31
   4   0   7    1.41    0.29
   4   0   7    0.53    0.34
  -5   0  -7    0.08    0.47
  -5   0  -7    0.83    0.39
  -5   0  -7    0.35    0.42
   5   0   7    0.71    0.35
   5   0   7    0.83    0.39
  -6   0  -7   31.77    2.15
  -6   0  -7   28.59    2.07
   6   0   7   32.58    1.98
   6   0   7   33.98    2.07
  -7   0  -7    0.79    0.72
  -7   0  -7    0.55    0.63
   7   0   7    0.18    0.61
   7   0   7    0.28    0.50
  -8   0  -7    1.67    0.75
  -8   0  -7   -0.22    0.86
   8   0   7    1.96    0.82
   8   0   7   -1.49    1.14
   8   0   7    0.53    0.62
   4  -1  -7    0.75    0.49
   4  -1  -7    1.39    0.44
   4  -1  -7    0.50    0.56
  -4   1   7    0.67    0.53
  -4   1   7    0.88    0.55
  -4   1   7    0.91    0.56
   3  -1  -7   30.65    1.96
   3  -1  -7   28.43    1.91
   3  -1  -7   32.84    1.93
  -3   1   7   32.85    1.97
  -3   1   7   31.73    1.96
  -3   1   7   30.44    1.96
   2  -1  -7    6.11    0.64
   2  -1  -7    5.00    0.61
   2  -1  -7    5.59    0.66
  -2   1   7    5.02    0.65
  -2   1   7    5.86    0.64
  -2   1   7    4.73    0.70
   1  -1  -7  325.14   16.81
   1  -1  -7  284.27   16.80
  -1   1   7  312.19   16.81
  -1   1   7  289.52   16.74
  -1   1   7  311.68   16.82
   0  -1  -7    0.01    0.28
   0  -1  -7   -0.27    0.31
   0   1   7   -0.43    0.24
   0   1   7    0.08    0.20
   0   1   7    0.17    0.25
  -1  -1  -7  119.80    6.58
  -1  -1  -7  119.71    6.65
  -1  -1  -7  123.50    6.65
  -1  -1  -7  112.48    6.60
   1   1   7  118.04    6.60
   1   1   7  120.39    6.63
  -2  -1  -7   68.72    3.88
  -2  -1  -7   70.04    3.87
  -2  -1  -7   65.79    3.84
   2   1   7   69.59    3.84
   2   1   7   65.77    3.82
   2   1   7   67.62    3.79
  -3  -1  -7  177.35    9.66
  -3  -1  -7  174.12    9.64
  -3  -1  -7  170.29    9.67
   3   1   7  176.88    9.62
   3   1   7  180.09    9.62
   3   1   7  162.90    9.63
  -4  -1  -7   13.76    1.04
  -4  -1  -7   13.58    1.02
  -4  -1  -7   12.82    1.07
   4   1   7   13.95    0.95
   4   1   7   12.75    1.02
   4   1   7   14.50    0.94
  -5  -1  -7    7.84    0.94
  -5  -1  -7    8.55    0.86
  -5  -1  -7    8.70    0.87
   5   1   7    8.41    0.73
   5   1   7    8.41    0.75
   5   1   7   10.37    0.86
  -6  -1  -7    7.32    1.06
  -6  -1  -7    7.81    0.90
   6   1   7    7.76    0.76
   6   1   7    8.05    0.99
   6   1   7    7.67    0.85
  -7  -1  -7   31.15    2.30
  -7  -1  -7   30.89    2.21
   7   1   7   34.41    2.10
   7   1   7   35.89    2.22
  -8  -1  -7    0.38    0.75
  -8  -1  -7   -1.00    0.83
   8   1   7    2.11    1.05
   8   1   7    0.44    0.61
   4  -2  -7   64.88    3.74
   4  -2  -7   62.98    3.68
   4  -2  -7   62.01    3.69
  -4   2   7   62.53    3.74
  -4   2   7   62.93    3.73
   3  -2  -7   -0.53    0.50
   3  -2  -7    0.58    0.44
   3  -2  -7   -0.02    0.35
  -3   2   7   -0.99    0.45
  -3   2   7    0.00    0.46
  -3   2   7   -0.62    0.45
   2  -2  -7   11.49    0.94
   2  -2  -7   11.67    0.93
   2  -2  -7   10.63    0.89
  -2   2   7   12.12    0.93
  -2   2   7   11.82    0.94
  -2   2   7   11.90    0.96
   1  -2  -7    9.16    0.79
   1  -2  -7    9.76    0.83
   1  -2  -7    9.53    0.87
  -1   2   7    9.81    0.80
  -1   2   7    9.58    0.76
  -1   2   7    9.16    0.78
   0  -2  -7   64.14    3.60
   0  -2  -7   65.17    3.57
   0  -2  -7   61.18    3.58
   0   2   7   65.38    3.59
   0   2   7   59.83    3.52
   0   2   7   61.86    3.56
  -1  -2  -7    1.77    0.38
  -1  -2  -7    1.13    0.34
  -1  -2  -7    0.77    0.30
   1   2   7    1.21    0.26
   1   2   7    0.58    0.29
  -2  -2  -7   23.30    1.51
  -2  -2  -7   22.61    1.46
  -2  -2  -7   24.86    1.49
   2   2   7   24.72    1.45
   2   2   7   23.34    1.42
   2   2   7   22.90    1.40
  -3  -2  -7   30.23    1.78
  -3  -2  -7   27.74    1.80
  -3  -2  -7   27.67    1.77
   3   2   7   29.40    1.74
   3   2   7   29.76    1.74
  -4  -2  -7   57.82    3.38
  -4  -2  -7   60.95    3.40
  -4  -2  -7   54.73    3.41
   4   2   7   58.82    3.34
   4   2   7   59.58    3.33
  -5  -2  -7    6.92    0.89
  -5  -2  -7    5.75    0.79
  -5  -2  -7    8.75    0.86
   5   2   7    9.23    0.70
   5   2   7    7.52    0.73
   5   2   7    7.23    0.83
  -6  -2  -7   29.60    2.11
  -6  -2  -7   32.30    2.03
  -6  -2  -7   33.00    2.11
   6   2   7   31.20    2.08
   6   2   7   32.86    1.99
   6   2   7   31.25    1.91
  -7  -2  -7    0.41    0.69
  -7  -2  -7    0.24    0.55
   7   2   7   -0.28    0.63
  -8  -2  -7    0.13    0.70
  -8  -2  -7    0.90    0.88
   8   2   7   -0.18    0.63
   4  -3  -7    9.58    1.03
   4  -3  -7    8.08    1.08
   4  -3  -7    9.29    1.19
  -4   3   7    8.32    1.13
   3  -3  -7   14.52    1.20
   3  -3  -7   14.04    1.15
   3  -3  -7   14.35    1.27
  -3   3   7   14.24    1.19
  -3   3   7   16.61    1.22
  -3   3   7   14.98    1.23
   2  -3  -7    6.39    0.77
   2  -3  -7    7.54    0.78
   2  -3  -7    4.87    0.69
  -2   3   7    5.18    0.74
  -2   3   7    5.35    0.72
  -2   3   7    5.55    0.78
   1  -3  -7   87.53    5.29
   1  -3  -7   92.52    5.34
   1  -3  -7   93.74    5.32
  -1   3   7   98.33    5.32
  -1   3   7   97.13    5.31
  -1   3   7   96.37    5.30
   0  -3  -7    2.46    0.39
   0  -3  -7    2.97    0.55
   0  -3  -7    2.69    0.54
   0  -3  -7    1.93    0.44
   0   3   7    2.04    0.30
   0   3   7    2.75    0.49
   0   3   7    3.23    0.49
   0   3   7    3.57    0.54
  -1  -3  -7   71.79    4.02
  -1  -3  -7   68.62    3.99
  -1  -3  -7   70.81    4.04
   1   3   7   70.31    3.98
   1   3   7   72.43    4.02
  -2  -3  -7   63.71    3.72
  -2  -3  -7   63.24    3.68
   2   3   7   66.81    3.68
   2   3   7   64.63    3.63
  -3  -3  -7  140.21    7.90
  -3  -3  -7  143.24    7.88
   3   3   7  143.47    7.85
   3   3   7  146.04    7.85
   3   3   7  132.29    7.79
  -4  -3  -7   20.64    1.38
  -4  -3  -7   19.34    1.39
   4   3   7   19.50    1.31
   4   3   7   21.24    1.30
  -5  -3  -7    3.88    0.60
  -5  -3  -7    4.08    0.75
   5   3   7    3.78    0.64
   5   3   7    4.07    0.60
  -6  -3  -7    9.59    1.14
  -6  -3  -7   11.44    1.11
   6   3   7   11.13    0.90
   6   3   7    9.67    1.08
   6   3   7   10.19    0.96
  -7  -3  -7   16.29    1.47
  -7  -3  -7   14.69    1.48
   7   3   7   14.91    1.24
   7   3   7   14.75    1.44
   7   3   7   16.16    1.27
  -8  -3  -7    0.09    0.70
  -8  -3  -7   -0.83    0.79
   8   3   7   -0.27    0.64
   3  -4  -7    3.95    0.69
   3  -4  -7    4.85    0.83
  -3   4   7    3.99    0.66
  -3   4   7    4.51    0.69
   2  -4  -7   15.26    1.13
   2  -4  -7   13.04    1.18
  -2   4   7   16.99    1.18
  -2   4   7   16.73    1.14
  -2   4   7   13.55    1.16
   1  -4  -7   50.52    3.30
   1  -4  -7   55.05    3.36
  -1   4   7   60.13    3.33
  -1   4   7   61.40    3.34
  -1   4   7   61.15    3.32
   0  -4  -7   39.43    2.15
   0  -4  -7   32.75    2.07
   0  -4  -7   31.44    2.11
   0   4   7   36.26    2.10
   0   4   7   31.62    2.01
   0   4   7   36.58    2.08
   0   4   7   36.46    2.08
  -1  -4  -7   -0.07    0.32
  -1  -4  -7    0.18    0.39
   1   4   7    0.66    0.32
   1   4   7    0.20    0.32
  -2  -4  -7    4.32    0.64
  -2  -4  -7    5.47    0.71
   2   4   7    5.72    0.54
   2   4   7    6.23    0.64
  -3  -4  -7   14.04    1.08
  -3  -4  -7   14.42    1.13
   3   4   7   15.91    1.03
   3   4   7   14.47    1.02
   3   4   7   14.22    0.95
  -4  -4  -7    2.61    0.50
   4   4   7    2.95    0.45
   4   4   7    2.44    0.40
   4   4   7    1.98    0.42
  -5  -4  -7    0.13    0.51
  -5  -4  -7    0.81    0.47
   5   4   7    0.42    0.38
   5   4   7    0.96    0.40
  -6  -4  -7   33.12    2.43
  -6  -4  -7   40.73    2.46
   6   4   7   39.79    2.35
   6   4   7   38.78    2.32
  -7  -4  -7    1.49    0.74
  -7  -4  -7    0.74    0.72
   7   4   7    1.66    0.52
   7   4   7    1.99    0.74
   7   4   7    2.83    0.61
   3  -5  -7    4.84    0.76
   3  -5  -7    4.62    0.90
  -3   5   7    6.80    1.07
   2  -5  -7    8.74    1.00
   2  -5  -7    9.12    0.94
  -2   5   7    9.33    1.01
  -2   5   7    9.93    1.01
   1  -5  -7   13.69    0.98
  -1   5   7   12.12    1.03
  -1   5   7   11.04    0.99
  -1   5   7   11.93    0.99
   0  -5  -7    2.01    0.53
   0   5   7    3.13    0.48
   0   5   7    2.41    0.37
   0   5   7    3.65    0.50
  -1  -5  -7   28.83    1.75
  -1  -5  -7   25.55    1.80
   1   5   7   29.00    1.76
   1   5   7   29.72    1.73
  -2  -5  -7   51.66    3.04
  -2  -5  -7   49.07    3.08
   2   5   7   53.31    2.99
   2   5   7   54.09    3.01
   2   5   7   52.65    3.03
  -3  -5  -7    0.38    0.38
  -3  -5  -7   -0.12    0.44
   3   5   7    0.21    0.36
   3   5   7    0.65    0.32
   3   5   7   -0.49    0.34
  -4  -5  -7    6.51    0.87
  -4  -5  -7    6.26    0.83
   4   5   7    6.62    0.74
   4   5   7    6.54    0.61
   4   5   7    6.75    0.76
  -5  -5  -7   10.25    1.18
  -5  -5  -7   13.26    1.16
   5   5   7   11.11    1.03
   5   5   7   12.85    1.03
  -6  -5  -7   30.03    2.05
  -6  -5  -7   27.70    2.07
   6   5   7   30.71    1.94
   6   5   7   29.83    1.90
  -7  -5  -7   13.98    1.44
  -7  -5  -7   13.71    1.51
   7   5   7   14.81    1.24
   7   5   7   13.29    1.25
   2  -6  -7   37.97    2.72
  -2   6   7   48.14    2.75
  -2   6   7   47.12    2.74
   1  -6  -7   80.46    5.24
  -1   6   7   94.00    5.21
  -1   6   7  100.75    5.25
   0  -6  -7    9.26    0.90
   0   6   7    8.87    0.89
   0   6   7    6.12    0.87
  -1  -6  -7   13.50    1.07
  -1  -6  -7   10.68    1.15
   1   6   7   13.10    1.06
   1   6   7   13.98    1.02
  -2  -6  -7    0.34    0.54
  -2  -6  -7   -0.01    0.45
   2   6   7    0.93    0.42
   2   6   7    0.68    0.40
  -3  -6  -7   23.33    1.55
  -3  -6  -7   20.24    1.62
   3   6   7   21.14    1.52
   3   6   7   24.34    1.61
   3   6   7   23.01    1.42
  -4  -6  -7    9.00    1.02
  -4  -6  -7    8.57    1.08
   4   6   7    8.76    0.92
   4   6   7    9.42    0.77
   4   6   7    8.55    0.93
  -5  -6  -7    0.03    0.57
  -5  -6  -7    0.41    0.59
   5   6   7   -0.43    0.49
   5   6   7    0.58    0.51
  -6  -6  -7   10.81    1.34
  -6  -6  -7   12.09    1.30
   6   6   7   12.55    1.14
   6   6   7   11.27    1.14
  -7  -6  -7    3.72    0.91
  -7  -6  -7    3.49    0.83
   7   6   7    4.52    0.75
   7   6   7    3.13    0.70
   1  -7  -7    0.49    0.63
  -1   7   7   -0.41    0.65
  -1   7   7   -0.15    0.84
   0   7   7   14.87    1.21
   0   7   7   13.17    1.19
  -1  -7  -7   27.42    1.68
  -1  -7  -7   20.48    1.69
   1   7   7   25.67    1.61
   1   7   7   21.86    1.62
  -2  -7  -7   24.01    1.85
  -2  -7  -7   27.62    1.80
   2   7   7   28.92    1.74
   2   7   7   26.04    1.76
  -3  -7  -7    1.10    0.58
  -3  -7  -7    1.08    0.65
   3   7   7    1.36    0.47
   3   7   7   -0.05    0.46
   3   7   7    0.27    0.52
  -4  -7  -7    0.23    0.61
  -4  -7  -7    0.30    0.65
   4   7   7    0.17    0.52
   4   7   7   -0.37    0.44
   4   7   7   -0.28    0.53
  -5  -7  -7   13.67    1.29
  -5  -7  -7    9.69    1.32
   5   7   7   11.69    1.16
   5   7   7   12.65    1.09
   5   7   7   10.85    1.14
  -6  -7  -7   17.36    1.72
  -6  -7  -7   19.86    1.68
   6   7   7   20.92    1.65
   6   7   7   20.67    1.54
   0  -8  -7   15.02    1.33
   0   8   7   11.64    1.22
   0   8   7   11.21    1.24
  -1  -8  -7   19.06    1.51
  -1  -8  -7   14.54    1.50
   1   8   7   18.72    1.41
   1   8   7   17.07    1.42
  -2  -8  -7    6.08    1.21
  -2  -8  -7    9.99    1.17
   2   8   7    8.57    1.08
   2   8   7    9.86    1.04
  -3  -8  -7    5.74    1.10
  -3  -8  -7    6.55    1.24
   3   8   7    6.26    1.00
   3   8   7    7.55    0.93
   3   8   7    6.52    1.00
  -4  -8  -7    3.16    0.76
  -4  -8  -7    2.22    0.79
   4   8   7    1.78    0.60
   4   8   7    2.49    0.69
   4   8   7    2.60    0.68
  -5  -8  -7    0.69    0.78
  -5  -8  -7    0.85    0.71
   5   8   7    1.04    0.69
   5   8   7    0.93    0.61
   5   8   7   -0.82    0.63
   3   9   7    3.37    0.76
   0   8  -8   38.40    2.50
   0   8  -8   38.07    2.60
   0  -8   8   44.23    2.78
  -1   8  -8    8.82    1.26
  -1   8  -8    8.83    1.41
   1  -8   8    7.39    1.12
   1  -8   8   11.28    1.50
   2   7  -8    1.38    0.69
   2   7  -8    1.32    0.68
  -2  -7   8    0.78    0.80
  -2  -7   8    0.68    0.73
   1   7  -8    5.01    0.74
   1   7  -8    5.92    1.02
  -1  -7   8    6.49    0.93
  -1  -7   8    4.79    0.80
   0   7  -8   18.11    1.40
   0   7  -8   13.50    1.38
   0  -7   8   13.63    1.33
   0  -7   8   18.83    1.61
  -1   7  -8    3.94    0.73
  -1   7  -8    3.09    0.69
   1  -7   8    2.86    0.67
   1  -7   8    3.19    0.79
  -2   7  -8    2.75    0.69
  -2   7  -8    2.43    0.76
   2  -7   8    3.00    0.67
  -3   7  -8   24.31    1.82
  -3   7  -8   21.70    1.75
   3  -7   8   20.04    1.67
   3   6  -8   -0.10    0.60
   3   6  -8    0.30    0.66
  -3  -6   8    0.25    0.94
  -3  -6   8    1.78    0.70
   2   6  -8   15.33    1.26
   2   6  -8   11.19    1.21
   2   6  -8   13.07    1.23
  -2  -6   8   14.24    1.26
  -2  -6   8   12.45    1.48
   1   6  -8   -0.57    0.53
   1   6  -8   -0.31    0.55
   1   6  -8    1.05    0.54
  -1  -6   8   -0.87    0.59
  -1  -6   8    0.13    0.66
   0   6  -8   14.50    1.24
   0   6  -8   14.01    1.20
   0  -6   8   12.66    1.19
  -1   6  -8    7.46    1.07
  -1   6  -8    7.41    1.00
   1  -6   8    8.79    0.93
   1  -6   8   11.02    1.14
  -2   6  -8   12.82    1.29
  -2   6  -8   16.71    1.35
   2  -6   8   15.40    1.21
  -3   6  -8    1.74    0.66
  -3   6  -8    1.77    0.71
   3  -6   8    0.70    0.87
   3  -6   8    1.10    0.57
  -4   6  -8   25.70    1.81
  -4   6  -8   25.39    1.88
   4  -6   8   19.78    1.67
   4  -6   8   22.95    1.61
   3   5  -8   68.18    4.18
   3   5  -8   74.43    4.20
   3   5  -8   66.99    4.18
  -3  -5   8   77.66    4.33
  -3  -5   8   72.84    4.20
   2   5  -8   13.56    1.25
   2   5  -8   17.25    1.29
   2   5  -8   14.95    1.25
  -2  -5   8   16.22    1.27
  -2  -5   8   14.92    1.27
  -2  -5   8   18.97    1.50
   1   5  -8   16.34    1.24
   1   5  -8   14.99    1.27
   1   5  -8   17.63    1.23
  -1  -5   8   15.79    1.28
  -1  -5   8   16.52    1.42
   0   5  -8   28.71    1.73
   0   5  -8   27.01    1.81
   0   5  -8   25.44    1.80
   0  -5   8   30.00    1.89
   0  -5   8   27.42    1.80
  -1   5  -8    7.97    0.93
  -1   5  -8    7.46    0.91
  -1   5  -8    6.26    0.96
   1  -5   8    8.78    0.87
   1  -5   8    8.79    0.98
  -2   5  -8    0.81    0.49
  -2   5  -8    0.52    0.49
   2  -5   8   -0.25    0.50
   2  -5   8    0.55    0.45
  -3   5  -8   27.57    1.81
  -3   5  -8   25.03    1.82
  -3   5  -8   24.15    1.77
   3  -5   8   25.89    1.85
   3  -5   8   29.40    1.73
   3  -5   8   23.78    1.67
  -4   5  -8    2.07    0.68
  -4   5  -8    3.27    0.65
  -4   5  -8    2.82    0.70
   4  -5   8    1.84    0.57
   4  -5   8    1.33    0.57
  -5   5  -8   11.17    1.43
  -5   5  -8   13.41    1.43
  -5   5  -8   14.61    1.38
   5  -5   8   12.29    1.21
   5  -5   8   11.59    1.10
   5  -5   8   11.07    1.38
   4   4  -8   14.04    1.29
   4   4  -8   15.09    1.41
  -4  -4   8   17.56    1.58
   3   4  -8    0.40    0.49
   3   4  -8    0.43    0.60
   3   4  -8    0.18    0.49
  -3  -4   8   -0.42    0.58
  -3  -4   8    0.74    0.65
   2   4  -8   22.52    1.62
   2   4  -8   24.76    1.63
   2   4  -8   23.13    1.60
  -2  -4   8   23.90    1.62
  -2  -4   8   27.19    1.79
   1   4  -8   11.72    1.04
   1   4  -8   14.13    1.00
   1   4  -8   12.02    1.04
  -1  -4   8   10.87    1.01
  -1  -4   8   12.54    1.02
  -1  -4   8   14.28    1.22
   0   4  -8    2.72    0.50
   0   4  -8    2.92    0.49
   0   4  -8    2.60    0.44
   0  -4   8    2.55    0.45
   0  -4   8    2.76    0.48
   0  -4   8    3.13    0.53
  -1   4  -8   21.43    1.49
  -1   4  -8   20.07    1.45
   1  -4   8   24.18    1.50
   1  -4   8   21.96    1.41
  -2   4  -8   15.30    1.12
  -2   4  -8   12.07    1.04
  -2   4  -8   12.68    1.26
  -2   4  -8   14.77    1.16
   2  -4   8   15.16    1.07
   2  -4   8   17.00    1.14
  -3   4  -8   15.40    1.21
  -3   4  -8   16.97    1.28
  -3   4  -8   15.65    1.28
   3  -4   8   15.59    1.17
   3  -4   8   15.86    1.20
   3  -4   8   17.31    1.19
  -4   4  -8   22.45    1.82
  -4   4  -8   28.76    1.86
  -4   4  -8   28.93    1.79
   4  -4   8   26.44    1.72
   4  -4   8   26.59    1.69
  -5   4  -8    8.79    1.29
  -5   4  -8    8.00    1.16
   5  -4   8    7.21    1.01
   5  -4   8    6.24    0.88
   5  -4   8    9.30    1.25
  -6   4  -8    0.98    0.74
  -6   4  -8    0.13    0.87
   6  -4   8    0.38    0.82
   6  -4   8   -1.27    0.65
   4   3  -8   21.37    1.57
   4   3  -8   21.95    1.58
  -4  -3   8   22.31    1.82
  -4  -3   8   22.36    1.73
   3   3  -8   15.57    1.33
   3   3  -8   18.85    1.34
  -3  -3   8   18.98    1.39
  -3  -3   8   19.41    1.55
   2   3  -8    5.35    0.78
   2   3  -8    7.03    0.78
  -2  -3   8    5.35    0.71
  -2  -3   8    5.67    0.82
   1   3  -8   31.81    2.00
   1   3  -8   30.55    2.03
  -1  -3   8   33.57    2.09
  -1  -3   8   35.92    2.01
   0   3  -8   50.69    3.23
   0   3  -8   60.03    3.21
   0   3  -8   53.38    3.21
   0  -3   8   55.44    3.19
   0  -3   8   57.18    3.20
   0  -3   8   57.52    3.26
  -1   3  -8   62.45    3.61
  -1   3  -8   63.19    3.61
  -1   3  -8   59.24    3.64
   1  -3   8   62.41    3.59
   1  -3   8   65.43    3.63
   1  -3   8   65.32    3.57
  -2   3  -8   30.38    2.05
  -2   3  -8   33.89    2.01
   2  -3   8   35.08    2.02
   2  -3   8   33.09    1.98
  -3   3  -8    0.25    0.46
  -3   3  -8    0.47    0.45
  -3   3  -8    0.92    0.43
   3  -3   8    0.42    0.37
   3  -3   8    0.92    0.40
   3  -3   8    0.60    0.36
  -4   3  -8    1.05    0.55
  -4   3  -8    2.19    0.49
  -4   3  -8    1.99    0.58
   4  -3   8    1.18    0.47
   4  -3   8    1.17    0.43
  -5   3  -8   30.52    2.07
  -5   3  -8   25.78    1.97
   5  -3   8   29.06    1.88
   5  -3   8   30.17    1.82
  -6   3  -8   13.17    1.33
  -6   3  -8   11.93    1.50
  -6   3  -8   11.58    1.54
   6  -3   8   10.11    1.07
   6  -3   8   11.48    1.19
   6  -3   8   14.23    1.45
   4   2  -8   12.73    1.19
   4   2  -8   15.26    1.36
  -4  -2   8   16.06    1.57
  -4  -2   8   15.41    1.51
   3   2  -8   29.60    1.89
   3   2  -8   27.28    1.88
  -3  -2   8   29.52    1.94
  -3  -2   8   32.15    2.05
   2   2  -8    8.01    0.79
   2   2  -8    7.34    0.83
  -2  -2   8    7.15    0.84
  -2  -2   8    8.71    0.96
   1   2  -8    0.17    0.33
   1   2  -8   -0.22    0.34
   1   2  -8    1.06    0.58
  -1  -2   8    0.39    0.35
  -1  -2   8    0.38    0.40
   0   2  -8    0.06    0.35
   0   2  -8   -0.04    0.31
   0   2  -8    0.33    0.34
   0  -2   8   -0.26    0.32
   0  -2   8   -0.32    0.35
   0  -2   8    0.10    0.33
  -1   2  -8   18.04    1.21
  -1   2  -8   17.64    1.18
  -1   2  -8   16.99    1.24
   1  -2   8   17.95    1.14
   1  -2   8   18.74    1.24
   1  -2   8   18.48    1.16
  -2   2  -8  100.81    5.37
  -2   2  -8   95.41    5.37
  -2   2  -8   88.77    5.38
   2  -2   8   95.64    5.34
   2  -2   8   94.43    5.32
  -3   2  -8   29.39    2.03
  -3   2  -8   33.61    2.14
  -3   2  -8   35.05    2.07
   3  -2   8   31.27    2.03
   3  -2   8   33.42    1.96
   3  -2   8   33.44    1.96
  -4   2  -8   45.68    2.75
  -4   2  -8   40.56    2.72
  -4   2  -8   48.22    2.66
   4  -2   8   41.51    2.65
   4  -2   8   47.69    2.64
   4  -2   8   46.21    2.63
  -5   2  -8    7.70    1.00
  -5   2  -8    9.75    1.12
   5  -2   8    9.56    0.83
   5  -2   8    8.63    0.95
  -6   2  -8    3.34    0.81
  -6   2  -8    4.18    0.74
   6  -2   8    3.73    0.68
   6  -2   8    2.76    0.57
  -7   2  -8    2.81    0.79
  -7   2  -8    4.22    1.22
   7  -2   8    3.75    0.93
   7  -2   8    1.53    0.76
   7  -2   8    1.88    0.62
   4   1  -8    9.96    1.05
   4   1  -8    8.02    0.95
  -4  -1   8    8.49    1.25
  -4  -1   8    7.26    0.95
   3   1  -8    6.75    0.80
   3   1  -8    8.90    0.90
   3   1  -8    7.46    0.86
  -3  -1   8    8.13    0.95
  -3  -1   8    7.94    1.05
   2   1  -8   31.82    2.12
   2   1  -8   35.82    2.08
   2   1  -8   35.34    2.12
  -2  -1   8   35.57    2.14
  -2  -1   8   35.88    2.21
   1   1  -8    2.26    0.41
   1   1  -8    2.38    0.39
  -1  -1   8    2.60    0.49
  -1  -1   8    3.37    0.44
   0   1  -8    5.73    0.63
   0   1  -8    5.67    0.70
   0   1  -8    7.50    0.67
   0  -1   8    6.38    0.64
   0  -1   8    7.06    0.70
  -1   1  -8   56.14    3.46
  -1   1  -8   61.31    3.45
   1  -1   8   59.58    3.41
   1  -1   8   60.99    3.40
   1  -1   8   62.53    3.45
  -2   1  -8   42.96    2.70
  -2   1  -8   46.78    2.70
   2  -1   8   46.50    2.64
   2  -1   8   46.84    2.65
  -3   1  -8    0.28    0.41
  -3   1  -8   -0.07    0.36
   3  -1   8    0.22    0.31
   3  -1   8    0.14    0.31
  -4   1  -8  117.39    6.34
  -4   1  -8  106.32    6.31
   4  -1   8  113.49    6.24
   4  -1   8  112.45    6.21
   4  -1   8  107.08    6.26
  -5   1  -8    0.30    0.55
  -5   1  -8    0.06    0.47
   5  -1   8    0.76    0.45
   5  -1   8    0.16    0.45
  -6   1  -8   15.08    1.49
  -6   1  -8   14.98    1.38
   6  -1   8   16.90    1.35
   6  -1   8   16.24    1.20
  -7   1  -8    0.14    0.76
  -7   1  -8    0.89    0.84
   7  -1   8   -0.41    0.55
   7  -1   8   -0.12    0.65
   4   0  -8    2.15    0.58
   4   0  -8    1.31    0.52
   4   0  -8    2.30    0.61
  -4   0   8    2.75    0.73
  -4   0   8    3.43    0.80
   3   0  -8   43.11    2.90
   3   0  -8   48.90    2.88
   3   0  -8   50.30    2.92
  -3   0   8   52.06    3.00
  -3   0   8   51.39    2.96
   2   0  -8   11.95    0.95
   2   0  -8   10.84    0.97
   2   0  -8   12.83    0.94
  -2   0   8   11.98    1.11
  -2   0   8   11.64    1.00
   1   0  -8    9.63    0.78
   1   0  -8    9.79    0.80
   1   0  -8    7.45    0.79
  -1   0   8    8.86    0.79
  -1   0   8   10.63    0.86
   0   0  -8   -0.20    0.29
   0   0  -8   -0.06    0.35
   0   0   8   -0.41    0.33
   0   0   8   -0.04    0.29
  -1   0  -8   12.52    0.95
  -1   0  -8   10.55    0.93
   1   0   8   11.49    0.81
   1   0   8   11.96    0.88
  -2   0  -8   26.04    1.58
  -2   0  -8   24.74    1.67
  -2   0  -8   27.04    1.67
   2   0   8   27.73    1.61
   2   0   8   24.71    1.60
   2   0   8   26.98    1.58
  -3   0  -8    0.00    0.35
   3   0   8    0.33    0.30
  -4   0  -8   86.05    5.11
  -4   0  -8   93.16    5.14
   4   0   8   90.99    5.03
   4   0   8   85.37    5.07
   4   0   8   92.10    5.04
  -5   0  -8   36.46    2.35
  -5   0  -8   36.51    2.30
   5   0   8   36.61    2.16
   5   0   8   37.88    2.20
   5   0   8   35.58    2.25
  -6   0  -8    0.10    0.63
  -6   0  -8   -0.36    0.48
   6   0   8    0.37    0.47
   6   0   8    0.37    0.53
   6   0   8   -0.42    0.44
  -7   0  -8   14.70    1.52
  -7   0  -8   17.31    1.67
   7   0   8   20.08    1.51
   7   0   8   15.52    1.30
   4  -1  -8    5.23    0.90
   4  -1  -8    3.72    0.72
  -4   1   8    4.51    0.79
   3  -1  -8    2.52    0.52
   3  -1  -8    2.77    0.56
   3  -1  -8    3.10    0.56
  -3   1   8    3.17    0.60
  -3   1   8    2.79    0.61
   2  -1  -8   52.71    3.02
   2  -1  -8   53.47    3.02
   2  -1  -8   47.26    3.02
  -2   1   8   52.53    3.08
  -2   1   8   52.73    3.06
   1  -1  -8    0.40    0.31
   1  -1  -8    0.61    0.34
   1  -1  -8    0.58    0.38
  -1   1   8   -0.25    0.26
  -1   1   8    0.46    0.39
  -1   1   8   -0.28    0.36
   0  -1  -8    3.88    0.62
   0   1   8    3.23    0.44
   0   1   8    4.64    0.56
  -1  -1  -8   72.63    4.12
  -1  -1  -8   76.13    4.20
  -1  -1  -8   68.47    4.18
   1   1   8   75.24    4.13
   1   1   8   75.08    4.17
  -2  -1  -8  121.99    6.63
  -2  -1  -8  114.59    6.57
  -2  -1  -8  116.61    6.62
   2   1   8  118.41    6.56
   2   1   8  117.45    6.54
   2   1   8  125.20    6.59
   2   1   8  110.74    6.56
  -3  -1  -8    5.84    0.68
  -3  -1  -8    3.82    0.71
  -3  -1  -8    5.70    0.73
   3   1   8    6.42    0.60
   3   1   8    5.49    0.63
  -4  -1  -8  145.50    7.92
  -4  -1  -8  138.12    7.93
  -4  -1  -8  140.26    7.95
   4   1   8  145.54    7.86
   4   1   8  136.66    7.90
   4   1   8  141.38    7.87
  -5  -1  -8    3.87    0.60
  -5  -1  -8    5.04    0.85
  -5  -1  -8    4.68    0.90
   5   1   8    4.30    0.67
   5   1   8    5.84    0.79
   5   1   8    5.60    0.66
  -6  -1  -8    0.95    0.57
  -6  -1  -8    0.01    0.62
   6   1   8    0.42    0.40
   6   1   8    0.81    0.55
   6   1   8    0.11    0.45
  -7  -1  -8    2.80    0.80
  -7  -1  -8    2.60    0.70
   7   1   8    2.24    0.70
   7   1   8    1.74    0.58
   3  -2  -8   11.93    1.14
   3  -2  -8    9.74    1.08
   3  -2  -8   13.02    1.19
  -3   2   8   15.78    1.21
  -3   2   8   15.21    1.18
  -3   2   8   12.10    1.22
   2  -2  -8    0.18    0.38
   2  -2  -8   -0.56    0.41
   2  -2  -8    0.79    0.47
  -2   2   8    0.55    0.50
  -2   2   8    0.32    0.40
  -2   2   8    0.25    0.50
   1  -2  -8    0.13    0.37
   1  -2  -8    0.69    0.34
   1  -2  -8    0.41    0.40
  -1   2   8    0.22    0.39
  -1   2   8    0.65    0.38
   0  -2  -8    0.96    0.43
   0  -2  -8    0.48    0.39
   0   2   8    1.45    0.36
   0   2   8    1.52    0.37
  -1  -2  -8   53.35    3.08
  -1  -2  -8   52.75    3.07
  -1  -2  -8   49.88    3.06
   1   2   8   53.75    3.01
   1   2   8   54.25    3.06
  -2  -2  -8    2.19    0.43
  -2  -2  -8    2.42    0.47
  -2  -2  -8    1.81    0.38
   2   2   8    1.90    0.55
   2   2   8    2.01    0.33
   2   2   8    2.17    0.38
  -3  -2  -8    0.07    0.40
  -3  -2  -8   -0.49    0.36
  -3  -2  -8   -0.44    0.38
   3   2   8   -0.56    0.29
   3   2   8   -0.30    0.32
  -4  -2  -8    7.57    0.88
  -4  -2  -8    7.84    0.85
  -4  -2  -8    7.25    0.89
   4   2   8    8.26    0.76
   4   2   8    9.96    0.77
  -5  -2  -8    6.22    0.99
  -5  -2  -8    7.77    0.95
  -5  -2  -8    6.44    0.84
   5   2   8    8.80    0.92
   5   2   8    6.98    0.79
   5   2   8    6.74    0.76
  -6  -2  -8    2.04    0.68
  -6  -2  -8    2.12    0.62
  -6  -2  -8    2.39    0.54
   6   2   8    2.48    0.62
   6   2   8    1.91    0.47
   6   2   8    1.34    0.51
  -7  -2  -8   12.75    1.31
  -7  -2  -8   11.78    1.43
   7   2   8   12.78    1.15
   7   2   8   14.61    1.36
   7   2   8   11.23    1.33
   3  -3  -8    3.28    0.67
   3  -3  -8    2.38    0.57
  -3   3   8    3.79    0.69
  -3   3   8    2.94    0.63
  -3   3   8    5.27    0.74
   2  -3  -8   29.75    2.06
   2  -3  -8   32.18    2.09
  -2   3   8   35.09    2.11
  -2   3   8   35.62    2.14
  -2   3   8   34.32    2.08
   1  -3  -8   33.88    2.07
   1  -3  -8   28.36    2.02
   1  -3  -8   35.22    2.03
  -1   3   8   33.44    2.01
  -1   3   8   33.29    2.05
  -1   3   8   35.09    2.05
   0  -3  -8   43.57    2.83
   0  -3  -8   47.05    2.86
   0   3   8   50.93    2.85
   0   3   8   52.84    2.83
  -1  -3  -8   20.16    1.46
  -1  -3  -8   21.83    1.49
   1   3   8   23.28    1.45
   1   3   8   24.17    1.41
  -2  -3  -8  147.25    8.49
  -2  -3  -8  150.91    8.47
  -2  -3  -8  151.77    8.45
   2   3   8  152.91    8.43
   2   3   8  150.18    8.40
   2   3   8  157.08    8.46
  -3  -3  -8    1.73    0.46
  -3  -3  -8    1.42    0.49
  -3  -3  -8    2.11    0.44
   3   3   8    1.80    0.35
   3   3   8    1.68    0.40
   3   3   8    2.03    0.38
  -4  -3  -8  172.09    9.50
  -4  -3  -8  161.24    9.52
   4   3   8  177.13    9.46
   4   3   8  169.17    9.46
  -5  -3  -8    0.60    0.56
  -5  -3  -8    0.83    0.53
   5   3   8    0.44    0.50
   5   3   8    0.90    0.42
  -6  -3  -8   -0.58    0.63
  -6  -3  -8   -0.40    0.61
   6   3   8   -0.66    0.61
   6   3   8    0.60    0.45
   6   3   8   -0.90    0.47
  -7  -3  -8    1.06    0.75
  -7  -3  -8    1.63    0.79
   7   3   8    1.42    0.52
   7   3   8    0.23    0.73
   7   3   8    0.58    0.61
   3  -4  -8   11.05    1.54
   3  -4  -8   10.39    1.14
  -3   4   8   10.01    1.60
  -3   4   8   13.59    1.24
   2  -4  -8   18.08    1.53
   2  -4  -8   16.56    1.32
   2  -4  -8   17.19    1.38
  -2   4   8   20.68    1.42
  -2   4   8   18.02    1.39
  -2   4   8   16.89    1.34
   1  -4  -8    2.63    0.50
  -1   4   8    4.56    0.59
  -1   4   8    3.82    0.60
  -1   4   8    2.60    0.50
   0   4   8    1.53    0.43
   0   4   8    0.62    0.45
  -1  -4  -8   36.53    2.49
   1   4   8   43.66    2.43
   1   4   8   43.72    2.47
  -2  -4  -8   10.93    1.05
  -2  -4  -8   12.27    0.99
   2   4   8   12.53    0.99
   2   4   8   12.88    0.91
  -3  -4  -8    1.48    0.54
  -3  -4  -8    1.33    0.45
   3   4   8    1.81    0.42
   3   4   8    1.58    0.49
   3   4   8    1.57    0.33
  -4  -4  -8  128.64    7.51
  -4  -4  -8  118.19    7.53
  -4  -4  -8  139.39    7.49
   4   4   8  140.79    7.44
   4   4   8  136.56    7.44
  -5  -4  -8    4.32    0.67
  -5  -4  -8    2.65    0.66
   5   4   8    3.79    0.55
   5   4   8    3.53    0.58
  -6  -4  -8   -0.18    0.66
  -6  -4  -8    0.09    0.62
   6   4   8   -0.05    0.54
   6   4   8    0.89    0.49
  -7  -4  -8    6.64    1.35
  -7  -4  -8   10.40    1.34
   7   4   8   10.12    1.09
   7   4   8    7.81    1.29
   7   4   8    9.98    1.06
   2  -5  -8   16.94    1.44
   2  -5  -8   19.30    1.49
  -2   5   8   21.02    1.52
  -2   5   8   21.68    1.49
  -2   5   8   19.13    1.48
   1  -5  -8    7.24    0.97
  -1   5   8    7.61    0.96
  -1   5   8    6.23    0.92
   0  -5  -8   13.59    1.29
   0  -5  -8   18.61    1.29
   0   5   8   17.02    1.27
   0   5   8   17.49    1.27
  -1  -5  -8    2.16    0.48
  -1  -5  -8    0.99    0.55
   1   5   8    2.51    0.48
   1   5   8    2.27    0.56
  -2  -5  -8   43.30    2.83
  -2  -5  -8   46.86    2.78
   2   5   8   48.36    2.71
   2   5   8   47.83    2.79
  -3  -5  -8    9.58    1.15
  -3  -5  -8   11.37    1.04
   3   5   8   10.94    0.87
   3   5   8   13.20    1.03
   3   5   8   11.23    0.94
  -4  -5  -8   68.44    4.23
  -4  -5  -8   75.36    4.23
   4   5   8   70.66    4.10
   4   5   8   71.85    4.15
   4   5   8   74.16    4.15
  -5  -5  -8    0.66    0.64
  -5  -5  -8    1.87    0.64
   5   5   8    1.47    0.51
   5   5   8    1.63    0.54
  -6  -5  -8    6.81    1.15
  -6  -5  -8    7.34    1.23
   6   5   8    8.46    1.00
   6   5   8    8.54    1.00
  -7  -5  -8    3.06    0.87
  -7  -5  -8    1.64    1.00
   7   5   8    3.10    0.66
   7   5   8    2.78    0.69
   7   5   8    2.02    0.96
   1  -6  -8   29.93    2.13
   1  -6  -8   30.41    2.30
  -1   6   8   36.97    2.15
  -1   6   8   33.27    2.10
   0  -6  -8    9.28    1.17
   0   6   8   12.44    1.11
   0   6   8   12.46    1.15
  -1  -6  -8   28.43    1.82
  -1  -6  -8   23.56    1.87
   1   6   8   29.99    1.79
   1   6   8   28.18    1.83
  -2  -6  -8   30.57    2.26
  -2  -6  -8   37.05    2.21
   2   6   8   37.44    2.13
   2   6   8   34.54    2.20
  -3  -6  -8    1.25    0.66
  -3  -6  -8    0.64    0.55
   3   6   8    0.98    0.48
   3   6   8    1.76    0.48
   3   6   8    0.48    0.52
  -4  -6  -8   59.51    3.75
  -4  -6  -8   64.41    3.73
   4   6   8   64.32    3.66
   4   6   8   68.55    3.77
   4   6   8   56.35    3.64
  -5  -6  -8    1.09    0.66
  -5  -6  -8   -1.02    0.69
   5   6   8   -0.73    0.56
   5   6   8   -0.07    0.54
  -6  -6  -8    2.30    0.82
  -6  -6  -8    1.99    0.76
   6   6   8    1.11    0.64
   6   6   8    2.56    0.66
   0  -7  -8    3.23    0.74
   0   7   8    2.27    0.69
   0   7   8    4.39    0.75
  -1  -7  -8    6.56    1.07
  -1  -7  -8    7.87    1.05
   1   7   8    5.64    0.80
  -2  -7  -8   15.56    1.38
   2   7   8   14.35    1.29
   2   7   8   14.51    1.22
  -3  -7  -8    2.46    0.71
  -3  -7  -8    3.27    0.80
   3   7   8    2.10    0.70
   3   7   8    2.16    0.58
   3   7   8    1.64    0.63
  -4  -7  -8   12.63    1.45
  -4  -7  -8   14.12    1.40
   4   7   8   13.20    1.24
   4   7   8   16.20    1.15
   4   7   8   12.72    1.24
  -5  -7  -8    1.81    0.78
  -5  -7  -8    3.11    0.83
   5   7   8    1.69    0.60
   5   7   8    1.05    0.68
  -1  -8  -8    9.63    1.28
  -1  -8  -8    8.13    1.25
   1   8   8   10.41    1.22
   1   8   8   11.27    1.20
  -2  -8  -8   38.41    2.46
   2   8   8   35.27    2.32
   2   8   8   35.36    2.37
  -3  -8  -8   11.33    1.50
  -3  -8  -8   13.63    1.40
   3   8   8   13.32    1.22
   3   8   8    9.81    1.21
  -4  -8  -8   48.47    2.94
  -4  -8  -8   42.25    2.99
   4   8   8   45.91    2.77
   4   8   8   45.83    2.84
   0   7  -9   26.80    2.02
   0  -7   9   31.79    2.22
   0  -7   9   25.47    1.94
  -1   7  -9    0.95    0.98
  -1   7  -9   -0.73    0.72
   1  -7   9    1.08    0.84
  -2   7  -9   16.18    1.49
  -2   7  -9   19.65    1.66
   2  -7   9   12.65    1.33
   1   6  -9   19.46    1.68
   1   6  -9   23.00    1.65
  -1  -6   9   21.86    1.67
  -1  -6   9   25.92    1.92
   0   6  -9   -0.05    0.63
   0   6  -9    0.82    0.63
   0   6  -9   -0.88    0.58
   0  -6   9    0.47    0.76
   0  -6   9    0.55    0.65
  -1   6  -9    6.74    1.11
  -1   6  -9    5.13    0.79
   1  -6   9    6.44    0.85
   1  -6   9    5.78    0.93
  -2   6  -9   11.73    1.32
  -2   6  -9   10.92    1.20
   2  -6   9    9.66    1.07
   2  -6   9   10.73    1.39
  -3   6  -9   20.01    1.58
  -3   6  -9   19.92    1.68
   3  -6   9   17.09    1.42
  -4   6  -9   -0.77    0.75
  -4   6  -9    0.52    0.78
   4  -6   9   -0.53    0.66
   2   5  -9   22.76    1.78
   2   5  -9   26.29    1.80
   2   5  -9   23.59    2.09
  -2  -5   9   26.13    1.79
  -2  -5   9   26.93    1.76
   1   5  -9    1.71    0.58
   1   5  -9    2.36    0.60
   1   5  -9    2.20    0.62
  -1  -5   9    1.14    0.63
  -1  -5   9    1.87    0.72
   0   5  -9   16.88    1.37
   0   5  -9   20.59    1.62
   0   5  -9   14.54    1.35
   0  -5   9   15.47    1.31
   0  -5   9   18.87    1.52
  -1   5  -9   16.17    1.36
  -1   5  -9   17.77    1.42
   1  -5   9   19.62    1.50
   1  -5   9   17.20    1.32
  -2   5  -9    0.90    0.62
  -2   5  -9    0.99    0.57
   2  -5   9   -0.84    0.59
   2  -5   9   -0.61    0.51
  -3   5  -9    0.76    0.65
  -3   5  -9    1.04    0.61
   3  -5   9    0.03    0.54
  -4   5  -9   10.20    1.17
  -4   5  -9    9.27    1.24
   4  -5   9    8.02    0.96
   4  -5   9    5.81    0.99
  -5   5  -9    8.23    1.30
  -5   5  -9    5.42    1.00
  -5   5  -9    7.76    1.29
   5  -5   9    4.71    0.73
   3   4  -9   30.39    1.94
   3   4  -9   24.87    1.88
  -3  -4   9   27.77    1.93
   2   4  -9    1.09    0.54
   2   4  -9    0.43    0.55
   2   4  -9    0.39    0.61
  -2  -4   9    0.86    0.74
  -2  -4   9   -0.09    0.58
   1   4  -9   40.56    2.75
   1   4  -9   48.37    2.73
   1   4  -9   41.18    2.73
  -1  -4   9   45.05    2.73
  -1  -4   9   50.53    2.87
  -1  -4   9   47.07    2.75
   0   4  -9    6.60    0.86
   0   4  -9    7.69    0.90
   0  -4   9    6.62    0.86
   0  -4   9    7.25    1.00
   0  -4   9    6.83    0.85
  -1   4  -9    7.33    0.91
  -1   4  -9    4.79    0.84
   1  -4   9    8.14    0.96
   1  -4   9    6.02    0.81
  -2   4  -9    2.50    0.57
  -2   4  -9    1.14    0.51
   2  -4   9    1.63    0.47
   2  -4   9    2.26    0.54
  -3   4  -9    6.28    0.96
  -3   4  -9    4.85    0.86
  -3   4  -9    6.02    0.97
   3  -4   9    5.25    0.79
   3  -4   9    6.90    0.94
  -4   4  -9    0.99    0.66
  -4   4  -9   -0.23    0.64
  -4   4  -9   -0.56    0.63
   4  -4   9    0.21    0.57
   4  -4   9   -0.66    0.48
  -5   4  -9   26.51    2.03
  -5   4  -9   25.26    1.95
   5  -4   9   25.03    1.80
   5  -4   9   25.37    1.72
   3   3  -9    0.11    0.53
   3   3  -9    0.44    0.57
  -3  -3   9   -0.39    0.63
  -3  -3   9    0.91    0.73
   2   3  -9   58.35    3.80
   2   3  -9   63.46    3.79
  -2  -3   9   71.43    3.92
  -2  -3   9   67.56    3.81
   1   3  -9    4.22    0.75
   1   3  -9    3.66    0.59
  -1  -3   9    4.87    0.62
  -1  -3   9    4.95    0.71
   0   3  -9   36.86    2.51
   0   3  -9   39.38    2.46
   0   3  -9   44.65    2.45
   0  -3   9   39.72    2.44
   0  -3   9   43.68    2.46
   0  -3   9   43.71    2.58
  -1   3  -9    5.73    0.95
  -1   3  -9    4.20    0.73
  -1   3  -9    4.19    0.64
   1  -3   9    5.48    0.67
   1  -3   9    5.18    0.84
   1  -3   9    5.13    0.68
  -2   3  -9   28.43    2.03
  -2   3  -9   32.38    2.00
  -2   3  -9   31.37    1.96
   2  -3   9   34.90    1.99
   2  -3   9   30.43    1.93
  -3   3  -9    0.05    0.52
  -3   3  -9    0.13    0.49
  -3   3  -9   -0.39    0.53
   3  -3   9    0.21    0.46
  -4   3  -9    3.08    0.69
  -4   3  -9    2.40    0.64
   4  -3   9    3.51    0.58
   4  -3   9    2.62    0.52
   4  -3   9    2.03    0.50
  -5   3  -9    2.42    0.75
  -5   3  -9    2.64    0.67
   5  -3   9    1.90    0.59
   5  -3   9    2.19    0.55
  -6   3  -9    0.50    0.86
   6  -3   9   -0.42    0.67
   6  -3   9   -0.25    0.54
   3   2  -9    6.85    0.91
   3   2  -9    4.84    0.72
  -3  -2   9    6.37    0.88
  -3  -2   9    6.90    1.05
   2   2  -9    5.60    0.85
   2   2  -9    6.67    0.85
  -2  -2   9    6.47    1.04
  -2  -2   9    4.16    0.67
   1   2  -9   13.52    1.16
   1   2  -9   12.67    1.05
  -1  -2   9   13.70    1.07
  -1  -2   9   13.52    1.18
   0   2  -9   34.12    2.21
   0   2  -9   32.55    2.01
   0   2  -9   29.57    2.07
   0  -2   9   35.11    2.02
   0  -2   9   34.34    2.11
  -1   2  -9    7.06    0.75
  -1   2  -9    6.16    0.84
  -1   2  -9    9.17    0.90
   1  -2   9    7.24    0.72
   1  -2   9    8.72    0.88
   1  -2   9    8.65    0.73
  -2   2  -9    4.19    0.75
  -2   2  -9    4.71    0.78
  -2   2  -9    5.17    0.67
   2  -2   9    4.35    0.64
   2  -2   9    5.15    0.74
  -3   2  -9   12.96    1.04
  -3   2  -9   14.37    1.16
  -3   2  -9   12.03    1.13
   3  -2   9   12.64    1.04
   3  -2   9   13.14    1.00
  -4   2  -9   17.60    1.39
  -4   2  -9   14.86    1.31
   4  -2   9   17.62    1.18
   4  -2   9   15.97    1.21
   4  -2   9   16.83    1.25
  -5   2  -9    6.92    1.07
  -5   2  -9   10.26    1.20
   5  -2   9    7.41    0.95
   5  -2   9    8.15    0.87
  -6   2  -9    4.77    0.97
  -6   2  -9    4.46    0.86
   6  -2   9    6.12    1.02
   6  -2   9    5.96    0.87
   3   1  -9   17.10    1.38
   3   1  -9   17.39    1.40
  -3  -1   9   17.43    1.45
  -3  -1   9   19.32    1.59
   2   1  -9   19.55    1.48
   2   1  -9   18.18    1.45
   2   1  -9   22.21    1.49
  -2  -1   9   22.33    1.51
  -2  -1   9   23.64    1.61
   1   1  -9    5.84    0.75
   1   1  -9    5.36    0.79
   1   1  -9    7.67    0.76
  -1  -1   9    6.87    0.91
  -1  -1   9    6.81    0.78
   0   1  -9   47.02    2.63
   0   1  -9   42.70    2.58
   0   1  -9   38.48    2.64
   0  -1   9   46.16    2.60
   0  -1   9   47.12    2.67
  -1   1  -9    1.10    0.36
  -1   1  -9    0.74    0.41
  -1   1  -9    1.34    0.44
   1  -1   9    1.86    0.37
   1  -1   9    1.32    0.41
  -2   1  -9   60.87    3.87
  -2   1  -9   71.69    3.89
   2  -1   9   69.19    3.85
   2  -1   9   66.63    3.81
  -3   1  -9    5.40    0.81
  -3   1  -9    6.08    0.86
   3  -1   9    5.94    0.67
   3  -1   9    6.36    0.71
  -4   1  -9    8.63    1.01
  -4   1  -9    5.52    0.95
   4  -1   9    6.93    0.76
   4  -1   9    6.74    0.78
   4  -1   9    7.34    0.80
  -5   1  -9    7.20    1.11
  -5   1  -9    7.08    0.99
   5  -1   9    5.82    0.94
   5  -1   9    7.04    0.86
   5  -1   9    7.54    0.80
  -6   1  -9   15.86    1.50
  -6   1  -9   18.63    1.65
   6  -1   9   17.00    1.28
   6  -1   9   17.35    1.46
  -7   1  -9    0.66    0.79
   7  -1   9    0.98    0.73
   7  -1   9    1.26    0.58
   3   0  -9   25.42    2.05
   3   0  -9   23.02    1.69
   3   0  -9   25.45    1.76
  -3   0   9   27.54    1.89
  -3   0   9   27.55    1.85
   2   0  -9   50.45    3.38
   2   0  -9   55.02    3.37
   2   0  -9   58.52    3.38
  -2   0   9   61.86    3.47
  -2   0   9   64.22    3.44
   1   0  -9    0.49    0.43
   1   0  -9   -0.39    0.37
   1   0  -9   -0.50    0.40
  -1   0   9    0.20    0.48
  -1   0   9   -0.37    0.44
   0   0  -9   24.90    1.81
   0   0  -9   29.99    1.81
   0   0  -9   28.06    1.74
   0   0   9   30.11    1.77
   0   0   9   30.17    1.83
  -1   0  -9   14.92    1.09
  -1   0  -9   13.41    1.07
   1   0   9   13.30    1.05
   1   0   9   14.48    0.99
   1   0   9   12.94    0.97
  -2   0  -9    1.46    0.44
  -2   0  -9    0.71    0.45
   2   0   9    0.65    0.34
   2   0   9    1.12    0.39
  -3   0  -9   34.22    2.21
  -3   0  -9   36.04    2.24
   3   0   9   36.00    2.13
   3   0   9   36.85    2.15
  -4   0  -9   13.10    1.16
  -4   0  -9   10.56    1.08
   4   0   9   12.00    0.95
   4   0   9   11.44    0.98
   4   0   9   11.21    0.95
  -5   0  -9    3.12    0.72
  -5   0  -9    2.83    0.63
   5   0   9    4.08    0.69
   5   0   9    3.36    0.57
   5   0   9    3.45    0.52
  -6   0  -9   15.33    1.43
  -6   0  -9   15.27    1.54
   6   0   9   15.90    1.23
   6   0   9   16.40    1.40
  -7   0  -9    3.82    0.86
   7   0   9    3.92    0.65
   7   0   9    4.35    0.83
   3  -1  -9    3.86    0.66
   3  -1  -9    2.82    0.57
  -3   1   9    3.37    0.72
  -3   1   9    4.08    0.73
   2  -1  -9    8.74    1.00
   2  -1  -9    8.63    0.97
   2  -1  -9   11.71    1.01
  -2   1   9   12.04    1.09
  -2   1   9    8.99    1.14
   1  -1  -9   37.64    2.34
   1  -1  -9   39.18    2.45
  -1   1   9   37.50    2.37
  -1   1   9   40.18    2.35
   0  -1  -9    0.65    0.33
   0  -1  -9    0.81    0.43
   0  -1  -9    0.20    0.43
   0   1   9   -0.07    0.41
   0   1   9   -0.02    0.39
  -1  -1  -9    0.29    0.41
  -1  -1  -9    0.96    0.44
   1   1   9   -0.30    0.39
   1   1   9    0.09    0.35
  -2  -1  -9   13.03    1.09
  -2  -1  -9   13.53    1.10
   2   1   9   13.70    1.03
   2   1   9   13.66    0.92
  -3  -1  -9   14.50    1.06
  -3  -1  -9   11.72    1.09
  -3  -1  -9   12.64    1.10
   3   1   9   12.93    0.96
   3   1   9   12.36    1.19
   3   1   9   12.83    1.00
  -4  -1  -9    3.98    0.63
  -4  -1  -9    5.20    0.88
  -4  -1  -9    5.53    0.82
   4   1   9    5.00    0.71
   4   1   9    4.61    0.66
   4   1   9    4.33    0.75
  -5  -1  -9   37.95    2.46
  -5  -1  -9   37.21    2.50
   5   1   9   40.24    2.42
   5   1   9   39.65    2.32
   5   1   9   38.52    2.34
  -6  -1  -9    3.38    0.79
  -6  -1  -9    3.77    0.70
   6   1   9    3.72    0.60
   6   1   9    3.64    0.75
  -7  -1  -9   15.48    1.51
  -7  -1  -9   15.33    1.58
   7   1   9   13.77    1.69
   3  -2  -9    4.84    0.92
   3  -2  -9    4.13    0.70
  -3   2   9    4.49    0.81
   2  -2  -9   34.36    2.24
   2  -2  -9   31.62    2.19
  -2   2   9   35.56    2.23
  -2   2   9   37.41    2.25
   1  -2  -9    5.56    0.82
   1  -2  -9    7.78    0.90
  -1   2   9    7.10    0.91
  -1   2   9    6.47    0.88
   0  -2  -9   49.31    3.31
   0  -2  -9   58.64    3.34
   0   2   9   60.98    3.31
   0   2   9   59.25    3.35
  -1  -2  -9    0.82    0.45
  -1  -2  -9    0.93    0.48
   1   2   9    1.23    0.44
   1   2   9    0.91    0.40
  -2  -2  -9   54.59    3.48
  -2  -2  -9   59.90    3.50
   2   2   9   61.17    3.39
   2   2   9   59.10    3.41
   2   2   9   63.92    3.46
  -3  -2  -9    2.03    0.48
  -3  -2  -9    2.18    0.54
  -3  -2  -9    2.63    0.55
   3   2   9    2.04    0.47
  -4  -2  -9    0.22    0.49
  -4  -2  -9    0.23    0.49
  -4  -2  -9   -0.97    0.55
   4   2   9    0.31    0.42
   4   2   9   -0.08    0.46
   4   2   9   -0.36    0.40
  -5  -2  -9    8.90    1.15
  -5  -2  -9    8.54    1.17
  -5  -2  -9    9.92    1.04
   5   2   9    9.09    0.92
   5   2   9   10.73    1.11
   5   2   9   10.87    0.94
  -6  -2  -9   19.31    1.59
  -6  -2  -9   20.60    1.75
  -6  -2  -9   24.45    1.74
   6   2   9   20.55    1.51
   6   2   9   20.06    1.49
   6   2   9   22.17    1.66
  -7  -2  -9    9.08    1.38
  -7  -2  -9   11.69    1.30
   7   2   9   10.18    1.07
   7   2   9    8.38    1.08
   2  -3  -9    0.31    0.53
   2  -3  -9   -0.06    0.58
  -2   3   9   -0.14    0.64
  -2   3   9    0.19    0.59
   1  -3  -9    5.08    0.86
   1  -3  -9    6.58    0.94
  -1   3   9    6.72    0.92
  -1   3   9    8.22    0.95
   0  -3  -9    0.47    0.51
   0  -3  -9   -0.34    0.44
   0   3   9    0.65    0.46
   0   3   9    0.58    0.46
  -1  -3  -9   11.53    1.13
  -1  -3  -9   15.61    1.22
   1   3   9   14.20    1.17
   1   3   9   16.96    1.08
  -2  -3  -9   18.88    1.48
  -2  -3  -9   21.45    1.46
  -2  -3  -9   21.33    1.53
   2   3   9   22.39    1.38
   2   3   9   23.44    1.49
  -3  -3  -9   53.43    3.74
  -3  -3  -9   59.42    3.55
  -3  -3  -9   63.45    3.50
   3   3   9   50.51    3.45
   3   3   9   66.19    3.49
   3   3   9   64.43    3.49
  -4  -3  -9   -0.11    0.51
  -4  -3  -9    0.30    0.56
  -4  -3  -9   -0.31    0.63
   4   3   9   -0.65    0.44
   4   3   9    0.73    0.53
  -5  -3  -9   22.54    1.94
  -5  -3  -9   26.26    1.89
  -5  -3  -9   27.66    1.92
   5   3   9   26.53    1.84
   5   3   9   27.89    1.76
   5   3   9   28.68    1.76
  -6  -3  -9    8.59    1.46
  -6  -3  -9   11.18    1.32
  -6  -3  -9    9.01    1.29
   6   3   9   10.55    1.05
   6   3   9    9.14    1.02
   6   3   9   10.41    1.27
  -7  -3  -9    0.15    0.67
  -7  -3  -9   -0.40    0.79
   7   3   9    0.83    0.63
   7   3   9    0.39    0.62
   2  -4  -9   14.34    1.46
   2  -4  -9   11.24    1.26
  -2   4   9   15.30    1.31
  -2   4   9   15.62    1.32
  -2   4   9   16.54    1.38
   1  -4  -9    2.87    0.65
   1  -4  -9    1.71    0.57
  -1   4   9    3.02    0.66
  -1   4   9    3.33    0.63
   0  -4  -9   18.14    1.46
   0  -4  -9   22.11    1.52
   0   4   9   21.41    1.50
  -1  -4  -9    2.83    0.57
  -1  -4  -9    4.30    0.85
  -1  -4  -9    3.13    0.53
   1   4   9    3.39    0.57
  -2  -4  -9   66.33    3.74
  -2  -4  -9   60.61    3.78
   2   4   9   64.73    3.67
   2   4   9   65.68    3.74
  -3  -4  -9    0.88    0.56
  -3  -4  -9    0.54    0.53
   3   4   9    0.79    0.41
   3   4   9    0.46    0.44
   3   4   9    0.56    0.47
  -4  -4  -9   17.11    1.44
  -4  -4  -9   19.08    1.46
   4   4   9   19.44    1.33
   4   4   9   15.22    1.30
  -5  -4  -9    6.52    1.12
  -5  -4  -9    6.79    1.11
   5   4   9    7.02    0.91
   5   4   9    6.28    0.93
  -6  -4  -9   27.02    2.14
  -6  -4  -9   31.21    2.10
   6   4   9   29.83    1.93
   6   4   9   28.28    2.08
   6   4   9   27.90    1.93
   1  -5  -9    5.98    1.19
  -1   5   9    5.67    0.78
  -1   5   9    4.50    0.78
   0  -5  -9    1.32    0.59
   0   5   9   -0.72    0.55
   0   5   9   -0.30    0.58
  -1  -5  -9    0.27    0.58
   1   5   9   -0.25    0.53
   1   5   9   -0.28    0.52
  -2  -5  -9    3.85    0.73
  -2  -5  -9    2.98    0.59
   2   5   9    3.28    0.56
   2   5   9    3.43    0.60
  -3  -5  -9   23.67    1.68
  -3  -5  -9   20.20    1.70
   3   5   9   23.17    1.60
   3   5   9   23.76    1.56
   3   5   9   22.88    1.53
  -4  -5  -9   18.96    1.51
  -4  -5  -9   17.51    1.55
   4   5   9   20.48    1.42
   4   5   9   16.99    1.36
  -5  -5  -9   19.58    1.73
  -5  -5  -9   21.07    1.73
   5   5   9   22.20    1.57
   5   5   9   22.60    1.57
  -6  -5  -9    7.30    1.30
  -6  -5  -9    6.78    1.26
   6   5   9    6.10    1.00
   6   5   9    8.71    1.08
   0  -6  -9    2.07    0.67
   0   6   9    3.14    0.69
   0   6   9    3.24    0.72
  -1  -6  -9    4.10    0.75
  -1  -6  -9    4.55    0.80
   1   6   9    4.23    0.72
   1   6   9    3.32    0.71
  -2  -6  -9   34.31    2.17
  -2  -6  -9   29.94    2.22
   2   6   9   33.06    2.08
   2   6   9   33.87    2.14
  -3  -6  -9   19.08    1.53
  -3  -6  -9   16.09    1.55
   3   6   9   18.34    1.31
   3   6   9   17.75    1.42
  -4  -6  -9   21.12    1.74
  -4  -6  -9   24.17    1.75
   4   6   9   19.56    1.58
   4   6   9   21.41    1.59
  -5  -6  -9   31.26    2.51
  -5  -6  -9   38.74    2.51
   5   6   9   38.63    2.37
   5   6   9   38.87    2.37
  -1  -7  -9    8.95    1.17
  -1  -7  -9    9.63    1.26
   1   7   9    7.53    1.17
   1   7   9    5.61    0.88
  -2  -7  -9    7.75    1.29
  -2  -7  -9   11.50    1.28
   2   7   9   10.47    1.14
   2   7   9    9.34    1.17
  -3  -7  -9    1.57    0.81
  -3  -7  -9    1.28    0.75
   3   7   9    1.47    0.67
   3   7   9    1.99    0.65
  -4  -7  -9    3.80    0.92
  -4  -7  -9    5.47    0.90
   4   7   9    4.36    0.76
   4   7   9    4.02    0.89
  -1   6 -10    0.09    0.73
  -1   6 -10   -0.01    0.70
   1  -6  10   -0.25    0.66
   1  -6  10   -0.06    0.80
  -2   6 -10   18.08    1.65
  -2   6 -10   15.54    1.51
   1   5 -10   -1.06    0.60
   1   5 -10   -0.84    0.63
   1   5 -10   -1.47    0.65
  -1  -5  10   -0.93    0.66
  -1  -5  10   -0.09    0.78
   0   5 -10    3.90    0.74
   0   5 -10    4.16    0.75
   0   5 -10    5.49    1.03
   0  -5  10    4.75    0.75
   0  -5  10    4.92    0.87
  -1   5 -10    8.70    1.13
  -1   5 -10   11.16    1.21
   1  -5  10    8.66    1.07
   1  -5  10   10.56    1.33
  -2   5 -10    0.68    0.67
  -2   5 -10    0.10    0.67
   2  -5  10   -0.26    0.69
  -3   5 -10    6.85    1.14
   3  -5  10    9.12    1.28
   3  -5  10    8.06    0.97
  -4   5 -10    4.00    0.84
  -4   5 -10    2.99    0.81
   1   4 -10    8.01    1.08
   1   4 -10   10.63    1.08
   1   4 -10    8.54    1.12
  -1  -4  10    7.91    1.14
  -1  -4  10   10.60    1.33
  -1  -4  10    8.59    1.13
   0   4 -10   40.33    2.73
   0   4 -10   41.68    2.78
   0  -4  10   43.72    2.71
   0  -4  10   49.70    2.72
   0  -4  10   49.68    2.87
  -1   4 -10   -0.76    0.55
  -1   4 -10   -0.03    0.58
   1  -4  10   -1.01    0.54
   1  -4  10   -0.30    0.66
  -2   4 -10    5.55    0.94
  -2   4 -10    7.72    1.06
   2  -4  10    6.00    0.86
  -3   4 -10   13.39    1.38
  -3   4 -10   13.97    1.38
   3  -4  10   13.00    1.17
   3  -4  10   15.30    1.33
  -4   4 -10   18.69    1.68
  -4   4 -10   18.40    1.62
   4  -4  10   17.06    1.36
  -5   4 -10    8.91    1.33
   2   3 -10    1.27    0.59
   2   3 -10    0.81    0.60
  -2  -3  10    1.08    0.69
   1   3 -10   14.40    1.27
   1   3 -10   13.38    1.24
  -1  -3  10   15.28    1.30
  -1  -3  10   15.55    1.45
   0   3 -10    7.36    1.13
   0   3 -10    4.83    0.86
   0   3 -10    5.95    0.93
   0  -3  10    5.04    0.84
   0  -3  10    6.80    1.11
   0  -3  10    5.39    0.68
  -1   3 -10   14.61    1.22
  -1   3 -10   14.33    1.27
   1  -3  10   17.93    1.35
   1  -3  10   13.37    1.14
  -2   3 -10   23.22    2.13
  -2   3 -10   25.30    1.82
   2  -3  10   30.03    1.83
   2  -3  10   25.35    1.70
  -3   3 -10    4.18    0.71
  -3   3 -10    2.97    0.68
   3  -3  10    4.08    0.67
   3  -3  10    3.12    0.61
  -4   3 -10   13.61    1.46
  -4   3 -10   15.19    1.35
   4  -3  10   11.84    1.12
  -5   3 -10    9.89    1.29
  -5   3 -10   11.72    1.50
   5  -3  10    9.19    1.13
   5  -3  10    8.36    1.03
   2   2 -10   17.58    1.40
   2   2 -10   15.21    1.40
  -2  -2  10   19.51    1.61
  -2  -2  10   20.42    1.49
   1   2 -10   10.01    1.07
   1   2 -10    9.88    1.02
  -1  -2  10    9.53    1.09
  -1  -2  10   11.68    1.21
   0   2 -10   62.83    3.96
   0   2 -10   58.14    4.01
   0  -2  10   77.99    4.07
   0  -2  10   77.85    3.98
  -1   2 -10    0.98    0.76
  -1   2 -10    0.70    0.54
  -1   2 -10   -0.16    0.48
   1  -2  10    1.08    0.55
   1  -2  10    0.40    0.45
  -2   2 -10   29.95    2.10
  -2   2 -10   34.68    2.12
   2  -2  10   36.33    2.12
   2  -2  10   29.90    1.99
  -3   2 -10    1.89    0.63
  -3   2 -10    1.87    0.61
   3  -2  10    1.71    0.50
   3  -2  10    1.30    0.55
  -4   2 -10    3.01    0.66
  -4   2 -10    3.00    0.83
   4  -2  10    3.49    0.59
  -5   2 -10    4.03    0.88
  -5   2 -10    4.46    0.78
   5  -2  10    5.23    0.83
   5  -2  10    2.72    0.67
  -6   2 -10    1.98    0.91
  -6   2 -10    0.95    0.93
   6  -2  10    0.63    0.73
   2   1 -10    2.02    0.60
   2   1 -10    1.96    0.60
  -2  -1  10    2.59    0.69
  -2  -1  10    2.83    0.72
   1   1 -10   28.88    2.16
   1   1 -10   25.12    1.77
  -1  -1  10   28.75    1.90
  -1  -1  10   26.18    1.80
   0   1 -10   13.50    1.10
   0   1 -10    9.85    1.09
   0  -1  10   12.65    1.06
   0  -1  10   12.16    1.18
  -1   1 -10    5.56    0.84
  -1   1 -10    7.07    0.89
   1  -1  10    7.02    0.90
   1  -1  10    5.31    0.69
   1  -1  10    6.85    0.77
  -2   1 -10    1.09    0.57
  -2   1 -10    0.91    0.49
   2  -1  10    1.44    0.61
   2  -1  10    0.36    0.42
  -3   1 -10   27.62    1.83
  -3   1 -10   24.92    1.77
   3  -1  10   23.50    1.65
   3  -1  10   27.78    1.71
  -4   1 -10   20.25    1.60
  -4   1 -10   16.45    1.47
   4  -1  10   19.01    1.33
   4  -1  10   17.14    1.30
  -5   1 -10   10.59    1.23
  -5   1 -10   10.21    1.35
   5  -1  10   10.73    0.99
   5  -1  10    8.65    1.07
  -6   1 -10   28.25    2.22
  -6   1 -10   36.35    2.40
   6  -1  10   30.23    2.03
   6  -1  10   31.76    2.16
   2   0 -10    6.57    1.04
   2   0 -10   11.46    1.04
  -2   0  10    9.40    1.22
  -2   0  10    8.22    1.18
   1   0 -10    5.34    0.90
   1   0 -10    4.53    0.88
   1   0 -10    6.51    0.93
  -1   0  10    5.61    0.72
  -1   0  10    5.59    0.78
   0   0 -10   21.01    1.38
   0   0 -10   14.89    1.36
   0   0  10   18.59    1.42
   0   0  10   19.04    1.33
  -1   0 -10   33.49    1.98
  -1   0 -10   25.82    1.94
   1   0  10   27.70    1.93
   1   0  10   34.20    1.88
  -2   0 -10   -0.07    0.48
  -2   0 -10    0.03    0.52
   2   0  10   -0.19    0.49
   2   0  10   -0.54    0.37
  -3   0 -10    5.53    0.97
  -3   0 -10    5.11    0.89
   3   0  10    5.83    0.77
  -4   0 -10    7.63    1.02
  -4   0 -10    8.38    1.14
   4   0  10    7.23    0.84
   4   0  10    7.38    0.90
  -5   0 -10    4.63    0.77
  -5   0 -10    4.06    0.86
   5   0  10    3.20    0.64
   5   0  10    3.99    0.61
   5   0  10    3.67    0.61
  -6   0 -10    0.22    0.82
  -6   0 -10    0.52    0.71
   6   0  10   -0.12    0.68
   6   0  10    0.77    0.57
   2  -1 -10   11.11    1.14
   2  -1 -10   11.17    1.16
   2  -1 -10   12.74    1.19
  -2   1  10   13.58    1.36
  -2   1  10   12.77    1.30
   1  -1 -10   27.39    1.91
   1  -1 -10   29.98    1.97
  -1   1  10   29.57    1.98
  -1   1  10   29.95    1.95
   0  -1 -10   16.80    1.45
   0  -1 -10   21.83    1.50
   0   1  10   20.50    1.41
   0   1  10   20.96    1.49
  -1  -1 -10    9.27    1.00
  -1  -1 -10    7.62    0.94
   1   1  10    7.39    0.92
  -2  -1 -10    0.61    0.55
  -2  -1 -10    0.75    0.55
   2   1  10    0.60    0.39
   2   1  10    0.63    0.48
  -3  -1 -10    8.72    1.10
  -3  -1 -10   11.40    1.16
   3   1  10    9.33    0.91
   3   1  10   10.86    1.02
  -4  -1 -10    2.46    0.61
  -4  -1 -10    2.41    0.67
   4   1  10    1.93    0.57
   4   1  10    2.48    0.50
  -5  -1 -10   18.59    1.54
  -5  -1 -10   21.21    1.65
   5   1  10   19.39    1.40
   5   1  10   17.06    1.34
   5   1  10   16.66    1.45
  -6  -1 -10    1.99    0.72
  -6  -1 -10    2.11    0.87
   6   1  10    2.61    0.62
   6   1  10    1.60    0.60
   2  -2 -10   16.24    1.51
   2  -2 -10   22.97    1.57
  -2   2  10   22.46    1.62
  -2   2  10   19.90    1.66
   1  -2 -10   24.82    1.91
   1  -2 -10   27.93    1.95
  -1   2  10   33.22    1.97
  -1   2  10   30.88    1.97
   0   2  10    2.37    0.65
   0   2  10    1.05    0.55
  -1  -2 -10   27.83    2.09
  -1  -2 -10   34.92    2.15
   1   2  10   35.82    2.05
   1   2  10   34.13    2.12
  -2  -2 -10   -0.07    0.57
  -2  -2 -10    0.40    0.55
   2   2  10   -0.12    0.44
   2   2  10    0.69    0.49
   2   2  10   -0.68    0.48
  -3  -2 -10    6.36    0.91
  -3  -2 -10    5.38    0.96
  -3  -2 -10    4.99    0.96
   3   2  10    5.07    0.85
   3   2  10    5.46    0.74
  -4  -2 -10    2.12    0.65
  -4  -2 -10    1.57    0.67
  -4  -2 -10    1.43    0.61
   4   2  10    2.22    0.53
   4   2  10    2.23    0.52
   4   2  10    1.42    0.63
  -5  -2 -10    9.76    1.25
  -5  -2 -10    8.03    1.13
  -5  -2 -10    9.61    1.23
   5   2  10    8.40    0.98
   5   2  10    9.29    1.01
   5   2  10    9.27    1.11
  -6  -2 -10    3.99    0.89
  -6  -2 -10    2.33    0.73
   6   2  10    2.30    0.64
   6   2  10    3.37    0.67
   6   2  10    3.15    0.77
   1  -3 -10    6.91    1.06
  -1   3  10    6.90    1.09
  -1   3  10    9.03    1.12
   0  -3 -10   30.21    1.98
   0  -3 -10   25.32    1.95
   0   3  10   30.84    1.98
   0   3  10   32.20    1.95
  -1  -3 -10   -0.21    0.53
  -1  -3 -10    0.69    0.62
   1   3  10    0.87    0.54
   1   3  10    1.06    0.52
  -2  -3 -10    3.84    0.66
  -2  -3 -10    4.96    0.74
   2   3  10    4.40    0.66
  -3  -3 -10   -0.56    0.54
  -3  -3 -10    0.64    0.62
  -3  -3 -10   -0.16    0.55
   3   3  10   -0.48    0.45
   3   3  10   -0.47    0.53
  -4  -3 -10   13.98    1.37
  -4  -3 -10   13.19    1.37
  -4  -3 -10   15.16    1.35
   4   3  10   14.18    1.18
   4   3  10   14.64    1.23
  -5  -3 -10    5.13    0.87
  -5  -3 -10    6.44    1.16
  -5  -3 -10    6.52    1.15
   5   3  10    7.68    1.12
   5   3  10    5.57    0.96
   5   3  10    4.82    0.71
  -6  -3 -10    4.78    0.81
  -6  -3 -10    5.34    0.93
  -6  -3 -10    5.20    0.92
   6   3  10    6.34    1.01
   6   3  10    5.25    0.92
   6   3  10    4.87    0.80
   1  -4 -10   12.95    1.36
  -1   4  10   13.33    1.38
  -1   4  10   13.28    1.32
   0  -4 -10    2.98    0.67
   0   4  10    5.75    0.74
   0   4  10    4.03    0.71
  -1  -4 -10   16.20    1.37
   1   4  10   13.53    1.30
   1   4  10   15.83    1.28
  -2  -4 -10   19.04    1.54
   2   4  10   20.68    1.39
   2   4  10   17.66    1.47
  -3  -4 -10   18.26    1.52
  -3  -4 -10   18.90    1.49
   3   4  10   17.31    1.34
   3   4  10   18.17    1.41
  -4  -4 -10   -0.45    0.62
  -4  -4 -10    1.11    0.69
   4   4  10    0.43    0.56
   4   4  10   -0.07    0.58
  -5  -4 -10    3.05    0.81
  -5  -4 -10    2.14    0.82
   5   4  10    3.29    0.66
   5   4  10    3.30    0.66
  -6  -4 -10   -1.27    0.78
  -6  -4 -10    0.35    0.81
   6   4  10    0.89    0.81
   6   4  10   -1.07    0.66
   0  -5 -10    5.31    0.78
   0   5  10    6.55    0.84
   0   5  10    6.49    0.86
  -1  -5 -10   23.08    1.73
   1   5  10   21.65    1.70
   1   5  10   23.95    1.68
  -2  -5 -10    1.78    0.72
  -2  -5 -10    0.20    0.71
   2   5  10    0.90    0.60
   2   5  10   -0.16    0.61
  -3  -5 -10    0.90    0.68
  -3  -5 -10    1.96    0.73
   3   5  10    0.82    0.63
  -4  -5 -10   32.67    2.15
  -4  -5 -10   28.29    2.14
   4   5  10   30.91    2.08
   4   5  10   27.80    1.99
  -5  -5 -10    0.34    0.80
  -5  -5 -10    0.43    0.78
   5   5  10   -1.05    0.66
   5   5  10   -0.05    0.62
  -2  -6 -10    8.07    1.24
  -2  -6 -10    9.41    1.26
   2   6  10    6.96    1.12
   2   6  10    7.98    1.12
  -3  -6 -10    6.63    1.22
  -3  -6 -10    5.16    0.91
   3   6  10    6.23    0.97
  -4  -6 -10   -0.06    0.80
  -4  -6 -10   -0.13    0.81
   4   6  10   -1.35    0.65
   4   6  10   -0.08    0.79
  -1   4 -11    5.59    0.85
  -1   4 -11   10.28    1.15
   1  -4  11    8.47    1.36
   1  -4  11    8.14    1.07
  -2   4 -11   -0.05    0.66
  -2   4 -11    1.05    0.69
   2  -4  11    0.27    0.74
   2  -4  11   -0.73    0.61
  -3   4 -11    8.89    1.30
  -3   4 -11    7.38    1.20
   3  -4  11    8.34    1.31
   0   3 -11   13.95    1.28
   0   3 -11   14.57    1.26
   0  -3  11   15.33    1.47
   0  -3  11   11.63    1.19
   0  -3  11   13.45    1.23
  -1   3 -11    2.51    0.64
  -1   3 -11    1.90    0.95
   1  -3  11    2.31    0.63
   1  -3  11    2.33    0.77
  -2   3 -11   15.62    1.35
   2  -3  11   11.62    1.21
   2  -3  11   16.44    1.44
  -3   3 -11    0.90    0.71
   3  -3  11    0.02    0.70
   3  -3  11   -0.27    0.59
  -4   3 -11   14.56    1.50
  -4   3 -11   17.97    1.66
   4  -3  11   14.71    1.44
   1   2 -11    2.13    0.72
   1   2 -11    2.37    0.65
  -1  -2  11    2.68    0.72
   0   2 -11    7.77    1.09
   0   2 -11    5.09    1.00
   0  -2  11    8.27    1.06
   0  -2  11   10.70    1.50
  -1   2 -11   16.71    1.36
   1  -2  11   14.11    1.20
  -2   2 -11    0.66    0.72
  -2   2 -11    0.45    0.60
   2  -2  11    0.85    0.67
  -3   2 -11    2.09    0.64
  -3   2 -11    2.23    0.82
   3  -2  11    0.16    0.67
   3  -2  11    0.99    0.58
  -4   2 -11    5.40    0.95
  -4   2 -11    4.18    1.21
   4  -2  11    4.64    0.76
   4  -2  11    5.88    0.89
  -5   2 -11    0.98    0.86
   5  -2  11    0.56    0.70
   1   1 -11    4.70    0.72
   1   1 -11    6.83    1.17
  -1  -1  11    7.86    1.14
   0   1 -11   31.12    2.11
   0  -1  11   29.12    1.93
   0  -1  11   26.79    2.06
  -1   1 -11    2.30    0.64
  -1   1 -11    2.84    0.70
   1  -1  11    3.15    0.72
  -2   1 -11   34.91    2.18
  -2   1 -11   26.49    2.08
   2  -1  11   35.35    2.10
   2  -1  11   29.24    1.97
  -3   1 -11   13.70    1.41
  -3   1 -11   18.88    1.52
   3  -1  11   17.88    1.41
   3  -1  11   14.56    1.26
  -4   1 -11   36.94    2.67
  -4   1 -11   46.08    2.78
   4  -1  11   43.88    2.58
   4  -1  11   38.91    2.52
  -5   1 -11    6.59    1.16
  -5   1 -11    7.50    1.37
   5  -1  11    3.81    0.73
   5  -1  11    4.99    0.74
   5  -1  11    4.51    0.77
   1   0 -11   -1.18    0.80
  -1   0  11   -0.81    0.87
  -1   0  11   -1.21    0.68
   0   0 -11    3.62    0.69
   0   0  11    4.50    0.70
   0   0  11    5.12    0.77
  -1   0 -11   14.16    1.39
  -1   0 -11   18.59    1.47
   1   0  11   19.19    1.44
  -2   0 -11    2.33    0.71
  -2   0 -11    1.83    0.62
   2   0  11    0.53    0.49
   2   0  11    1.71    0.63
  -3   0 -11    8.37    1.20
  -3   0 -11    6.64    1.08
   3   0  11    9.50    1.05
   3   0  11    5.67    0.91
  -4   0 -11    1.29    0.81
  -4   0 -11    1.86    0.70
   4   0  11    2.84    0.59
   4   0  11    2.59    0.64
  -5   0 -11   -0.06    0.72
  -5   0 -11    1.42    0.87
   5   0  11   -0.60    0.62
   5   0  11   -1.08    0.56
   5   0  11    1.32    0.67
   0  -1 -11   36.89    2.32
   0   1  11   36.00    2.32
   0   1  11   32.76    2.25
  -1  -1 -11   21.68    1.70
  -1  -1 -11   18.93    1.62
   1   1  11   24.43    1.91
   1   1  11   23.20    1.62
  -2  -1 -11    2.10    0.65
   2   1  11    1.63    0.54
   2   1  11    2.78    0.62
  -3  -1 -11    0.17    0.71
  -3  -1 -11   -0.62    0.61
   3   1  11   -0.61    0.58
   3   1  11    0.07    0.50
  -4  -1 -11   36.29    2.54
  -4  -1 -11   39.47    2.60
   4   1  11   41.36    2.45
   4   1  11   37.92    2.38
  -5  -1 -11    5.33    0.99
  -5  -1 -11    3.00    0.77
   5   1  11    3.05    0.71
   5   1  11    5.79    1.04
   5   1  11    3.54    0.68
   0  -2 -11    4.37    0.75
   0   2  11    5.84    0.80
   0   2  11    5.29    0.78
  -1  -2 -11    8.00    1.15
  -1  -2 -11   12.10    1.27
   1   2  11   12.48    1.12
   1   2  11    8.41    1.13
  -2  -2 -11   24.36    1.77
  -2  -2 -11   19.88    1.70
   2   2  11   23.80    1.65
  -3  -2 -11   -1.13    0.63
  -3  -2 -11    0.69    0.72
   3   2  11   -0.21    0.49
   3   2  11   -0.59    0.59
  -4  -2 -11   14.81    1.47
  -4  -2 -11   15.29    1.50
   4   2  11   14.46    1.26
   4   2  11   16.15    1.34
  -5  -2 -11    0.01    0.73
   5   2  11   -0.48    0.67
   5   2  11   -0.71    0.60
   5   2  11   -0.42    0.63
   0  -3 -11   36.25    2.58
   0   3  11   36.32    2.45
   0   3  11   42.54    2.49
  -1  -3 -11   13.60    1.36
  -1  -3 -11    9.57    1.28
   1   3  11   13.32    1.28
   1   3  11   12.73    1.21
  -2  -3 -11   14.26    1.40
  -2  -3 -11   12.56    1.33
   2   3  11   13.51    1.29
  -3  -3 -11    1.75    0.74
  -3  -3 -11    0.74    0.67
   3   3  11    1.97    0.66
   3   3  11    1.17    0.57
  -4  -3 -11    4.72    0.81
   4   3  11    4.77    0.76
   4   3  11    4.56    0.70
  -5  -3 -11   -0.26    1.02
  -5  -3 -11    0.73    0.81
  -5  -3 -11    0.44    0.73
   5   3  11    1.13    0.79
   5   3  11   -0.94    0.65
   5   3  11    0.47    0.63
  -1  -4 -11    0.09    0.68
   1   4  11   -0.47    0.69
   1   4  11   -1.23    0.64
  -2  -4 -11   12.45    1.39
   2   4  11   17.37    1.31
  -3  -4 -11    0.75    0.98
  -3  -4 -11    0.05    1.01
   3   4  11   -0.80    0.62
  -4  -4 -11   28.06    2.03
  -4  -4 -11   26.65    1.99
  -4  -4 -11   23.87    2.34
   4   4  11   27.57    1.88
   4   4  11   24.95    1.81
  -2   1 -12    5.85    1.10
   2  -1  12    5.45    0.93
  -3   1 -12    9.17    1.62
  -3   1 -12   11.41    1.48
   3  -1  12    9.61    1.30
   3  -1  12    7.49    1.04
  -2   0 -12    8.75    1.37
  -2   0 -12    7.54    1.37
   2   0  12    6.75    1.18
  -3   0 -12    1.85    0.84
  -3   0 -12   -0.35    0.66
   3   0  12   -0.12    0.61
   3   0  12    0.64    0.72
  -2  -1 -12   -0.35    0.67
  -2  -1 -12    1.48    0.80
   2   1  12   -0.03    0.77
  -3  -1 -12   16.05    1.58
  -3  -1 -12   20.79    1.75
   3   1  12   14.38    1.36
   3   1  12   20.91    1.51
  -3  -2 -12    1.52    1.14
  -3  -2 -12    0.47    0.76
   0   0   0    0.00    0.00
;
_shelx_hkl_checksum              96859
loop_
_space_group_symop_operation_xyz
'x, y, z'
'-x, -y, -z'
loop_
_atom_site_label
_atom_site_type_symbol
_atom_site_fract_x
_atom_site_fract_y
_atom_site_fract_z
_atom_site_U_iso_or_equiv
_atom_site_adp_type
_atom_site_occupancy
_atom_site_site_symmetry_order
_atom_site_calc_flag
_atom_site_refinement_flags_posn
_atom_site_refinement_flags_adp
_atom_site_refinement_flags_occupancy
_atom_site_disorder_assembly
_atom_site_disorder_group
S1 S 0.25623(6) 0.77713(5) 0.20915(4) 0.02344(15) Uani 1 1 d . . . . .
N1 N 0.6429(2) 0.78347(15) -0.00169(14) 0.0184(3) Uani 1 1 d . . . . .
N2 N 0.3552(2) 0.81990(15) -0.08878(15) 0.0206(3) Uani 1 1 d . . . . .
C3 C 0.7683(2) 0.75986(19) 0.10359(18) 0.0215(3) Uani 1 1 d . . . . .
H3A H 0.7046 0.8411 0.1860 0.026 Uiso 1 1 calc R U . . .
H3B H 0.9173 0.7778 0.0527 0.026 Uiso 1 1 calc R U . . .
C4 C 0.3705(3) 0.57667(19) 0.25197(19) 0.0254(4) Uani 1 1 d . . . . .
H4A H 0.2612 0.5360 0.3348 0.030 Uiso 1 1 calc R U . . .
H4B H 0.3994 0.5042 0.1642 0.030 Uiso 1 1 calc R U . . .
C5 C 0.4240(2) 0.79406(18) 0.02879(17) 0.0189(3) Uani 1 1 d . . . . .
C6 C 0.9333(2) 0.79935(19) -0.24659(18) 0.0224(4) Uani 1 1 d . . . . .
H6A H 1.0542 0.7838 -0.2097 0.027 Uiso 1 1 calc R U . . .
C7 C 0.7765(3) 0.5924(2) 0.16815(18) 0.0244(4) Uani 1 1 d . . . . .
H7A H 0.7979 0.5126 0.0870 0.029 Uiso 1 1 calc R U . . .
H7B H 0.9039 0.5700 0.2050 0.029 Uiso 1 1 calc R U . . .
C8 C 0.7227(2) 0.80325(17) -0.15319(17) 0.0183(3) Uani 1 1 d . . . . .
C9 C 0.9548(3) 0.8195(2) -0.39602(18) 0.0264(4) Uani 1 1 d . . . . .
H9A H 1.0949 0.8171 -0.4639 0.032 Uiso 1 1 calc R U . . .
C10 C 0.5773(3) 0.5672(2) 0.29452(18) 0.0262(4) Uani 1 1 d . . . . .
H10A H 0.5533 0.6491 0.3744 0.031 Uiso 1 1 calc R U . . .
H10B H 0.6075 0.4604 0.3360 0.031 Uiso 1 1 calc R U . . .
C11 C 0.5418(2) 0.82727(18) -0.20498(17) 0.0194(3) Uani 1 1 d . . . . .
C12 C 0.5687(3) 0.84865(19) -0.35702(18) 0.0239(4) Uani 1 1 d . . . . .
H12A H 0.4484 0.8662 -0.3945 0.029 Uiso 1 1 calc R U . . .
C13 C 0.7764(3) 0.8433(2) -0.45023(18) 0.0269(4) Uani 1 1 d . . . . .
H13A H 0.7987 0.8560 -0.5538 0.032 Uiso 1 1 calc R U . . .
loop_
_atom_site_aniso_label
_atom_site_aniso_U_11
_atom_site_aniso_U_22
_atom_site_aniso_U_33
_atom_site_aniso_U_23
_atom_site_aniso_U_13
_atom_site_aniso_U_12
S1 0.0187(2) 0.0249(2) 0.0223(2) 0.00125(16) 0.00017(16) -0.00296(16)
N1 0.0163(6) 0.0199(7) 0.0192(7) 0.0039(5) -0.0047(5) -0.0052(5)
N2 0.0177(6) 0.0199(7) 0.0239(7) 0.0017(5) -0.0062(5) -0.0032(5)
C3 0.0206(8) 0.0243(8) 0.0228(8) 0.0054(6) -0.0093(6) -0.0080(6)
C4 0.0262(9) 0.0229(8) 0.0250(8) 0.0050(7) -0.0022(7) -0.0090(7)
C5 0.0172(7) 0.0158(7) 0.0224(8) 0.0010(6) -0.0033(6) -0.0036(6)
C6 0.0182(8) 0.0218(8) 0.0258(9) 0.0032(6) -0.0042(6) -0.0042(6)
C7 0.0229(8) 0.0238(8) 0.0274(9) 0.0063(7) -0.0092(7) -0.0041(6)
C8 0.0205(8) 0.0143(7) 0.0194(8) 0.0015(6) -0.0045(6) -0.0041(6)
C9 0.0236(8) 0.0264(9) 0.0248(9) 0.0016(7) 0.0003(7) -0.0056(7)
C10 0.0311(9) 0.0233(8) 0.0242(8) 0.0073(7) -0.0073(7) -0.0072(7)
C11 0.0197(8) 0.0147(7) 0.0235(8) 0.0010(6) -0.0059(6) -0.0032(6)
C12 0.0273(9) 0.0229(8) 0.0246(9) 0.0029(6) -0.0116(7) -0.0059(7)
C13 0.0347(9) 0.0265(9) 0.0190(8) 0.0023(7) -0.0057(7) -0.0082(7)
loop_
_atom_type_symbol
_atom_type_description
_atom_type_scat_dispersion_real
_atom_type_scat_dispersion_imag
_atom_type_scat_source
C C 0.0033 0.0016 'International Tables Vol C Tables 4.2.6.8 and 6.1.1.4'
H H 0.0000 0.0000 'International Tables Vol C Tables 4.2.6.8 and 6.1.1.4'
N N 0.0061 0.0033 'International Tables Vol C Tables 4.2.6.8 and 6.1.1.4'
S S 0.1246 0.1234 'International Tables Vol C Tables 4.2.6.8 and 6.1.1.4'
loop_
_geom_angle_atom_site_label_1
_geom_angle_atom_site_label_2
_geom_angle_atom_site_label_3
_geom_angle
_geom_angle_site_symmetry_1
_geom_angle_site_symmetry_3
_geom_angle_publ_flag
C5 S1 C4 100.46(7) . . ?
C5 N1 C8 106.08(12) . . ?
C5 N1 C3 127.52(13) . . ?
C8 N1 C3 126.38(12) . . ?
C5 N2 C11 104.07(12) . . ?
N1 C3 C7 113.23(12) . . ?
C10 C4 S1 115.25(11) . . ?
N2 C5 N1 113.95(13) . . ?
N2 C5 S1 124.29(12) . . ?
N1 C5 S1 121.76(12) . . ?
C9 C6 C8 115.94(15) . . ?
C10 C7 C3 115.41(14) . . ?
N1 C8 C6 131.56(14) . . ?
N1 C8 C11 105.40(13) . . ?
C6 C8 C11 123.02(14) . . ?
C6 C9 C13 121.99(15) . . ?
C7 C10 C4 115.41(14) . . ?
N2 C11 C12 129.77(14) . . ?
N2 C11 C8 110.49(13) . . ?
C12 C11 C8 119.71(14) . . ?
C13 C12 C11 117.62(15) . . ?
C12 C13 C9 121.72(15) . . ?
loop_
_geom_bond_atom_site_label_1
_geom_bond_atom_site_label_2
_geom_bond_distance
_geom_bond_site_symmetry_2
_geom_bond_publ_flag
S1 C5 1.7473(15) . ?
S1 C4 1.8256(17) . ?
N1 C5 1.371(2) . ?
N1 C8 1.384(2) . ?
N1 C3 1.4616(19) . ?
N2 C5 1.320(2) . ?
N2 C11 1.390(2) . ?
C3 C7 1.527(2) . ?
C4 C10 1.521(2) . ?
C6 C9 1.383(2) . ?
C6 C8 1.398(2) . ?
C7 C10 1.527(2) . ?
C8 C11 1.402(2) . ?
C9 C13 1.400(2) . ?
C11 C12 1.403(2) . ?
C12 C13 1.381(2) . ?
