#------------------------------------------------------------------------------
#$Date: 2020-07-29 02:07:15 +0300 (Wed, 29 Jul 2020) $
#$Revision: 254627 $
#$URL: file:///home/coder/svn-repositories/cod/cif/4/03/86/4038621.cif $
#------------------------------------------------------------------------------
#
# This file is available in the Crystallography Open Database (COD),
# http://www.crystallography.net/
#
# All data on this site have been placed in the public domain by the
# contributors.
#
data_4038621
loop_
_publ_author_name
'Lyu, Xue-Li'
'Huang, Shi-Sheng'
'Huang, Yuan-Qiong'
'Li, Yongqiang'
'Song, Hong-Jian'
'Liu, Yuxiu'
'Wang, Qingmin'
_publ_section_title
;
 Rhodium(III)-Catalyzed Direct Coupling of Quinoline-8-Carbaldehydes with
 (Het)Arylboronic Acids for the Synthesis of 8-Aryloylquinolines.
;
_journal_name_full               'The Journal of organic chemistry'
_journal_paper_doi               10.1021/acs.joc.0c01490
_journal_year                    2020
_chemical_formula_sum            'C2.75 H1.88 N0.12 O0.12'
_chemical_formula_weight         38.67
_space_group_crystal_system      monoclinic
_space_group_IT_number           4
_space_group_name_Hall           'P 2yb'
_space_group_name_H-M_alt        'P 1 21 1'
_atom_sites_solution_hydrogens   geom
_audit_creation_method           SHELXL-2018/3
_cell_angle_alpha                90
_cell_angle_beta                 97.411(3)
_cell_angle_gamma                90
_cell_formula_units_Z            16
_cell_length_a                   7.6652(3)
_cell_length_b                   10.2251(3)
_cell_length_c                   10.0678(4)
_cell_measurement_reflns_used    8485
_cell_measurement_temperature    123(2)
_cell_measurement_theta_max      32.9070
_cell_measurement_theta_min      2.0300
_cell_volume                     782.50(5)
_computing_cell_refinement       'CrystalClear (Rigaku Inc., 2008)'
_computing_data_collection       'CrystalClear (Rigaku Inc., 2008)'
_computing_data_reduction        'CrysAlisPro 1.171.39.46 (Rigaku OD, 2018)'
_computing_molecular_graphics    'Bruker SHELXTL'
_computing_publication_material  'Bruker SHELXTL'
_computing_structure_refinement  'SHELXL-2018/3 (Sheldrick, 2018)'
_computing_structure_solution    'ShelXS (Sheldrick, 2008)'
_diffrn_ambient_temperature      123(2)
_diffrn_measured_fraction_theta_full 0.999
_diffrn_measured_fraction_theta_max 0.999
_diffrn_measurement_device_type  'Rigaku Saturn 70 CCD'
_diffrn_measurement_method       '\w scans'
_diffrn_radiation_type           MoK\a
_diffrn_radiation_wavelength     0.71073
_diffrn_reflns_av_R_equivalents  0.0316
_diffrn_reflns_av_unetI/netI     0.0317
_diffrn_reflns_Laue_measured_fraction_full 0.999
_diffrn_reflns_Laue_measured_fraction_max 0.999
_diffrn_reflns_limit_h_max       9
_diffrn_reflns_limit_h_min       -9
_diffrn_reflns_limit_k_max       12
_diffrn_reflns_limit_k_min       -12
_diffrn_reflns_limit_l_max       12
_diffrn_reflns_limit_l_min       -12
_diffrn_reflns_number            8399
_diffrn_reflns_point_group_measured_fraction_full 0.998
_diffrn_reflns_point_group_measured_fraction_max 0.997
_diffrn_reflns_theta_full        25.242
_diffrn_reflns_theta_max         26.370
_diffrn_reflns_theta_min         2.040
_diffrn_standards_decay_%        0
_diffrn_standards_interval_count 0
_diffrn_standards_interval_time  0
_diffrn_standards_number         0
_exptl_absorpt_coefficient_mu    0.080
_exptl_absorpt_correction_T_max  1.00000
_exptl_absorpt_correction_T_min  0.83590
_exptl_absorpt_correction_type   multi-scan
_exptl_absorpt_process_details
;
CrysAlisPro 1.171.39.46 (Rigaku Oxford Diffraction, 2018)
Empirical absorption correction using spherical harmonics,
 implemented in SCALE3 ABSPACK scaling algorithm.
;
_exptl_crystal_colour            colourless
_exptl_crystal_density_diffrn    1.313
_exptl_crystal_description       plate
_exptl_crystal_F_000             324
_exptl_crystal_size_max          0.200
_exptl_crystal_size_mid          0.180
_exptl_crystal_size_min          0.150
_refine_diff_density_max         0.159
_refine_diff_density_min         -0.127
_refine_diff_density_rms         0.032
_refine_ls_abs_structure_details
;
 Flack x determined using 1346 quotients [(I+)-(I-)]/[(I+)+(I-)]
 (Parsons, Flack and Wagner, Acta Cryst. B69 (2013) 249-259).
;
_refine_ls_abs_structure_Flack   1.5(7)
_refine_ls_extinction_coef       0.082(11)
_refine_ls_extinction_expression Fc^*^=kFc[1+0.001xFc^2^\l^3^/sin(2\q)]^-1/4^
_refine_ls_extinction_method     'SHELXL-2018/3 (Sheldrick 2018)'
_refine_ls_goodness_of_fit_ref   1.001
_refine_ls_hydrogen_treatment    constr
_refine_ls_matrix_type           full
_refine_ls_number_parameters     218
_refine_ls_number_reflns         3196
_refine_ls_number_restraints     1
_refine_ls_restrained_S_all      1.001
_refine_ls_R_factor_all          0.0334
_refine_ls_R_factor_gt           0.0317
_refine_ls_shift/su_max          0.000
_refine_ls_shift/su_mean         0.000
_refine_ls_structure_factor_coef Fsqd
_refine_ls_weighting_details
'w=1/[\s^2^(Fo^2^)+(0.0563P)^2^+0.0289P] where P=(Fo^2^+2Fc^2^)/3'
_refine_ls_weighting_scheme      calc
_refine_ls_wR_factor_gt          0.0834
_refine_ls_wR_factor_ref         0.0855
_reflns_Friedel_coverage         0.886
_reflns_Friedel_fraction_full    0.995
_reflns_Friedel_fraction_max     0.995
_reflns_number_gt                3056
_reflns_number_total             3196
_reflns_threshold_expression     'I > 2\s(I)'
_cod_data_source_file            jo0c01490_si_001.cif
_cod_data_source_block           r20190919b
_cod_original_sg_symbol_H-M      'P 21'
_cod_database_code               4038621
_shelx_shelxl_version_number     2018/3
_shelx_space_group_comment
;
The symmetry employed for this shelxl refinement is uniquely defined
by the following loop, which should always be used as a source of
symmetry information in preference to the above space-group names.
They are only intended as comments.
;
_shelx_estimated_absorpt_t_min   0.984
_shelx_estimated_absorpt_t_max   0.988
_shelx_res_file
;
TITL r20190919b in P2(1)
    r20190919b.res
    created by SHELXL-2018/3 at 10:40:26 on 19-Sep-2019
CELL 0.71073   7.6652  10.2251  10.0678  90.000  97.411  90.000
ZERR   16.00   0.0003   0.0003   0.0004   0.000   0.003   0.000
LATT -1
SYMM -X, 0.5+Y, -Z
SFAC C  H  N  O
UNIT 44 30 2 2
acta
conf
htab
temp -150
size 0.20 0.18 0.15
L.S. 4
BOND $h
FMAP 2
PLAN 20
WGHT    0.056300    0.028900
EXTI    0.081905
FVAR       0.43758
MOLE 1
O1    4   -0.231019    0.355559    0.206025    11.00000    0.03171    0.02332 =
         0.04593    0.00248   -0.00195    0.00449
N1    3   -0.074989    0.021784    0.105619    11.00000    0.02083    0.02688 =
         0.02647   -0.00149    0.00381    0.00138
C1    1   -0.025986   -0.080574    0.040756    11.00000    0.02451    0.03246 =
         0.02785   -0.00258    0.00313    0.00449
AFIX  43
H1    2    0.087998   -0.079030    0.013279    11.00000   -1.20000
AFIX   0
C2    1   -0.130552   -0.192675    0.008966    11.00000    0.03651    0.02557 =
         0.02610   -0.00334    0.00113    0.00791
AFIX  43
H2    2   -0.086585   -0.264654   -0.036291    11.00000   -1.20000
AFIX   0
C3    1   -0.296359   -0.195241    0.044781    11.00000    0.03481    0.02197 =
         0.02724   -0.00027   -0.00063   -0.00250
AFIX  43
H3    2   -0.369298   -0.269708    0.025316    11.00000   -1.20000
AFIX   0
C4    1   -0.358708   -0.086042    0.111152    11.00000    0.02469    0.02379 =
         0.02132    0.00302    0.00023   -0.00154
C5    1   -0.241945    0.020223    0.141842    11.00000    0.02058    0.02222 =
         0.01961    0.00227    0.00190    0.00115
C6    1   -0.301403    0.131841    0.207822    11.00000    0.02030    0.02498 =
         0.02030    0.00106    0.00190    0.00213
C7    1   -0.473341    0.137338    0.232516    11.00000    0.02516    0.03247 =
         0.02477   -0.00069    0.00368    0.00392
AFIX  43
H7    2   -0.514438    0.213882    0.272042    11.00000   -1.20000
AFIX   0
C8    1   -0.589878    0.032727    0.200832    11.00000    0.02134    0.04014 =
         0.02843    0.00298    0.00625   -0.00174
AFIX  43
H8    2   -0.707695    0.038547    0.220190    11.00000   -1.20000
AFIX   0
C9    1   -0.533861   -0.077750    0.142022    11.00000    0.02457    0.03368 =
         0.02877    0.00508    0.00152   -0.00752
AFIX  43
H9    2   -0.612426   -0.148960    0.121863    11.00000   -1.20000
AFIX   0
C10   1   -0.184899    0.246642    0.246919    11.00000    0.02465    0.02211 =
         0.02448   -0.00146    0.00749    0.00360
C11   1   -0.020089    0.228764    0.340978    11.00000    0.02227    0.02157 =
         0.02180   -0.00137    0.00509    0.00097
C12   1    0.020615    0.112047    0.409584    11.00000    0.02406    0.01887 =
         0.02692   -0.00251    0.00616   -0.00245
AFIX  43
H12   2   -0.058290    0.040157    0.396939    11.00000   -1.20000
AFIX   0
C13   1    0.175864    0.100477    0.496230    11.00000    0.02707    0.01938 =
         0.02581    0.00197    0.00503    0.00090
AFIX  43
H13   2    0.202108    0.020247    0.542072    11.00000   -1.20000
AFIX   0
C14   1    0.294664    0.204646    0.517489    11.00000    0.02512    0.02341 =
         0.02155   -0.00233    0.00652   -0.00052
C15   1    0.249094    0.323268    0.451788    11.00000    0.02669    0.02100 =
         0.03064   -0.00123    0.00441   -0.00498
AFIX  43
H15   2    0.325436    0.396457    0.466796    11.00000   -1.20000
AFIX   0
C16   1    0.094672    0.334621    0.365707    11.00000    0.02790    0.01983 =
         0.02869    0.00242    0.00566   -0.00012
AFIX  43
H16   2    0.065843    0.415808    0.322488    11.00000   -1.20000
AFIX   0
C17   1    0.467557    0.187948    0.601697    11.00000    0.02537    0.02321 =
         0.02339   -0.00483    0.00356   -0.00048
C18   1    0.487011    0.099994    0.708622    11.00000    0.03201    0.02285 =
         0.02790   -0.00184    0.00276   -0.00160
AFIX  43
H18   2    0.387919    0.052386    0.730017    11.00000   -1.20000
AFIX   0
C19   1    0.650222    0.081511    0.784049    11.00000    0.04058    0.02487 =
         0.02866   -0.00150   -0.00283    0.00370
AFIX  43
H19   2    0.662058    0.020827    0.856102    11.00000   -1.20000
AFIX   0
C20   1    0.795658    0.150930    0.754895    11.00000    0.03117    0.03167 =
         0.03309   -0.01131   -0.00561    0.00600
AFIX  43
H20   2    0.906844    0.138108    0.806892    11.00000   -1.20000
AFIX   0
C21   1    0.778388    0.239054    0.649716    11.00000    0.02477    0.03535 =
         0.03243   -0.00890    0.00404   -0.00223
AFIX  43
H21   2    0.877712    0.287091    0.629466    11.00000   -1.20000
AFIX   0
C22   1    0.615214    0.257224    0.573593    11.00000    0.02904    0.03032 =
         0.02394   -0.00344    0.00316   -0.00422
AFIX  43
H22   2    0.604290    0.317742    0.501401    11.00000   -1.20000

AFIX   0
HKLF 4




REM  r20190919b in P2(1)
REM wR2 = 0.0855, GooF = S = 1.001, Restrained GooF = 1.001 for all data
REM R1 = 0.0317 for 3056 Fo > 4sig(Fo) and 0.0334 for all 3196 data
REM 218 parameters refined using 1 restraints

END

WGHT      0.0423      0.0634

REM Instructions for potential hydrogen bonds
EQIV $1 -x, y-1/2, -z
HTAB C2 N1_$1

REM Highest difference peak  0.159,  deepest hole -0.127,  1-sigma level  0.032
Q1    1  -0.3035 -0.0360  0.1204  11.00000  0.05    0.16
Q2    1   0.3782  0.2025  0.5738  11.00000  0.05    0.15
Q3    1  -0.2422  0.1790  0.2331  11.00000  0.05    0.14
Q4    1  -0.1048  0.2378  0.2972  11.00000  0.05    0.13
Q5    1   0.0767  0.1210  0.4859  11.00000  0.05    0.13
Q6    1   0.4695  0.1563  0.6608  11.00000  0.05    0.13
Q7    1   0.3025  0.2438  0.4599  11.00000  0.05    0.13
Q8    1   0.5171  0.2457  0.6037  11.00000  0.05    0.12
Q9    1   0.1948  0.3109  0.3801  11.00000  0.05    0.12
Q10   1   0.2446  0.2674  0.5218  11.00000  0.05    0.12
Q11   1   0.1380  0.3272  0.4433  11.00000  0.05    0.12
Q12   1   0.0349  0.2779  0.3591  11.00000  0.05    0.12
Q13   1  -0.4312 -0.0929  0.1564  11.00000  0.05    0.12
Q14   1   0.6887  0.2645  0.6290  11.00000  0.05    0.12
Q15   1  -0.0372  0.1898  0.4075  11.00000  0.05    0.11
Q16   1   0.7147  0.2045  0.5788  11.00000  0.05    0.11
Q17   1   0.0008  0.0922  0.1181  11.00000  0.05    0.11
Q18   1   0.0934  0.0248 -0.0299  11.00000  0.05    0.11
Q19   1   0.5525  0.1906  0.5657  11.00000  0.05    0.11
Q20   1  -0.2481  0.0692  0.2071  11.00000  0.05    0.11
;
_shelx_res_checksum              6270
_shelx_hkl_file
;
   0   0   1    3.33    0.14
   0   0   1    3.30    0.15
   0   0  -1    3.55    0.16
   0   0  -1    3.60    0.15
   0   0   2   31.85    0.65
   0   0   2   32.57    0.61
   0   0  -2   32.80    0.69
   0   0   3  103.25    1.34
   0   0  -3  105.02    1.51
   0   0  -3  103.58    1.37
   0   0   4   31.40    0.92
   0   0  -4   33.83    0.92
   0   0  -5   69.55    1.50
   0   0   5   65.57    1.50
   0   0  -6    1.28    0.23
   0   0   6    1.66    0.26
   0   0  -7   24.96    1.09
   0   0   7   25.83    1.13
   0   0   8   27.44    1.26
   0   0  -8   27.86    1.26
   0   0   9   21.71    1.20
   0   0  -9   20.67    1.16
   0   0  10    1.07    0.31
   0   0 -10    0.84    0.26
   0   0  11   14.44    1.16
   0   0 -11   18.42    1.24
   0   0  12    1.38    0.40
   0   0 -12    1.36    0.41
   0  -1   0    0.00    0.01
   0  -1   0    0.03    0.02
   0   1   0    0.03    0.02
   0  -1   0   -0.01    0.02
   0   1   0    0.01    0.01
   0   1   0    0.00    0.01
   0  -1  -1   83.26    0.89
   0  -1   1   86.44    0.76
   0  -1  -1   89.47    0.69
   0  -1  -1   83.55    1.04
   0   1  -1   86.05    0.66
   0  -1   1   87.68    1.10
   0   1  -1   79.62    1.07
   0   1   1   79.22    1.01
   0  -1   1   82.80    0.66
   0   1  -1   86.75    0.75
   0   1  -2  472.14    3.21
   0  -1  -2  463.19    2.57
   0  -1  -2  463.54    3.07
   0   1   2  463.97    2.94
   0   1   2  456.95    2.54
   0   1  -2  470.01    2.35
   0  -1   3  358.53    2.50
   0  -1   3  347.25    2.62
   0   1   3  329.79    2.89
   0   1  -3  362.46    2.53
   0  -1  -3  348.40    2.66
   0  -1  -3  338.73    2.99
   0  -1  -3  349.83    1.43
   0   1  -3  332.17    2.62
   0   1   3  353.23    2.64
   0  -1  -4   54.62    0.56
   0   1  -4   58.20    1.18
   0  -1  -4   56.89    1.23
   0  -1   4   58.33    1.25
   0   1   4   56.66    1.34
   0   1  -5   16.01    0.71
   0  -1  -5   17.19    0.29
   0  -1   5   15.17    0.72
   0  -1  -5   16.76    0.75
   0   1   5   18.11    0.82
   0   1   5   18.45    0.29
   0   1  -6    7.08    0.52
   0  -1   6    6.42    0.53
   0   1   6    6.78    0.55
   0  -1  -6    6.29    0.51
   0  -1   7    4.62    0.48
   0   1  -7    4.33    0.46
   0   1   7    5.29    0.52
   0  -1  -7    3.88    0.45
   0  -1   8   40.21    1.53
   0   1   8   38.43    1.51
   0   1  -8   41.89    1.50
   0  -1  -8   38.61    1.50
   0  -1  -9    2.30    0.40
   0   1  -9    2.51    0.40
   0   1   9    1.45    0.33
   0  -1   9    2.73    0.44
   0   1  10   16.56    1.15
   0   1 -10   13.12    0.96
   0  -1 -10   15.42    1.10
   0  -1  10   14.18    1.05
   0  -1 -11    3.63    0.59
   0   1 -11    3.31    0.54
   0   1  11    1.96    0.43
   0   1  12   -0.01    0.16
   0  -1 -12    0.65    0.33
   0   1 -12    0.47    0.33
   0   1 -12    0.19    0.18
   0   2   0  245.31    1.62
   0   2   0  235.61    1.59
   0   2   0  226.02    1.89
   0  -2   0  225.19    1.51
   0  -2   0  240.98    1.59
   0   2   1  617.96    3.46
   0   2  -1  621.82    3.43
   0  -2  -2  323.70    2.43
   0  -2  -2  302.72    2.41
   0  -2   2  305.42    2.92
   0   2  -2  300.84    2.90
   0  -2   2  286.99    1.68
   0   2  -2  285.86    1.92
   0   2   2  304.71    2.78
   0  -2  -2  318.63    1.85
   0  -2   2  301.86    2.03
   0  -2  -2  306.49    2.78
   0  -2   3  273.15    1.64
   0   2  -3  296.27    2.32
   0  -2  -3  263.95    2.53
   0   2   3  288.70    3.00
   0  -2  -3  293.08    1.83
   0   2  -3  273.31    1.69
   0   2  -3  256.02    3.05
   0   2   3  294.65    1.82
   0  -2   3  277.41    2.29
   0   2  -4  113.30    1.66
   0  -2   4  108.44    0.99
   0   2   4  110.61    1.14
   0   2   4  107.36    2.02
   0  -2  -4  108.02    1.12
   0   2  -4  109.97    2.22
   0  -2  -4  103.55    1.76
   0   2  -4  101.30    1.00
   0   2  -5   38.63    1.46
   0   2   5   41.30    1.34
   0   2  -5   40.16    0.59
   0  -2  -5   42.42    1.24
   0  -2   5   42.48    0.58
   0   2   5   44.18    0.73
   0   2  -5   38.85    1.09
   0  -2  -5   42.22    0.69
   0  -2   6   23.76    0.37
   0  -2  -6   21.47    0.97
   0  -2   6   21.38    0.37
   0   2  -6   21.94    1.20
   0   2  -6   21.36    0.88
   0   2   6   21.58    1.03
   0  -2  -6   22.44    0.49
   0   2  -7   19.73    0.93
   0   2   7   20.43    1.08
   0   2  -7   20.35    1.26
   0  -2  -7   18.16    0.97
   0  -2  -7   20.64    0.42
   0   2   8    2.12    0.38
   0   2  -8    1.93    0.45
   0  -2  -8    2.27    0.37
   0   2  -8    2.32    0.35
   0   2  -9    1.70    0.32
   0   2  -9    0.99    0.33
   0   2   9    1.53    0.35
   0  -2  -9    1.42    0.34
   0  -2 -10   29.09    1.53
   0   2 -10   30.04    1.88
   0   2  10   30.13    1.55
   0   2 -10   30.09    1.44
   0   2 -11   13.37    1.34
   0  -2 -11   13.64    1.12
   0   2 -11   11.97    0.97
   0   2  11   12.33    1.05
   0   2 -12   12.93    1.07
   0  -2 -12   13.08    1.17
   0   2 -12   17.17    1.65
   0   2  12   16.12    1.30
   0   3   0   -0.05    0.07
   0   3   0    0.00    0.05
   0  -3   0    0.08    0.04
   0  -3   0   -0.04    0.06
   0   3   1  175.80    2.20
   0   3  -1  170.13    2.07
   0   3  -1  172.24    1.61
   0  -3  -1  172.13    1.79
   0  -3  -1  180.46    2.14
   0  -3   1  165.57    1.51
   0   3  -1  174.93    1.69
   0   3   1  177.24    1.69
   0  -3   1  163.40    2.11
   0  -3   1  183.78    1.68
   0   3   1  177.34    1.89
   0   3   2   72.01    1.53
   0   3   2   78.38    1.14
   0   3   2   67.57    1.32
   0  -3   2   77.79    1.12
   0   3  -2   78.67    1.12
   0   3  -2   72.40    1.55
   0  -3  -2   73.22    1.09
   0  -3   2   71.26    1.03
   0   3  -2   72.50    1.06
   0  -3   3   72.65    1.05
   0   3   3   73.20    1.69
   0   3  -3   81.22    1.14
   0   3   3   75.87    1.13
   0   3  -3   71.36    1.18
   0   3  -3   75.68    1.77
   0  -3   3   77.12    1.27
   0  -3  -3   76.23    1.46
   0  -3  -3   72.94    1.11
   0   3  -4  134.55    1.83
   0  -3   4  129.62    1.38
   0   3  -4  142.81    2.70
   0  -3  -4  140.58    2.18
   0  -3  -4  139.88    1.54
   0   3   4  149.42    2.56
   0   3   4  146.01    1.61
   0   3  -5   10.35    0.39
   0  -3  -5   10.23    0.64
   0  -3  -5   10.63    0.42
   0   3   5    9.97    0.44
   0   3  -5    9.67    0.54
   0  -3   5   10.41    0.39
   0   3   5    9.78    0.71
   0   3  -5   10.81    0.81
   0   3  -6   25.12    1.33
   0   3  -6   26.39    0.98
   0   3   6   26.85    1.24
   0   3  -6   28.27    0.62
   0  -3  -6   28.39    1.15
   0  -3   6   28.57    0.62
   0   3   6   28.58    0.73
   0  -3  -6   28.11    0.69
   0   3   7    3.05    0.44
   0  -3  -7    3.03    0.23
   0   3  -7    3.15    0.54
   0  -3   7    3.51    0.19
   0  -3  -7    3.33    0.44
   0  -3   7    3.30    0.19
   0   3  -7    3.30    0.38
   0   3  -8    5.53    0.76
   0   3   8    5.63    0.63
   0  -3  -8    4.84    0.57
   0  -3  -8    6.05    0.29
   0   3  -8    5.57    0.53
   0   3   9   10.88    0.93
   0   3  -9    9.86    0.76
   0   3  -9   10.42    1.06
   0  -3  -9   10.98    0.90
   0   3 -10    4.29    0.54
   0   3  10    5.55    0.70
   0  -3 -10    4.75    0.64
   0   3 -10    5.06    0.81
   0   3 -11    3.24    0.71
   0   3 -11    2.95    0.48
   0  -3 -11    4.13    0.64
   0   3  11    2.78    0.53
   0  -3 -12    0.47    0.29
   0   3 -12   -0.04    0.21
   0   3  12    0.27    0.22
   0   3 -12    0.05    0.30
   0   4   0   83.60    1.37
   0   4   0   80.45    1.63
   0  -4   1    1.24    0.16
   0   4   1    1.27    0.21
   0  -4   1    1.18    0.15
   0   4  -1    1.11    0.15
   0  -4  -1    1.20    0.17
   0   4  -1    1.02    0.19
   0   4   1    0.87    0.16
   0  -4  -2   40.75    0.95
   0   4   2   40.56    1.13
   0   4  -2   38.00    0.89
   0   4  -2   38.94    1.21
   0  -4   2   39.51    0.90
   0   4   2   37.56    1.23
   0   4   3   35.81    1.30
   0   4  -3   36.34    0.90
   0  -4  -3   38.04    0.92
   0   4  -3   34.41    1.26
   0  -4   3   38.27    0.89
   0  -4  -4   84.24    1.38
   0  -4  -4   84.15    1.79
   0   4   4   81.38    2.09
   0   4  -4   82.93    1.47
   0  -4   4   86.62    1.34
   0   4  -4   80.58    2.10
   0   4  -5   35.25    1.03
   0   4  -5   33.84    1.50
   0  -4  -5   35.29    0.90
   0  -4  -5   33.94    1.23
   0   4   5   36.05    1.45
   0  -4   5   35.71    0.85
   0   4  -6    6.34    0.71
   0   4  -6    5.14    0.44
   0  -4   6    5.58    0.33
   0  -4  -6    5.56    0.36
   0   4   6    6.24    0.64
   0  -4  -6    6.19    0.57
   0  -4  -7    9.14    0.46
   0   4  -7    8.60    0.61
   0  -4  -7    9.92    0.76
   0  -4   7    9.58    0.42
   0   4   7    8.62    0.79
   0   4  -7    8.00    0.85
   0  -4  -8    6.22    0.65
   0   4  -8    4.65    0.69
   0  -4   8    5.38    0.29
   0   4  -8    5.05    0.51
   0  -4  -8    5.79    0.36
   0   4  -9    2.24    0.37
   0   4   9    2.58    0.47
   0  -4  -9    3.11    0.51
   0   4  -9    2.60    0.57
   0   4 -10   13.79    0.93
   0  -4 -10   14.81    1.14
   0   4  10   13.36    1.14
   0   4 -10   14.02    1.35
   0  -4 -11    7.27    0.87
   0   4 -11    7.24    1.03
   0   4 -11    6.63    0.69
   0   4  11    7.38    0.87
   0   5   0   -0.01    0.04
   0   5   0   -0.05    0.08
   0  -5   0    0.15    0.08
   0  -5   1   25.63    0.82
   0   5  -1   23.62    0.79
   0   5   1   23.27    0.87
   0   5   1   22.31    1.00
   0  -5  -1   24.18    0.81
   0   5  -1   22.76    0.99
   0   5   2   34.66    1.14
   0   5   2   37.03    1.34
   0   5  -2   36.70    0.99
   0   5  -2   36.66    1.29
   0  -5   2   38.52    1.01
   0  -5  -2   38.00    1.02
   0  -5  -3   68.01    1.37
   0   5   3   66.83    1.69
   0   5  -3   66.00    1.85
   0   5   3   62.05    1.86
   0  -5   3   67.54    1.34
   0   5  -3   64.87    1.34
   0  -5   4   68.83    1.34
   0  -5  -4   68.36    1.38
   0   5  -4   65.19    1.38
   0  -5  -4   67.45    1.70
   0   5  -4   65.97    2.01
   0   5   4   66.18    2.02
   0  -5  -5    1.32    0.20
   0   5   5    1.44    0.32
   0   5  -5    1.34    0.31
   0  -5  -5    0.86    0.22
   0  -5   5    1.68    0.22
   0   5  -5    1.48    0.23
   0   5  -6   10.20    0.61
   0   5  -6   11.09    0.95
   0  -5  -6   10.24    0.76
   0   5   6   10.55    0.89
   0  -5   6   11.95    0.55
   0  -5  -6   11.36    0.57
   0   5  -7    9.12    0.62
   0  -5  -7    7.82    0.71
   0   5   7    8.51    0.84
   0   5  -7    6.97    0.78
   0  -5   7    8.52    0.47
   0  -5  -7    8.41    0.49
   0   5   8    1.98    0.44
   0  -5  -8    1.76    0.24
   0  -5   8    1.92    0.22
   0   5  -8    1.87    0.42
   0  -5  -8    2.52    0.46
   0   5  -8    1.58    0.28
   0   5   9    2.71    0.51
   0   5  -9    2.21    0.36
   0   5  -9    2.38    0.55
   0  -5  -9    2.17    0.42
   0   5 -10    2.48    0.41
   0   5  10    3.23    0.58
   0  -5 -10    1.73    0.40
   0   5 -10    2.12    0.56
   0   5 -11    2.03    0.58
   0   5  11    2.63    0.57
   0   5 -11    2.19    0.40
   0  -5 -11    2.11    0.48
   0   6   0    6.24    0.48
   0   6   0    7.11    0.61
   0  -6   0    6.68    0.48
   0   6   1    3.14    0.42
   0  -6   1    3.75    0.36
   0   6  -1    2.93    0.40
   0  -6  -1    2.98    0.32
   0   6   1    2.87    0.33
   0   6  -1    2.98    0.32
   0  -6   2    6.03    0.44
   0   6  -2    5.44    0.42
   0  -6  -2    6.95    0.48
   0   6   2    5.67    0.58
   0   6  -2    6.43    0.60
   0   6   2    5.47    0.50
   0   6   3   16.84    1.05
   0  -6   3   18.29    0.79
   0   6  -3   16.81    0.74
   0   6  -3   18.08    1.04
   0   6   3   17.07    0.92
   0  -6  -3   18.44    0.79
   0  -6  -4   37.30    1.37
   0  -6   4   37.41    1.10
   0  -6  -4   34.13    1.08
   0   6  -4   36.55    1.55
   0   6   4   36.88    1.60
   0   6  -4   35.91    1.10
   0  -6  -5   21.61    1.09
   0   6  -5   21.51    0.87
   0  -6   5   22.70    0.85
   0   6   5   22.95    1.33
   0  -6  -5   22.95    0.90
   0   6  -5   22.79    1.31
   0  -6  -6    3.43    0.46
   0   6  -6    4.58    0.43
   0   6  -6    3.83    0.59
   0  -6  -6    4.34    0.39
   0  -6   6    4.11    0.36
   0   6   6    3.80    0.57
   0   6  -7    3.71    0.60
   0  -6  -7    4.53    0.41
   0  -6  -7    3.87    0.53
   0   6  -7    4.36    0.44
   0   6   7    4.05    0.61
   0  -6   7    4.28    0.36
   0   6  -8    0.32    0.13
   0  -6   8    0.43    0.14
   0   6  -8    0.04    0.17
   0  -6  -8    0.08    0.12
   0   6   8    0.00    0.12
   0  -6  -8    0.39    0.13
   0  -6  -9    0.63    0.25
   0   6   9    0.72    0.32
   0   6  -9    0.59    0.32
   0   6  -9    0.39    0.17
   0   6  10    0.43    0.27
   0   6 -10    0.10    0.19
   0   6 -10    0.54    0.21
   0  -6 -10    0.04    0.17
   0   6  11    6.48    0.88
   0  -6 -11    6.22    0.85
   0   6 -11    4.21    0.81
   0   6 -11    5.76    0.64
   0   7   0    0.02    0.10
   0  -7   0    0.12    0.11
   0   7   0    0.02    0.07
   0  -7   1   12.11    0.69
   0   7   1   12.54    0.77
   0   7  -1   12.86    0.90
   0  -7  -1   12.57    0.70
   0   7   1   10.92    0.84
   0   7  -1   11.62    0.68
   0   7   2    8.52    0.67
   0  -7  -2    7.55    0.55
   0  -7   2    9.10    0.59
   0   7  -2    8.73    0.57
   0   7  -2    6.92    0.68
   0   7   2    6.45    0.66
   0   7   3   11.15    0.80
   0   7  -3   11.78    0.67
   0   7  -3   10.83    0.87
   0   7   3   12.08    0.95
   0  -7   3   12.92    0.71
   0  -7  -3   12.02    0.68
   0   7  -4    8.83    0.80
   0  -7  -4    7.49    0.55
   0   7   4    7.87    0.79
   0   7  -4    7.60    0.54
   0  -7  -4    8.63    0.69
   0  -7   4    6.79    0.51
   0  -7  -5   13.54    0.90
   0   7  -5   13.04    0.73
   0  -7  -5   13.17    0.74
   0   7   5   14.24    1.11
   0   7  -5   12.69    1.02
   0  -7   5   14.45    0.74
   0   7  -6   13.13    1.09
   0  -7  -6   13.11    0.73
   0  -7   6   13.38    0.71
   0   7  -6   12.84    0.75
   0  -7  -6   13.77    0.97
   0   7   6   12.13    1.07
   0   7   7    3.07    0.57
   0  -7   7    3.09    0.35
   0   7  -7    3.44    0.60
   0  -7  -7    3.32    0.38
   0   7  -7    2.75    0.37
   0  -7  -7    3.19    0.49
   0   7   8    6.22    0.81
   0  -7   8    6.59    0.50
   0  -7  -8    7.43    0.79
   0   7  -8    6.26    0.57
   0  -7  -8    5.62    0.50
   0   7  -8    6.50    0.86
   0   7   9    6.81    0.90
   0   7  -9    4.85    0.53
   0  -7  -9    7.11    0.85
   0   7 -10    0.50    0.31
   0  -7 -10    0.60    0.31
   0   7  10    0.21    0.22
   0   7 -10    0.66    0.24
   0   8   0    3.48    0.42
   0   8   0    2.66    0.44
   0  -8   0    4.23    0.45
   0  -8   1   94.39    2.05
   0   8   1   97.30    2.31
   0   8   1   92.64    2.66
   0   8  -1   99.09    2.20
   0  -8  -1   95.26    2.06
   0   8  -1  100.70    2.71
   0   8   2   52.88    1.78
   0   8  -2   55.41    2.02
   0  -8  -2   51.89    1.53
   0   8   2   54.48    2.07
   0  -8   2   57.82    1.58
   0   8  -2   53.13    1.55
   0   8   3    8.69    0.76
   0  -8  -3   10.30    0.69
   0  -8   3    8.84    0.63
   0   8  -3    9.89    0.89
   0   8   3   10.20    0.93
   0   8  -3    9.71    0.66
   0  -8  -4    5.35    0.58
   0   8   4    4.37    0.63
   0  -8   4    5.99    0.52
   0   8  -4    4.85    0.65
   0  -8  -4    5.43    0.51
   0   8  -4    5.65    0.51
   0  -8  -5    0.18    0.16
   0   8   5    0.29    0.22
   0   8  -5    0.34    0.17
   0   8  -5    0.70    0.27
   0  -8  -5    0.19    0.14
   0  -8   5    0.37    0.16
   0  -8  -6   15.63    1.08
   0  -8   6   14.63    0.81
   0   8   6   15.16    1.27
   0   8  -6   15.54    1.24
   0   8  -6   15.46    0.87
   0  -8  -6   15.74    0.87
   0   8  -7   11.56    1.13
   0  -8  -7   10.52    0.93
   0   8  -7   11.05    0.76
   0  -8   7   10.90    0.70
   0  -8  -7   10.28    0.71
   0   8   7   10.61    1.06
   0  -8  -8    0.85    0.24
   0  -8   8    0.74    0.20
   0   8  -8    1.00    0.27
   0  -8  -8    1.12    0.36
   0   8   8    0.86    0.32
   0   8  -8    0.30    0.25
   0   8  -9    5.34    0.57
   0  -8  -9    5.16    0.73
   0   8   9    6.69    0.91
   0   8  -9    3.99    0.75
   0   9   0   -0.05    0.16
   0   9   0   -0.05    0.13
   0  -9   0   -0.10    0.11
   0   9   1  105.26    3.04
   0  -9  -1  103.76    2.30
   0   9  -1  106.90    2.46
   0   9   1  104.90    2.59
   0   9  -1  109.88    3.04
   0  -9   1  104.62    2.31
   0  -9  -2   55.70    1.69
   0   9   2   54.28    2.20
   0  -9   2   61.20    1.77
   0   9   2   58.74    2.01
   0   9  -2   58.90    2.25
   0   9  -2   54.39    1.72
   0   9   3    8.31    0.80
   0   9  -3    7.45    0.82
   0   9  -3    8.25    0.67
   0  -9  -3    7.68    0.64
   0  -9   3    7.31    0.62
   0   9   3    7.37    0.86
   0  -9  -4    4.53    0.55
   0   9  -4    5.34    0.53
   0  -9   4    5.21    0.53
   0   9   4    5.80    0.78
   0   9  -4    4.56    0.67
   0  -9  -4    5.01    0.52
   0   9  -5    1.94    0.45
   0   9  -5    1.79    0.32
   0  -9  -5    1.76    0.33
   0  -9   5    2.34    0.35
   0  -9  -5    2.58    0.45
   0   9   5    1.52    0.41
   0  -9  -6    8.68    0.69
   0  -9  -6   10.06    0.90
   0   9  -6    8.29    0.94
   0  -9   6    9.06    0.69
   0   9   6    9.62    1.07
   0   9  -6    8.28    0.68
   0  -9  -7    3.20    0.55
   0  -9   7    2.95    0.40
   0   9  -7    2.54    0.39
   0  -9  -7    2.60    0.39
   0   9   7    2.04    0.50
   0   9  -7    2.78    0.56
   0  -9  -8    1.03    0.36
   0  -9   8    1.29    0.28
   0   9   8    1.10    0.42
   0   9  -8    1.18    0.43
   0  -9  -8    0.47    0.21
   0  10   0   95.77    2.55
   0  10   0   91.77    3.02
   0 -10   0   93.02    2.32
   0  10  -1    4.10    0.52
   0  10   1    4.19    0.65
   0  10  -1    3.89    0.64
   0  10   1    3.20    0.48
   0 -10   1    4.02    0.49
   0 -10  -1    2.91    0.43
   0  10   2   53.81    2.36
   0 -10   2   53.24    1.76
   0  10   2   52.55    2.03
   0 -10  -2   48.42    1.69
   0  10  -2   53.09    1.83
   0  10  -2   50.33    2.25
   0 -10   3    0.13    0.13
   0  10  -3    0.06    0.18
   0  10   3    0.82    0.36
   0  10  -3    0.53    0.21
   0 -10  -3    0.46    0.20
   0  10   3    0.73    0.29
   0 -10  -4    5.06    0.56
   0 -10   4    5.74    0.59
   0  10  -4    4.34    0.70
   0  10  -4    5.69    0.59
   0  10   4    5.74    0.84
   0 -10  -4    5.23    0.65
   0  10   5   13.32    1.29
   0 -10   5   12.96    0.89
   0 -10  -5   12.38    0.87
   0  10  -5   14.01    0.92
   0  10  -5   13.24    1.24
   0 -10  -5   12.37    1.01
   0 -10  -6    6.89    0.66
   0  10  -6    6.98    0.94
   0 -10  -6    7.21    0.79
   0 -10   6    6.95    0.65
   0  10  -6    5.91    0.62
   0  10   6    5.62    0.85
   0 -10  -7    6.74    0.81
   0  10   7    6.49    0.93
   0 -10   7    6.30    0.63
   0  10  -7    5.55    0.85
   0 -10  -7    6.88    0.67
   0 -11   0    0.00    0.13
   0  11   0    0.16    0.20
   0  11   0   -0.08    0.21
   0  11  -1    6.33    0.84
   0  11   1    7.54    0.93
   0 -11  -1    7.16    0.70
   0  11  -1    8.50    0.80
   0  11   1    8.78    0.85
   0 -11   1    7.86    0.72
   0  11   2   23.84    1.45
   0  11  -2   24.68    1.32
   0  11   2   21.71    1.60
   0 -11  -2   21.35    1.20
   0 -11   2   23.64    1.24
   0  11  -2   20.26    1.50
   0  11  -3    6.15    0.86
   0 -11   3    5.67    0.62
   0  11  -3    6.31    0.67
   0  11   3    4.54    0.67
   0 -11  -3    4.54    0.57
   0  11   3    4.09    0.73
   0  11  -4    7.09    0.71
   0  11  -4    5.83    0.85
   0 -11  -4    5.35    0.68
   0  11   4    7.00    0.97
   0 -11   4    6.01    0.65
   0 -11  -4    6.60    0.67
   0  11   5    3.73    0.72
   0  11  -5    3.13    0.47
   0 -11  -5    3.16    0.48
   0 -11   5    3.13    0.46
   0 -11  -5    4.05    0.62
   0  11  -5    3.96    0.70
   0  11  -6    1.74    0.51
   0  11   6    1.66    0.53
   0 -11  -6    0.95    0.36
   0 -11  -6    0.61    0.23
   0 -11   6    0.85    0.26
   0 -12   0   10.51    0.88
   0  12   0   11.44    1.01
   0  12   0   11.28    1.21
   0  12   1    2.62    0.51
   0  12  -1    1.24    0.47
   0  12   1    2.42    0.59
   0 -12   1    2.17    0.41
   0 -12  -1    1.54    0.36
   0  12  -1    2.10    0.43
   0  12  -2    0.68    0.25
   0 -12  -2    0.80    0.28
   0  12   2    0.90    0.42
   0 -12   2    0.62    0.26
   0  12   2    0.44    0.29
   0  12  -2    1.03    0.43
   0  12  -3   10.45    0.90
   0  12   3   12.88    1.36
   0 -12  -3    9.80    0.86
   0 -12   3   11.54    0.92
   0  12  -3   11.20    1.21
   0 -12  -4    7.46    0.76
   0  12  -4    9.42    0.84
   0  12   4    6.02    0.94
   0  12  -4    8.60    1.10
   0 -12  -4    7.94    0.86
   0 -12   4    8.19    0.79
   1   0 -12   16.04    1.18
  -1   0  11    2.01    0.46
   1   0 -11    1.58    0.38
  -1   0  10    8.05    0.80
   1   0 -10    9.96    0.84
  -1   0   9   -0.01    0.12
   1   0  -9    0.29    0.20
   1   0  -8    1.53    0.29
  -1   0   8    1.63    0.32
   1   0  -7    7.78    0.58
  -1   0   7    8.46    0.63
   1   0  -6   12.45    0.65
  -1   0   6   11.85    0.70
   1   0  -5    8.42    0.19
   1   0  -5    8.26    0.48
  -1   0   5    9.40    0.55
   1   0  -5    9.05    0.19
  -1   0   4   47.37    1.10
   1   0  -4   47.13    0.55
   1   0  -4   48.95    1.01
   1   0  -3  261.88    1.99
   1   0  -3  254.72    1.38
   1   0  -3  255.62    2.27
  -1   0   3  257.25    1.37
  -1   0   3  250.48    2.14
   1   0  -2   41.41    0.63
  -1   0   2   42.17    0.57
   1   0  -2   40.00    0.61
   1   0  -2   45.50    0.76
   1   0  -2   42.42    0.57
  -1   0   2   45.77    0.75
   1   0  -1   14.65    0.35
  -1   0   1   14.86    0.28
   1   0  -1   15.26    0.28
   1   0  -1   15.87    0.31
  -1   0   1   14.66    0.34
   1   0   0    6.17    0.23
  -1   0   0    5.77    0.22
  -1   0   0    5.95    0.20
   1   0   0    5.95    0.20
   1   0   1   23.98    0.48
  -1   0  -1   24.44    0.54
  -1   0  -1   22.17    0.48
   1   0   1   23.19    0.44
  -1   0  -1   22.55    0.44
   1   0   1   25.40    0.55
  -1   0  -2 1000.00    4.25
  -1   0  -3  187.75    1.28
  -1   0  -3  186.77    2.21
   1   0   3  197.09    2.12
  -1   0  -3  185.06    2.13
   1   0   3  200.71    1.29
  -1   0  -4    0.40    0.11
   1   0   4    0.35    0.11
  -1   0  -4    0.61    0.07
   1   0   5    0.72    0.17
   1   0   5    1.13    0.09
  -1   0  -5    0.93    0.08
  -1   0  -5    0.90    0.19
   1   0   6   18.07    0.88
  -1   0  -6   18.02    0.91
  -1   0  -7    7.87    0.65
   1   0   7    8.67    0.67
  -1   0  -8   12.30    0.88
   1   0   8   10.59    0.80
   1   0   9    1.06    0.28
  -1   0  -9    0.87    0.27
   1   0  10    1.47    0.37
  -1   0 -10    0.65    0.22
  -1   0 -11   25.52    1.52
   1   0  11   25.56    1.53
   1   0  12    0.74    0.34
  -1   0 -12    1.11    0.36
   1   1 -12    1.50    0.48
   1   1 -12    2.73    0.50
   1  -1 -12    2.01    0.46
  -1   1  12    2.49    0.51
  -1   1  11    1.75    0.42
   1  -1 -11    1.73    0.40
   1   1 -11    1.95    0.40
   1   1 -11    1.82    0.51
  -1   1  10    6.68    0.73
   1  -1 -10    5.74    0.64
   1   1 -10    6.84    0.87
   1   1 -10    5.70    0.61
   1   1  -9    7.17    0.64
  -1   1   9    8.77    0.76
   1  -1  -9    7.44    0.69
   1  -1  -8   21.42    1.06
  -1   1   8   22.45    1.13
  -1  -1   8   23.28    1.14
   1   1  -8   22.46    1.04
  -1  -1   7   25.14    1.11
  -1   1   7   24.14    1.08
   1  -1  -7   26.06    1.08
   1   1  -7   23.21    0.97
   1  -1  -6   64.82    1.54
  -1  -1   6   68.26    1.66
  -1   1   6   67.23    1.67
   1  -1  -6   63.87    0.67
   1   1  -6   65.05    1.46
   1  -1  -6   62.27    0.63
   1   1  -5   22.20    0.76
  -1  -1   5   23.06    0.39
   1  -1  -5   24.48    0.48
   1   1  -5   21.05    0.35
  -1   1   5   24.35    0.91
   1  -1  -5   22.46    0.42
   1  -1  -5   23.17    0.84
  -1  -1   5   24.69    0.89
  -1  -1   4    4.81    0.29
  -1  -1   4    4.35    0.19
   1  -1  -4    4.11    0.20
   1   1  -4    4.97    0.31
   1  -1  -4    4.80    0.34
   1   1  -4    4.12    0.17
   1  -1  -4    4.88    0.21
  -1   1   4    4.02    0.34
   1  -1  -3  148.93    1.69
   1  -1  -3  145.43    1.64
  -1   1   3  144.48    1.74
   1  -1  -3  153.71    1.22
  -1  -1   3  149.40    1.31
   1  -1  -3  142.27    1.16
   1   1  -3  152.81    1.77
   1   1  -3  139.35    2.10
   1  -1  -3  141.26    1.83
  -1  -1   3  153.47    1.16
   1   1  -3  161.28    1.14
   1   1  -3  146.06    1.34
   1   1  -1  283.32    1.57
   1  -1  -1  274.52    1.58
  -1   1   1  276.98    1.55
   1   1  -1  280.63    2.02
  -1  -1   1  270.83    2.04
   1  -1  -1  290.64    1.72
  -1   1   1  269.34    1.71
   1  -1  -1  277.67    1.61
  -1  -1   1  278.42    1.61
   1   1   0  151.27    1.31
  -1  -1   0  144.55    1.16
  -1  -1   0  135.29    0.91
  -1   1   0  139.44    1.16
   1   1   0  145.14    1.14
  -1   1   0  146.27    1.16
  -1  -1   0  137.72    1.22
   1  -1   0  143.45    1.15
   1  -1   0  148.15    1.20
   1   1   0  143.76    0.91
  -1  -1  -1  253.12    1.56
  -1   1  -1  241.85    1.73
   1   1   1  265.99    2.08
  -1  -1  -1  249.06    1.98
   1  -1   1  240.58    1.82
  -1   1  -1  236.31    1.75
  -1   1  -1  234.72    1.37
   1  -1   1  258.43    1.57
  -1   1  -1  259.13    1.54
  -1  -1  -1  248.26    1.74
   1   1   1  248.51    1.70
   1   1   1  245.35    1.50
   1  -1   2  250.90    1.89
  -1   1  -2  268.26    1.58
  -1   1  -2  255.83    2.17
   1   1   2  257.12    2.38
   1   1   2  273.87    1.59
   1  -1   2  262.34    1.61
  -1  -1  -2  269.80    1.67
  -1  -1  -2  266.12    2.21
  -1   1  -2  260.15    1.93
   1   1   2  255.22    2.11
   1  -1   2  253.40    2.20
  -1  -1  -2  249.74    2.42
   1   1   3  210.32    2.48
   1  -1   3  212.73    2.11
   1  -1   3  219.43    1.41
  -1   1  -3  234.94    2.39
   1   1   3  224.34    1.47
  -1  -1  -3  229.14    1.56
   1  -1   3  222.99    1.50
  -1  -1  -3  207.76    2.27
   1   1   4   99.90    1.88
   1   1   4  106.86    1.01
   1  -1   4  109.50    0.98
  -1   1  -4  107.23    1.82
   1  -1   4   99.04    1.67
  -1  -1  -4  114.03    1.12
  -1  -1  -4   98.59    1.79
   1  -1   5  109.74    0.95
   1  -1   5  115.42    1.02
  -1  -1  -5  110.23    2.09
   1  -1   5  115.62    2.01
  -1  -1  -5  110.35    1.09
   1   1   5  110.63    2.12
   1  -1   6   10.62    0.68
   1  -1   6   10.81    0.24
  -1  -1  -6   10.54    0.31
   1   1   6    9.46    0.28
   1   1   6    9.62    0.69
  -1   1  -6    9.80    0.67
  -1  -1  -6   10.09    0.69
   1  -1   6    9.90    0.23
   1  -1   7    5.55    0.54
  -1   1  -7    4.61    0.50
  -1  -1  -7    4.76    0.52
   1   1   7    4.81    0.51
  -1  -1  -8    5.25    0.60
  -1   1  -8    5.40    0.58
   1  -1   8    4.65    0.54
   1   1   8    4.71    0.56
   1   1   9   37.47    1.64
   1  -1   9   38.58    1.63
  -1   1  -9   39.03    1.63
  -1  -1  -9   38.96    1.69
  -1   1 -10    4.31    0.58
  -1  -1 -10    3.77    0.57
   1   1  10    5.51    0.68
   1  -1  10    4.83    0.63
  -1   1 -11    1.42    0.35
   1   1  11    1.72    0.42
   1  -1  11    2.25    0.47
  -1  -1 -11    2.18    0.47
  -1   1 -12    3.41    0.58
  -1  -1 -12    3.16    0.63
   1   1  12    3.36    0.57
  -1   1 -12    3.51    0.77
   1   2 -12    9.61    0.88
  -1   2  12    9.09    0.97
   1   2 -12    9.34    1.22
   1  -2 -12    9.35    0.96
   1  -2 -11    0.16    0.15
  -1   2  11    0.38    0.24
   1   2 -11    0.05    0.21
   1   2 -11    0.27    0.19
   1   2 -10    2.49    0.53
   1   2 -10    2.29    0.40
  -1   2  10    2.38    0.44
   1  -2 -10    2.98    0.49
  -1   2   9    5.90    0.64
   1  -2  -9    4.19    0.53
   1   2  -9    3.89    0.65
   1   2  -9    5.53    0.55
   1   2  -8    2.28    0.34
   1  -2  -8    1.64    0.10
  -1   2   8    1.93    0.35
   1   2  -8    1.77    0.38
   1  -2  -8    1.79    0.32
  -1   2   7   20.96    1.05
   1   2  -7   21.26    0.90
   1  -2  -7   21.56    0.47
   1  -2  -7   19.43    0.96
   1   2  -7   21.02    1.30
   1  -2  -7   23.39    0.53
   1   2  -6   21.73    1.21
   1   2  -6   20.27    0.79
   1  -2  -6   20.33    0.91
   1   2  -6   19.16    0.42
   1  -2  -6   21.82    0.51
   1  -2  -6   23.98    0.56
  -1  -2   6   21.72    0.46
  -1   2   6   21.15    0.99
   1   2  -5   39.96    1.51
   1  -2  -5   41.22    1.19
  -1  -2   5   42.60    0.69
  -1   2   5   40.36    1.26
   1   2  -5   41.59    1.00
   1   2  -5   39.00    0.64
   1  -2  -5   43.17    0.75
   1  -2  -5   42.86    0.76
   1  -2  -4   55.22    0.86
   1   2  -4   61.90    1.05
  -1  -2   4   60.24    0.83
   1   2  -4   59.70    0.84
  -1  -2   4   61.64    1.02
   1   2  -4   62.76    1.70
   1  -2  -4   66.91    1.37
  -1   2   4   55.84    1.39
   1  -2  -3  370.00    2.24
   1   2  -3  366.71    2.07
  -1   2   3  373.13    3.07
  -1  -2   3  370.64    2.12
   1   2  -3  377.53    2.08
   1   2  -3  347.98    3.63
  -1   2   3  394.46    2.29
  -1   2   3  365.06    3.16
  -1  -2   3  370.60    2.05
  -1   2   2  557.93    3.34
   1  -2  -2  562.26    3.26
  -1  -2   2  538.89    4.05
   1   2  -2  540.21    3.87
   1  -2  -2  568.81    3.53
  -1   2   2  578.96    3.53
   1   2  -2  572.91    2.61
   1   2  -1   31.46    0.41
  -1  -2   1   33.42    0.66
  -1   2   1   33.87    0.67
   1  -2  -1   31.18    0.68
  -1   2   1   32.06    0.70
  -1   2   1   31.96    0.71
   1   2  -1   32.22    0.81
  -1  -2   1   31.68    0.84
   1  -2  -1   34.71    0.73
   1   2  -1   32.53    0.62
   1  -2  -1   32.37    0.65
   1  -2   0   73.62    0.95
   1  -2   0   83.48    1.04
   1  -2   0   74.45    1.02
   1   2   0   80.00    0.99
  -1  -2   0   69.28    1.16
  -1  -2   0   76.31    0.84
  -1  -2   0   69.85    0.96
  -1   2   0   77.08    0.97
  -1   2   0   72.37    0.97
   1   2   0   71.88    1.19
  -1  -2   0   81.25    0.85
  -1   2   0   72.63    1.04
  -1   2  -1   56.95    0.98
   1   2   1   61.13    1.18
   1   2   1   61.28    0.87
  -1   2  -1   64.43    1.01
   1  -2   1   52.27    0.83
   1  -2   1   53.85    1.01
  -1  -2  -1   54.80    0.86
  -1   2  -1   58.45    0.87
  -1  -2  -1   62.05    0.94
   1   2   1   55.48    0.88
  -1  -2  -1   60.32    1.18
   1  -2   1   56.33    0.96
   1   2   2   64.00    1.38
  -1   2  -2   65.09    1.03
   1   2   2   59.21    0.86
  -1  -2  -2   62.95    0.92
  -1  -2  -2   62.61    1.34
   1  -2   2   63.00    1.15
  -1  -2  -2   66.56    1.16
  -1   2  -2   61.50    0.89
   1   2   2   55.49    1.05
  -1   2  -2   60.12    1.09
  -1   2  -2   66.92    1.32
   1  -2   2   61.03    0.89
  -1  -2  -3   61.42    1.27
  -1   2  -3   60.84    1.46
  -1  -2  -3   60.22    0.93
   1   2   3   62.13    0.90
   1  -2   3   60.95    0.89
   1  -2   3   60.89    0.91
   1   2   3   63.88    1.50
  -1   2  -3   61.59    1.24
  -1   2  -4   98.54    2.09
  -1  -2  -4   92.51    1.75
   1   2   4   96.16    1.15
  -1  -2  -4   96.83    1.18
   1  -2   4   91.40    1.09
   1   2   4   96.82    2.01
   1  -2   4   90.31    1.10
  -1   2  -4   88.70    1.66
  -1   2  -5  126.43    2.60
   1  -2   5  112.02    1.16
  -1  -2  -5  121.88    1.38
  -1   2  -5  111.83    2.04
  -1  -2  -5  132.81    2.33
   1   2   5  120.47    2.41
   1   2   5  119.28    1.27
  -1  -2  -6  150.26    2.69
   1   2   6  151.79    2.85
  -1  -2  -6  135.49    1.43
   1  -2   6  142.31    1.29
  -1   2  -6  132.14    2.40
   1  -2   7   13.99    0.30
   1  -2   7   14.69    0.33
   1   2   7   14.95    0.95
  -1  -2  -7   15.79    0.96
  -1   2  -7   14.22    0.85
   1   2   7   12.92    0.41
  -1  -2  -7   15.08    0.46
  -1  -2  -8    1.38    0.11
  -1   2  -8    1.42    0.38
  -1   2  -8    1.48    0.31
  -1  -2  -8    0.87    0.25
   1   2   8    1.72    0.35
  -1  -2  -9    3.16    0.50
   1   2   9    2.52    0.44
  -1   2  -9    4.29    0.53
  -1   2  -9    2.95    0.56
   1   2  10   10.40    0.94
  -1   2 -10    9.60    1.07
  -1   2 -10   10.80    0.90
  -1  -2 -10   12.10    1.02
  -1  -2 -11   13.02    1.13
   1   2  11   12.48    1.08
  -1   2 -11   12.12    1.01
  -1   2 -11   12.93    1.34
  -1   2 -12    5.70    0.74
   1   2  12    6.48    0.83
  -1   2 -12    7.04    1.04
  -1  -2 -12    7.08    0.89
  -1   3  12    7.57    0.91
   1   3 -12    7.82    1.13
   1  -3 -12    7.31    0.88
   1   3 -12    8.85    0.82
  -1   3  11    8.94    0.90
   1   3 -11    7.97    0.72
   1  -3 -11    8.00    0.85
   1   3 -10    6.86    0.64
   1  -3 -10    7.47    0.78
   1   3 -10    7.09    0.92
  -1   3  10    6.71    0.75
   1   3  -9    0.32    0.15
  -1   3   9    0.60    0.25
   1   3  -9    0.98    0.39
   1  -3  -9    0.64    0.25
   1   3  -8    3.59    0.39
   1  -3  -8    2.94    0.43
   1  -3  -8    3.24    0.23
  -1   3   8    2.95    0.46
   1   3  -8    3.74    0.61
  -1  -3   8    3.41    0.17
   1  -3  -7   16.71    0.54
  -1   3   7   15.39    0.95
  -1  -3   7   17.28    0.48
   1  -3  -7   15.51    0.53
   1   3  -7   15.99    0.77
   1   3  -7   16.13    1.16
   1  -3  -7   15.38    0.90
   1   3  -7   15.16    0.46
  -1   3   6   30.41    1.28
   1   3  -6   31.17    0.97
   1   3  -6   30.85    1.50
   1   3  -6   30.60    0.70
   1  -3  -6   34.93    0.80
  -1  -3   6   32.53    0.70
   1  -3  -6   34.56    1.25
  -1   3   5   16.63    0.89
   1  -3  -5   17.87    0.83
   1   3  -5   16.90    0.52
   1   3  -5   17.21    0.63
   1   3  -5   18.47    1.06
   1  -3  -5   18.70    0.58
  -1  -3   5   18.60    0.55
  -1   3   4   28.50    1.08
  -1  -3   4   28.25    0.69
   1   3  -4   28.73    0.70
   1   3  -4   27.71    1.21
   1   3  -4   26.87    0.67
   1  -3  -4   28.87    0.73
  -1  -3   4   27.91    0.72
   1   3  -3  107.19    1.14
  -1  -3   3  102.72    1.32
   1   3  -3  101.19    2.07
  -1  -3   3  101.94    1.19
   1   3  -3  109.78    1.37
  -1   3   3  104.38    1.79
  -1   3   3  106.14    1.93
  -1   3   2   59.63    1.31
  -1   3   2   64.31    1.30
   1  -3  -2   61.75    1.30
   1  -3  -2   56.62    1.01
   1   3  -2   58.79    0.76
   1   3  -2   64.69    1.47
  -1  -3   2   52.73    0.95
  -1  -3   2   60.02    0.76
   1   3  -2   58.73    1.01
  -1   3   1  147.20    1.80
  -1  -3   1  151.91    1.21
   1   3  -1  136.29    2.01
   1   3  -1  143.29    1.27
   1  -3  -1  138.77    1.58
  -1   3   1  140.14    1.83
  -1  -3   1  147.39    1.58
   1  -3  -1  142.31    1.77
   1   3  -1  143.55    1.56
   1   3   0   21.05    0.76
  -1   3   0   20.51    0.64
   1  -3   0   21.62    0.63
   1  -3   0   20.68    0.64
  -1  -3   0   21.35    0.61
  -1  -3   0   19.82    0.73
  -1  -3   0   21.09    0.54
  -1   3   0   20.28    0.65
   1   3   0   20.97    0.56
   1  -3   0   21.35    0.62
   1  -3   1   61.44    1.05
  -1  -3  -1   65.94    1.09
  -1  -3  -1   58.75    1.03
   1  -3   1   62.41    1.26
  -1   3  -1   62.48    1.06
   1   3   1   63.18    1.41
  -1  -3  -1   64.76    1.12
  -1   3  -1   59.07    1.09
  -1   3  -1   63.85    1.20
  -1   3  -2   63.82    1.06
  -1   3  -2   66.50    1.41
   1   3   2   61.88    1.52
  -1  -3  -2   66.51    1.10
  -1  -3  -2   67.88    1.28
  -1   3  -2   59.58    1.14
   1  -3   2   64.55    1.07
  -1   3  -3   62.74    1.07
   1  -3   3   56.49    0.99
  -1  -3  -3   65.36    1.41
   1   3   3   59.22    1.60
  -1  -3  -3   63.48    1.12
  -1   3  -3   60.79    1.59
  -1   3  -3   61.42    1.26
  -1   3  -4   69.75    1.48
  -1   3  -4   64.64    1.81
   1   3   4   64.90    1.78
  -1  -3  -4   67.24    1.55
  -1  -3  -4   69.15    1.15
  -1  -3  -5  103.03    2.11
   1  -3   5   97.66    1.30
   1   3   5  102.12    2.36
  -1   3  -5  105.63    2.51
   1  -3   5   92.40    1.25
  -1  -3  -5   98.47    1.40
  -1   3  -5  103.40    1.96
  -1   3  -6   59.17    2.04
   1  -3   6   57.26    0.94
   1  -3   6   59.91    1.03
  -1  -3  -6   59.34    1.76
   1   3   6   60.39    1.94
  -1  -3  -6   59.27    1.08
  -1   3  -6   57.97    1.58
   1   3   7   12.82    0.94
   1  -3   7   15.22    0.46
  -1  -3  -7   14.59    0.93
  -1   3  -7   15.82    0.90
  -1  -3  -7   15.49    0.56
  -1   3  -7   16.05    1.15
   1  -3   8   26.75    0.48
   1   3   8   25.70    1.36
  -1  -3  -8   26.72    0.69
  -1   3  -8   25.94    1.22
  -1   3  -8   27.02    1.60
  -1  -3  -8   25.52    1.32
   1   3   9   16.40    1.18
  -1   3  -9   15.78    1.01
  -1  -3  -9   16.70    1.17
  -1   3  -9   16.15    1.34
  -1   3 -10    4.20    0.56
  -1   3 -10    3.72    0.67
  -1  -3 -10    5.53    0.71
   1   3  10    5.28    0.71
   1   3  11    8.80    0.94
  -1   3 -11    8.52    0.84
  -1   3 -11    8.78    1.13
  -1  -3 -11    9.72    1.01
  -1   4  11    8.43    0.89
   1   4 -11    7.00    0.66
   1   4 -11    5.74    0.93
   1  -4 -11    8.66    0.92
  -1   4  10    0.38    0.18
   1  -4 -10    0.55    0.27
   1   4 -10    0.98    0.26
   1   4 -10    0.40    0.26
  -1   4   9    1.62    0.39
   1   4  -9    1.84    0.31
   1  -4  -9    1.31    0.33
   1   4  -9    1.82    0.49
   1  -4  -8    1.92    0.36
   1   4  -8    1.85    0.47
  -1  -4   8    1.85    0.19
   1  -4  -8    1.38    0.18
   1   4  -8    1.64    0.28
  -1   4   8    1.36    0.34
   1  -4  -7    5.78    0.36
   1   4  -7    5.49    0.71
  -1   4   7    6.36    0.66
  -1  -4   7    5.20    0.32
   1   4  -7    4.80    0.42
   1  -4  -7    5.67    0.57
   1  -4  -6   32.65    0.90
   1   4  -6   28.94    1.50
  -1   4   6   33.43    1.42
   1  -4  -6   32.45    1.27
   1   4  -6   33.39    0.98
  -1  -4   6   32.32    0.83
  -1  -4   5   67.99    1.22
  -1   4   5   68.78    1.92
   1  -4  -5   67.66    1.26
   1  -4  -5   66.45    1.70
   1   4  -5   66.02    1.23
   1   4  -5   64.83    2.07
  -1  -4   4  164.90    1.89
   1   4  -4  152.38    1.67
  -1   4   4  142.17    2.63
   1   4  -4  169.34    3.03
  -1   4   4  139.48    2.49
  -1  -4   4  153.23    1.79
   1  -4  -4  151.60    1.90
   1  -4  -3    1.04    0.16
  -1   4   3    1.04    0.20
  -1  -4   3    0.98    0.13
   1   4  -3    1.13    0.13
  -1  -4   3    0.99    0.15
  -1   4   3    1.07    0.23
   1   4  -3    1.00    0.24
  -1   4   2   82.20    1.74
  -1  -4   2   80.12    1.05
   1  -4  -2   79.05    1.35
   1   4  -2   77.98    1.08
  -1  -4   2   74.91    1.28
   1   4  -2   81.84    1.80
  -1   4   2   79.10    1.59
   1   4  -1   52.96    0.96
  -1  -4   1   56.05    1.11
  -1  -4   1   55.38    0.90
  -1   4   1   53.52    1.30
   1  -4  -1   56.92    1.13
  -1   4   1   54.53    1.25
   1   4  -1   52.40    1.40
   1   4   0   37.64    1.16
   1   4   0   37.31    0.87
  -1   4   0   39.43    1.06
  -1   4   0   37.78    1.00
  -1  -4   0   39.87    0.94
  -1  -4   0   38.71    0.84
   1  -4   0   40.83    0.96
   1   4   1   34.15    1.17
  -1   4  -1   32.35    1.00
   1  -4   1   34.32    0.88
   1   4   1   32.21    0.90
  -1   4  -1   33.74    0.93
  -1  -4  -1   31.09    0.84
   1  -4   2  133.24    1.75
   1   4   2  127.71    2.38
  -1  -4  -2  133.74    1.75
  -1  -4  -2  141.66    2.00
  -1   4  -2  128.82    2.15
  -1   4  -2  138.65    1.91
   1  -4   3   30.26    0.83
  -1   4  -3   30.48    0.93
  -1  -4  -3   31.37    0.87
  -1   4  -3   30.42    1.16
   1   4   3   30.23    1.25
  -1  -4  -3   30.22    1.01
  -1   4  -4    6.51    0.60
  -1  -4  -4    5.87    0.39
   1  -4   4    7.10    0.40
  -1  -4  -4    5.93    0.49
  -1   4  -4    6.13    0.45
   1   4   4    5.83    0.60
  -1  -4  -5   11.73    0.54
  -1   4  -5   11.08    0.65
  -1   4  -5   10.89    0.85
   1  -4   5   10.81    0.50
  -1  -4  -5   10.29    0.70
   1   4   5   10.44    0.81
  -1   4  -6   18.15    0.88
  -1  -4  -6   18.10    0.99
   1   4   6   18.93    1.16
  -1   4  -6   17.43    1.15
   1  -4   6   18.53    0.63
  -1  -4  -6   19.63    0.71
  -1  -4  -7   14.52    0.61
   1   4   7   13.75    1.03
  -1   4  -7   12.90    1.06
   1  -4   7   12.92    0.51
  -1   4  -7   13.44    0.82
  -1  -4  -7   14.90    0.97
  -1   4  -8   85.79    2.21
  -1  -4  -8   86.11    1.47
   1  -4   8   85.61    1.19
   1   4   8   82.24    2.63
  -1  -4  -8   84.06    2.47
  -1   4  -9   56.52    2.50
  -1   4  -9   54.95    1.88
   1   4   9   53.98    2.18
  -1  -4  -9   52.28    2.07
  -1  -4 -10    9.37    0.96
  -1   4 -10    8.44    1.05
   1   4  10    9.81    0.98
  -1   4 -10   10.36    0.86
  -1   4 -11    2.09    0.57
  -1  -4 -11    1.89    0.45
  -1   4 -11    2.98    0.51
   1   4  11    3.04    0.57
   1  -5 -11    1.34    0.39
   1   5 -11    0.84    0.43
  -1   5  11    0.86    0.33
   1   5 -10    2.78    0.39
   1  -5 -10    2.19    0.48
   1   5 -10    2.68    0.64
  -1   5  10    2.74    0.55
   1  -5  -9    0.65    0.22
  -1   5   9    1.04    0.32
   1   5  -9    0.97    0.24
   1   5  -9    0.75    0.30
   1   5  -8    2.07    0.49
  -1   5   8    2.62    0.46
   1  -5  -8    1.88    0.24
  -1  -5   8    1.94    0.22
   1  -5  -8    2.72    0.44
   1   5  -8    2.23    0.30
  -1  -5   7    1.84    0.24
   1   5  -7    1.76    0.41
   1  -5  -7    1.33    0.31
   1  -5  -7    1.50    0.22
  -1   5   7    1.45    0.35
   1   5  -7    1.61    0.24
  -1  -5   6    8.78    0.49
  -1   5   6    8.69    0.78
   1  -5  -6    7.90    0.66
   1  -5  -6    8.37    0.51
   1   5  -6    8.58    0.83
   1   5  -6    8.65    0.51
   1  -5  -5   25.94    1.14
  -1  -5   5   28.52    0.89
   1  -5  -5   29.24    0.92
   1   5  -5   29.84    0.87
  -1   5   5   30.75    1.38
   1   5  -5   28.16    1.43
  -1   5   4   40.98    1.54
  -1  -5   4   38.18    1.02
  -1   5   4   38.30    1.36
   1   5  -4   37.84    0.92
   1   5  -4   39.57    1.55
   1  -5  -4   39.84    1.07
  -1  -5   3   52.70    1.04
  -1  -5   3   51.36    1.18
  -1   5   3   53.73    1.52
   1   5  -3   51.42    1.67
   1  -5  -3   52.35    1.23
  -1   5   3   52.83    1.65
   1   5  -3   53.24    1.04
  -1  -5   2  149.49    2.01
  -1   5   2  146.59    2.42
  -1  -5   2  150.98    1.67
   1   5  -2  145.58    1.74
   1  -5  -2  141.61    2.00
  -1   5   2  156.35    2.66
   1  -5  -1   11.31    0.57
  -1   5   1   10.16    0.60
   1   5  -1   10.14    0.49
  -1   5   1    8.63    0.59
  -1  -5   1   10.72    0.54
   1   5  -1    9.76    0.68
   1   5   0   21.28    0.98
  -1   5   0   23.24    0.94
  -1   5   0   23.62    0.87
   1   5   0   21.00    0.76
   1  -5   0   23.82    0.81
  -1  -5   0   22.85    0.79
  -1   5  -1  102.40    2.00
   1   5   1  107.00    2.30
  -1   5  -1  104.35    1.81
  -1  -5  -1  111.67    1.77
   1  -5   1  101.47    1.69
   1   5   1  110.75    1.89
  -1  -5  -2    6.92    0.48
  -1  -5  -2    7.72    0.47
   1  -5   2    6.86    0.44
  -1   5  -2    7.76    0.49
   1   5   2    7.42    0.62
  -1   5  -2    7.11    0.55
  -1   5  -3   46.30    1.22
   1  -5   3   45.33    1.12
  -1   5  -3   45.30    1.50
  -1  -5  -3   42.52    1.29
   1   5   3   43.92    1.62
  -1  -5  -3   44.24    1.13
  -1  -5  -4   23.49    0.84
  -1   5  -4   22.54    0.89
   1  -5   4   25.53    0.84
  -1   5  -4   21.35    1.13
  -1  -5  -4   23.50    1.02
   1   5   4   22.73    1.23
   1   5   5   18.07    1.16
   1  -5   5   19.77    0.73
  -1   5  -5   20.11    0.90
  -1  -5  -5   19.08    1.01
  -1   5  -5   17.94    1.11
  -1  -5  -5   20.51    0.80
  -1   5  -6   28.21    1.51
  -1  -5  -6   27.81    0.93
   1  -5   6   27.92    0.86
  -1  -5  -6   28.18    1.28
  -1   5  -6   30.06    1.16
   1   5   6   27.50    1.45
  -1  -5  -7   46.70    1.77
  -1   5  -7   47.55    2.09
   1   5   7   47.85    2.01
  -1   5  -7   47.07    1.52
  -1  -5  -7   48.59    1.24
   1  -5   7   47.31    1.10
  -1   5  -8   20.07    1.45
   1   5   8   23.83    1.48
   1  -5   8   23.24    0.74
  -1  -5  -8   21.32    0.81
  -1  -5  -8   21.66    1.28
  -1   5  -8   22.12    1.10
  -1  -5  -9    6.64    0.77
  -1   5  -9    6.62    0.90
   1   5   9    6.47    0.81
  -1   5  -9    6.44    0.63
  -1   5 -10   40.90    2.34
  -1  -5 -10   41.77    2.04
   1   5  10   39.84    2.06
  -1   5 -10   37.87    1.61
  -1   5 -11    4.70    0.84
   1   5  11    4.46    0.73
  -1  -5 -11    3.89    0.68
  -1   5 -11    4.74    0.60
   1   6 -11    1.20    0.43
  -1   6  11    1.87    0.48
   1  -6 -11    1.06    0.38
   1   6 -10    2.11    0.58
  -1   6  10    1.91    0.49
   1  -6 -10    2.10    0.47
  -1   6   9    8.48    0.92
   1   6  -9    8.69    0.63
   1  -6  -9   10.03    0.95
   1   6  -9    9.45    1.08
   1  -6  -8    0.68    0.24
  -1  -6   8    0.98    0.18
   1   6  -8    0.94    0.21
   1   6  -8    0.77    0.34
   1  -6  -8    1.18    0.22
  -1  -6   7    0.59    0.15
   1   6  -7    0.58    0.15
   1   6  -7    0.61    0.28
  -1   6   7    0.75    0.27
   1  -6  -7    0.80    0.19
   1  -6  -7    0.89    0.28
  -1  -6   6   24.99    0.92
   1   6  -6   24.52    1.46
  -1   6   6   22.84    1.33
   1  -6  -6   21.67    1.14
   1  -6  -6   24.22    0.94
   1   6  -6   22.35    0.83
   1   6  -5   14.52    0.64
  -1   6   5   14.47    1.04
   1  -6  -5   13.51    0.70
   1   6  -5   12.44    0.98
  -1  -6   5   14.68    0.70
  -1   6   4    6.83    0.62
   1   6  -4    5.92    0.41
   1   6  -4    6.00    0.65
   1  -6  -4    6.53    0.47
  -1   6   4    6.36    0.66
  -1  -6   4    5.73    0.44
  -1   6   3   17.37    1.02
   1   6  -3   15.79    0.98
   1  -6  -3   16.86    0.76
  -1   6   3   16.01    0.91
  -1  -6   3   15.53    0.72
   1   6  -3   16.11    0.64
  -1   6   2   28.50    1.24
  -1   6   2   27.84    1.13
   1   6  -2   28.64    0.88
   1   6  -2   27.76    1.27
   1  -6  -2   28.66    0.98
  -1  -6   2   29.43    0.98
  -1  -6   1    0.57    0.15
  -1   6   1    0.13    0.08
   1   6  -1    0.25    0.13
   1   6  -1    0.15    0.08
  -1   6   1    0.44    0.15
   1  -6  -1    0.47    0.13
   1  -6   0    4.40    0.38
  -1   6   0    4.26    0.40
   1   6   0    3.77    0.46
  -1   6   0    3.71    0.42
  -1  -6   0    4.92    0.40
   1   6   0    4.81    0.40
   1   6   1   38.21    1.49
  -1   6  -1   38.29    1.35
   1  -6   1   39.72    1.14
  -1  -6  -1   38.68    1.14
  -1   6  -1   38.84    1.20
   1   6   1   36.04    1.16
   1  -6   2   21.02    0.85
  -1   6  -2   21.22    0.89
  -1  -6  -2   19.53    0.81
   1   6   2   19.75    1.11
  -1   6  -2   20.99    1.04
   1  -6   3    5.19    0.42
  -1  -6  -3    5.25    0.49
   1   6   3    4.80    0.58
  -1   6  -3    5.10    0.53
  -1  -6  -3    4.17    0.38
  -1   6  -3    5.16    0.45
  -1   6  -4   37.62    1.23
   1  -6   4   36.69    1.11
  -1   6  -4   35.30    1.51
   1   6   4   34.44    1.62
  -1  -6  -4   37.35    1.16
  -1  -6  -4   37.87    1.37
  -1   6  -5   28.20    1.46
   1   6   5   29.26    1.55
  -1  -6  -5   27.70    1.25
   1  -6   5   29.24    0.98
  -1  -6  -5   27.91    1.01
  -1   6  -5   30.08    1.14
  -1  -6  -6   17.45    0.82
  -1   6  -6   18.57    1.26
  -1   6  -6   17.49    0.90
   1  -6   6   19.10    0.80
   1   6   6   19.06    1.29
  -1  -6  -6   19.27    1.12
  -1   6  -7   30.21    1.24
   1   6   7   35.50    1.84
  -1  -6  -7   33.05    1.54
  -1  -6  -7   30.33    1.07
   1  -6   7   33.82    1.04
  -1   6  -7   31.10    1.69
  -1  -6  -8    2.96    0.35
  -1   6  -8    3.74    0.65
   1   6   8    4.19    0.68
  -1  -6  -8    3.94    0.57
   1  -6   8    3.51    0.33
  -1   6  -8    3.24    0.44
   1   6   9   10.31    1.08
  -1   6  -9    8.21    0.73
  -1  -6  -9    8.50    0.88
  -1   6  -9    9.78    1.08
  -1   6 -10   12.31    1.28
  -1  -6 -10   11.19    1.07
   1   6  10   13.10    1.23
  -1   6 -10   11.72    0.90
   1   7 -10   -0.01    0.21
  -1   7  10    0.38    0.29
   1  -7  -9    3.77    0.61
  -1   7   9    4.25    0.69
   1   7  -9    4.90    0.78
   1   7  -8   10.03    0.64
   1   7  -8    9.95    1.08
   1  -7  -8    9.78    0.90
  -1  -7   8   12.10    0.68
   1  -7  -8   10.36    0.67
  -1   7   8   11.13    1.08
   1   7  -7    0.67    0.17
  -1  -7   7    0.95    0.21
  -1   7   7    0.63    0.28
   1  -7  -7    0.23    0.11
   1   7  -7    0.67    0.30
   1  -7  -7    0.85    0.21
   1  -7  -6   30.73    1.43
   1  -7  -6   30.23    1.13
   1   7  -6   30.40    1.04
  -1  -7   6   31.68    1.14
  -1   7   6   29.73    1.61
   1   7  -6   28.48    1.61
  -1  -7   5   66.22    1.62
  -1   7   5   66.23    2.34
   1   7  -5   65.48    1.47
  -1   7   5   60.95    2.03
   1   7  -5   63.40    2.30
   1  -7  -5   64.64    1.66
   1   7  -4    1.25    0.22
  -1   7   4    1.78    0.35
  -1  -7   4    1.27    0.23
   1  -7  -4    1.56    0.26
   1   7  -4    1.51    0.36
  -1   7   4    1.85    0.39
  -1   7   3    0.81    0.28
   1  -7  -3    0.62    0.17
   1   7  -3    0.48    0.14
  -1  -7   3    0.30    0.13
   1   7  -3    0.43    0.21
   1  -7  -2   19.48    0.88
   1   7  -2   18.56    1.13
  -1   7   2   16.75    1.04
  -1   7   2   17.65    0.98
  -1  -7   2   18.42    0.84
   1   7  -2   17.03    0.76
   1  -7  -1   51.02    1.42
   1   7  -1   52.23    1.38
  -1   7   1   49.50    1.73
  -1  -7   1   49.53    1.38
  -1   7   1   47.15    1.55
   1  -7   0   32.53    1.13
   1   7   0   28.38    1.37
  -1  -7   0   32.94    1.14
  -1   7   0   29.88    1.31
  -1   7   0   31.44    1.21
   1   7   0   31.35    1.12
  -1  -7  -1   22.85    0.95
   1   7   1   21.72    1.22
   1   7   1   22.61    1.00
  -1   7  -1   24.22    1.03
  -1   7  -1   23.69    1.17
   1  -7   1   23.73    0.96
  -1   7  -2    4.92    0.47
  -1  -7  -2    5.39    0.46
   1   7   2    5.15    0.62
  -1   7  -2    5.35    0.58
   1  -7   2    5.58    0.48
   1   7   2    4.66    0.48
   1  -7   3   65.14    1.59
  -1   7  -3   64.31    1.69
  -1   7  -3   66.22    2.09
  -1  -7  -3   59.70    1.71
   1   7   3   64.62    2.26
  -1  -7  -3   61.74    1.56
   1   7   4   14.07    1.09
  -1   7  -4   13.15    0.78
   1  -7   4   11.85    0.68
  -1  -7  -4   11.08    0.79
  -1  -7  -4   11.88    0.70
  -1   7  -4   12.92    0.95
  -1   7  -5   14.65    0.84
  -1   7  -5   11.92    0.97
  -1  -7  -5   13.84    0.94
   1  -7   5   13.89    0.74
  -1  -7  -5   12.55    0.74
   1   7   5   11.94    1.04
  -1  -7  -6   21.19    0.98
  -1  -7  -6   20.73    1.21
  -1   7  -6   21.94    1.38
   1   7   6   21.93    1.48
  -1   7  -6   22.86    1.08
   1  -7   6   21.25    0.92
  -1  -7  -7    9.41    0.65
  -1   7  -7    8.87    0.70
  -1  -7  -7    9.90    0.88
   1  -7   7    9.86    0.61
   1   7   7    8.76    0.97
  -1   7  -7   10.46    1.05
   1  -7   8    5.78    0.49
  -1  -7  -8    6.06    0.71
  -1   7  -8    5.91    0.81
   1   7   8    7.54    0.92
  -1  -7  -8    4.71    0.46
  -1   7  -8    5.58    0.58
   1   7   9   11.14    1.16
  -1   7  -9   11.00    0.84
  -1  -7  -9   11.49    1.09
  -1   7  -9   10.80    1.16
   1   7  10    9.61    1.13
  -1  -7 -10    9.26    1.02
  -1   7 -10    7.49    0.73
  -1   7 -10    7.99    1.06
  -1   8   9    4.91    0.79
   1   8  -9    4.56    0.79
   1  -8  -9    3.59    0.60
  -1   8   8    8.03    0.96
  -1  -8   8    7.23    0.59
   1   8  -8    7.46    0.96
   1  -8  -8    8.28    0.87
   1  -8  -8    6.99    0.58
  -1   8   7    5.29    0.76
  -1  -8   7    4.53    0.47
   1  -8  -7    4.70    0.48
   1   8  -7    4.55    0.44
   1   8  -7    2.65    0.57
   1  -8  -7    4.50    0.60
  -1  -8   6    0.80    0.20
   1   8  -6    0.52    0.23
   1   8  -6    0.52    0.17
   1  -8  -6    0.21    0.18
  -1   8   6    0.66    0.31
   1  -8  -6    0.66    0.18
  -1   8   5    0.86    0.30
   1   8  -5    1.11    0.22
  -1  -8   5    1.10    0.23
   1  -8  -5    1.11    0.24
   1   8  -5    1.30    0.37
  -1   8   5    1.22    0.34
   1  -8  -4    1.51    0.28
  -1   8   4    1.18    0.30
   1   8  -4    1.22    0.35
  -1  -8   4    0.79    0.21
   1   8  -4    1.27    0.24
  -1   8   4    1.41    0.36
  -1  -8   3   12.94    0.76
   1   8  -3   15.04    1.12
  -1   8   3   14.01    1.07
  -1   8   3   15.42    1.02
   1   8  -3   13.78    0.74
   1  -8  -3   12.58    0.77
   1  -8  -2    6.16    0.52
   1   8  -2    7.13    0.76
  -1   8   2    6.02    0.67
  -1   8   2    7.47    0.68
  -1  -8   2    5.79    0.50
   1   8  -2    6.57    0.53
  -1  -8   1   27.15    1.10
   1   8  -1   29.43    1.12
   1  -8  -1   26.58    1.09
   1   8  -1   28.29    1.48
  -1   8   1   27.02    1.39
  -1   8   1   28.24    1.30
  -1   8   0   11.38    0.80
  -1   8   0    9.87    0.82
   1   8   0   10.36    0.70
   1   8   0   11.18    0.94
  -1  -8   0   10.21    0.68
   1  -8   0   11.74    0.72
   1   8   1   12.56    0.81
   1  -8   1   11.90    0.73
  -1  -8  -1   12.75    0.76
  -1   8  -1   13.30    0.83
   1   8   1   11.87    0.98
  -1   8  -1   11.71    0.90
   1   8   2    5.39    0.56
  -1   8  -2    5.25    0.62
   1   8   2    6.01    0.72
   1  -8   2    6.28    0.53
  -1  -8  -2    4.50    0.45
  -1   8  -2    4.70    0.50
   1   8   3   56.52    2.25
   1  -8   3   63.62    1.68
  -1   8  -3   61.87    2.15
  -1  -8  -3   61.06    1.84
  -1   8  -3   60.45    1.77
  -1  -8  -3   58.82    1.65
   1  -8   4   59.74    1.66
  -1   8  -4   60.13    1.78
  -1  -8  -4   59.77    1.69
   1   8   4   55.94    2.32
  -1   8  -4   57.90    2.15
  -1  -8  -4   58.96    1.91
  -1  -8  -5   14.12    0.99
   1   8   5   15.35    1.25
   1  -8   5   14.87    0.83
  -1   8  -5   13.67    0.86
  -1   8  -5   15.99    1.17
  -1  -8  -5   13.63    0.82
   1  -8   6    5.13    0.49
  -1   8  -6    4.44    0.66
  -1  -8  -6    5.70    0.66
   1   8   6    5.23    0.76
  -1  -8  -6    5.40    0.54
  -1   8  -6    5.77    0.58
   1   8   7    4.06    0.70
  -1  -8  -7    3.07    0.41
  -1  -8  -7    3.03    0.52
  -1   8  -7    2.43    0.39
  -1   8  -7    3.27    0.57
   1  -8   7    2.88    0.37
   1  -8   8    1.54    0.29
  -1   8  -8    1.59    0.34
   1   8   8    1.71    0.46
  -1   8  -8    1.74    0.48
  -1  -8  -8    1.44    0.29
  -1  -8  -8    1.18    0.35
   1   8   9    1.28    0.42
  -1   8  -9    1.40    0.33
  -1   8  -9    1.99    0.53
  -1  -8  -9    1.34    0.41
   1  -9  -8    6.38    0.60
  -1   9   8    5.56    0.85
  -1  -9   8    6.57    0.59
   1  -9  -8    6.95    0.82
   1   9  -8    8.31    1.04
   1   9  -7    0.00    0.21
   1  -9  -7    0.05    0.11
   1  -9  -7    0.12    0.17
  -1  -9   7    0.07    0.12
  -1   9   7    0.27    0.26
   1  -9  -6    0.35    0.20
  -1  -9   6    0.48    0.19
   1   9  -6    0.45    0.29
  -1   9   6    0.06    0.16
   1  -9  -6    0.23    0.19
   1   9  -6    0.16    0.14
   1   9  -5    0.20    0.14
  -1   9   5    0.79    0.32
   1  -9  -5    0.63    0.19
  -1  -9   5    0.55    0.21
   1   9  -5    0.59    0.29
  -1   9   5    0.29    0.29
   1  -9  -4   19.43    1.03
   1   9  -4   18.13    0.90
  -1   9   4   17.71    1.22
  -1   9   4   19.29    1.39
   1   9  -4   21.18    1.45
  -1  -9   4   18.18    0.99
   1   9  -3    2.30    0.33
   1  -9  -3    1.96    0.34
  -1   9   3    1.62    0.38
  -1   9   3    1.90    0.39
  -1  -9   3    2.08    0.32
   1   9  -3    2.38    0.48
  -1  -9   2   25.07    1.15
  -1   9   2   27.63    1.53
   1   9  -2   25.95    1.53
  -1   9   2   25.33    1.35
   1  -9  -2   26.37    1.17
   1   9  -2   26.14    1.13
   1  -9  -1   49.45    1.60
  -1   9   1   47.80    1.78
  -1   9   1   46.74    1.97
   1   9  -1   48.31    1.59
   1   9  -1   47.31    2.06
  -1  -9   1   51.53    1.62
   1  -9   0  127.82    2.55
  -1   9   0  122.36    2.81
   1   9   0  124.73    2.63
   1   9   0  118.17    3.26
  -1   9   0  117.54    3.08
  -1  -9   0  117.00    2.45
  -1  -9  -1   13.25    0.83
  -1   9  -1   12.18    0.87
   1  -9   1   13.36    0.83
   1   9   1   14.10    1.16
   1   9   1   13.97    0.93
  -1   9  -1   13.40    1.04
   1   9   2    2.71    0.54
  -1   9  -2    2.57    0.46
  -1   9  -2    3.02    0.43
   1   9   2    2.94    0.46
   1  -9   2    2.97    0.40
  -1  -9  -2    3.47    0.43
   1  -9   3   15.81    0.91
  -1  -9  -3   15.53    0.92
  -1   9  -3   17.15    1.21
  -1  -9  -3   17.87    1.04
   1   9   3   15.76    1.26
  -1   9  -3   17.30    1.00
  -1   9  -4    8.73    0.72
  -1  -9  -4    8.11    0.75
  -1   9  -4    9.34    0.92
   1   9   4    8.18    0.95
   1  -9   4    8.16    0.67
  -1  -9  -4    7.92    0.68
   1  -9   5    3.15    0.41
   1   9   5    4.73    0.74
  -1   9  -5    4.53    0.53
  -1  -9  -5    4.06    0.48
  -1   9  -5    4.23    0.65
  -1  -9  -5    3.97    0.54
  -1   9  -6    0.15    0.20
   1   9   6    0.29    0.25
  -1   9  -6   -0.06    0.13
  -1  -9  -6    0.29    0.19
   1  -9   6   -0.09    0.14
  -1  -9  -6    0.06    0.13
  -1   9  -7    2.88    0.61
   1  -9   7    2.59    0.38
  -1  -9  -7    2.81    0.42
  -1   9  -7    1.49    0.33
  -1  -9  -7    2.58    0.49
   1   9   7    2.22    0.56
  -1   9  -8    2.12    0.40
  -1   9  -8    2.00    0.52
  -1  -9  -8    2.09    0.37
  -1  -9  -8    2.44    0.49
   1   9   8    2.35    0.61
   1 -10  -7    0.42    0.28
   1  10  -7    1.18    0.42
  -1  10   7    1.37    0.48
   1 -10  -7    0.45    0.23
  -1 -10   7    0.84    0.28
  -1 -10   6    0.63    0.24
  -1  10   6    0.35    0.26
   1  10  -6    1.00    0.34
   1 -10  -6    0.76    0.25
   1 -10  -6    0.56    0.27
  -1 -10   5    3.59    0.47
   1 -10  -5    3.61    0.48
   1  10  -5    4.48    0.48
  -1  10   5    4.20    0.71
   1  10  -5    4.51    0.72
   1 -10  -4    5.10    0.57
   1  10  -4    4.83    0.50
  -1 -10   4    4.12    0.50
  -1  10   4    4.95    0.75
  -1  10   4    4.71    0.67
   1  10  -4    4.77    0.74
   1 -10  -3   38.19    1.53
  -1 -10   3   36.07    1.46
  -1  10   3   38.72    2.01
   1  10  -3   39.82    1.46
   1  10  -3   39.13    2.04
  -1  10   3   39.41    1.85
  -1  10   2    8.70    0.84
  -1 -10   2    9.53    0.75
   1 -10  -2   10.60    0.81
   1  10  -2    9.24    0.72
  -1  10   2    8.62    0.93
   1  10  -2    9.31    0.98
   1  10  -1    8.82    0.96
   1  10  -1    8.47    0.71
  -1  10   1    9.08    0.83
  -1  10   1    8.98    0.94
  -1 -10   1    9.13    0.73
   1 -10  -1    8.58    0.71
   1  10   0    9.04    0.98
   1 -10   0   10.57    0.79
  -1 -10   0    9.73    0.76
  -1  10   0    8.91    0.82
   1  10   0   10.69    0.83
  -1  10   0    9.61    0.94
  -1  10  -1    0.62    0.24
   1 -10   1    0.30    0.14
   1  10   1    0.16    0.14
   1  10   1    0.18    0.17
  -1 -10  -1    0.15    0.16
  -1  10  -1    0.17    0.14
  -1  10  -2   31.78    1.48
  -1  10  -2   29.35    1.68
  -1 -10  -2   27.78    1.29
   1 -10   2   30.95    1.35
   1  10   2   29.66    1.81
  -1 -10  -3   15.84    1.04
  -1  10  -3   14.36    0.99
  -1  10  -3   16.58    1.27
   1  10   3   15.26    1.34
  -1 -10  -3   14.61    0.95
   1 -10   3   16.70    1.01
  -1  10  -4   10.42    1.04
  -1 -10  -4    9.85    0.79
   1  10   4    8.96    1.05
  -1 -10  -4   10.40    0.90
   1 -10   4   10.57    0.79
  -1  10  -4    8.66    0.77
  -1  10  -5    3.55    0.63
  -1 -10  -5    3.88    0.51
  -1 -10  -5    2.74    0.48
   1 -10   5    3.26    0.45
  -1  10  -5    3.04    0.46
   1  10   5    2.91    0.62
  -1  10  -6    1.07    0.30
  -1 -10  -6    1.00    0.28
   1  10   6    0.93    0.38
  -1 -10  -6    1.08    0.35
   1 -10   6    1.65    0.35
  -1  10  -6    0.71    0.35
   1  10   7    2.71    0.65
   1 -10   7    2.84    0.42
  -1  10  -7    2.44    0.45
  -1 -10  -7    1.99    0.38
  -1  10  -7    2.39    0.57
  -1 -10  -7    2.60    0.52
  -1  11   6    1.56    0.44
  -1 -11   6    1.71    0.38
   1 -11  -6    1.35    0.39
   1 -11  -6    1.46    0.35
   1  11  -6    2.08    0.58
  -1 -11   5   15.04    1.02
   1 -11  -5   14.11    0.99
   1  11  -5   15.73    1.43
   1 -11  -5   16.85    1.23
  -1  11   5   15.03    1.40
   1  11  -4   15.71    1.39
   1 -11  -4   14.13    0.97
  -1 -11   4   14.18    0.99
  -1  11   4   13.31    1.29
  -1  11   4   14.10    1.23
  -1 -11   3    4.95    0.59
   1 -11  -3    3.76    0.52
   1  11  -3    4.16    0.73
   1  11  -3    4.98    0.56
  -1  11   3    5.68    0.74
  -1  11   3    3.42    0.65
   1 -11  -2    0.90    0.24
  -1  11   2    0.71    0.28
   1  11  -2    0.77    0.26
  -1 -11   2    1.04    0.29
  -1  11   2    1.37    0.44
   1  11  -2    0.95    0.39
   1 -11  -1   11.20    0.88
  -1  11   1   10.04    1.04
  -1  11   1   11.76    1.01
   1  11  -1   11.60    0.90
  -1 -11   1   10.03    0.82
   1  11  -1   11.42    1.16
  -1  11   0   16.99    1.37
   1  11   0   17.57    1.47
   1  11   0   18.60    1.16
  -1 -11   0   16.33    1.04
   1 -11   0   17.83    1.09
  -1  11   0   18.07    1.24
   1  11   1    3.41    0.67
   1 -11   1    2.44    0.41
  -1 -11  -1    2.59    0.44
   1  11   1    2.13    0.43
  -1  11  -1    2.07    0.42
  -1  11  -1    2.99    0.58
   1 -11   2    1.73    0.35
  -1 -11  -2    1.81    0.37
   1  11   2    1.61    0.48
  -1  11  -2    1.56    0.37
  -1  11  -2    1.66    0.43
  -1 -11  -2    1.86    0.38
  -1 -11  -3    2.56    0.43
   1 -11   3    2.78    0.44
  -1  11  -3    3.07    0.51
   1  11   3    2.17    0.58
  -1  11  -3    3.42    0.65
  -1 -11  -3    3.22    0.51
  -1 -11  -4   28.27    1.52
   1 -11   4   28.76    1.38
   1  11   4   31.36    2.06
  -1  11  -4   28.06    1.80
  -1 -11  -4   25.83    1.35
  -1  11  -4   29.79    1.51
  -1  11  -5    7.85    0.78
   1 -11   5    8.22    0.76
  -1  11  -5    7.98    0.99
  -1 -11  -5    8.36    0.88
   1  11   5    9.17    1.15
  -1 -11  -5    8.31    0.78
   1 -11   6    4.57    0.57
   1  11   6    3.80    0.77
  -1 -11  -6    3.73    0.54
  -1  11  -6    6.04    0.88
  -1  11  -6    4.23    0.59
  -1 -11  -6    4.45    0.68
  -1  12   4    2.22    0.55
  -1  12   4    1.87    0.54
   1 -12  -4    2.05    0.41
   1  12  -4    2.34    0.59
  -1 -12   4    2.36    0.44
   1 -12  -3    6.46    0.70
  -1  12   3    6.29    0.84
  -1 -12   3    6.70    0.72
  -1  12   3    4.96    0.83
   1 -12  -2    2.20    0.42
  -1  12   2    3.06    0.65
  -1 -12   2    3.79    0.54
  -1  12   2    3.44    0.60
   1  12  -2    2.67    0.64
   1  12  -2    3.42    0.52
  -1  12   1    2.25    0.49
  -1  12   1    0.91    0.34
   1  12  -1    1.81    0.40
  -1 -12   1    1.83    0.39
   1 -12  -1    1.58    0.38
   1  12  -1    2.66    0.61
  -1 -12   0    0.59    0.25
  -1  12   0    1.04    0.34
   1  12   0    0.63    0.26
   1 -12   0    0.63    0.26
   1  12   0   -0.01    0.21
  -1  12   0    0.66    0.34
   1 -12   1    7.36    0.75
  -1 -12  -1    6.99    0.74
   1  12   1    8.00    0.85
  -1  12  -1    9.61    0.94
   1  12   1    8.26    1.08
  -1  12  -1    9.59    1.09
  -1 -12  -2    3.06    0.50
   1 -12   2    2.28    0.42
  -1 -12  -2    3.10    0.51
  -1  12  -2    2.83    0.52
  -1  12  -2    3.76    0.70
   1  12   2    4.23    0.78
   1 -12   3    5.54    0.66
  -1 -12  -3    5.26    0.63
  -1  12  -3    4.79    0.64
   1  12   3    5.73    0.92
  -1  12  -3    4.59    0.77
  -1 -12  -3    4.90    0.66
   2   0 -12    0.15    0.23
   2   0 -12    0.22    0.22
   2   0 -11    0.14    0.14
   2   0 -10    0.39    0.19
  -2   0  10    0.23    0.16
  -2   0   9    0.02    0.09
   2   0  -9    0.26    0.17
   2   0  -8    1.22    0.24
  -2   0   8    1.61    0.30
  -2   0   7   24.28    1.07
   2   0  -7   22.79    0.47
   2   0  -7   22.56    0.47
   2   0  -7   21.94    0.91
  -2   0   6    6.79    0.51
   2   0  -6    7.13    0.47
   2   0  -6    7.29    0.31
  -2   0   5    3.12    0.21
   2   0  -5    3.51    0.29
  -2   0   5    2.98    0.30
   2   0  -5    3.19    0.22
   2   0  -4   46.98    0.86
   2   0  -4   46.30    0.92
   2   0  -4   46.55    0.95
  -2   0   4   49.71    0.87
  -2   0   4   48.14    1.08
  -2   0   3  306.67    2.33
   2   0  -3  310.54    2.43
  -2   0   3  310.00    2.14
   2   0  -3  311.91    2.09
  -2   0   2   75.40    1.09
   2   0  -2   67.43    0.84
  -2   0   2   69.90    0.87
   2   0  -2   73.31    1.09
   2   0  -2   69.12    1.14
   2   0  -2   74.56    0.95
  -2   0   1    1.78    0.13
  -2   0   1    1.59    0.16
   2   0  -1    1.87    0.13
   2   0  -1    1.56    0.13
   2   0  -1    1.76    0.17
  -2   0   0   12.40    0.46
   2   0   0   12.87    0.46
   2   0   0   12.29    0.30
  -2   0   0   13.43    0.42
   2   0   1   11.95    0.45
  -2   0  -1   13.05    0.48
   2   0   1   11.69    0.38
  -2   0  -1   11.81    0.40
   2   0   1   13.34    0.51
  -2   0  -1   11.83    0.45
  -2   0  -2   58.28    0.99
   2   0   2   58.83    0.99
   2   0   2   58.47    1.06
  -2   0  -2   61.95    1.15
   2   0   3  146.30    1.92
   2   0   3  142.23    1.54
  -2   0  -3  140.22    1.56
  -2   0  -3  143.40    2.11
  -2   0  -4  266.13    2.14
   2   0   4  264.78    2.91
   2   0   5    3.38    0.36
  -2   0  -5    3.79    0.26
  -2   0  -5    4.46    0.45
   2   0   5    4.04    0.25
  -2   0  -6   14.19    0.47
   2   0   6   14.94    0.83
  -2   0  -6   16.04    0.91
   2   0   7   31.51    0.62
   2   0   7   31.36    1.30
  -2   0  -7   31.65    1.38
   2   0   8    0.26    0.06
   2   0   8    0.43    0.20
  -2   0  -9   14.93    1.09
   2   0   9   14.86    1.04
  -2   0 -10   23.84    1.45
   2   0  10   23.21    1.38
   2   0  11    2.64    0.51
  -2   0 -11    2.79    0.52
  -2   1  12    0.46    0.28
   2   1 -12    0.20    0.25
   2  -1 -12    0.21    0.21
   2   1 -12    0.39    0.22
   2   1 -11    6.39    0.66
   2  -1 -11    5.56    0.64
  -2   1  11    6.95    0.78
   2   1 -11    6.37    0.93
   2   1 -10    2.17    0.37
   2  -1 -10    1.96    0.37
  -2   1  10    2.09    0.41
   2   1 -10    1.05    0.36
   2  -1  -9    4.33    0.51
  -2   1   9    3.96    0.51
   2   1  -9    4.19    0.66
   2   1  -9    3.50    0.43
  -2   1   8   10.34    0.75
   2  -1  -8   10.78    0.72
   2  -1  -8    8.92    0.27
   2   1  -8   10.33    0.95
   2   1  -8   10.77    0.68
  -2  -1   7    4.14    0.21
   2   1  -7    3.92    0.53
   2   1  -7    3.96    0.20
   2  -1  -7    4.56    0.25
  -2   1   7    4.19    0.45
   2  -1  -7    4.09    0.41
   2   1  -7    4.77    0.42
   2  -1  -7    4.94    0.25
  -2   1   6    9.71    0.61
   2  -1  -6   10.42    0.41
   2  -1  -6   10.81    0.61
  -2  -1   6   10.38    0.39
   2   1  -6   10.69    0.55
   2   1  -6    9.31    0.76
   2  -1  -6    9.97    0.38
   2   1  -6   10.05    0.36
   2   1  -5   84.25    1.10
   2  -1  -5   88.92    1.23
  -2  -1   5   89.63    1.19
   2   1  -5   89.35    1.35
   2  -1  -5   82.50    1.13
  -2   1   5   86.34    1.64
   2   1  -5   80.87    2.07
   2  -1  -5   87.72    1.60
   2   1  -5   82.05    1.32
   2   1  -4  136.12    1.43
  -2  -1   4  131.12    1.48
   2   1  -4  127.66    1.37
  -2   1   4  127.12    1.43
  -2   1   4  131.09    1.78
   2   1  -4  136.81    2.40
   2   1  -4  128.72    1.36
  -2   1   4  139.45    1.85
   2  -1  -4  130.97    1.51
   2  -1  -3   48.75    0.96
  -2   1   3   47.40    0.91
   2   1  -3   46.60    0.85
   2   1  -3   45.20    0.65
  -2  -1   3   46.31    0.89
   2  -1  -3   46.06    0.89
   2  -1  -3   47.63    1.03
  -2   1   3   46.55    0.86
   2   1  -3   49.67    1.28
   2   1  -3   44.61    0.63
  -2   1   3   46.42    0.97
   2  -1  -2  156.94    1.56
  -2   1   2  144.77    1.54
   2   1  -2  156.93    1.57
  -2  -1   2  150.79    0.89
   2  -1  -2  159.78    1.67
  -2  -1   2  152.35    1.60
  -2   1   2  154.17    1.58
  -2  -1   2  148.25    1.93
   2   1  -2  149.35    1.89
  -2   1   2  153.29    1.30
   2   1  -2  153.84    0.85
   2  -1  -2  159.30    1.51
   2  -1  -1  107.01    1.23
   2   1  -1  100.06    1.26
   2  -1  -1  100.48    1.31
  -2   1   1   94.95    1.26
   2   1  -1   96.78    0.84
  -2  -1   1  105.05    1.34
  -2   1   1   98.68    1.22
  -2  -1   1  100.66    1.33
   2   1  -1   97.65    1.27
   2   1   0   13.96    0.48
  -2  -1   0   14.18    0.50
  -2   1   0   13.57    0.49
  -2   1   0   14.58    0.48
   2  -1   0   13.37    0.48
   2   1   0   14.75    0.42
  -2  -1   0   14.57    0.41
  -2  -1   0   14.55    0.46
   2  -1   0   13.61    0.47
   2   1   0   13.65    0.46
  -2  -1  -1   18.55    0.60
   2  -1   1   18.46    0.39
  -2  -1  -1   17.24    0.55
   2  -1   1   18.16    0.57
   2   1   1   18.04    0.55
  -2  -1  -1   18.99    0.58
   2   1   1   19.25    0.58
   2   1   1   18.58    0.61
   2  -1   1   18.42    0.62
  -2   1  -1   18.03    0.56
  -2   1  -1   17.95    0.59
  -2  -1  -2   15.75    0.62
   2   1   2   16.99    0.53
  -2   1  -2   16.12    0.53
  -2  -1  -2   17.33    0.56
   2  -1   2   16.12    0.53
   2   1   2   18.29    0.69
  -2   1  -2   16.33    0.53
  -2  -1  -2   16.80    0.67
  -2   1  -2   17.29    0.66
   2  -1   2   15.56    0.48
   2   1   3    7.58    0.35
  -2   1  -3    8.23    0.37
  -2  -1  -3    7.76    0.38
   2  -1   3    7.90    0.41
  -2   1  -3    7.81    0.49
   2   1   3    8.12    0.51
   2  -1   3    8.91    0.40
  -2  -1  -3    8.72    0.52
  -2  -1  -4   64.93    1.11
  -2  -1  -4   60.69    1.53
  -2   1  -4   61.92    1.01
   2   1   4   64.29    1.57
   2  -1   4   62.88    1.07
  -2   1  -4   63.81    1.54
   2  -1   4   61.66    1.33
   2   1   4   61.66    1.01
   2   1   5   22.18    0.60
   2  -1   5   23.27    0.65
  -2  -1  -5   22.56    0.66
  -2   1  -5   21.34    0.59
  -2  -1  -5   22.75    1.02
   2   1   5   22.94    1.01
  -2   1  -5   24.36    1.05
   2  -1   5   22.37    0.90
   2  -1   6   18.86    0.56
   2  -1   6   16.19    0.85
  -2  -1  -6   17.72    0.57
   2  -1   6   18.66    0.54
   2   1   6   17.91    0.54
  -2   1  -6   17.87    0.96
   2   1   6   17.47    0.94
   2  -1   7    6.78    0.60
   2   1   7    5.34    0.55
  -2   1  -7    6.27    0.61
   2  -1   7    6.36    0.29
  -2  -1  -7    6.46    0.33
  -2  -1  -7    7.11    0.66
   2  -1   7    6.63    0.30
   2  -1   8   16.26    1.00
  -2  -1  -8   17.19    1.10
   2   1   8   17.62    1.07
  -2  -1  -8   15.03    0.42
   2  -1   8   15.52    0.36
  -2   1  -8   17.37    1.08
   2  -1   9   13.79    0.99
   2   1   9   16.03    1.09
  -2  -1  -9   16.66    1.17
  -2   1  -9   15.21    1.08
   2  -1  10    8.55    0.84
  -2  -1 -10    8.61    0.88
   2   1  10   10.02    0.91
  -2   1 -10    9.48    0.91
  -2   1 -11    6.17    0.76
   2   1  11    6.60    0.79
  -2  -1 -11    6.69    0.84
   2  -1  11    6.90    0.81
   2   2 -12    3.53    0.75
  -2   2  12    4.45    0.70
   2   2 -12    3.53    0.52
   2  -2 -12    3.67    0.60
   2  -2 -11    2.57    0.49
   2   2 -11    2.31    0.39
   2   2 -11    2.92    0.66
  -2   2  11    2.53    0.51
   2  -2 -10    5.26    0.62
  -2   2  10    6.83    0.74
   2   2 -10    6.39    0.61
   2   2 -10    4.66    0.72
   2  -2  -9    2.07    0.37
   2   2  -9    2.12    0.33
  -2   2   9    1.96    0.36
   2   2  -9    1.52    0.41
   2  -2  -8    4.53    0.48
  -2   2   8    4.48    0.52
  -2  -2   8    3.56    0.19
   2   2  -8    3.99    0.62
   2   2  -8    4.27    0.42
   2  -2  -8    4.41    0.25
  -2  -2   7   20.49    0.56
   2  -2  -7   20.40    0.58
  -2   2   7   22.99    1.06
   2  -2  -7   21.57    0.99
   2  -2  -7   21.53    0.64
   2   2  -7   20.28    0.81
   2   2  -7   20.30    1.26
   2  -2  -6   55.88    1.03
   2   2  -6   52.13    0.88
  -2  -2   6   56.72    1.00
  -2   2   6   54.63    1.53
   2   2  -6   51.67    1.86
   2   2  -6   53.94    1.16
   2  -2  -6   54.15    1.46
   2  -2  -6   58.98    1.09
   2   2  -5   63.22    1.00
  -2   2   5   58.63    1.44
  -2  -2   5   61.08    1.07
   2   2  -5   64.09    1.90
   2  -2  -5   66.14    1.13
  -2  -2   5   65.70    1.05
   2  -2  -5   62.19    1.45
   2   2  -5   63.44    1.08
   2   2  -4   66.28    1.06
   2  -2  -4   58.89    1.06
   2   2  -4   64.44    1.75
  -2   2   4   67.26    1.45
   2   2  -4   63.52    0.86
  -2  -2   4   59.93    1.07
  -2   2   4   62.49    1.35
  -2  -2   3    9.80    0.43
   2  -2  -3    9.18    0.42
   2  -2  -3   10.31    0.52
  -2   2   3   10.49    0.53
  -2   2   3    9.41    0.46
   2   2  -3   10.34    0.42
   2   2  -3   10.50    0.63
  -2   2   2   26.94    0.68
   2   2  -2   28.23    0.70
  -2  -2   2   27.03    0.71
   2  -2  -2   27.98    0.73
  -2   2   2   26.44    0.76
   2  -2  -2   27.52    0.73
   2   2  -2   27.12    0.89
   2  -2  -1   27.64    0.73
   2  -2  -1   28.46    0.73
   2   2  -1   28.67    0.82
  -2   2   1   28.82    0.77
  -2  -2   1   27.28    0.73
  -2  -2   1   27.69    0.81
   2   2  -1   26.59    0.37
  -2  -2   1   26.74    0.39
   2  -2  -1   28.45    0.56
  -2   2   1   28.51    0.57
  -2   2   0  135.69    1.09
  -2  -2   0  136.92    1.74
  -2   2   0  132.90    1.65
   2  -2   0  123.87    1.12
  -2  -2   0  132.76    1.61
   2   2   0  141.03    1.80
   2   2   0  135.68    1.25
  -2   2  -1   93.21    1.22
  -2  -2  -1   95.44    1.59
  -2  -2  -1   94.38    1.34
  -2   2  -1   98.54    1.47
   2   2   1   94.43    1.60
  -2  -2  -1   89.91    1.33
   2   2   1   98.36    1.32
  -2   2  -1   86.19    0.97
  -2  -2  -2   51.47    1.02
  -2  -2  -2   51.94    1.15
  -2   2  -2   50.67    1.15
   2   2   2   48.28    1.27
  -2   2  -2   49.80    0.89
  -2   2  -2   49.81    1.14
   2  -2   2   48.39    0.96
  -2  -2  -3   40.21    0.92
   2  -2   3   39.72    0.87
  -2   2  -3   40.17    1.18
  -2  -2  -3   39.77    1.13
   2   2   3   39.10    1.24
  -2   2  -3   39.64    1.14
  -2  -2  -4   34.13    0.86
   2  -2   4   31.00    0.76
  -2  -2  -4   31.45    1.13
   2   2   4   30.36    1.17
  -2   2  -4   31.31    1.08
   2   2   5   10.70    0.75
  -2  -2  -5    9.89    0.48
  -2  -2  -5   10.12    0.69
  -2   2  -5    9.47    0.64
   2  -2   5   10.40    0.61
   2  -2   5   10.37    0.44
  -2  -2  -6   25.41    0.76
   2  -2   6   22.79    1.00
   2   2   6   24.39    1.19
  -2   2  -6   24.52    1.11
  -2  -2  -6   25.80    1.20
   2  -2   6   24.59    0.71
   2  -2   6   24.16    0.68
   2   2   7    0.86    0.24
  -2   2  -7    0.78    0.23
  -2  -2  -7    0.87    0.15
   2  -2   7    0.73    0.21
   2  -2   7    0.70    0.11
  -2  -2  -7    0.78    0.24
  -2  -2  -8   28.19    0.72
   2   2   8   30.41    1.47
  -2  -2  -8   29.16    1.46
   2  -2   8   27.12    0.56
  -2   2  -8   30.42    1.42
  -2   2  -9    0.62    0.26
  -2   2  -9    0.70    0.33
   2   2   9    0.85    0.28
  -2  -2  -9    0.16    0.14
  -2   2 -10    6.98    0.94
  -2  -2 -10    5.33    0.71
  -2   2 -10    6.03    0.72
   2   2  10    5.89    0.72
   2   2  11   10.94    1.03
  -2   2 -11   11.42    1.26
  -2   2 -11    9.72    0.95
  -2  -2 -11    8.98    0.98
  -2   3  12    0.01    0.18
   2  -3 -12    0.36    0.23
   2   3 -12    0.06    0.26
   2   3 -11    4.15    0.80
   2  -3 -11    3.93    0.59
   2   3 -11    3.68    0.47
  -2   3  11    4.86    0.68
   2   3 -10    5.68    0.85
  -2   3  10    7.31    0.75
   2   3 -10    6.11    0.57
   2  -3 -10    6.03    0.67
   2   3  -9    4.02    0.42
  -2   3   9    4.01    0.54
   2   3  -9    4.04    0.66
   2  -3  -9    4.91    0.58
  -2  -3   8    3.35    0.24
   2  -3  -8    2.64    0.39
   2  -3  -8    2.97    0.25
   2   3  -8    2.85    0.33
   2   3  -8    2.69    0.50
  -2   3   8    2.97    0.42
  -2   3   7   14.74    0.91
  -2  -3   7   16.78    0.59
   2  -3  -7   16.11    0.60
   2  -3  -7   16.92    0.92
   2   3  -7   13.32    1.06
   2   3  -7   17.93    0.72
   2  -3  -6    6.62    0.40
   2  -3  -6    6.94    0.56
   2   3  -6    5.76    0.66
  -2   3   6    6.48    0.56
   2   3  -6    6.52    0.39
  -2  -3   6    6.28    0.37
  -2  -3   5   28.85    0.80
  -2  -3   5   28.51    0.65
   2   3  -5   27.08    1.30
  -2   3   5   28.05    1.08
  -2   3   5   26.41    1.06
   2   3  -5   28.65    0.67
  -2   3   4  147.55    2.34
  -2   3   4  148.99    2.33
  -2  -3   4  148.82    1.85
   2  -3  -4  158.94    1.96
  -2  -3   4  152.56    1.18
   2   3  -4  161.48    1.21
  -2  -3   3    3.55    0.28
  -2   3   3    4.33    0.38
  -2   3   3    3.31    0.31
   2   3  -3    3.39    0.39
   2  -3  -3    4.55    0.33
  -2   3   2   15.83    0.67
   2  -3  -2   16.04    0.62
  -2  -3   2   13.90    0.55
   2   3  -2   15.85    0.75
  -2   3   2   15.93    0.63
   2  -3  -2   15.18    0.59
   2   3  -1    1.53    0.23
  -2   3   1    1.54    0.20
  -2  -3   1    1.38    0.17
  -2   3   1    1.19    0.16
   2  -3  -1    1.32    0.18
  -2  -3   1    1.49    0.11
   2  -3  -1    1.68    0.18
   2  -3   0   12.51    0.53
  -2   3   0   12.39    0.46
  -2  -3   0   11.49    0.51
   2   3   0   12.67    0.64
  -2  -3   0   11.67    0.41
  -2  -3   0   11.91    0.41
  -2   3   0   12.56    0.56
   2  -3   0   12.96    0.48
  -2  -3  -1  206.21    2.19
   2   3   1  176.55    2.51
  -2  -3  -1  186.34    1.97
   2   3   1  211.13    2.04
   2  -3   1  194.46    2.17
  -2   3  -1  187.44    1.98
   2  -3   1  191.00    2.08
  -2   3  -1  195.97    2.26
  -2  -3  -2   41.39    0.99
  -2   3  -2   41.10    1.09
  -2   3  -2   42.51    1.12
  -2  -3  -2   41.03    1.06
   2  -3   2   41.07    0.96
  -2  -3  -3  111.31    1.64
   2  -3   3  106.85    1.56
  -2  -3  -3  106.48    1.90
  -2   3  -3  100.47    2.01
   2   3   3  113.95    2.31
  -2   3  -3  108.57    1.90
   2   3   4   39.43    1.44
  -2  -3  -4   38.45    0.98
  -2   3  -4   37.67    1.36
  -2  -3  -4   40.11    1.29
   2  -3   4   38.87    0.95
  -2   3  -4   39.54    1.22
   2  -3   5   20.82    0.71
  -2  -3  -5   19.87    0.73
  -2  -3  -5   21.15    1.02
   2   3   5   18.73    1.05
  -2   3  -5   20.85    0.97
  -2   3  -5   19.71    1.08
   2  -3   6   21.51    0.69
  -2  -3  -6   24.94    0.83
   2   3   6   19.03    1.13
  -2  -3  -6   23.30    1.16
  -2   3  -6   21.26    1.22
  -2   3  -6   23.06    1.08
  -2   3  -7  122.45    3.16
  -2  -3  -7  121.62    1.80
  -2  -3  -7  121.85    2.85
   2   3   7  128.68    3.06
  -2   3  -7  123.80    2.64
  -2  -3  -8   26.06    0.81
   2  -3   8   23.92    0.63
  -2   3  -8   25.97    1.29
  -2   3  -8   23.90    1.49
  -2  -3  -8   24.21    1.39
   2   3   8   23.87    1.36
  -2   3  -9   27.87    1.42
  -2  -3  -9   31.13    1.67
   2   3   9   32.65    1.68
  -2   3  -9   27.63    1.73
   2   3  10    5.61    0.73
  -2   3 -10    5.90    0.88
  -2  -3 -10    5.22    0.73
  -2   3 -10    5.47    0.67
  -2   3 -11   18.03    1.60
  -2  -3 -11   21.28    1.52
  -2   3 -11   17.70    1.25
   2   3  11   16.76    1.32
  -2   4  11    2.93    0.53
   2  -4 -11    2.99    0.52
   2   4 -11    3.88    0.76
  -2   4  10    2.53    0.48
   2  -4 -10    1.81    0.38
   2   4 -10    2.25    0.34
   2   4 -10    2.73    0.62
   2  -4  -9   16.23    1.08
   2   4  -9   16.63    1.39
  -2   4   9   19.64    1.23
   2   4  -9   16.36    0.81
  -2  -4   8   17.35    0.64
   2  -4  -8   17.45    1.05
   2   4  -8   16.96    1.31
   2   4  -8   16.96    0.76
  -2   4   8   16.57    1.08
   2  -4  -8   16.75    0.66
   2  -4  -7    1.60    0.30
   2   4  -7    1.44    0.38
  -2  -4   7    1.74    0.21
   2  -4  -7    1.85    0.23
  -2   4   7    1.46    0.32
   2   4  -7    1.49    0.21
  -2  -4   6    2.78    0.28
   2  -4  -6    3.05    0.39
  -2   4   6    3.10    0.43
   2  -4  -6    2.56    0.26
   2   4  -6    3.06    0.48
   2   4  -6    2.46    0.23
  -2  -4   5   34.63    0.95
   2  -4  -5   37.03    1.02
  -2   4   5   33.69    1.28
   2   4  -5   34.64    0.71
   2   4  -5   32.21    1.45
  -2   4   5   33.38    1.31
   2  -4  -4   47.18    1.14
  -2   4   4   47.64    1.43
  -2  -4   4   46.15    1.10
   2   4  -4   45.20    0.68
  -2  -4   4   46.67    0.72
   2   4  -4   46.22    1.64
  -2   4   4   44.04    1.38
   2  -4  -3   35.65    1.01
   2   4  -3   37.63    0.56
  -2  -4   3   36.91    0.99
  -2   4   3   35.53    1.16
  -2   4   3   35.75    1.18
  -2  -4   3   36.17    0.56
   2   4  -3   38.01    1.36
  -2   4   2   82.14    1.68
  -2  -4   2   79.34    1.46
   2   4  -2   78.67    0.89
  -2   4   2   82.28    1.67
   2   4  -2   81.25    1.87
  -2   4   1  140.87    2.15
   2   4  -1  145.84    2.42
  -2  -4   1  140.13    1.35
  -2  -4   1  137.16    1.92
  -2   4   1  144.29    2.04
   2  -4  -1  142.74    1.93
  -2  -4   1  142.64    1.34
  -2   4   0   84.87    1.61
  -2  -4   0   79.05    1.47
   2   4   0   80.20    1.80
  -2  -4   0   79.68    1.20
   2  -4   0   82.77    1.51
  -2   4   0   76.25    1.41
  -2  -4   0   78.07    1.21
   2  -4   0   83.06    1.48
  -2  -4  -1  107.65    1.75
  -2   4  -1  101.86    1.68
   2   4   1  110.83    2.20
  -2  -4  -1  101.97    1.58
  -2   4  -1   99.76    1.77
   2  -4   1  106.93    1.73
  -2   4  -2    2.85    0.32
   2   4   2    2.70    0.37
  -2  -4  -2    2.63    0.28
  -2   4  -2    3.22    0.32
  -2  -4  -2    2.64    0.29
   2  -4   2    3.02    0.30
  -2   4  -3    9.04    0.57
  -2  -4  -3    9.28    0.58
   2  -4   3    8.96    0.51
  -2   4  -3    8.66    0.60
  -2  -4  -3    9.91    0.54
   2   4   3    9.23    0.72
  -2  -4  -4    7.28    0.47
   2  -4   4    8.09    0.47
  -2  -4  -4    6.37    0.53
  -2   4  -4    8.14    0.67
   2   4   4    6.75    0.65
  -2   4  -4    7.44    0.55
  -2   4  -5   11.40    0.71
   2   4   5   12.22    0.92
  -2   4  -5   11.94    0.90
  -2  -4  -5   12.21    0.80
  -2  -4  -5   11.90    0.60
   2  -4   5   12.04    0.57
  -2  -4  -6    1.99    0.26
   2   4   6    1.95    0.38
   2  -4   6    1.54    0.21
  -2  -4  -6    2.22    0.37
  -2   4  -6    1.98    0.32
  -2   4  -6    1.81    0.37
   2  -4   7   53.08    1.16
  -2  -4  -7   57.52    1.36
   2   4   7   58.49    2.18
  -2   4  -7   52.00    2.12
  -2  -4  -7   59.03    2.02
  -2   4  -7   55.12    1.76
   2  -4   8   10.84    0.49
  -2  -4  -8   11.15    0.60
   2   4   8   12.53    1.05
  -2  -4  -8   11.12    0.94
  -2   4  -8    9.96    0.80
  -2   4  -8   12.92    1.12
  -2   4  -9    5.95    0.83
  -2  -4  -9    6.55    0.79
   2   4   9    6.06    0.76
  -2   4  -9    5.85    0.66
   2   4  10   32.79    1.83
  -2   4 -10   26.51    1.83
  -2  -4 -10   29.89    1.74
  -2   4 -10   32.28    1.61
   2   4  11   18.55    1.44
  -2   4 -11   17.64    1.59
  -2  -4 -11   22.22    1.58
  -2   4 -11   19.05    1.29
  -2   5  11   14.05    1.18
   2  -5 -11   14.09    1.16
   2   5 -11   14.10    1.43
   2   5 -10    2.10    0.54
   2  -5 -10    1.83    0.40
  -2   5  10    2.01    0.44
   2  -5  -9    6.61    0.72
   2   5  -9    6.40    0.89
  -2   5   9    7.26    0.78
   2   5  -9    6.36    0.49
   2  -5  -8    9.59    0.56
  -2  -5   8    8.21    0.50
   2   5  -8    8.32    0.94
  -2   5   8    8.90    0.83
   2   5  -8    7.98    0.49
   2  -5  -8    8.33    0.76
   2   5  -7    0.48    0.14
   2  -5  -7    0.55    0.14
  -2  -5   7    0.56    0.15
   2  -5  -7    0.44    0.20
   2   5  -7    0.48    0.22
  -2   5   7    1.13    0.29
  -2   5   6   29.72    1.38
  -2  -5   6   25.62    0.89
   2  -5  -6   28.35    0.97
   2   5  -6   27.22    0.74
   2  -5  -6   29.39    1.27
   2   5  -6   25.44    1.44
   2  -5  -5   14.23    0.67
  -2  -5   5   14.76    0.68
  -2   5   5   14.07    0.91
   2   5  -5   16.13    0.52
  -2   5   5   16.32    0.97
   2   5  -5   14.46    1.01
   2   5  -4   16.66    0.48
  -2   5   4   15.78    0.88
  -2  -5   4   15.69    0.70
   2   5  -4   14.75    0.98
   2  -5  -4   16.83    0.73
  -2   5   4   15.92    0.92
  -2   5   3   64.20    1.71
  -2  -5   3   66.21    1.44
   2  -5  -3   66.44    1.47
   2   5  -3   65.30    0.98
  -2   5   3   65.73    1.74
   2   5  -3   68.92    1.95
  -2  -5   2   27.17    0.60
  -2   5   2   26.00    1.04
   2   5  -2   26.18    0.66
  -2  -5   2   24.76    0.89
   2   5  -2   26.53    1.18
   2  -5  -2   26.97    0.93
   2  -5  -1   17.71    0.74
   2   5  -1   16.83    0.90
  -2  -5   1   17.07    0.74
  -2   5   1   17.87    0.80
  -2   5   1   18.63    0.86
   2   5  -1   16.31    0.57
  -2  -5   1   16.97    0.54
  -2   5   0  182.87    2.59
  -2  -5   0  188.04    2.48
   2  -5   0  189.74    2.44
  -2   5   0  191.52    2.59
  -2  -5   0  182.66    2.06
   2  -5   1    1.00    0.18
  -2   5  -1    1.11    0.21
  -2  -5  -1    0.98    0.18
   2   5   1    1.34    0.28
  -2   5  -1    0.86    0.18
  -2  -5  -1    0.85    0.18
  -2   5  -2   27.38    1.02
   2   5   2   28.72    1.29
  -2  -5  -2   27.27    0.96
  -2  -5  -2   28.48    0.97
  -2   5  -2   27.64    1.05
   2  -5   2   27.68    0.93
  -2   5  -3    0.06    0.08
  -2   5  -3   -0.01    0.07
  -2  -5  -3    0.10    0.09
   2   5   3    0.05    0.11
  -2  -5  -3    0.00    0.09
  -2   5  -4    0.44    0.15
   2  -5   4    0.34    0.12
  -2  -5  -4    0.53    0.16
  -2   5  -4    0.47    0.19
  -2  -5  -4    0.59    0.19
   2   5   4    0.52    0.20
  -2  -5  -5    4.31    0.40
   2  -5   5    4.05    0.36
  -2   5  -5    4.09    0.45
   2   5   5    3.91    0.55
  -2  -5  -5    4.47    0.50
  -2   5  -5    3.71    0.51
   2  -5   6   29.19    0.96
   2   5   6   28.85    1.54
  -2  -5  -6   27.56    1.00
  -2   5  -6   28.45    1.49
  -2  -5  -6   25.62    1.28
  -2   5  -6   29.01    1.23
   2   5   7   56.29    2.23
  -2  -5  -7   50.61    1.37
  -2  -5  -7   48.21    1.87
  -2   5  -7   52.55    2.21
   2  -5   7   50.62    1.23
  -2   5  -7   52.56    1.75
  -2  -5  -8  105.79    1.98
  -2  -5  -8  100.53    2.88
  -2   5  -8  102.58    3.27
  -2   5  -8  101.09    2.55
   2  -5   8  103.68    1.69
  -2   5  -9   30.95    1.92
  -2  -5  -9   27.75    1.63
   2   5   9   29.30    1.75
  -2   5  -9   27.66    1.40
  -2   5 -10   30.56    2.05
  -2  -5 -10   34.64    1.93
   2   5  10   35.70    1.98
  -2   5 -10   36.36    1.68
   2   6 -11    0.67    0.40
   2  -6 -11    1.52    0.44
  -2   6  11    0.80    0.32
   2  -6 -10    5.88    0.73
   2   6 -10    5.33    0.84
  -2   6  10    5.75    0.75
   2  -6  -9    5.09    0.65
   2   6  -9    5.40    0.82
  -2   6   9    7.04    0.81
   2  -6  -8   14.73    0.77
   2  -6  -8   13.55    1.01
  -2   6   8   14.71    1.13
  -2  -6   8   14.83    0.73
   2   6  -8   14.75    1.28
  -2  -6   7   17.21    0.79
   2  -6  -7   19.35    0.86
  -2   6   7   17.34    1.18
   2  -6  -7   16.77    1.06
   2   6  -7   16.41    1.28
   2   6  -7   15.75    0.63
  -2  -6   6   10.45    0.62
  -2   6   6   10.59    0.88
   2   6  -6    9.78    0.93
   2   6  -6   10.35    0.48
   2  -6  -6   11.70    0.66
  -2  -6   5    7.74    0.54
  -2   6   5    6.89    0.68
   2   6  -5    7.61    0.39
  -2   6   5    7.78    0.70
   2  -6  -5    8.02    0.55
  -2  -6   5    7.08    0.40
   2   6  -5    7.17    0.76
   2  -6  -4   15.43    0.76
   2   6  -4   15.98    0.55
  -2   6   4   15.91    1.01
  -2  -6   4   15.53    0.77
  -2  -6   4   15.18    0.55
  -2   6   4   15.49    0.95
   2   6  -4   18.66    1.13
  -2   6   3   21.15    1.07
   2  -6  -3   21.35    0.88
   2   6  -3   21.85    0.67
   2   6  -3   22.77    1.24
  -2   6   3   21.98    1.11
  -2  -6   3   22.74    0.93
  -2  -6   3   21.68    0.62
  -2  -6   2   23.40    0.94
  -2   6   2   24.60    1.11
   2   6  -2   22.59    0.72
  -2   6   2   21.82    1.05
   2   6  -2   23.14    1.20
   2  -6  -2   23.20    0.92
   2   6  -1   14.82    0.94
  -2   6   1   12.96    0.78
  -2   6   1   14.25    0.82
  -2  -6   1   13.43    0.72
   2   6  -1   13.82    0.60
   2  -6  -1   13.52    0.70
   2   6   0   40.36    1.56
  -2   6   0   42.31    1.36
   2  -6   0   41.28    1.23
  -2  -6   0   41.21    1.07
  -2  -6   0   42.43    1.28
  -2   6   0   41.52    1.35
  -2   6  -1   72.57    1.80
   2   6   1   70.78    2.10
   2  -6   1   77.30    1.68
  -2  -6  -1   80.12    1.64
  -2   6  -1   76.03    1.83
  -2  -6  -1   77.54    1.72
   2  -6   2   44.62    1.29
  -2   6  -2   47.42    1.44
  -2   6  -2   45.15    1.47
   2   6   2   43.80    1.73
  -2  -6  -2   42.49    1.29
  -2  -6  -2   48.38    1.40
   2  -6   3   10.74    0.63
  -2  -6  -3   11.26    0.73
  -2   6  -3   10.02    0.68
   2   6   3   10.55    0.87
  -2  -6  -3   10.67    0.66
  -2   6  -3   10.49    0.76
  -2  -6  -4    4.95    0.45
  -2   6  -4    5.07    0.49
  -2  -6  -4    4.77    0.50
   2  -6   4    4.96    0.44
  -2   6  -4    3.77    0.49
   2   6   4    4.03    0.58
   2  -6   5    7.42    0.53
  -2  -6  -5    7.53    0.68
  -2  -6  -5    7.47    0.56
  -2   6  -5    7.10    0.71
  -2   6  -5    7.69    0.62
   2   6   5    7.83    0.83
  -2  -6  -6   21.63    0.96
  -2  -6  -6   20.76    1.19
   2  -6   6   22.47    0.91
  -2   6  -6   21.71    1.33
   2   6   6   22.36    1.44
  -2   6  -6   18.15    1.00
  -2  -6  -7   15.83    0.81
   2   6   7   17.66    1.32
  -2   6  -7   15.01    0.95
   2  -6   7   15.23    0.74
  -2  -6  -7   16.55    1.13
  -2   6  -7   15.18    1.19
  -2  -6  -8   12.84    1.06
  -2  -6  -8   10.23    0.68
   2  -6   8   11.80    0.64
   2   6   8   11.45    1.12
  -2   6  -8   11.52    1.13
  -2   6  -8   11.81    0.89
  -2   6  -9    1.10    0.38
  -2   6  -9    1.44    0.34
   2   6   9    1.38    0.44
  -2  -6  -9    0.85    0.33
  -2   6 -10    1.54    0.47
  -2   6 -10    1.83    0.41
   2   6  10    2.48    0.55
  -2  -6 -10    2.67    0.59
  -2   7  10    0.61    0.31
   2  -7 -10    0.96    0.33
   2   7 -10    0.65    0.33
   2  -7  -9    2.78    0.53
  -2   7   9    2.83    0.56
   2   7  -9    2.17    0.55
   2  -7  -8    5.64    0.51
  -2  -7   8    5.38    0.48
  -2   7   8    4.64    0.67
   2  -7  -8    5.49    0.68
   2   7  -8    6.79    0.88
   2  -7  -7   16.47    0.85
  -2   7   7   17.53    1.24
  -2  -7   7   16.86    0.86
   2  -7  -7   15.39    1.07
   2   7  -7   13.49    1.19
   2   7  -6    1.59    0.39
   2  -7  -6    2.93    0.36
   2   7  -6    3.03    0.29
  -2  -7   6    2.89    0.36
  -2   7   6    2.31    0.44
  -2   7   6    2.72    0.48
  -2   7   5   19.27    1.18
  -2   7   5   18.38    1.18
   2  -7  -5   18.05    0.89
   2   7  -5   17.66    0.66
   2   7  -5   18.79    1.26
  -2  -7   5   18.59    0.89
   2  -7  -4   28.84    1.11
   2   7  -4   28.32    0.84
   2   7  -4   30.52    1.55
  -2   7   4   28.31    1.37
  -2   7   4   26.33    1.38
  -2  -7   4   27.51    1.09
  -2   7   3   83.16    2.27
  -2  -7   3   86.59    1.94
   2  -7  -3   86.29    1.92
   2   7  -3   82.87    2.52
   2   7  -3   87.70    1.50
  -2   7   3   84.26    2.37
  -2   7   2   28.73    1.28
   2   7  -2   28.89    0.92
   2   7  -2   30.50    1.47
   2  -7  -2   27.63    1.08
  -2   7   2   27.17    1.30
  -2  -7   2   29.03    1.12
   2  -7  -1    8.81    0.61
  -2  -7   1   10.15    0.68
  -2   7   1   10.50    0.77
   2   7  -1   10.02    0.59
   2   7  -1    8.66    0.81
  -2   7   1   10.61    0.76
   2  -7   0    9.53    0.63
  -2   7   0    8.96    0.69
   2   7   0    9.41    0.81
  -2  -7   0    9.13    0.64
  -2   7   0    9.90    0.72
   2  -7   1    2.43    0.32
  -2   7  -1    2.43    0.38
  -2   7  -1    2.26    0.35
  -2  -7  -1    2.44    0.34
  -2  -7  -1    2.60    0.32
   2   7   1    2.16    0.43
  -2   7  -2   11.33    0.76
   2   7   2    9.97    0.88
  -2  -7  -2    9.98    0.68
  -2  -7  -2    8.74    0.63
   2  -7   2   10.78    0.67
  -2   7  -2   10.59    0.79
   2  -7   3    5.23    0.48
  -2  -7  -3    4.79    0.47
  -2   7  -3    5.28    0.53
  -2   7  -3    5.45    0.58
   2   7   3    4.32    0.61
  -2  -7  -3    5.62    0.53
  -2  -7  -4    6.74    0.56
  -2  -7  -4    6.90    0.64
   2  -7   4    7.08    0.56
  -2   7  -4    7.39    0.63
   2   7   4    6.94    0.80
  -2   7  -4    7.80    0.73
  -2   7  -5   34.24    1.38
   2  -7   5   34.72    1.21
  -2  -7  -5   33.25    1.27
  -2  -7  -5   31.92    1.44
  -2   7  -5   33.87    1.61
   2   7   5   32.25    1.77
   2  -7   6    9.60    0.64
  -2  -7  -6   10.27    0.86
   2   7   6   10.68    1.07
  -2  -7  -6    9.59    0.69
  -2   7  -6   10.40    0.95
  -2   7  -6    9.67    0.75
   2   7   7    4.07    0.70
  -2   7  -7    4.35    0.53
   2  -7   7    4.90    0.46
  -2  -7  -7    4.61    0.48
  -2  -7  -7    4.96    0.64
  -2   7  -7    5.83    0.75
   2  -7   8    6.41    0.52
   2   7   8    5.38    0.82
  -2  -7  -8    4.88    0.68
  -2   7  -8    5.86    0.65
  -2   7  -8    5.72    0.84
  -2  -7  -8    4.68    0.48
  -2  -7  -9    5.30    0.76
   2   7   9    6.08    0.88
  -2   7  -9    5.21    0.81
  -2   7  -9    5.60    0.66
   2   8  -9    0.05    0.19
   2  -8  -9    0.38    0.24
  -2   8   9    0.26    0.24
   2  -8  -8    3.50    0.43
   2  -8  -8    4.22    0.62
  -2   8   8    4.86    0.74
   2   8  -8    4.06    0.73
  -2  -8   8    4.23    0.45
  -2   8   7   19.08    1.39
   2  -8  -7   22.18    1.08
   2  -8  -7   19.07    1.24
   2   8  -7   18.06    1.43
  -2  -8   7   19.11    0.98
  -2   8   6    2.27    0.47
  -2  -8   6    1.58    0.29
   2   8  -6    1.97    0.47
   2  -8  -6    2.01    0.32
  -2   8   6    1.41    0.36
  -2  -8   5    8.60    0.66
   2   8  -5    8.48    0.51
   2  -8  -5    8.83    0.66
  -2   8   5    9.06    0.87
   2   8  -5    8.28    0.91
  -2   8   5    9.31    0.91
   2   8  -4    8.64    0.52
  -2  -8   4    6.75    0.59
  -2   8   4    6.52    0.70
  -2   8   4    9.36    0.89
   2   8  -4    8.71    0.90
   2  -8  -4    8.70    0.66
   2   8  -3   50.84    2.11
  -2  -8   3   54.57    1.65
   2   8  -3   57.56    1.37
  -2   8   3   57.84    1.99
   2  -8  -3   55.41    1.64
  -2   8   3   55.15    2.05
   2   8  -2   33.25    1.65
   2  -8  -2   32.56    1.25
   2   8  -2   33.72    1.10
  -2  -8   2   32.23    1.27
  -2   8   2   32.34    1.50
  -2   8   2   33.47    1.50
   2  -8  -1    6.62    0.57
  -2  -8   1    6.58    0.57
  -2   8   1    7.09    0.70
   2   8  -1    5.72    0.49
   2   8  -1    7.14    0.77
  -2   8   1    5.89    0.61
   2  -8   0    4.13    0.46
  -2  -8   0    3.45    0.43
  -2   8   0    3.68    0.47
  -2   8   0    2.89    0.44
   2   8   0    3.90    0.57
   2   8   1    1.17    0.32
   2  -8   1    1.02    0.23
  -2  -8  -1    0.87    0.22
  -2   8  -1    0.57    0.20
  -2  -8  -1    0.85    0.21
  -2   8  -1    0.76    0.22
   2  -8   2    3.88    0.44
  -2   8  -2    3.69    0.49
  -2   8  -2    3.56    0.47
  -2  -8  -2    3.68    0.45
   2   8   2    4.42    0.63
  -2  -8  -2    3.72    0.44
   2  -8   3   12.62    0.79
  -2   8  -3   13.00    0.88
  -2  -8  -3   12.89    0.82
  -2   8  -3   11.70    0.92
   2   8   3   13.25    1.12
  -2  -8  -3   12.53    0.85
  -2   8  -4    6.42    0.62
  -2   8  -4    7.37    0.77
   2  -8   4    7.18    0.60
   2   8   4    6.39    0.82
  -2  -8  -4    7.08    0.68
  -2  -8  -4    6.84    0.60
  -2   8  -5    2.57    0.41
  -2  -8  -5    2.15    0.35
   2  -8   5    1.73    0.30
  -2   8  -5    2.28    0.43
  -2  -8  -5    2.13    0.42
   2   8   5    2.75    0.57
  -2   8  -6    5.10    0.58
   2   8   6    4.84    0.76
  -2  -8  -6    6.03    0.59
   2  -8   6    5.44    0.52
  -2  -8  -6    5.22    0.64
  -2   8  -6    5.39    0.70
  -2   8  -7    2.57    0.43
   2  -8   7    3.14    0.41
  -2  -8  -7    2.57    0.39
   2   8   7    1.94    0.50
  -2  -8  -7    2.49    0.48
  -2   8  -7    3.02    0.56
  -2  -8  -8    2.54    0.53
  -2   8  -8    1.30    0.46
  -2   8  -8    1.41    0.34
  -2  -8  -8    1.26    0.28
   2   8   8    1.77    0.50
   2   8   9    1.42    0.44
  -2   8  -9    1.99    0.41
  -2   8  -9    1.84    0.48
  -2  -8  -9    1.70    0.46
   2  -9  -8    8.15    0.69
  -2   9   8    9.79    1.08
   2  -9  -8    7.03    0.85
   2   9  -8    6.66    0.93
  -2  -9   8    7.47    0.67
  -2   9   7    5.74    0.81
   2  -9  -7    4.60    0.53
   2  -9  -7    5.59    0.72
  -2  -9   7    4.15    0.51
   2   9  -7    5.05    0.78
   2  -9  -6    2.20    0.36
  -2   9   6    2.67    0.54
  -2  -9   6    2.69    0.41
   2   9  -6    2.36    0.56
  -2   9   6    2.61    0.54
  -2   9   5    9.49    0.93
   2   9  -5    7.34    0.91
  -2  -9   5    8.54    0.70
  -2   9   5    8.10    0.92
   2  -9  -5    7.75    0.67
   2  -9  -4   16.83    0.98
  -2  -9   4   17.08    1.00
  -2   9   4   16.49    1.17
   2   9  -4   16.71    1.31
   2   9  -4   17.68    0.81
  -2   9   4   15.05    1.19
   2   9  -3    9.29    0.97
  -2   9   3   10.43    0.91
  -2  -9   3   10.42    0.77
   2   9  -3   10.32    0.64
   2  -9  -3    9.67    0.73
  -2   9   3    9.94    0.93
   2  -9  -2   35.61    1.39
   2   9  -2   36.01    1.26
  -2   9   2   35.21    1.68
  -2  -9   2   33.08    1.38
   2   9  -2   35.36    1.85
  -2   9   2   38.15    1.71
  -2  -9   1    9.81    0.75
  -2   9   1    8.00    0.77
  -2   9   1   10.17    0.89
   2   9  -1   10.19    0.69
   2   9  -1    9.17    0.93
   2  -9  -1   10.54    0.76
  -2   9   0    8.47    0.80
  -2  -9   0    8.47    0.70
   2   9   0    7.90    0.87
  -2   9   0    8.16    0.76
   2  -9   0    7.59    0.65
  -2  -9  -1    2.92    0.43
   2   9   1    3.35    0.59
  -2   9  -1    3.40    0.49
   2  -9   1    3.66    0.45
  -2   9  -1    2.94    0.48
  -2  -9  -1    2.74    0.37
  -2   9  -2    9.26    0.84
  -2  -9  -2    8.94    0.73
   2  -9   2    8.86    0.70
   2   9   2    7.78    0.90
  -2  -9  -2    9.17    0.72
  -2   9  -2    9.24    0.79
   2  -9   3    8.06    0.67
  -2   9  -3    7.23    0.76
   2   9   3   10.02    1.04
  -2   9  -3    8.50    0.76
  -2  -9  -3    8.24    0.71
  -2  -9  -3    8.74    0.73
   2  -9   4    0.87    0.23
  -2  -9  -4    1.40    0.31
  -2   9  -4    1.33    0.33
  -2   9  -4    1.29    0.36
   2   9   4    0.38    0.23
  -2  -9  -4    0.89    0.24
   2  -9   5    3.64    0.45
  -2   9  -5    3.22    0.48
  -2   9  -5    3.04    0.55
  -2  -9  -5    3.07    0.44
  -2  -9  -5    3.75    0.54
   2   9   5    3.99    0.69
  -2   9  -6    7.71    0.75
  -2  -9  -6    6.96    0.67
   2  -9   6    7.44    0.64
   2   9   6    7.76    1.01
  -2  -9  -6    7.24    0.79
  -2   9  -6    7.10    0.85
  -2   9  -7    3.18    0.50
   2  -9   7    3.88    0.47
  -2  -9  -7    3.20    0.46
   2   9   7    2.92    0.66
  -2  -9  -7    3.36    0.59
  -2   9  -7    3.44    0.64
  -2   9  -8    0.63    0.33
  -2   9  -8    0.85    0.30
  -2  -9  -8    0.96    0.28
   2   9   8    1.76    0.55
  -2  -9  -8    1.31    0.40
   2 -10  -7    2.78    0.44
  -2 -10   7    2.13    0.40
   2  10  -7    2.14    0.54
  -2  10   7    2.09    0.53
   2 -10  -7    1.83    0.46
  -2  10   6   13.95    1.27
   2 -10  -6   15.43    0.99
  -2 -10   6   15.18    0.99
   2  10  -6   14.55    1.37
   2 -10  -5   12.49    0.91
   2  10  -5   12.96    1.26
  -2 -10   5   11.22    0.87
  -2  10   5   11.35    1.08
  -2  10   5   13.96    1.24
   2 -10  -4    4.94    0.55
   2  10  -4    4.69    0.76
  -2 -10   4    4.73    0.57
  -2  10   4    3.59    0.64
  -2  10   4    4.48    0.67
   2 -10  -3    8.13    0.71
   2  10  -3    8.40    0.98
  -2 -10   3    7.62    0.72
   2  10  -3    7.63    0.60
  -2  10   3    7.39    0.87
  -2  10   3    8.48    0.87
   2  10  -2   22.72    1.08
  -2  10   2   20.93    1.33
   2 -10  -2   22.51    1.18
  -2 -10   2   18.80    1.10
   2  10  -2   20.84    1.51
  -2  10   2   17.58    1.30
  -2  10   1    7.17    0.77
  -2 -10   1    6.84    0.68
   2  10  -1    8.49    0.95
   2  10  -1    6.78    0.61
  -2  10   1    7.44    0.83
   2 -10  -1    6.10    0.61
   2 -10   0    5.77    0.59
  -2 -10   0    4.24    0.54
  -2  10   0    5.29    0.66
  -2  10   0    4.86    0.67
   2  10   0    5.08    0.76
  -2 -10   0    4.53    0.49
   2  10   1    1.49    0.49
  -2  10  -1    1.08    0.32
   2 -10   1    1.01    0.27
  -2 -10  -1    1.27    0.31
  -2 -10  -1    1.49    0.31
  -2  10  -1    1.26    0.37
  -2 -10  -2   13.18    0.94
  -2  10  -2   13.05    0.99
  -2  10  -2   13.45    1.11
   2  10   2   13.77    1.27
  -2 -10  -2   13.52    0.92
   2 -10   2   13.88    0.91
   2 -10   3    4.19    0.50
  -2  10  -3    3.04    0.54
  -2 -10  -3    3.40    0.47
  -2  10  -3    3.10    0.49
  -2 -10  -3    3.57    0.50
   2  10   3    3.69    0.67
  -2 -10  -4    0.52    0.22
  -2  10  -4    0.25    0.19
  -2  10  -4   -0.06    0.17
   2  10   4    0.34    0.25
  -2 -10  -4    0.47    0.22
   2 -10   4    0.65    0.24
   2 -10   5    0.90    0.27
  -2  10  -5    0.63    0.24
  -2  10  -5    1.00    0.36
  -2 -10  -5    0.32    0.21
   2  10   5    1.12    0.43
  -2 -10  -5    0.97    0.28
  -2  10  -6    2.24    0.46
   2  10   6    3.83    0.75
  -2  10  -6    4.45    0.72
   2 -10   6    3.01    0.45
  -2 -10  -6    2.75    0.54
  -2 -10  -6    2.83    0.47
  -2  11   6    0.55    0.33
  -2 -11   6    0.61    0.28
   2 -11  -6    1.17    0.32
   2  11  -6    1.04    0.41
   2 -11  -5   14.69    1.04
  -2 -11   5   13.96    1.00
   2  11  -5   13.30    1.34
  -2  11   5   13.68    1.31
  -2  11   5   15.14    1.34
   2 -11  -4    9.70    0.84
   2  11  -4   10.66    1.17
  -2 -11   4   11.07    0.91
  -2  11   4   10.17    1.03
  -2  11   4    9.90    1.10
   2 -11  -3    7.28    0.73
   2  11  -3    8.36    1.04
  -2 -11   3    6.99    0.71
  -2  11   3    9.31    0.98
  -2  11   3    7.93    0.95
  -2 -11   2    4.03    0.55
   2  11  -2    5.36    0.84
   2 -11  -2    4.25    0.56
  -2  11   2    4.09    0.64
   2  11  -2    5.13    0.55
  -2  11   2    3.41    0.61
   2  11  -1    4.22    0.73
  -2  11   1    4.47    0.63
  -2  11   1    4.59    0.69
  -2 -11   1    4.54    0.58
   2 -11  -1    5.27    0.61
   2 -11   0    4.01    0.52
  -2 -11   0    3.87    0.53
  -2  11   0    4.65    0.66
   2  11   0    4.30    0.78
  -2 -11   0    2.89    0.41
  -2  11   0    3.25    0.59
  -2  11  -1    9.43    0.91
   2 -11   1    9.38    0.80
  -2 -11  -1   11.38    0.92
  -2  11  -1   10.46    1.04
   2  11   1   11.66    1.22
  -2 -11  -1   10.11    0.80
   2  11   2    2.35    0.55
  -2 -11  -2    2.36    0.44
  -2  11  -2    2.65    0.50
   2 -11   2    2.48    0.42
  -2 -11  -2    2.90    0.45
  -2  11  -2    1.75    0.43
   2 -11   3    5.26    0.62
  -2  11  -3    4.90    0.74
  -2 -11  -3    4.31    0.59
  -2  11  -3    5.91    0.71
  -2 -11  -3    4.20    0.56
   2  11   3    5.22    0.87
   2 -11   4    3.97    0.54
  -2  11  -4    2.78    0.58
  -2  11  -4    3.29    0.53
  -2 -11  -4    3.23    0.52
   2  11   4    4.16    0.79
  -2 -11  -4    2.05    0.42
  -2  11  -5    5.33    0.78
   2 -11   5    5.35    0.64
  -2  11  -5    4.89    0.65
  -2 -11  -5    4.42    0.62
  -2 -11  -5    4.64    0.67
   2  11   5    5.31    0.93
   2 -12  -3    3.63    0.54
  -2 -12   3    4.64    0.62
   2  12  -3    3.61    0.75
  -2  12   3    4.57    0.73
  -2  12   3    3.47    0.70
   2 -12  -2    1.11    0.30
  -2  12   2    1.88    0.51
  -2 -12   2    1.46    0.38
  -2  12   2    1.96    0.50
   2  12  -2    1.63    0.49
  -2 -12   1    3.68    0.55
   2  12  -1    4.32    0.81
  -2  12   1    4.30    0.68
  -2  12   1    4.66    0.76
   2 -12  -1    3.56    0.54
  -2  12   0    2.54    0.59
   2 -12   0    3.25    0.52
  -2 -12   0    2.74    0.50
   2  12   0    3.38    0.73
  -2 -12   0    2.89    0.44
  -2  12   0    3.37    0.60
   2 -12   1    4.32    0.58
  -2 -12  -1    4.09    0.59
  -2  12  -1    3.70    0.63
   2  12   1    4.55    0.84
  -2 -12  -1    4.40    0.57
  -2  12  -1    4.92    0.78
  -2  12  -2    7.90    0.98
   2 -12   2   10.39    0.92
  -2 -12  -2   10.22    0.94
  -2 -12  -2    8.52    0.80
   2  12   2   10.17    1.26
  -2  12  -2    8.21    0.91
   2 -12   3    4.90    0.64
  -2 -12  -3    4.02    0.61
  -2  12  -3    3.62    0.60
   2  12   3    4.62    0.87
  -2 -12  -3    4.06    0.61
  -2  12  -3    3.40    0.66
   3   0 -12   14.87    1.47
   3   0 -12   17.62    1.17
   3   0 -11    0.12    0.25
   3   0 -11    0.25    0.18
   3   0 -10    0.16    0.21
   3   0 -10    0.23    0.15
   3   0  -9    1.48    0.41
   3   0  -9    0.63    0.19
   3   0  -8   20.25    0.60
   3   0  -8   19.68    0.91
  -3   0   7    0.29    0.09
   3   0  -7    0.42    0.16
  -3   0   6   19.07    0.65
   3   0  -6   17.88    1.02
   3   0  -6   20.36    0.76
  -3   0   5    0.61    0.11
   3   0  -5    0.51    0.10
   3   0  -5    0.33    0.14
   3   0  -4  248.81    2.16
  -3   0   4  252.98    2.49
  -3   0   4  251.34    2.27
   3   0  -3   25.37    0.62
  -3   0   3   23.57    0.63
   3   0  -3   23.65    0.67
  -3   0   3   24.08    0.77
   3   0  -3   23.10    0.81
  -3   0   2  194.49    1.72
  -3   0   2  197.20    2.23
   3   0  -2  197.82    1.70
   3   0  -1  100.73    1.02
  -3   0   1  102.32    1.59
  -3   0   1   90.89    1.19
   3   0  -1   92.81    1.26
  -3   0   0    0.05    0.07
   3   0   0    0.12    0.07
  -3   0   0   -0.02    0.05
   3   0   0    0.01    0.02
   3   0   1    9.01    0.37
  -3   0  -1    9.64    0.49
  -3   0  -1    9.32    0.39
  -3   0  -1    9.10    0.47
  -3   0  -2   11.04    0.53
   3   0   2   10.17    0.47
  -3   0  -2   10.19    0.51
  -3   0  -2   11.93    0.60
  -3   0  -3    5.91    0.40
  -3   0  -3    5.81    0.47
   3   0   3    5.99    0.40
  -3   0  -4   16.99    0.67
   3   0   4   16.59    0.75
   3   0   5    8.68    0.59
  -3   0  -5    8.80    0.48
  -3   0  -5    7.38    0.62
   3   0   6   22.07    1.02
  -3   0  -6   22.49    0.76
  -3   0  -6   22.53    1.15
  -3   0  -7   27.56    0.81
   3   0   7   29.18    1.27
  -3   0  -7   29.18    1.40
   3   0   8   43.38    1.67
  -3   0  -8   41.83    1.76
   3   0   9    8.83    0.80
  -3   0  -9    9.95    0.93
  -3   0 -10    0.18    0.17
   3   0  10    1.01    0.29
  -3   0 -11    2.35    0.53
   3   0  11    1.38    0.41
   3  -1 -12    6.03    0.93
   3   1 -12    4.47    0.84
   3  -1 -12    4.48    0.62
  -3   1  11    9.09    0.90
   3  -1 -11    9.67    0.84
   3   1 -11    9.88    0.79
   3   1 -11    8.68    1.08
  -3   1  10    6.85    0.71
   3   1 -10    7.98    0.97
   3  -1 -10    6.48    0.63
   3   1 -10    6.83    0.62
   3   1  -9    3.94    0.65
   3  -1  -9    3.56    0.45
   3   1  -9    4.63    0.47
  -3   1   9    4.17    0.51
  -3  -1   8   10.69    0.44
   3  -1  -8   11.31    0.48
   3   1  -8   10.82    0.98
  -3   1   8   12.63    0.82
   3  -1  -8   11.92    0.74
   3   1  -8   10.69    0.64
  -3   1   7   24.75    1.08
  -3  -1   7   24.02    0.74
   3  -1  -7   24.73    0.74
   3   1  -7   22.11    1.28
   3  -1  -7   23.73    0.97
  -3   1   6    0.33    0.12
  -3  -1   6    0.28    0.09
   3  -1  -6   -0.01    0.08
   3   1  -6    0.38    0.12
   3   1  -6   -0.11    0.18
   3   1  -5  172.76    1.77
  -3   1   5  162.29    2.23
  -3  -1   5  175.35    2.07
  -3   1   5  178.50    2.01
  -3   1   5  195.13    2.44
   3   1  -5  160.77    1.75
   3   1  -5  181.81    3.10
   3   1  -4   16.65    0.46
  -3   1   4   18.55    0.65
  -3  -1   4   16.75    0.65
  -3   1   4   15.91    0.65
  -3   1   4   16.42    0.63
   3   1  -4   17.73    0.48
   3   1  -4   15.56    0.83
  -3   1   3   75.57    1.31
  -3  -1   3   72.54    0.88
  -3  -1   3   71.48    1.37
  -3   1   3   75.31    1.37
   3   1  -3   70.62    0.82
   3  -1  -3   74.82    1.25
   3   1  -3   71.63    1.55
  -3   1   3   72.42    1.08
  -3  -1   2    2.11    0.14
  -3   1   2    1.85    0.20
  -3  -1   2    1.85    0.22
   3  -1  -2    2.05    0.20
   3  -1  -2    1.80    0.15
  -3   1   2    1.98    0.23
   3  -1  -2    2.09    0.18
  -3  -1   2    2.33    0.25
   3   1  -2    2.01    0.22
   3   1  -2    1.98    0.15
   3   1  -1   53.15    1.00
  -3   1   1   56.90    1.08
  -3  -1   1   53.43    1.17
  -3   1   1   54.31    1.18
  -3  -1   1   52.05    0.80
  -3  -1   1   54.72    1.03
   3   1  -1   53.28    0.87
  -3  -1   0   26.94    0.70
  -3  -1   0   26.04    0.83
  -3   1   0   27.18    0.83
   3   1   0   25.69    0.71
   3   1   0   27.46    0.73
  -3   1   0   25.07    0.74
  -3  -1   0   27.39    0.69
  -3  -1  -1   40.55    0.95
  -3  -1  -1   41.25    1.05
  -3   1  -1   41.46    1.03
   3  -1   1   39.72    0.58
  -3  -1  -1   43.93    1.03
   3   1   1   39.10    0.97
  -3   1  -1   42.55    1.05
   3   1   2  268.53    2.79
  -3   1  -2  256.96    2.27
  -3  -1  -2  268.46    2.73
  -3   1  -2  251.74    2.57
   3  -1   2  250.51    2.01
  -3  -1  -2  253.82    2.78
  -3  -1  -3   44.49    1.11
   3   1   3   43.76    1.24
  -3   1  -3   45.32    1.09
   3  -1   3   45.68    1.01
  -3  -1  -3   48.27    1.35
  -3   1  -3   45.58    1.31
  -3   1  -4    8.53    0.47
   3   1   4    7.65    0.57
  -3  -1  -4    7.85    0.59
   3  -1   4    7.94    0.49
  -3   1  -4    8.92    0.64
  -3  -1  -4    8.13    0.48
  -3  -1  -5   16.78    0.69
  -3   1  -5   17.65    0.67
  -3  -1  -5   18.32    0.98
   3   1   5   16.46    0.88
  -3   1  -5   16.81    0.93
   3  -1   5   18.60    0.83
   3  -1   6    5.51    0.50
  -3  -1  -6    6.43    0.43
  -3   1  -6    5.69    0.37
  -3  -1  -6    5.49    0.58
  -3   1  -6    5.24    0.56
   3   1   6    6.65    0.59
   3   1   7   13.51    0.89
   3  -1   7   13.00    0.84
   3  -1   7   13.18    0.55
  -3  -1  -7   11.23    0.56
  -3  -1  -7   12.46    0.94
  -3   1  -7   11.31    0.87
   3   1   8   10.68    0.85
   3  -1   8   11.61    0.86
  -3  -1  -8   11.65    0.53
  -3  -1  -8   11.93    0.97
  -3   1  -8   12.75    0.98
   3  -1   8   13.60    0.53
   3   1   9   15.31    1.09
   3  -1   9   13.72    1.00
  -3  -1  -9   14.02    1.13
  -3   1  -9   12.17    1.01
   3  -1  10    3.34    0.52
  -3   1 -10    2.95    0.53
  -3  -1 -10    4.19    0.67
   3   1  10    3.76    0.57
   3  -1  11    0.75    0.27
  -3   1 -11    0.27    0.25
   3   1  11    0.69    0.29
  -3  -1 -11    0.60    0.31
  -3   2  12    1.16    0.35
   3  -2 -12    0.72    0.27
   3   2 -12    0.23    0.29
   3   2 -11    3.13    0.69
   3  -2 -11    4.44    0.58
  -3   2  11    3.34    0.56
  -3   2  10    3.31    0.48
   3   2 -10    3.45    0.67
   3  -2 -10    3.19    0.48
   3   2 -10    3.50    0.42
  -3   2   9    7.34    0.69
   3  -2  -9    7.39    0.67
   3   2  -9    8.14    0.93
   3   2  -9    7.64    0.57
   3  -2  -8   12.00    0.54
  -3  -2   8   11.47    0.51
   3  -2  -8   12.66    0.81
   3   2  -8   10.94    1.00
   3   2  -8   12.78    0.65
  -3   2   8   12.76    0.84
  -3  -2   7   12.15    0.55
   3  -2  -7   12.81    0.56
   3  -2  -7   12.88    0.77
   3   2  -7   13.29    1.02
   3   2  -7   13.10    0.59
  -3   2   7   13.12    0.79
   3   2  -6   12.68    0.49
  -3  -2   6   13.46    0.60
   3   2  -6   13.72    0.98
   3  -2  -6   14.17    0.75
  -3   2   6   13.47    0.72
   3   2  -6   13.46    0.52
   3  -2  -6   14.05    0.60
   3   2  -5   92.17    1.07
  -3  -2   5   90.99    1.57
  -3   2   5   90.14    1.81
   3   2  -5   93.68    2.33
   3   2  -5   88.16    1.09
  -3   2   4   37.31    0.94
  -3   2   4   40.72    1.15
   3   2  -4   36.89    0.51
   3   2  -4   36.48    1.32
  -3  -2   4   38.93    1.04
   3   2  -4   39.41    0.49
   3  -2  -4   40.47    1.04
  -3   2   3    1.24    0.15
  -3   2   3    1.07    0.18
  -3  -2   3    1.17    0.18
  -3   2   3    1.41    0.20
   3   2  -3    1.43    0.24
   3  -2  -3    1.53    0.20
  -3   2   2   51.33    1.15
  -3   2   2   50.54    1.13
   3  -2  -2   52.95    0.89
   3   2  -2   54.81    1.29
  -3   2   2   50.99    0.74
  -3  -2   2   48.17    1.15
  -3   2   1   80.74    1.44
   3   2  -1   86.97    1.51
  -3  -2   1   83.73    1.52
  -3   2   1   90.06    1.51
   3   2  -1   84.24    0.97
  -3  -2   1   90.86    1.56
  -3  -2   1   80.45    0.93
  -3  -2   0   21.92    0.79
  -3   2   0   21.00    0.73
  -3   2   0   22.97    0.78
  -3  -2   0   21.25    0.74
   3   2   0   23.53    0.64
  -3  -2   0   20.84    0.60
   3   2   0   21.56    0.77
  -3   2  -1   42.69    1.05
  -3   2  -1   45.80    1.14
   3   2   1   44.26    1.18
  -3   2  -1   42.34    0.75
  -3  -2  -1   44.09    1.05
  -3  -2  -1   43.91    1.12
  -3  -2  -2   22.99    0.81
  -3   2  -2   22.69    0.76
  -3   2  -2   23.03    0.75
  -3   2  -2   22.19    0.62
  -3  -2  -2   23.97    0.87
   3   2   2   22.33    0.91
  -3   2  -2   24.22    0.90
  -3  -2  -3   51.94    1.23
   3   2   3   55.05    1.55
  -3   2  -3   52.81    1.17
  -3   2  -3   52.69    1.34
  -3  -2  -3   51.23    1.41
  -3   2  -3   55.57    1.45
   3   2   4   18.26    0.94
  -3  -2  -4   17.73    0.75
  -3   2  -4   16.64    0.67
  -3  -2  -4   17.60    0.90
  -3   2  -4   16.08    0.85
   3  -2   5   85.56    1.78
   3  -2   5   88.24    1.53
  -3  -2  -5   85.99    1.64
   3   2   5   86.40    2.18
  -3  -2  -5   84.77    2.14
  -3   2  -5   83.72    2.04
   3  -2   6   39.73    1.34
   3  -2   6   37.37    0.99
  -3  -2  -6   38.38    1.09
   3   2   6   39.60    1.57
  -3  -2  -6   34.81    1.47
  -3   2  -6   36.52    1.44
   3  -2   7   11.81    0.79
  -3  -2  -7   11.55    0.59
  -3  -2  -7   11.40    0.90
  -3   2  -7   11.09    0.84
   3   2   7   12.60    0.91
   3  -2   7   11.86    0.55
   3   2   8    6.34    0.70
  -3  -2  -8    5.12    0.39
   3  -2   8    5.98    0.38
  -3  -2  -8    4.91    0.63
  -3   2  -8    6.04    0.67
   3   2   9   10.51    0.92
  -3   2  -9    8.15    0.94
  -3  -2  -9    9.31    0.94
  -3   2  -9    9.20    0.87
  -3   2 -10    0.82    0.32
   3   2  10    0.66    0.26
  -3   2 -10    0.95    0.41
  -3  -2 -10    0.61    0.28
  -3   2 -11    1.95    0.46
   3   2  11    2.04    0.46
  -3   2 -11    2.04    0.56
  -3  -2 -11    2.02    0.51
  -3   3  11    0.11    0.13
   3   3 -11    0.01    0.20
   3  -3 -11    0.39    0.21
   3  -3 -10    4.15    0.56
   3   3 -10    4.40    0.77
  -3   3  10    5.37    0.64
   3  -3  -9    6.00    0.62
  -3   3   9    4.83    0.58
   3   3  -9    5.58    0.80
   3   3  -9    5.04    0.43
  -3  -3   8   61.51    1.27
  -3   3   8   63.71    1.90
   3  -3  -8   59.70    1.84
   3   3  -8   55.85    2.32
   3  -3  -8   58.02    1.26
   3   3  -8   58.87    1.31
  -3   3   7    9.10    0.68
   3  -3  -7    8.82    0.52
  -3  -3   7    9.63    0.53
   3  -3  -7    9.17    0.68
   3   3  -7    9.54    0.90
   3   3  -7    8.93    0.45
  -3   3   6   80.87    1.87
   3   3  -6   80.13    1.08
   3  -3  -6   83.09    1.59
  -3  -3   6   82.63    1.60
   3   3  -6   80.78    2.44
   3   3  -6   83.86    1.10
   3   3  -5   10.42    0.26
  -3  -3   5   11.04    0.58
   3  -3  -5    9.95    0.54
  -3   3   5   10.44    0.67
   3   3  -5   11.85    0.86
   3   3  -5   10.67    0.25
  -3   3   5   10.05    0.61
  -3  -3   4   23.94    0.85
  -3   3   4   25.47    1.00
  -3   3   4   24.43    0.86
   3   3  -4   25.95    1.18
   3  -3  -4   23.90    0.84
   3  -3  -3    1.13    0.19
  -3   3   3    0.90    0.19
   3  -3  -3    1.30    0.20
  -3   3   3    1.33    0.19
  -3  -3   3    1.00    0.18
   3   3  -3    1.22    0.23
  -3   3   2   61.42    1.39
  -3   3   2   58.34    1.04
  -3  -3   2   57.93    1.33
   3  -3  -2   61.45    1.08
   3  -3  -2   58.72    1.32
   3   3  -2   61.97    1.54
  -3   3   1   84.77    1.63
  -3  -3   1   80.08    1.56
   3   3  -1   75.68    1.64
  -3  -3   1   79.62    0.96
  -3   3   1   79.31    1.08
   3  -3  -1   79.57    1.02
   3  -3  -1   82.75    1.56
  -3   3   0   22.37    0.54
  -3  -3   0   22.76    0.84
   3   3   0   20.62    0.86
   3  -3   0   21.14    0.79
  -3   3   0   21.46    0.81
   3   3   0   21.22    0.61
   3  -3   0   22.85    0.59
  -3  -3   0   21.40    0.64
  -3  -3  -1   15.74    0.70
   3   3   1   15.10    0.78
  -3   3  -1   16.92    0.75
  -3  -3  -1   15.85    0.64
  -3   3  -1   15.11    0.44
  -3   3  -1   16.45    0.53
   3  -3   1   16.32    0.70
  -3  -3  -2   13.10    0.65
  -3   3  -2   12.48    0.47
  -3   3  -2   11.60    0.64
  -3  -3  -2   12.06    0.64
  -3   3  -2   13.56    0.62
   3   3   2   12.51    0.76
   3  -3   2   13.25    0.63
  -3  -3  -3   24.01    0.88
   3  -3   3   24.66    0.85
  -3   3  -3   25.99    1.00
  -3  -3  -3   21.45    0.93
  -3   3  -3   24.98    1.01
   3   3   3   24.22    1.12
   3   3   4    5.13    0.54
  -3  -3  -4    4.80    0.41
  -3   3  -4    4.47    0.46
  -3  -3  -4    5.62    0.53
  -3   3  -4    5.05    0.47
   3  -3   4    4.53    0.37
   3   3   5   29.18    1.35
  -3  -3  -5   29.81    1.01
   3  -3   5   30.81    0.95
  -3   3  -5   30.36    1.36
  -3  -3  -5   32.05    1.35
  -3   3  -5   31.19    1.25
  -3  -3  -6   25.53    0.96
   3   3   6   25.91    1.34
  -3   3  -6   25.52    1.34
  -3  -3  -6   25.76    1.28
  -3   3  -6   25.07    1.22
   3  -3   6   26.74    0.88
  -3   3  -7    1.08    0.29
  -3  -3  -7    1.42    0.23
   3  -3   7    1.57    0.21
  -3   3  -7    1.47    0.37
  -3  -3  -7    1.32    0.32
   3   3   7    1.26    0.32
  -3   3  -8    0.38    0.21
   3  -3   8    0.58    0.14
  -3  -3  -8    0.52    0.16
   3   3   8    0.28    0.17
  -3   3  -8    0.18    0.15
   3   3   9    2.38    0.48
  -3   3  -9    1.22    0.39
  -3   3  -9    2.39    0.45
  -3  -3  -9    1.78    0.40
  -3   3 -10    0.15    0.19
  -3   3 -10    0.56    0.32
  -3  -3 -10    0.30    0.27
   3   3  10    0.16    0.15
   3  -4 -11    7.01    0.78
   3   4 -11    5.80    0.95
  -3   4  11    6.32    0.74
   3   4 -10    0.30    0.28
  -3   4  10    0.43    0.22
   3  -4 -10    0.07    0.15
  -3   4   9    1.35    0.32
   3   4  -9    0.81    0.39
   3  -4  -9    0.94    0.27
  -3   4   8   10.76    0.83
   3  -4  -8   10.69    0.83
  -3  -4   8   10.41    0.59
   3  -4  -8    9.55    0.56
   3   4  -8    9.03    0.96
   3   4  -8    9.61    0.47
   3   4  -7    0.18    0.15
   3   4  -7    0.48    0.10
   3  -4  -7    0.29    0.13
  -3  -4   7    0.13    0.09
  -3   4   7    0.13    0.12
   3  -4  -7    0.36    0.18
  -3  -4   6    3.25    0.34
   3   4  -6    2.97    0.18
  -3   4   6    2.95    0.42
   3  -4  -6    2.80    0.32
   3   4  -6    3.42    0.52
  -3   4   6    2.80    0.38
   3   4  -6    3.06    0.17
   3  -4  -5    9.09    0.56
  -3  -4   5    7.69    0.51
  -3   4   5    9.34    0.69
  -3   4   5    8.63    0.62
   3   4  -5    8.49    0.76
  -3  -4   4    5.52    0.44
  -3   4   4    6.28    0.49
   3   4  -4    6.96    0.64
   3  -4  -4    5.90    0.45
  -3   4   4    5.52    0.51
  -3   4   3    6.90    0.48
  -3  -4   3    6.68    0.47
   3  -4  -3    7.16    0.49
  -3   4   3    6.64    0.53
   3   4  -3    6.84    0.58
  -3  -4   2   34.05    0.40
   3  -4  -2   34.90    0.93
  -3   4   2   32.01    1.12
  -3  -4   2   33.70    1.06
   3  -4  -2   35.73    1.10
   3   4  -2   36.40    1.29
  -3  -4   2   35.74    0.44
  -3   4   2   35.30    0.98
   3   4  -1   62.23    1.65
  -3   4   1   62.76    1.52
  -3  -4   1   60.12    1.42
  -3   4   1   64.09    1.23
  -3  -4   1   59.52    0.92
   3  -4  -1   62.59    1.16
   3  -4  -1   59.53    1.40
  -3   4   0    5.75    0.46
  -3  -4   0    5.79    0.45
  -3   4   0    6.68    0.38
   3   4   0    6.16    0.53
  -3  -4   0    5.78    0.35
  -3  -4   0    6.43    0.37
   3  -4   0    6.64    0.40
   3  -4   0    6.06    0.44
  -3   4  -1   26.90    1.00
   3   4   1   27.78    1.16
  -3   4  -1   29.02    0.84
  -3  -4  -1   30.19    1.03
   3  -4   1   28.59    0.92
  -3  -4  -1   26.95    0.86
   3  -4   1   27.51    0.96
  -3  -4  -2   27.02    0.98
  -3   4  -2   25.20    1.00
   3   4   2   24.23    1.13
  -3  -4  -2   24.02    0.92
  -3   4  -2   25.51    0.90
   3  -4   2   27.00    0.94
   3  -4   3    0.63    0.15
  -3   4  -3    0.84    0.20
  -3  -4  -3    0.82    0.17
  -3   4  -3    0.85    0.19
   3   4   3    0.32    0.15
  -3  -4  -3    0.55    0.17
   3   4   4   18.30    1.10
  -3  -4  -4   17.48    0.94
  -3   4  -4   17.44    0.96
  -3  -4  -4   18.87    0.84
  -3   4  -4   17.11    0.91
   3  -4   4   18.26    0.78
   3   4   5   70.44    2.23
  -3  -4  -5   72.94    1.66
   3  -4   5   73.28    1.58
  -3   4  -5   73.91    2.21
  -3  -4  -5   74.50    2.08
  -3   4  -5   73.08    1.95
  -3  -4  -6  124.06    2.23
   3   4   6  124.68    3.10
   3  -4   6  123.31    2.07
  -3   4  -6  125.74    3.04
  -3  -4  -6  126.81    2.93
  -3   4  -6  122.91    2.66
   3  -4   7    1.34    0.22
   3   4   7    1.57    0.36
  -3  -4  -7    1.57    0.26
  -3  -4  -7    1.95    0.39
  -3   4  -7    2.38    0.40
  -3   4  -7    1.51    0.39
   3  -4   8    5.90    0.42
  -3   4  -8    6.25    0.80
   3   4   8    7.40    0.83
  -3  -4  -8    6.91    0.79
  -3   4  -8    6.91    0.71
  -3  -4  -8    6.77    0.53
  -3   4  -9    3.55    0.63
  -3  -4  -9    3.78    0.61
   3   4   9    3.26    0.57
  -3   4  -9    3.26    0.51
   3   4  10    5.49    0.77
  -3   4 -10    4.55    0.77
  -3  -4 -10    5.55    0.79
  -3   4 -10    5.05    0.67
   3   5 -11    0.93    0.45
  -3   5  11    1.24    0.35
   3  -5 -11    1.23    0.36
  -3   5  10    6.47    0.75
   3  -5 -10    6.01    0.73
   3   5 -10    5.66    0.85
   3  -5  -9    3.51    0.36
  -3   5   9    3.16    0.51
   3  -5  -9    3.25    0.50
   3   5  -9    3.27    0.62
  -3  -5   8    1.87    0.26
   3   5  -8    1.52    0.42
   3  -5  -8    1.70    0.26
   3  -5  -8    1.59    0.35
  -3   5   8    2.12    0.40
   3  -5  -7    2.36    0.31
   3   5  -7    1.46    0.38
  -3  -5   7    2.43    0.32
   3  -5  -7    2.05    0.37
  -3   5   7    1.77    0.36
   3  -5  -6   14.21    0.73
   3   5  -6   12.20    0.30
  -3  -5   6   13.39    0.71
  -3   5   6   14.84    0.96
  -3   5   6   13.58    0.90
   3   5  -6   13.23    1.06
  -3  -5   5   18.30    0.84
  -3   5   5   17.52    0.96
  -3   5   5   18.93    1.04
   3  -5  -5   18.24    0.83
   3   5  -5   17.18    1.12
   3  -5  -4    2.75    0.34
  -3  -5   4    2.67    0.32
  -3   5   4    2.49    0.37
  -3   5   4    2.35    0.34
   3   5  -4    2.67    0.42
  -3  -5   3    1.28    0.22
  -3   5   3    0.97    0.22
   3  -5  -3    1.22    0.24
  -3   5   3    1.07    0.22
   3   5  -2    3.96    0.47
  -3  -5   2    4.36    0.21
  -3  -5   2    3.92    0.39
   3  -5  -2    4.26    0.41
  -3   5   2    4.26    0.45
  -3  -5   2    4.11    0.21
  -3   5   2    4.32    0.41
   3   5  -1    5.82    0.56
  -3   5   1    5.54    0.50
  -3  -5   1    6.66    0.33
   3  -5  -1    6.22    0.49
  -3  -5   1    5.75    0.47
  -3   5   1    6.23    0.45
  -3  -5   1    6.18    0.33
  -3   5   0   18.96    0.91
  -3   5   0   20.20    0.78
   3   5   0   18.08    0.99
  -3  -5   0   19.31    0.86
   3  -5   0   21.31    0.91
  -3  -5   0   20.05    0.71
   3  -5   1    0.69    0.17
  -3  -5  -1    0.82    0.20
  -3   5  -1    0.58    0.15
  -3  -5  -1    0.58    0.15
   3   5   1    0.34    0.17
  -3   5  -1    0.85    0.20
  -3  -5  -2    1.57    0.26
  -3   5  -2    2.23    0.31
   3   5   2    1.79    0.35
  -3  -5  -2    2.10    0.28
  -3   5  -2    1.88    0.27
   3  -5   2    2.08    0.29
  -3   5  -3    2.70    0.37
   3  -5   3    3.43    0.37
  -3  -5  -3    3.47    0.38
  -3  -5  -3    3.73    0.42
   3   5   3    3.52    0.50
  -3   5  -3    3.50    0.40
  -3  -5  -4    8.31    0.58
   3  -5   4    8.63    0.59
  -3  -5  -4    8.67    0.67
  -3   5  -4    8.51    0.70
   3   5   4    8.98    0.82
  -3   5  -4    8.21    0.64
   3  -5   5   40.64    1.26
   3   5   5   37.60    1.76
  -3  -5  -5   41.84    1.34
  -3  -5  -5   41.14    1.59
  -3   5  -5   41.89    1.66
  -3   5  -5   40.42    1.49
   3  -5   6    2.97    0.34
   3   5   6    2.74    0.51
  -3  -5  -6    2.54    0.34
  -3  -5  -6    2.40    0.43
  -3   5  -6    2.32    0.44
  -3   5  -6    2.61    0.40
   3  -5   7    7.03    0.51
  -3  -5  -7    7.74    0.60
   3   5   7    8.24    0.87
  -3   5  -7    8.87    0.90
  -3  -5  -7    8.62    0.83
  -3   5  -7    6.60    0.68
   3  -5   8   10.50    0.61
  -3  -5  -8   11.60    0.72
   3   5   8   10.70    1.05
  -3   5  -8   10.42    1.06
  -3  -5  -8   10.74    0.99
  -3   5  -8   10.61    0.88
   3   5   9   -0.07    0.18
  -3   5  -9    0.19    0.16
  -3   5  -9    0.22    0.25
  -3  -5  -9    0.54    0.36
  -3   5 -10    7.69    1.04
  -3  -5 -10    7.89    0.96
   3   5  10    6.36    0.88
  -3   5 -10    6.62    0.78
  -3   6  10    3.40    0.57
   3  -6 -10    3.44    0.58
   3   6 -10    4.47    0.80
   3  -6  -9    7.46    0.57
   3  -6  -9    6.57    0.76
   3   6  -9    8.18    1.01
  -3   6   9    7.18    0.80
   3  -6  -8    3.19    0.38
   3   6  -8    2.55    0.57
  -3  -6   8    2.85    0.36
   3  -6  -8    3.08    0.50
  -3   6   8    2.55    0.46
  -3  -6   7    6.36    0.53
   3  -6  -7    5.85    0.51
  -3   6   7    5.73    0.66
   3   6  -7    6.01    0.80
  -3  -6   6   38.73    1.29
   3  -6  -6   43.38    1.35
  -3   6   6   40.74    1.66
  -3   6   6   42.93    1.76
   3   6  -6   39.44    1.86
  -3  -6   5   82.37    1.88
  -3   6   5   89.14    2.32
  -3   6   5   87.63    2.41
   3  -6  -5   85.23    1.95
   3   6  -5   83.55    2.59
  -3  -6   4   18.18    0.88
  -3   6   4   19.91    1.09
   3  -6  -4   20.35    0.94
  -3   6   4   17.84    1.00
   3   6  -4   19.58    1.21
  -3  -6   3   27.95    1.10
  -3   6   3   31.28    1.34
  -3  -6   3   30.24    0.56
  -3  -6   3   31.49    0.57
  -3   6   3   30.20    1.25
   3   6  -3   32.78    1.50
   3  -6  -3   31.11    1.14
   3   6  -2    4.98    0.58
  -3  -6   2    4.20    0.44
   3  -6  -2    4.73    0.45
  -3   6   2    4.08    0.48
  -3  -6   2    4.16    0.26
  -3   6   2    4.09    0.44
   3  -6  -1    1.21    0.25
  -3   6   1    0.98    0.21
  -3   6   1    0.46    0.16
  -3  -6   1    0.96    0.16
  -3  -6   1    0.99    0.22
   3   6  -1    0.86    0.26
   3  -6   0   17.14    0.86
  -3   6   0   15.79    0.90
  -3  -6   0   14.51    0.80
  -3   6   0   17.15    0.84
   3   6   0   15.48    1.01
  -3  -6   0   15.68    0.69
   3  -6   1    9.89    0.66
  -3   6  -1    9.43    0.68
  -3   6  -1    9.49    0.62
  -3  -6  -1    8.61    0.62
   3   6   1    8.77    0.79
  -3  -6  -1    8.36    0.54
  -3   6  -2    5.29    0.53
  -3   6  -2    6.14    0.53
  -3  -6  -2    5.98    0.53
   3   6   2    5.89    0.66
  -3  -6  -2    5.69    0.49
   3  -6   2    6.32    0.53
   3  -6   3   15.12    0.81
  -3  -6  -3   14.97    0.83
  -3  -6  -3   14.16    0.83
   3   6   3   14.84    1.09
  -3   6  -3   13.27    0.82
  -3   6  -3   14.46    0.87
   3  -6   4   39.45    1.29
  -3  -6  -4   40.06    1.36
  -3  -6  -4   36.81    1.45
  -3   6  -4   39.44    1.47
  -3   6  -4   38.86    1.54
   3   6   4   38.46    1.80
   3  -6   5   24.79    1.04
  -3  -6  -5   23.50    1.06
  -3   6  -5   25.77    1.21
   3   6   5   24.03    1.49
  -3  -6  -5   23.00    1.23
  -3   6  -5   22.81    1.27
  -3  -6  -6    7.78    0.62
   3  -6   6    7.50    0.56
   3   6   6    8.13    0.90
  -3  -6  -6    7.95    0.78
  -3   6  -6    7.94    0.80
  -3   6  -6    8.38    0.73
  -3  -6  -7    6.62    0.58
   3   6   7    6.53    0.82
  -3  -6  -7    5.94    0.72
  -3   6  -7    5.64    0.70
   3  -6   7    5.48    0.49
  -3   6  -7    5.45    0.63
  -3  -6  -8   14.05    0.85
  -3   6  -8   11.84    0.94
   3   6   8   13.22    1.23
  -3  -6  -8   11.96    1.07
  -3   6  -8   11.83    1.11
   3   6   9   14.62    1.30
  -3  -6  -9   13.33    1.20
  -3   6  -9   11.16    1.16
  -3   6  -9   13.31    1.04
   3   7 -10    0.83    0.39
  -3   7  10    1.11    0.36
   3  -7 -10    0.54    0.26
   3   7  -9    1.27    0.42
  -3   7   9    2.40    0.49
   3  -7  -9    1.67    0.41
   3  -7  -9    2.02    0.31
   3  -7  -8    3.84    0.45
  -3  -7   8    3.71    0.44
   3  -7  -8    3.72    0.55
  -3   7   8    2.95    0.51
   3   7  -8    4.09    0.71
   3  -7  -7   10.34    0.71
  -3  -7   7   10.81    0.74
  -3   7   7   11.90    1.00
   3   7  -7    8.50    0.96
   3  -7  -6    2.06    0.33
  -3  -7   6    1.88    0.31
   3   7  -6    2.42    0.49
  -3   7   6    3.01    0.50
  -3   7   6    1.47    0.34
  -3   7   5    4.52    0.57
  -3  -7   5    4.31    0.46
  -3   7   5    5.26    0.64
   3  -7  -5    3.96    0.44
   3   7  -5    4.81    0.66
  -3  -7   4   32.66    1.26
  -3   7   4   33.87    1.53
   3  -7  -4   34.52    1.29
  -3   7   4   33.95    1.50
   3  -7  -3    5.29    0.51
   3   7  -3    4.48    0.60
  -3  -7   3    5.09    0.51
  -3   7   3    5.21    0.59
  -3  -7   3    5.06    0.29
  -3   7   3    6.12    0.61
   3   7  -2   18.78    1.20
  -3  -7   2   15.78    0.88
  -3   7   2   15.87    1.00
   3  -7  -2   15.44    0.86
  -3  -7   2   16.15    0.59
  -3   7   2   15.91    0.95
   3  -7  -1    1.72    0.29
  -3   7   1    2.05    0.36
  -3   7   1    2.16    0.35
   3   7  -1    2.68    0.47
  -3  -7   1    1.76    0.31
  -3  -7   1    1.97    0.24
   3  -7   0    2.18    0.33
  -3   7   0    1.90    0.34
  -3  -7   0    1.64    0.24
  -3  -7   0    2.21    0.35
   3   7   0    1.63    0.36
  -3   7   0    2.14    0.33
  -3  -7  -1    1.18    0.27
  -3   7  -1    1.13    0.27
   3   7   1    1.00    0.30
  -3  -7  -1    1.27    0.23
  -3   7  -1    0.89    0.23
   3  -7   1    1.58    0.29
   3  -7   2    5.35    0.51
  -3   7  -2    5.46    0.55
  -3   7  -2    6.26    0.60
  -3  -7  -2    6.73    0.59
   3   7   2    5.44    0.68
  -3  -7  -2    5.77    0.52
  -3   7  -3   11.46    0.83
  -3  -7  -3   10.40    0.73
   3  -7   3   11.71    0.75
  -3  -7  -3   10.48    0.75
   3   7   3   11.24    1.00
  -3   7  -3   11.10    0.82
  -3  -7  -4   12.37    0.80
  -3  -7  -4   11.97    0.86
   3  -7   4   11.82    0.76
   3   7   4   12.63    1.08
  -3   7  -4   12.94    0.91
  -3   7  -4   12.57    0.87
  -3   7  -5   30.97    1.39
   3  -7   5   31.14    1.20
  -3  -7  -5   29.16    1.24
  -3  -7  -5   28.36    1.41
  -3   7  -5   28.88    1.47
   3   7   5   32.09    1.82
  -3  -7  -6    4.48    0.51
  -3   7  -6    5.30    0.60
   3   7   6    5.00    0.74
   3  -7   6    5.20    0.51
  -3  -7  -6    4.13    0.58
  -3   7  -6    4.91    0.65
   3  -7   7    2.94    0.38
  -3   7  -7    3.08    0.48
   3   7   7    3.10    0.60
  -3  -7  -7    3.56    0.45
  -3  -7  -7    3.15    0.53
  -3   7  -7    3.30    0.59
  -3   7  -8    0.15    0.22
  -3   7  -8    0.19    0.22
  -3  -7  -8    0.01    0.11
  -3  -7  -8    0.60    0.30
   3   7   8   -0.05    0.17
  -3   7  -9    0.66    0.37
  -3   7  -9    0.37    0.20
   3   7   9    0.09    0.17
  -3  -7  -9   -0.07    0.20
   3  -8  -9    5.06    0.73
  -3   8   9    5.04    0.75
   3   8  -9    4.16    0.76
   3  -8  -8    0.72    0.23
   3   8  -8    0.38    0.26
  -3  -8   8    0.57    0.23
  -3   8   8    0.64    0.30
   3  -8  -8    0.40    0.22
  -3   8   7   13.00    1.12
  -3   8   7   15.20    1.20
   3  -8  -7   14.91    0.91
  -3  -8   7   13.56    0.87
   3   8  -7   13.06    1.22
   3  -8  -6    1.55    0.31
   3   8  -6    0.93    0.36
  -3   8   6    1.28    0.36
  -3   8   6    1.65    0.41
  -3  -8   6    0.88    0.24
  -3  -8   5   35.95    1.42
   3  -8  -5   37.79    1.43
  -3   8   5   34.52    1.71
  -3   8   5   36.04    1.72
   3   8  -5   36.43    1.92
   3   8  -4   67.24    2.52
   3  -8  -4   61.32    1.82
  -3  -8   4   62.22    1.86
  -3   8   4   62.50    2.21
  -3   8   4   63.79    2.23
   3   8  -3    4.65    0.65
  -3  -8   3    4.69    0.50
  -3   8   3    3.90    0.55
   3  -8  -3    4.29    0.47
  -3  -8   3    4.20    0.30
  -3   8   3    4.21    0.56
  -3   8   2    2.19    0.40
   3  -8  -2    2.03    0.34
  -3  -8   2    2.58    0.27
  -3   8   2    2.24    0.40
   3   8  -2    1.93    0.42
  -3  -8   2    1.92    0.34
   3  -8  -1    1.46    0.31
  -3   8   1    1.03    0.26
  -3  -8   1    0.88    0.24
  -3   8   1    0.99    0.26
  -3  -8   1    1.10    0.20
   3   8  -1    1.32    0.36
   3  -8   0    1.74    0.30
  -3  -8   0    1.87    0.33
  -3   8   0    2.22    0.38
  -3  -8   0    1.69    0.26
   3   8   0    1.58    0.37
  -3   8   0    1.27    0.28
  -3   8  -1    6.70    0.67
  -3  -8  -1    8.38    0.69
   3  -8   1    8.59    0.67
   3   8   1    7.81    0.85
  -3   8  -1    8.30    0.71
  -3  -8  -1    7.76    0.59
   3  -8   2    8.75    0.68
  -3   8  -2   10.82    0.82
  -3   8  -2   10.60    0.84
  -3  -8  -2    9.92    0.77
   3   8   2    9.18    0.93
  -3  -8  -2    9.42    0.70
   3  -8   3    0.03    0.10
  -3  -8  -3    0.33    0.16
  -3   8  -3    0.14    0.15
   3   8   3    0.19    0.21
  -3   8  -3   -0.01    0.14
  -3  -8  -3    0.11    0.17
   3  -8   4    0.76    0.22
  -3   8  -4    1.48    0.33
  -3   8  -4    1.10    0.30
   3   8   4    0.78    0.34
  -3  -8  -4    0.88    0.25
  -3  -8  -4    0.56    0.20
   3  -8   5    1.53    0.31
  -3  -8  -5    1.15    0.29
  -3   8  -5    0.61    0.23
  -3   8  -5    1.40    0.35
  -3  -8  -5    1.49    0.35
   3   8   5    1.18    0.38
   3   8   6    3.95    0.71
  -3   8  -6    3.39    0.51
  -3  -8  -6    4.46    0.53
   3  -8   6    3.45    0.44
  -3  -8  -6    2.96    0.53
  -3   8  -6    3.74    0.60
  -3   8  -7   14.07    1.04
   3  -8   7   12.04    0.80
   3   8   7   13.61    1.31
  -3  -8  -7   12.38    0.89
  -3  -8  -7   15.17    1.20
  -3   8  -7   15.65    1.27
  -3   8  -8    9.69    0.89
  -3  -8  -8    8.77    0.75
   3   8   8   10.18    1.16
  -3  -8  -8    8.85    0.97
  -3   8  -8    9.60    1.04
  -3  -9   8    5.50    0.60
   3  -9  -8    5.12    0.56
  -3   9   8    5.19    0.77
   3  -9  -8    4.58    0.68
   3   9  -8    4.96    0.85
   3  -9  -7   21.46    1.15
  -3  -9   7   18.29    1.06
  -3   9   7   21.16    1.46
   3   9  -7   22.38    1.70
  -3  -9   6    0.50    0.22
   3   9  -6    0.35    0.26
  -3   9   6    0.27    0.22
  -3   9   6    0.04    0.17
   3  -9  -6    0.62    0.21
   3   9  -5    9.83    1.05
  -3  -9   5    9.07    0.77
  -3   9   5   11.21    1.03
  -3   9   5   10.09    0.98
   3  -9  -5    9.64    0.77
  -3  -9   4    4.57    0.55
  -3   9   4    4.11    0.60
   3  -9  -4    4.50    0.52
   3   9  -4    4.54    0.72
  -3   9   4    4.16    0.61
   3  -9  -3   20.78    1.12
   3   9  -3   20.26    1.45
  -3  -9   3   19.65    1.10
  -3   9   3   20.79    1.32
  -3   9   3   22.65    1.37
   3  -9  -2   21.32    1.13
  -3  -9   2   19.08    1.09
   3   9  -2   19.92    1.42
  -3   9   2   20.40    1.29
  -3  -9   2   19.44    0.79
  -3   9   2   20.81    1.27
  -3   9   1    1.61    0.38
   3  -9  -1    1.97    0.36
  -3  -9   1    1.72    0.35
  -3   9   1    1.58    0.36
  -3  -9   1    1.49    0.25
   3   9  -1    1.36    0.39
  -3  -9   0    8.30    0.74
  -3   9   0    9.25    0.84
  -3   9   0    7.92    0.76
   3   9   0    7.25    0.88
   3  -9   0    8.83    0.71
  -3  -9   0    8.06    0.60
   3  -9   1    3.47    0.45
  -3   9  -1    2.57    0.46
  -3  -9  -1    2.48    0.41
   3   9   1    2.91    0.57
  -3  -9  -1    2.77    0.38
  -3   9  -1    3.02    0.48
  -3   9  -2    5.37    0.65
  -3   9  -2    6.68    0.71
  -3  -9  -2    6.18    0.64
   3  -9   2    8.11    0.71
   3   9   2    6.36    0.84
  -3  -9  -2    6.62    0.61
  -3   9  -3    7.70    0.77
  -3   9  -3    8.72    0.80
  -3  -9  -3    7.45    0.69
  -3  -9  -3    7.42    0.70
   3   9   3    9.32    1.02
   3  -9   3    8.94    0.73
  -3   9  -4   10.65    0.95
   3  -9   4    9.90    0.79
  -3   9  -4   10.52    0.90
  -3  -9  -4    9.23    0.78
  -3  -9  -4   12.55    1.00
   3   9   4   10.10    1.12
   3  -9   5    3.98    0.49
  -3   9  -5    4.02    0.57
  -3  -9  -5    3.42    0.50
  -3   9  -5    4.05    0.63
  -3  -9  -5    4.56    0.61
   3   9   5    3.65    0.71
   3   9   6   12.72    1.32
   3  -9   6   13.02    0.90
  -3  -9  -6   11.91    0.90
  -3   9  -6   12.54    1.02
  -3  -9  -6   13.36    1.09
  -3   9  -6   12.52    1.10
   3  -9   7    0.26    0.19
  -3   9  -7    0.09    0.16
  -3   9  -7    0.30    0.22
  -3  -9  -7    0.07    0.13
   3   9   7    0.31    0.31
  -3  -9  -7    0.18    0.18
  -3 -10   7    2.77    0.46
  -3  10   7    2.87    0.60
   3  10  -7    3.32    0.68
   3 -10  -7    2.53    0.43
   3  10  -6   12.53    1.29
   3 -10  -6   11.28    0.88
  -3  10   6   10.43    1.07
  -3 -10   6    9.51    0.83
  -3  10   6   11.34    1.16
  -3  10   5    5.08    0.74
   3  10  -5    3.82    0.70
   3 -10  -5    3.90    0.51
  -3 -10   5    3.95    0.54
  -3  10   5    4.47    0.69
   3 -10  -4    7.13    0.70
   3  10  -4    8.49    1.03
  -3 -10   4    8.49    0.78
  -3  10   4    8.73    0.93
  -3  10   4    8.82    0.94
  -3 -10   3    0.36    0.19
   3 -10  -3    0.62    0.24
  -3  10   3    0.90    0.31
  -3  10   3    0.48    0.27
   3  10  -3    0.82    0.35
   3 -10  -2    5.00    0.58
  -3 -10   2    4.44    0.57
  -3  10   2    3.99    0.60
  -3  10   2    4.32    0.63
   3  10  -2    4.23    0.72
   3 -10  -1    0.02    0.13
  -3  10   1    0.22    0.15
  -3 -10   1    0.18    0.15
  -3  10   1    0.19    0.23
  -3 -10   1    0.05    0.11
   3  10  -1   -0.16    0.18
   3 -10   0    5.91    0.63
  -3 -10   0    5.32    0.62
  -3  10   0    5.55    0.70
   3  10   0    5.18    0.80
  -3  10   0    5.04    0.66
  -3 -10   0    4.53    0.49
  -3 -10  -1    5.19    0.61
  -3  10  -1    6.85    0.76
   3 -10   1    5.67    0.62
  -3  10  -1    6.33    0.74
   3  10   1    5.36    0.80
  -3 -10  -1    5.44    0.56
   3 -10   2    2.76    0.43
  -3  10  -2    3.42    0.55
  -3 -10  -2    2.17    0.41
   3  10   2    2.82    0.63
  -3 -10  -2    1.21    0.30
  -3  10  -2    1.88    0.43
   3 -10   3    4.15    0.53
  -3  10  -3    4.25    0.61
  -3 -10  -3    3.44    0.51
  -3  10  -3    4.29    0.63
  -3 -10  -3    3.97    0.52
   3  10   3    4.87    0.82
   3 -10   4    0.59    0.24
  -3 -10  -4    1.05    0.30
  -3  10  -4    1.03    0.35
   3  10   4    0.69    0.33
  -3 -10  -4    0.39    0.23
  -3  10  -4    0.79    0.30
   3 -10   5    4.04    0.55
  -3  10  -5    5.71    0.72
  -3 -10  -5    3.98    0.57
  -3  10  -5    4.02    0.65
  -3 -10  -5    3.73    0.59
   3  10   5    3.51    0.71
   3 -10   6    4.75    0.56
  -3  10  -6    4.37    0.63
  -3 -10  -6    4.44    0.60
   3  10   6    5.16    0.89
  -3  10  -6    4.78    0.75
  -3 -10  -6    3.96    0.64
   3 -11  -5    2.84    0.47
  -3 -11   5    2.27    0.42
  -3  11   5    3.53    0.67
   3  11  -5    2.23    0.57
  -3  11   5    3.59    0.66
  -3 -11   4    2.50    0.46
  -3  11   4    3.82    0.67
   3 -11  -4    3.47    0.51
   3  11  -4    2.96    0.66
  -3  11   4    3.80    0.67
   3 -11  -3    5.21    0.63
  -3 -11   3    5.26    0.66
   3  11  -3    4.26    0.77
  -3  11   3    5.79    0.77
  -3  11   3    5.91    0.80
   3 -11  -2    1.13    0.32
  -3 -11   2    0.47    0.21
  -3  11   2    0.61    0.32
  -3  11   2    0.80    0.31
   3  11  -2    0.39    0.26
   3 -11  -1    3.49    0.51
  -3 -11   1    3.37    0.53
  -3  11   1    3.95    0.64
   3  11  -1    3.37    0.67
  -3  11   1    3.57    0.60
  -3  11   0    1.03    0.36
   3 -11   0    0.63    0.24
  -3 -11   0    0.68    0.26
   3  11   0    1.02    0.43
  -3  11   0    0.63    0.25
  -3 -11   0    0.62    0.20
   3 -11   1    5.29    0.63
  -3 -11  -1    4.75    0.61
  -3  11  -1    6.12    0.77
  -3  11  -1    5.56    0.77
   3  11   1    5.77    0.90
  -3 -11  -1    5.57    0.60
   3 -11   2    1.38    0.37
   3  11   2    0.54    0.33
  -3 -11  -2    1.04    0.31
  -3  11  -2    1.63    0.44
  -3 -11  -2    0.95    0.27
  -3  11  -2    0.92    0.34
   3 -11   3    2.34    0.42
   3  11   3    1.82    0.52
  -3 -11  -3    2.13    0.44
  -3  11  -3    2.23    0.46
  -3 -11  -3    2.43    0.46
  -3  11  -3    2.12    0.49
   3 -11   4    4.10    0.56
  -3  11  -4    3.67    0.64
  -3  11  -4    3.63    0.61
  -3 -11  -4    3.29    0.53
  -3 -11  -4    4.88    0.64
   3  11   4    3.32    0.73
   3 -12  -2    0.03    0.14
  -3 -12   2    0.32    0.21
  -3  12   2   -0.16    0.24
  -3  12   2    0.17    0.24
   3  12  -2   -0.15    0.23
   3 -12  -1   10.37    0.90
  -3 -12   1    8.23    0.87
  -3  12   1   11.46    1.14
   3  12  -1    9.65    1.21
  -3  12   1   11.32    1.14
   3 -12   0    3.53    0.55
   3  12   0    3.31    0.71
  -3 -12   0    3.21    0.57
  -3  12   0    4.02    0.66
  -3  12   0    3.79    0.66
   3 -12   1    5.99    0.69
  -3 -12  -1    3.89    0.60
  -3  12  -1    4.83    0.73
  -3  12  -1    5.40    0.79
   3  12   1    6.40    1.01
   4   0 -12    3.95    0.79
   4   0 -11   21.98    1.67
   4   0 -11   22.49    1.19
   4   0 -10   18.96    1.45
   4   0 -10   21.45    1.08
   4   0  -9   10.90    1.03
   4   0  -9   10.55    0.70
  -4   0   8    1.65    0.23
   4   0  -8    1.71    0.26
   4   0  -8    1.77    0.43
  -4   0   7   14.69    0.68
   4   0  -7   13.65    1.01
   4   0  -7   13.97    0.69
  -4   0   6    4.75    0.41
   4   0  -6    4.49    0.36
   4   0  -6    3.75    0.48
  -4   0   5    1.02    0.20
  -4   0   5    0.94    0.16
   4   0  -5    1.05    0.24
  -4   0   4   11.43    0.51
  -4   0   4   12.26    0.65
   4   0  -4   11.64    0.68
   4   0  -3   31.55    0.78
  -4   0   3   30.88    0.80
  -4   0   3   30.41    1.02
   4   0  -3   32.86    0.78
   4   0  -3   31.81    0.93
  -4   0   2  159.93    1.85
   4   0  -2  165.10    1.45
   4   0  -2  162.27    1.66
   4   0  -1   44.45    0.74
  -4   0   1   44.54    0.98
  -4   0   1   43.29    1.22
  -4   0   1   44.51    0.78
  -4   0   0  107.94    1.92
   4   0   0  106.07    1.17
  -4   0   0  109.30    1.68
  -4   0  -1    5.79    0.33
   4   0   1    5.94    0.32
  -4   0  -1    5.65    0.45
  -4   0  -1    5.12    0.40
  -4   0  -2    2.94    0.33
  -4   0  -2    2.94    0.29
   4   0   2    2.52    0.25
  -4   0  -2    3.32    0.36
  -4   0  -3   19.50    0.83
  -4   0  -3   19.60    0.92
   4   0   3   19.90    0.75
   4   0   4    8.60    0.55
  -4   0  -4    8.56    0.55
  -4   0  -4    7.63    0.63
  -4   0  -5    0.09    0.08
   4   0   5    0.08    0.09
  -4   0  -5    0.08    0.14
   4   0   6    0.62    0.18
  -4   0  -6    0.48    0.15
  -4   0  -6    0.29    0.14
  -4   0  -7    7.91    0.52
   4   0   7    8.59    0.70
  -4   0  -7    9.44    0.83
  -4   0  -8    9.77    0.90
   4   0   8   10.39    0.83
   4   0   9    0.41    0.21
  -4   0  -9    0.93    0.36
   4   0  10    7.05    0.80
  -4   0 -10    6.66    0.86
   4  -1 -11    5.25    0.81
   4   1 -11    6.38    0.93
   4  -1 -11    6.96    0.71
   4  -1 -10   73.71    2.81
   4   1 -10   81.04    3.03
   4  -1 -10   74.83    2.11
  -4  -1   9   12.86    0.58
   4  -1  -9   13.58    1.12
   4   1  -9   13.13    1.16
   4  -1  -9   14.44    0.86
   4   1  -9   13.15    0.74
  -4  -1   8   24.02    0.86
   4  -1  -8   23.62    0.84
   4  -1  -8   26.20    1.09
   4   1  -8   23.30    1.41
   4   1  -8   27.02    0.96
  -4  -1   7    9.30    0.56
   4  -1  -7    9.17    0.60
   4   1  -7    8.09    0.78
   4   1  -7    8.05    0.47
  -4  -1   6   16.71    0.76
  -4   1   6   16.78    0.73
   4  -1  -6   18.87    0.82
   4   1  -6   18.50    0.64
   4   1  -6   16.75    1.04
   4   1  -5   16.76    0.52
  -4  -1   5   15.45    0.73
  -4   1   5   16.13    0.73
  -4   1   5   16.55    0.74
   4  -1  -5   15.03    0.83
   4   1  -5   16.68    0.55
   4   1  -5   16.02    0.94
  -4   1   4   88.59    1.61
  -4  -1   4   85.22    1.71
  -4  -1   4   89.52    1.20
  -4   1   4   89.84    1.73
   4   1  -4   86.09    1.91
   4   1  -4   87.02    1.10
  -4   1   3   10.53    0.53
  -4  -1   3   10.84    0.40
  -4  -1   3   10.90    0.62
   4  -1  -3    9.81    0.44
  -4   1   3   11.59    0.63
   4  -1  -3   10.09    0.50
   4   1  -3   11.63    0.61
   4   1  -3   11.19    0.40
  -4  -1   2    3.52    0.23
  -4   1   2    3.28    0.30
   4   1  -2    3.69    0.31
   4  -1  -2    3.38    0.19
  -4  -1   2    3.06    0.33
  -4   1   2    3.60    0.36
  -4  -1   2    3.43    0.32
   4  -1  -2    3.54    0.20
   4   1  -2    3.71    0.26
  -4   1   1   27.81    0.85
  -4  -1   1   27.56    0.71
   4   1  -1   27.66    0.78
  -4  -1   1   27.71    0.98
  -4   1   1   26.65    0.96
  -4  -1   1   26.86    0.78
   4   1  -1   28.41    0.79
  -4  -1   0  207.93    2.72
  -4   1   0  208.85    2.70
   4   1   0  197.86    2.15
  -4  -1   0  200.16    2.16
  -4  -1   0  206.61    2.09
  -4   1   0  201.64    2.39
  -4  -1  -1   29.64    0.86
  -4  -1  -1   27.56    0.99
  -4   1  -1   30.15    0.61
  -4   1  -1   28.78    0.99
  -4  -1  -1   29.47    0.95
   4   1   1   29.37    0.90
  -4   1  -1   26.57    0.93
   4  -1   1   29.02    0.51
  -4   1  -2    0.65    0.16
   4   1   2    0.61    0.14
  -4  -1  -2    0.94    0.19
  -4   1  -2    0.81    0.18
   4  -1   2    0.80    0.12
  -4   1  -2    0.83    0.15
  -4  -1  -2    1.27    0.23
  -4  -1  -3   22.44    0.90
   4   1   3   22.58    0.93
  -4   1  -3   22.40    0.88
   4  -1   3   21.77    0.72
  -4  -1  -3   23.53    1.01
  -4   1  -3   23.29    1.02
  -4  -1  -4    9.65    0.59
  -4   1  -4   11.11    0.62
   4   1   4   10.24    0.67
  -4  -1  -4   11.06    0.76
   4  -1   4   10.02    0.57
  -4   1  -4   11.65    0.76
  -4  -1  -5    5.21    0.44
  -4   1  -5    4.76    0.41
   4   1   5    4.65    0.48
  -4  -1  -5    4.73    0.52
  -4   1  -5    4.99    0.54
   4  -1   5    5.16    0.44
   4  -1   6    5.00    0.49
  -4  -1  -6    4.62    0.41
  -4   1  -6    4.67    0.39
  -4  -1  -6    4.78    0.57
  -4   1  -6    5.91    0.61
   4   1   6    4.38    0.50
   4  -1   7    5.67    0.56
  -4  -1  -7    6.41    0.49
  -4   1  -7    5.61    0.43
  -4  -1  -7    5.54    0.65
  -4   1  -7    5.17    0.63
   4  -1   8    5.83    0.44
  -4  -1  -8    6.20    0.46
   4  -1   8    5.76    0.62
   4   1   8    6.27    0.67
  -4  -1  -8    6.15    0.74
  -4   1  -8    6.62    0.75
   4   1   9    6.46    0.72
  -4  -1  -9    7.34    0.85
   4  -1   9    5.77    0.65
  -4   1  -9    5.96    0.73
   4  -1  10    1.18    0.35
   4   1  10    1.36    0.36
  -4  -1 -10    1.31    0.43
  -4   1 -10    1.53    0.40
  -4   2  11    3.75    0.58
   4  -2 -11    4.95    0.61
   4   2 -11    4.82    0.83
  -4   2  10   12.91    0.96
   4  -2 -10   13.25    0.94
   4   2 -10   13.19    1.27
   4  -2  -9    0.89    0.19
  -4   2   9    0.55    0.25
   4  -2  -9    0.99    0.25
   4   2  -9    1.04    0.34
   4  -2  -8   61.68    1.42
  -4  -2   8   61.33    1.43
  -4   2   8   62.68    1.80
   4  -2  -8   64.95    1.83
   4   2  -8   63.60    2.41
   4   2  -8   62.86    1.33
  -4  -2   7  103.59    1.91
  -4   2   7  115.32    2.26
   4  -2  -7  106.76    2.20
   4   2  -7  100.52    2.83
   4   2  -7  110.19    1.55
   4  -2  -7  107.11    1.88
   4   2  -6    8.62    0.34
   4  -2  -6    7.80    0.52
  -4   2   6    8.30    0.54
  -4  -2   6    8.10    0.54
  -4   2   6    9.47    0.65
   4   2  -6    8.87    0.37
   4   2  -6    8.96    0.79
   4   2  -5    1.27    0.28
  -4   2   5    1.38    0.21
  -4  -2   5    1.64    0.25
  -4   2   5    1.98    0.28
  -4   2   5    1.73    0.24
   4   2  -5    1.97    0.14
   4   2  -5    1.65    0.12
  -4   2   4    2.98    0.33
  -4  -2   4    2.46    0.31
  -4   2   4    2.12    0.21
  -4   2   4    2.35    0.28
   4   2  -4    2.33    0.12
   4   2  -4    2.15    0.33
   4   2  -4    2.47    0.13
  -4  -2   3   94.78    0.83
  -4  -2   3   98.25    1.92
  -4   2   3   99.00    1.82
  -4   2   3   96.32    1.78
   4   2  -3   93.45    0.87
   4  -2  -3  100.50    1.44
   4   2  -3   95.96    1.93
  -4   2   3  102.98    1.20
  -4  -2   2    1.35    0.12
  -4   2   2    1.56    0.23
  -4  -2   2    1.40    0.23
   4  -2  -2    1.38    0.11
  -4   2   2    1.60    0.24
   4  -2  -2    1.23    0.11
   4   2  -2    1.56    0.14
   4   2  -2    1.30    0.22
  -4   2   1   21.15    0.82
   4   2  -1   21.15    0.81
  -4  -2   1   20.43    0.87
  -4   2   1   19.95    0.82
   4   2  -1   20.27    0.62
  -4  -2   1   20.58    0.57
  -4   2   0   26.31    0.93
  -4  -2   0   26.11    0.99
   4   2   0   27.26    0.93
  -4   2   0   28.89    1.00
  -4  -2   0   27.68    0.80
  -4  -2  -1   37.88    1.20
  -4   2  -1   38.99    1.15
   4   2   1   37.45    1.16
  -4   2  -1   40.00    0.63
  -4  -2  -1   38.61    1.08
  -4   2  -1   39.30    0.63
  -4   2  -1   37.35    1.15
  -4   2  -2   58.78    1.07
  -4  -2  -2   60.41    1.51
  -4   2  -2   58.72    1.42
  -4   2  -2   58.75    1.18
  -4  -2  -2   58.37    1.47
  -4   2  -2   58.45    1.53
   4   2   2   54.77    1.50
   4   2   3    1.99    0.32
  -4  -2  -3    2.45    0.31
  -4   2  -3    2.14    0.28
  -4   2  -3    2.38    0.30
  -4  -2  -3    1.70    0.29
  -4   2  -3    1.96    0.29
   4   2   4   18.62    0.98
  -4  -2  -4   18.88    0.88
  -4   2  -4   19.49    0.81
  -4  -2  -4   18.65    0.99
  -4   2  -4   19.22    0.99
  -4  -2  -5    2.99    0.35
  -4   2  -5    3.56    0.36
   4   2   5    3.83    0.48
  -4  -2  -5    3.69    0.48
  -4   2  -5    3.51    0.46
   4  -2   6    0.49    0.15
   4   2   6    0.21    0.12
  -4  -2  -6    0.58    0.17
  -4   2  -6    0.46    0.19
   4  -2   6    0.66    0.20
  -4  -2  -7    9.77    0.63
   4  -2   7   11.00    0.62
  -4  -2  -7    9.56    0.86
  -4   2  -7   10.52    0.87
   4   2   7    9.37    0.82
  -4   2  -8    0.53    0.24
  -4  -2  -8    0.98    0.21
   4   2   8    0.88    0.28
  -4  -2  -8    1.15    0.36
   4  -2   8    1.43    0.25
   4   2   9    4.89    0.64
  -4   2  -9    5.25    0.75
  -4  -2  -9    4.41    0.68
  -4   2  -9    5.44    0.72
  -4   2 -10    0.53    0.28
   4   2  10    0.29    0.25
  -4   2 -10    0.65    0.36
  -4  -2 -10   -0.19    0.21
   4  -3 -11    3.71    0.56
   4   3 -11    3.78    0.76
  -4   3  11    3.96    0.59
   4   3 -10    1.88    0.54
  -4   3  10    1.52    0.37
   4  -3 -10    1.64    0.37
   4  -3  -9    6.50    0.48
  -4   3   9    8.65    0.73
   4  -3  -9    7.98    0.73
   4   3  -9    7.49    0.92
   4  -3  -8   12.50    0.68
  -4  -3   8   12.03    0.67
   4  -3  -8   13.98    0.90
   4   3  -8   11.49    1.05
  -4   3   8   14.59    0.88
   4  -3  -7   57.92    1.46
  -4  -3   7   58.52    1.51
   4  -3  -7   60.44    1.77
   4   3  -7   57.32    2.19
  -4   3   7   63.11    1.70
   4   3  -7   56.73    0.82
  -4  -3   6   29.17    1.07
  -4   3   6   34.27    1.32
  -4   3   6   31.00    1.09
   4   3  -6   29.30    1.44
   4  -3  -6   32.34    1.10
  -4  -3   5    8.03    0.56
  -4   3   5    8.43    0.62
  -4   3   5    8.97    0.53
   4   3  -5    8.26    0.73
   4  -3  -5    8.94    0.57
  -4   3   4    8.43    0.45
  -4  -3   4    7.75    0.55
  -4   3   4    7.71    0.58
   4   3  -4    7.73    0.64
   4  -3  -4    7.86    0.54
  -4   3   3   16.38    0.52
  -4   3   3   15.73    0.80
  -4  -3   3   15.17    0.77
   4  -3  -3   16.66    0.62
   4  -3  -3   17.48    0.81
   4   3  -2    4.83    0.45
  -4   3   2    4.59    0.21
   4  -3  -2    4.66    0.24
  -4   3   2    4.99    0.43
  -4  -3   2    3.75    0.38
   4   3  -2    4.10    0.18
  -4  -3   2    3.94    0.17
  -4   3   1   10.95    0.63
   4   3  -1    9.82    0.63
  -4   3   1    9.60    0.59
   4   3  -1    9.35    0.38
  -4  -3   1    9.30    0.60
  -4  -3   1    9.76    0.39
  -4   3   0   19.41    0.87
  -4  -3   0   17.99    0.85
   4   3   0   17.07    0.85
  -4   3   0   17.81    0.81
  -4  -3   0   17.15    0.64
  -4  -3  -1   15.18    0.78
  -4   3  -1   16.65    0.82
  -4   3  -1   15.34    0.74
   4   3   1   15.23    0.82
  -4   3  -1   14.98    0.41
  -4  -3  -1   14.70    0.68
  -4   3  -1   16.25    0.45
  -4  -3  -2    9.15    0.61
  -4   3  -2    9.53    0.42
  -4   3  -2    9.90    0.50
  -4  -3  -2    9.31    0.61
   4   3   2    9.43    0.69
  -4   3  -2   10.44    0.68
  -4  -3  -3   12.64    0.73
   4   3   3   12.13    0.82
  -4   3  -3   13.19    0.70
  -4  -3  -3   13.33    0.79
  -4   3  -3   12.21    0.76
   4  -3   3   12.81    0.69
   4   3   4   61.12    1.91
  -4  -3  -4   65.91    1.71
   4  -3   4   67.92    1.59
  -4   3  -4   66.53    1.78
  -4  -3  -4   67.70    1.91
  -4   3  -4   72.26    1.94
   4   3   5   12.78    0.92
   4  -3   5   13.48    0.72
  -4   3  -5   13.13    0.90
  -4  -3  -5   11.39    0.84
  -4  -3  -5   12.39    0.74
  -4   3  -5   13.45    0.89
  -4   3  -6    1.56    0.33
   4  -3   6    2.90    0.33
  -4  -3  -6    2.34    0.32
   4   3   6    2.73    0.45
  -4   3  -6    2.38    0.43
  -4  -3  -6    1.99    0.38
  -4   3  -7    0.43    0.21
   4  -3   7    0.34    0.12
   4   3   7    0.12    0.16
  -4  -3  -7    0.17    0.10
  -4   3  -7    0.07    0.16
  -4  -3  -7    0.14    0.12
  -4  -3  -8    7.08    0.56
  -4   3  -8    8.13    0.90
  -4  -3  -8    7.87    0.83
   4   3   8    6.05    0.72
  -4   3  -8    6.46    0.72
   4  -3   8    8.17    0.55
  -4   3  -9    0.91    0.33
   4   3   9    0.57    0.24
  -4   3  -9    0.21    0.18
  -4  -3  -9    0.78    0.34
   4   3  10    0.73    0.28
  -4   3 -10    0.25    0.21
  -4   3 -10    1.32    0.44
  -4  -3 -10    0.77    0.38
  -4   4  11    0.05    0.17
   4  -4 -11   -0.02    0.15
   4   4 -11    0.26    0.32
   4  -4 -10    3.47    0.54
   4   4 -10    4.23    0.79
  -4   4  10    4.90    0.61
   4  -4  -9    6.95    0.52
   4  -4  -9    7.55    0.74
  -4   4   9    7.43    0.70
   4   4  -9    7.77    0.95
   4  -4  -8   29.51    1.09
  -4  -4   8   28.93    1.09
  -4   4   8   29.73    1.31
   4  -4  -8   30.86    1.39
   4   4  -8   30.96    1.77
  -4   4   7   18.98    0.97
  -4  -4   7   18.46    0.89
  -4   4   7   17.91    1.07
   4   4  -7   17.78    1.24
   4  -4  -7   19.36    0.91
  -4   4   6   30.96    1.14
  -4  -4   6   30.51    1.15
  -4   4   6   34.28    1.42
   4   4  -6   27.44    1.48
   4  -4  -6   31.54    1.14
  -4  -4   5   24.72    1.03
  -4   4   5   23.84    1.12
   4  -4  -5   23.52    0.98
   4   4  -5   24.81    1.30
  -4   4   5   24.11    0.94
  -4  -4   4   24.67    1.03
  -4   4   4   25.75    1.13
  -4   4   4   26.18    0.88
   4   4  -4   26.26    1.25
   4  -4  -4   25.46    1.03
  -4   4   3   24.07    1.05
   4  -4  -3   22.68    0.78
  -4  -4   3   23.17    0.99
  -4   4   3   21.73    0.73
   4  -4  -3   21.26    0.93
   4   4  -3   24.39    1.16
   4   4  -2   22.01    1.06
  -4   4   2   23.79    1.02
  -4  -4   2   21.42    0.36
  -4   4   2   22.81    0.66
  -4  -4   2   22.59    0.97
   4  -4  -2   22.86    0.66
  -4  -4   2   22.70    0.36
   4  -4  -2   22.23    0.95
  -4   4   1   10.75    0.68
   4   4  -1   10.92    0.73
   4  -4  -1   11.61    0.44
  -4  -4   1   11.74    0.45
  -4   4   1   11.34    0.43
  -4  -4   1   11.62    0.70
   4  -4  -1   11.67    0.68
  -4   4   0   42.06    1.35
  -4  -4   0   40.74    1.32
   4   4   0   41.45    1.45
  -4   4   0   43.17    0.84
   4  -4   0   40.96    1.29
   4  -4   0   43.98    0.90
  -4  -4   0   43.70    1.04
  -4   4  -1    9.28    0.65
  -4   4  -1   10.26    0.45
   4  -4   1    9.41    0.62
   4   4   1    9.51    0.71
  -4  -4  -1    8.80    0.55
  -4  -4  -1   10.21    0.67
   4  -4   2    0.33    0.15
  -4   4  -2    0.44    0.16
  -4   4  -2    0.37    0.12
  -4  -4  -2    0.49    0.18
   4   4   2    0.18    0.12
  -4  -4  -2    0.46    0.14
   4  -4   3   23.18    0.98
  -4  -4  -3   23.42    1.04
  -4  -4  -3   23.23    1.06
  -4   4  -3   21.29    0.88
   4   4   3   21.82    1.18
  -4   4  -3   20.82    1.02
   4   4   4   11.98    0.92
  -4  -4  -4   12.22    0.76
  -4   4  -4   13.73    0.83
  -4  -4  -4   12.67    0.85
  -4   4  -4   12.02    0.81
   4  -4   4   12.98    0.73
   4   4   5   40.94    1.75
  -4  -4  -5   42.15    1.40
   4  -4   5   44.24    1.34
  -4   4  -5   40.83    1.60
  -4  -4  -5   41.30    1.65
  -4   4  -5   44.27    1.64
  -4  -4  -6   24.45    1.10
   4   4   6   25.17    1.42
   4  -4   6   23.85    0.99
  -4   4  -6   25.70    1.38
  -4  -4  -6   23.32    1.32
  -4   4  -6   25.29    1.30
   4  -4   7    3.87    0.40
  -4  -4  -7    3.80    0.43
   4   4   7    4.15    0.61
  -4   4  -7    3.61    0.57
  -4  -4  -7    3.72    0.58
  -4   4  -7    4.24    0.57
  -4   4  -8    1.48    0.36
  -4  -4  -8    1.86    0.31
   4   4   8    2.52    0.51
  -4  -4  -8    2.39    0.49
  -4   4  -8    1.72    0.45
  -4   4  -9    4.41    0.71
  -4  -4  -9    6.80    0.87
   4   4   9    6.26    0.80
  -4   4  -9    6.11    0.73
   4   5 -10    2.60    0.58
  -4   5  10    2.52    0.46
   4  -5 -10    2.96    0.50
   4  -5  -9    3.39    0.38
  -4   5   9    3.13    0.48
   4  -5  -9    2.47    0.45
   4   5  -9    3.52    0.65
   4  -5  -8    4.36    0.45
  -4   5   8    3.94    0.51
  -4  -5   8    3.91    0.44
   4  -5  -8    5.12    0.60
   4   5  -8    5.13    0.74
  -4   5   7   10.78    0.79
  -4  -5   7   11.51    0.74
  -4   5   7   12.93    0.97
   4   5  -7   11.35    1.03
   4  -5  -7   11.53    0.74
  -4  -5   6   44.07    1.44
  -4   5   6   45.82    1.75
  -4   5   6   41.71    1.44
   4   5  -6   44.10    1.91
   4  -5  -6   45.96    1.48
  -4  -5   5    3.69    0.41
  -4   5   5    5.14    0.55
  -4   5   5    3.07    0.39
   4   5  -5    4.51    0.59
   4  -5  -5    3.83    0.42
   4  -5  -4    2.95    0.37
  -4  -5   4    3.31    0.40
  -4   5   4    3.01    0.42
  -4   5   4    3.27    0.36
   4   5  -4    3.45    0.49
   4   5  -3    7.43    0.68
  -4  -5   3    8.12    0.61
  -4   5   3    7.79    0.66
   4  -5  -3    7.19    0.57
  -4   5   3    7.78    0.51
   4   5  -2   20.49    1.10
  -4  -5   2   19.53    0.38
  -4   5   2   19.25    0.98
  -4  -5   2   18.39    0.92
  -4   5   2   19.71    0.78
  -4  -5   2   20.31    0.41
   4  -5  -2   20.23    0.74
   4  -5  -2   20.41    0.97
  -4   5   1    1.50    0.29
  -4  -5   1    1.35    0.26
  -4  -5   1    1.27    0.15
  -4   5   1    1.55    0.21
  -4  -5   1    1.47    0.17
   4   5  -1    0.98    0.26
   4  -5  -1    1.79    0.22
   4  -5  -1    1.77    0.29
  -4   5   0    5.01    0.51
  -4  -5   0    4.39    0.46
   4   5   0    5.15    0.56
  -4   5   0    5.12    0.37
   4  -5   0    4.97    0.39
  -4  -5   0    5.63    0.40
   4  -5   0    4.44    0.45
  -4   5  -1    5.69    0.54
  -4   5  -1    4.93    0.38
  -4  -5  -1    5.28    0.50
   4   5   1    4.47    0.54
  -4  -5  -1    5.85    0.47
   4  -5   1    6.14    0.52
  -4  -5  -2    3.49    0.41
  -4   5  -2    3.44    0.42
   4   5   2    4.11    0.53
  -4  -5  -2    3.19    0.38
  -4   5  -2    3.40    0.34
   4  -5   2    3.75    0.41
  -4   5  -3   36.65    1.42
  -4  -5  -3   35.46    1.32
   4  -5   3   35.44    1.25
  -4  -5  -3   35.21    1.34
   4   5   3   36.95    1.66
  -4   5  -3   38.50    1.25
  -4  -5  -4   69.92    1.90
  -4  -5  -4   72.54    2.09
  -4   5  -4   72.65    1.96
   4   5   4   66.52    2.32
  -4   5  -4   70.85    2.02
   4  -5   4   69.48    1.77
   4   5   5   40.25    1.85
  -4  -5  -5   36.56    1.39
  -4  -5  -5   37.46    1.62
  -4   5  -5   37.89    1.54
  -4   5  -5   35.50    1.48
   4  -5   5   37.36    1.31
  -4   5  -6    1.41    0.36
   4  -5   6    0.91    0.22
  -4   5  -6    1.23    0.29
  -4  -5  -6    0.86    0.21
   4   5   6    0.75    0.27
  -4  -5  -6    1.35    0.32
   4  -5   7    2.11    0.33
  -4  -5  -7    1.72    0.32
   4   5   7    2.13    0.50
  -4  -5  -7    1.93    0.42
  -4   5  -7    2.39    0.43
  -4   5  -7    1.60    0.40
  -4  -5  -8    2.89    0.40
   4   5   8    1.85    0.44
  -4  -5  -8    2.52    0.51
  -4   5  -8    3.00    0.52
  -4   5  -8    2.33    0.51
  -4   5  -9    0.13    0.21
   4   5   9    1.16    0.39
  -4   5  -9    0.47    0.29
  -4  -5  -9    0.67    0.33
   4   6 -10    0.22    0.28
  -4   6  10    0.07    0.17
   4  -6 -10    0.43    0.26
   4  -6  -9    7.89    0.62
  -4   6   9    6.80    0.73
   4  -6  -9    7.63    0.81
   4   6  -9    7.89    0.99
   4  -6  -8    9.93    0.70
  -4  -6   8   10.31    0.73
   4  -6  -8   10.33    0.90
   4   6  -8    9.39    1.02
  -4   6   8   10.81    0.89
   4  -6  -7    3.02    0.40
  -4  -6   7    2.72    0.39
  -4   6   7    3.77    0.55
  -4   6   7    3.48    0.49
   4   6  -7    3.45    0.60
  -4  -6   6   42.25    1.48
  -4   6   6   44.27    1.81
  -4   6   6   43.69    1.59
   4   6  -6   40.11    1.90
   4  -6  -6   42.57    1.44
  -4  -6   5   10.32    0.73
   4  -6  -5   10.15    0.72
  -4   6   5   11.55    0.89
  -4   6   5   10.62    0.76
   4   6  -5   10.15    0.92
  -4   6   4    7.20    0.58
  -4  -6   4    7.98    0.63
  -4   6   4    7.55    0.70
   4   6  -4    8.77    0.83
   4  -6  -4    8.28    0.67
   4   6  -3    8.57    0.79
  -4   6   3    8.81    0.62
  -4  -6   3    7.76    0.64
  -4   6   3    8.71    0.73
   4  -6  -3    9.80    0.71
  -4  -6   2   11.36    0.35
   4   6  -2   11.50    0.90
  -4   6   2   11.48    0.82
  -4  -6   2   10.77    0.75
  -4  -6   2   11.40    0.39
  -4   6   2   11.67    0.69
   4  -6  -2   12.64    0.80
   4  -6  -1    2.02    0.31
  -4   6   1    1.94    0.34
   4   6  -1    2.46    0.42
  -4  -6   1    2.17    0.35
  -4   6   1    2.43    0.31
  -4  -6   1    2.52    0.24
  -4   6   0    3.21    0.44
  -4  -6   0    2.99    0.40
   4   6   0    3.11    0.49
  -4   6   0    3.10    0.34
  -4  -6   0    3.61    0.33
   4  -6   0    3.04    0.42
   4  -6   1    0.52    0.18
   4   6   1    0.77    0.26
  -4   6  -1    0.48    0.20
  -4  -6  -1    0.77    0.21
  -4   6  -1    0.84    0.18
  -4  -6  -1    0.97    0.21
  -4   6  -2    2.74    0.34
  -4   6  -2    2.08    0.36
  -4  -6  -2    2.83    0.41
   4   6   2    2.06    0.40
  -4  -6  -2    3.52    0.41
   4  -6   2    2.51    0.36
  -4   6  -3   94.12    2.36
  -4  -6  -3   98.61    2.31
  -4  -6  -3   92.24    2.23
   4   6   3   91.87    2.78
  -4   6  -3   94.35    2.11
   4  -6   3   97.24    2.23
  -4   6  -4    1.78    0.33
  -4  -6  -4    2.02    0.34
  -4  -6  -4    2.22    0.37
   4   6   4    1.80    0.42
  -4   6  -4    2.25    0.35
   4  -6   4    2.40    0.37
   4  -6   5   28.24    1.19
   4   6   5   26.11    1.59
  -4  -6  -5   25.91    1.21
  -4  -6  -5   25.41    1.35
  -4   6  -5   27.91    1.37
  -4   6  -5   25.48    1.31
   4   6   6   16.11    1.26
  -4  -6  -6   13.07    0.88
   4  -6   6   13.78    0.82
  -4  -6  -6   15.31    1.12
  -4   6  -6   14.09    1.05
  -4   6  -6   11.68    0.92
  -4   6  -7    0.57    0.26
   4  -6   7    1.23    0.26
  -4   6  -7    0.97    0.29
  -4  -6  -7    1.44    0.31
   4   6   7    0.69    0.31
  -4  -6  -7    1.19    0.38
  -4   6  -8    1.24    0.40
  -4   6  -8    1.03    0.31
   4   6   8    1.06    0.39
  -4  -6  -8    1.32    0.30
  -4  -6  -8    1.11    0.38
  -4   6  -9    1.31    0.36
  -4   6  -9    0.96    0.37
  -4  -6  -9    0.83    0.33
   4   6   9    0.80    0.37
   4  -7  -9   14.74    0.90
   4  -7  -9   13.99    1.14
   4   7  -9   14.50    1.37
  -4   7   9   15.07    1.17
   4  -7  -8    0.97    0.23
   4   7  -8    0.87    0.37
  -4  -7   8    1.44    0.31
  -4   7   8    0.58    0.26
   4  -7  -8    1.09    0.31
   4  -7  -7   28.69    1.26
  -4  -7   7   26.07    1.23
  -4   7   7   28.50    1.60
  -4   7   7   28.57    1.47
   4   7  -7   27.21    1.71
   4  -7  -6   44.13    1.56
  -4  -7   6   40.20    1.51
  -4   7   6   41.09    1.85
  -4   7   6   44.09    1.75
   4   7  -6   41.63    2.03
   4  -7  -5    3.22    0.45
  -4  -7   5    3.39    0.46
  -4   7   5    3.21    0.46
  -4   7   5    2.93    0.50
   4   7  -5    3.45    0.58
   4  -7  -4    1.15    0.29
  -4  -7   4    0.99    0.24
  -4   7   4    1.03    0.27
   4   7  -4    0.56    0.24
  -4   7   4    0.67    0.24
   4   7  -3    3.06    0.52
  -4  -7   3    2.54    0.39
   4  -7  -3    3.68    0.48
  -4   7   3    3.78    0.51
  -4   7   3    3.18    0.42
  -4  -7   2    2.02    0.35
  -4   7   2    2.23    0.39
   4  -7  -2    2.18    0.36
  -4  -7   2    2.37    0.21
   4   7  -2    1.57    0.35
  -4   7   2    2.14    0.33
   4  -7  -1    3.83    0.46
  -4   7   1    3.68    0.49
  -4  -7   1    3.59    0.45
   4   7  -1    2.85    0.48
  -4   7   1    3.08    0.40
  -4  -7   1    3.52    0.32
   4  -7   0    3.83    0.48
  -4   7   0    2.34    0.39
  -4  -7   0    3.70    0.45
   4   7   0    3.28    0.53
  -4   7   0    3.68    0.41
  -4  -7   0    3.66    0.37
   4  -7   1    4.33    0.50
  -4   7  -1    4.44    0.54
  -4   7  -1    3.98    0.44
  -4  -7  -1    4.04    0.50
   4   7   1    4.46    0.63
  -4  -7  -1    4.66    0.46
   4  -7   2    9.25    0.71
  -4   7  -2    9.83    0.79
  -4   7  -2   10.39    0.71
  -4  -7  -2    8.12    0.70
   4   7   2    8.37    0.88
  -4  -7  -2    9.33    0.69
   4  -7   3   11.52    0.79
  -4   7  -3   13.25    0.93
  -4  -7  -3   13.57    0.90
  -4  -7  -3   11.29    0.81
   4   7   3   12.61    1.10
  -4   7  -3   14.28    0.89
  -4   7  -4   16.58    1.07
  -4  -7  -4   16.45    1.01
   4  -7   4   14.49    0.89
  -4  -7  -4   15.47    1.02
   4   7   4   13.46    1.19
  -4   7  -4   16.22    0.99
   4  -7   5    2.78    0.39
  -4   7  -5    3.81    0.52
  -4  -7  -5    2.70    0.43
   4   7   5    4.01    0.66
  -4  -7  -5    3.35    0.51
  -4   7  -5    3.17    0.49
  -4   7  -6   12.79    1.00
   4  -7   6   12.61    0.84
   4   7   6   11.76    1.15
  -4  -7  -6   11.63    0.87
  -4  -7  -6   12.63    1.03
  -4   7  -6   12.23    1.01
   4  -7   7    1.29    0.27
  -4   7  -7    0.94    0.34
  -4   7  -7    0.77    0.29
  -4  -7  -7    0.83    0.25
   4   7   7    1.09    0.38
  -4  -7  -7    1.04    0.36
   4   7   8    0.84    0.37
  -4   7  -8    1.87    0.45
  -4   7  -8    1.39    0.40
  -4  -7  -8    1.12    0.29
  -4  -7  -8    1.41    0.44
   4  -8  -8   10.48    0.81
  -4  -8   8   10.90    0.84
   4  -8  -8   12.14    1.06
  -4   8   8   12.35    1.05
   4   8  -8   10.43    1.16
   4  -8  -7    3.23    0.45
  -4  -8   7    2.11    0.37
  -4   8   7    3.33    0.57
  -4   8   7    2.89    0.51
   4   8  -7    2.46    0.59
   4  -8  -6    1.95    0.37
  -4   8   6    1.54    0.38
  -4  -8   6    1.46    0.32
   4   8  -6    1.82    0.45
  -4   8   6    2.07    0.44
   4   8  -5   15.43    1.27
   4  -8  -5   15.84    0.97
  -4   8   5   15.53    1.05
  -4  -8   5   14.47    0.96
  -4   8   5   14.30    1.12
   4  -8  -4    0.90    0.24
  -4   8   4    0.31    0.18
  -4  -8   4    0.73    0.23
  -4   8   4    0.91    0.32
   4   8  -4    1.00    0.36
   4  -8  -3    0.55    0.19
  -4  -8   3    0.60    0.20
  -4   8   3    1.29    0.33
   4   8  -3    1.09    0.32
  -4   8   3    1.01    0.28
   4  -8  -2    8.32    0.71
   4   8  -2    7.20    0.83
  -4  -8   2    7.84    0.70
  -4   8   2    7.69    0.77
  -4   8   2    8.62    0.72
  -4   8   1    6.12    0.69
  -4  -8   1    5.22    0.57
   4   8  -1    5.74    0.74
  -4   8   1    6.46    0.61
  -4  -8   1    6.09    0.43
   4  -8  -1    5.14    0.55
   4  -8   0   10.01    0.77
  -4   8   0    9.05    0.82
  -4  -8   0    7.87    0.70
   4   8   0   10.06    0.99
  -4   8   0    8.50    0.69
  -4  -8   0    8.92    0.59
   4  -8   1   28.58    1.30
  -4   8  -1   27.65    1.42
  -4  -8  -1   26.76    1.29
  -4   8  -1   28.87    1.29
   4   8   1   30.81    1.75
  -4  -8  -1   30.26    1.20
   4  -8   2   33.44    1.40
  -4   8  -2   38.07    1.67
  -4   8  -2   35.63    1.45
  -4  -8  -2   34.86    1.49
   4   8   2   33.10    1.85
  -4  -8  -2   34.69    1.38
   4  -8   3    3.49    0.48
  -4   8  -3    2.46    0.40
  -4   8  -3    2.43    0.43
  -4  -8  -3    2.29    0.40
   4   8   3    2.36    0.52
  -4  -8  -3    1.79    0.35
   4  -8   4    0.32    0.18
  -4   8  -4    0.22    0.13
  -4  -8  -4    0.22    0.16
  -4   8  -4    0.17    0.12
   4   8   4   -0.10    0.19
  -4  -8  -4    0.20    0.17
  -4   8  -5    5.02    0.64
  -4  -8  -5    2.93    0.47
   4   8   5    3.95    0.68
   4  -8   5    3.71    0.48
  -4  -8  -5    4.14    0.59
  -4   8  -5    3.78    0.56
  -4   8  -6    7.40    0.80
   4  -8   6    7.38    0.67
   4   8   6    8.75    1.04
  -4  -8  -6    7.46    0.73
  -4  -8  -6    7.98    0.86
  -4   8  -6    7.62    0.81
  -4   8  -7    7.52    0.80
   4  -8   7    8.64    0.72
   4   8   7    9.15    1.10
  -4  -8  -7    8.20    0.78
  -4  -8  -7   10.07    1.02
  -4   8  -7    8.13    0.90
   4  -9  -7    0.37    0.19
  -4  -9   7    0.48    0.20
  -4   9   7    0.62    0.27
   4   9  -7    0.35    0.28
   4   9  -6    3.14    0.66
   4  -9  -6    4.05    0.53
  -4  -9   6    2.92    0.47
  -4   9   6    4.07    0.62
  -4   9   6    3.85    0.64
   4  -9  -5    4.62    0.56
   4   9  -5    3.57    0.65
  -4   9   5    3.13    0.53
  -4  -9   5    3.26    0.48
  -4   9   5    3.97    0.62
  -4   9   4    7.14    0.77
   4  -9  -4    7.41    0.69
   4   9  -4    6.52    0.88
  -4  -9   4    6.86    0.69
  -4   9   4    6.26    0.77
   4  -9  -3    0.45    0.19
  -4  -9   3    0.36    0.15
  -4   9   3    0.35    0.27
   4   9  -3   -0.06    0.24
  -4   9   3    0.35    0.19
   4  -9  -2    7.87    0.71
  -4  -9   2    8.08    0.75
   4   9  -2    7.43    0.89
  -4   9   2    8.59    0.88
  -4   9   2    7.93    0.77
   4  -9  -1   20.50    1.14
  -4  -9   1   20.24    1.18
  -4   9   1   22.11    1.36
   4   9  -1   21.39    1.53
  -4   9   1   22.15    1.24
  -4  -9   1   20.08    0.84
   4   9   0   -0.10    0.20
  -4   9   0   -0.05    0.12
   4  -9   0   -0.21    0.17
  -4  -9   0    0.38    0.21
  -4   9   0   -0.03    0.13
  -4  -9   0    0.06    0.09
   4  -9   1    0.93    0.25
   4   9   1    0.53    0.25
  -4  -9  -1    0.79    0.26
  -4   9  -1    0.68    0.29
  -4  -9  -1    1.50    0.29
  -4   9  -1    1.23    0.30
   4  -9   2    6.99    0.70
  -4   9  -2    6.87    0.76
  -4   9  -2    7.95    0.74
  -4  -9  -2    7.75    0.74
   4   9   2    7.27    0.93
  -4  -9  -2    8.03    0.69
  -4   9  -3    3.50    0.54
  -4   9  -3    3.06    0.50
  -4  -9  -3    3.37    0.51
   4  -9   3    3.73    0.50
  -4  -9  -3    3.38    0.49
   4   9   3    4.37    0.74
   4  -9   4   12.97    0.92
  -4   9  -4   12.90    1.01
  -4   9  -4   11.58    0.98
  -4  -9  -4   12.33    0.96
  -4  -9  -4   11.89    0.97
   4  -9   5    7.81    0.74
  -4   9  -5    7.11    0.78
  -4  -9  -5    5.66    0.67
  -4   9  -5    7.77    0.83
  -4  -9  -5    7.55    0.81
   4   9   5    8.91    1.09
   4   9   6    1.84    0.56
   4  -9   6    1.01    0.29
  -4   9  -6    1.36    0.34
  -4  -9  -6    0.88    0.30
  -4   9  -6    1.69    0.44
  -4  -9  -6    0.67    0.25
   4 -10  -6    1.76    0.39
  -4 -10   6    1.96    0.41
  -4  10   6    2.24    0.56
   4  10  -6    1.74    0.52
  -4  10   6    1.90    0.46
   4 -10  -5    3.65    0.52
  -4  10   5    3.10    0.55
  -4 -10   5    2.43    0.45
  -4  10   5    4.18    0.68
   4  10  -5    2.49    0.58
   4 -10  -4    7.62    0.75
   4  10  -4    5.40    0.83
  -4 -10   4    4.62    0.60
  -4  10   4    6.53    0.83
  -4  10   4    5.56    0.73
   4 -10  -3    2.57    0.44
  -4 -10   3    2.40    0.47
  -4  10   3    2.42    0.51
   4  10  -3    1.74    0.46
  -4  10   3    2.52    0.46
   4 -10  -2    4.43    0.56
  -4 -10   2    3.78    0.54
   4  10  -2    4.75    0.77
  -4  10   2    4.54    0.67
  -4  10   2    5.04    0.66
   4 -10  -1   17.06    1.11
  -4 -10   1   14.77    1.07
  -4  10   1   18.00    1.32
   4  10  -1   17.86    1.49
  -4  10   1   17.24    1.18
   4 -10   0    8.74    0.78
  -4 -10   0    8.53    0.83
  -4  10   0   10.05    0.96
   4  10   0    8.23    1.04
  -4  10   0    8.31    0.84
   4 -10   1    6.73    0.70
  -4  10  -1    5.79    0.75
  -4 -10  -1    6.41    0.70
  -4  10  -1    6.80    0.74
  -4 -10  -1    5.60    0.57
   4 -10   2   13.56    0.98
  -4  10  -2   10.23    0.98
  -4 -10  -2    8.75    0.85
  -4  10  -2   11.51    0.98
   4  10   2   12.00    1.26
  -4 -10  -2   11.54    0.87
   4 -10   3    0.96    0.28
  -4 -10  -3    0.66    0.21
  -4  10  -3    0.91    0.34
   4  10   3    0.93    0.39
  -4  10  -3    0.41    0.25
  -4 -10  -3    0.50    0.22
   4 -10   4    0.29    0.19
  -4 -10  -4    0.41    0.23
  -4  10  -4    0.45    0.30
  -4  10  -4    0.04    0.19
   4  10   4    0.19    0.28
  -4 -10  -4    0.53    0.25
   4 -10   5    0.35    0.23
  -4  10  -5    0.57    0.28
  -4 -10  -5    0.05    0.16
  -4  10  -5    0.65    0.29
  -4 -10  -5    0.34    0.26
   4  10   5    0.30    0.22
  -4  11   4    0.56    0.30
   4 -11  -4    0.28    0.21
  -4 -11   4    0.37    0.25
  -4  11   4    0.16    0.22
   4 -11  -3    0.69    0.28
  -4 -11   3    0.81    0.27
  -4  11   3    1.01    0.39
  -4  11   3    1.08    0.39
   4  11  -3    0.96    0.42
   4 -11  -2   13.63    1.03
  -4 -11   2   11.91    1.02
   4  11  -2   12.65    1.33
  -4  11   2   10.11    1.06
  -4  11   2   12.35    1.11
   4 -11  -1    0.91    0.32
  -4 -11   1   -0.01    0.16
   4  11  -1    0.63    0.35
  -4  11   1    0.43    0.25
  -4  11   1    0.31    0.24
   4 -11   0   13.45    1.04
  -4 -11   0   13.00    1.06
  -4  11   0   14.01    1.21
   4  11   0   12.00    1.28
  -4  11   0   13.33    1.10
  -4  11  -1    0.47    0.24
   4 -11   1    0.18    0.14
   4  11   1    0.74    0.37
  -4 -11  -1    0.32    0.26
  -4  11  -1    0.59    0.24
   4 -11   2    3.14    0.52
  -4  11  -2    3.29    0.60
  -4 -11  -2    2.41    0.48
  -4  11  -2    3.31    0.56
   4  11   2    2.24    0.59
  -4 -11  -2    3.00    0.46
   5   0 -11    2.67    0.59
   5   0 -10   11.29    1.12
   5   0  -9    4.65    0.67
   5   0  -9    5.55    0.49
  -5   0   8    1.30    0.23
   5   0  -8    1.46    0.25
   5   0  -8    1.79    0.41
  -5   0   7    0.08    0.10
   5   0  -7    0.09    0.10
   5   0  -7    0.20    0.17
  -5   0   6   18.52    0.90
   5   0  -6   20.39    0.78
   5   0  -6   18.19    1.05
  -5   0   5    1.83    0.23
  -5   0   5    2.05    0.31
   5   0  -5    2.24    0.35
  -5   0   4    1.12    0.18
  -5   0   4    1.37    0.26
   5   0  -4    1.20    0.22
   5   0  -3    0.04    0.05
   5   0  -3    0.10    0.07
  -5   0   3    0.10    0.06
  -5   0   3   -0.01    0.08
  -5   0   2   20.74    0.73
   5   0  -2   21.81    0.60
   5   0  -2   22.02    0.52
  -5   0   1   52.84    1.22
  -5   0   1   53.70    1.54
  -5   0   1   57.12    0.89
   5   0  -1   54.88    0.85
  -5   0   0    0.84    0.17
   5   0   0    0.83    0.11
  -5   0   0    0.95    0.22
  -5   0   0    0.91    0.11
  -5   0  -1    0.12    0.12
  -5   0  -1    0.05    0.08
   5   0   1    0.09    0.06
  -5   0  -2    0.35    0.13
   5   0   2    0.42    0.12
  -5   0  -2    0.23    0.13
  -5   0  -3    7.45    0.59
  -5   0  -3    7.67    0.62
   5   0   3    6.05    0.44
  -5   0  -4    0.02    0.10
   5   0   4    0.15    0.09
   5   0   5    6.15    0.51
  -5   0  -5    5.05    0.49
  -5   0  -5    7.24    0.69
  -5   0  -6    2.27    0.42
  -5   0  -6    1.74    0.30
   5   0   6    2.53    0.36
  -5   0  -7    0.44    0.17
   5   0   7    0.17    0.14
  -5   0  -7    0.33    0.22
   5   0   8    0.61    0.24
  -5   0  -8    0.47    0.28
   5   0   9    0.18    0.19
  -5   0  -9   -0.12    0.22
   5  -1 -11    1.81    0.51
   5   1 -11    2.53    0.61
   5  -1 -10   15.62    1.30
   5  -1 -10   13.05    0.86
   5   1 -10   12.53    1.22
   5  -1  -9    7.82    0.55
  -5  -1   9    6.87    0.52
   5  -1  -9    6.52    0.80
   5  -1  -9    7.44    0.62
   5   1  -9    8.39    0.93
  -5  -1   8   22.11    0.97
   5  -1  -8   24.71    1.06
   5  -1  -8   24.20    1.40
   5   1  -8   23.13    0.85
   5   1  -8   22.00    1.40
  -5   1   7    1.41    0.25
  -5  -1   7    1.09    0.22
   5  -1  -7    1.67    0.26
   5   1  -7    1.89    0.23
   5   1  -7    2.09    0.42
   5  -1  -7    1.38    0.32
  -5  -1   6    9.05    0.64
  -5   1   6   11.68    0.67
  -5   1   6   10.00    0.64
   5   1  -6   10.93    0.49
   5  -1  -6    9.98    0.75
   5   1  -6   10.46    0.81
  -5   1   5   19.46    0.84
  -5  -1   5   17.24    0.89
  -5   1   5   20.88    0.95
  -5  -1   5   18.84    0.63
   5  -1  -5   18.38    0.91
   5   1  -5   17.87    0.96
   5   1  -5   20.24    0.61
   5   1  -4    0.78    0.19
  -5  -1   4    0.77    0.13
   5  -1  -4    0.89    0.18
  -5   1   4    0.54    0.15
  -5  -1   4    0.91    0.19
  -5   1   4    0.93    0.21
   5   1  -4    0.73    0.13
  -5  -1   3    7.59    0.39
  -5   1   3    7.52    0.49
   5  -1  -3    7.98    0.37
  -5  -1   3    6.11    0.53
  -5   1   3    7.62    0.59
   5  -1  -3    8.52    0.39
   5   1  -3    7.75    0.42
   5   1  -3    7.93    0.50
  -5  -1   2    4.78    0.32
  -5   1   2    4.29    0.37
   5   1  -2    4.58    0.35
  -5  -1   2    4.34    0.45
  -5   1   2    4.14    0.43
  -5  -1   2    4.53    0.37
  -5   1   1   21.37    0.83
  -5  -1   1   20.71    0.97
   5   1  -1   22.12    0.74
  -5   1   1   23.38    1.02
  -5  -1   1   21.12    0.74
  -5  -1   1   22.15    0.73
  -5   1   0    1.03    0.19
  -5  -1   0    1.43    0.28
  -5   1   0    1.43    0.27
   5   1   0    1.38    0.20
  -5  -1   0    1.51    0.19
  -5  -1   0    1.48    0.22
   5   1   1   18.07    0.73
  -5   1  -1   16.53    0.41
  -5  -1  -1   17.59    0.89
  -5   1  -1   17.35    0.88
  -5  -1  -1   18.89    0.83
  -5   1  -1   17.95    0.85
   5  -1   2   48.80    0.89
   5   1   2   49.72    1.31
  -5  -1  -2   49.44    1.50
  -5   1  -2   46.99    1.45
  -5  -1  -2   48.75    1.44
  -5   1  -2   49.81    1.49
  -5  -1  -3    2.30    0.33
  -5   1  -3    2.37    0.34
   5   1   3    2.05    0.29
  -5  -1  -3    2.06    0.33
  -5   1  -3    2.33    0.35
   5  -1   3    2.17    0.23
  -5   1  -4    0.59    0.19
   5   1   4    0.91    0.21
  -5  -1  -4    0.60    0.21
  -5  -1  -4    0.36    0.17
  -5   1  -4    0.89    0.21
   5  -1   4    0.72    0.16
   5  -1   5    5.69    0.49
  -5  -1  -5    5.97    0.53
  -5   1  -5    5.61    0.49
  -5  -1  -5    5.56    0.61
  -5   1  -5    6.17    0.64
   5   1   5    5.95    0.54
   5   1   6   16.62    0.97
   5  -1   6   15.92    0.88
  -5  -1  -6   15.39    0.86
  -5   1  -6   14.58    0.80
  -5  -1  -6   16.23    1.09
  -5   1  -6   16.80    1.10
   5   1   7   11.42    0.86
  -5  -1  -7   10.20    0.70
   5  -1   7   11.28    0.80
  -5   1  -7   11.00    0.68
  -5  -1  -7   13.31    1.07
  -5   1  -7   11.71    0.97
  -5   1  -8    0.92    0.29
   5   1   8    1.24    0.31
   5  -1   8    0.95    0.26
  -5   1  -9    2.71    0.53
   5  -1   9    1.85    0.40
   5   1   9    2.60    0.47
  -5  -1  -9    2.65    0.54
   5   2 -11    1.99    0.55
   5  -2 -11    0.97    0.32
   5  -2 -11    1.41    0.46
   5  -2 -10   10.56    1.04
   5  -2 -10   11.17    0.86
   5   2 -10    8.84    1.03
  -5  -2   9   32.60    1.17
   5  -2  -9   30.16    1.65
   5  -2  -9   34.72    1.43
   5   2  -9   34.62    1.88
   5  -2  -9   34.11    1.17
  -5  -2   8   11.14    0.72
   5  -2  -8   12.00    0.96
   5  -2  -8   12.32    0.81
   5   2  -8   11.41    1.03
   5  -2  -8   11.36    0.70
  -5  -2   7    8.75    0.63
   5  -2  -7    7.90    0.72
   5   2  -7    9.23    0.85
   5  -2  -7    8.46    0.62
  -5  -2   6   30.30    1.18
  -5   2   6   33.72    1.26
  -5   2   6   32.33    1.17
   5  -2  -6   33.50    1.32
   5   2  -6   33.82    0.62
   5   2  -6   32.22    1.45
  -5   2   5    3.71    0.40
  -5  -2   5    2.97    0.37
  -5   2   5    3.23    0.37
   5  -2  -5    3.49    0.38
   5   2  -5    3.01    0.17
   5   2  -5    3.14    0.43
   5   2  -5    3.09    0.17
  -5   2   4    4.96    0.45
  -5  -2   4    4.51    0.46
  -5  -2   4    4.68    0.22
  -5   2   4    4.90    0.46
   5  -2  -4    3.77    0.34
   5   2  -4    4.63    0.23
   5   2  -4    4.81    0.48
   5  -2  -4    4.71    0.37
  -5   2   3    4.89    0.43
  -5  -2   3    4.84    0.25
  -5  -2   3    5.48    0.51
  -5   2   3    4.73    0.45
   5   2  -3    5.45    0.47
   5  -2  -3    5.18    0.28
   5  -2  -3    5.48    0.29
   5   2  -3    5.02    0.28
  -5  -2   2   10.36    0.42
  -5   2   2    9.42    0.60
   5   2  -2   10.02    0.59
  -5  -2   2    8.94    0.66
  -5   2   2    9.01    0.62
   5   2  -2    9.90    0.45
  -5   2   1   25.94    0.99
   5   2  -1   24.35    0.91
  -5  -2   1   25.05    1.10
  -5   2   1   24.25    1.04
  -5  -2   1   23.58    0.73
  -5  -2   0    0.16    0.10
  -5   2   0    0.23    0.11
   5   2   0    0.39    0.12
  -5  -2   0    0.04    0.11
  -5   2   0    0.10    0.10
  -5  -2  -1    7.81    0.61
  -5   2  -1    6.84    0.55
   5   2   1    7.15    0.54
  -5  -2  -1    6.77    0.49
  -5   2  -1    7.03    0.55
   5   2   2   48.69    1.48
  -5  -2  -2   51.29    1.57
  -5   2  -2   52.23    1.51
  -5   2  -2   50.38    1.03
  -5   2  -2   52.64    1.01
  -5  -2  -2   52.37    1.52
  -5   2  -2   49.99    1.53
   5   2   3   15.58    0.87
  -5  -2  -3   15.22    0.86
  -5   2  -3   15.97    0.83
  -5   2  -3   15.92    0.75
  -5  -2  -3   16.56    0.93
  -5   2  -3   15.77    0.91
  -5  -2  -4   15.24    0.87
   5   2   4   15.08    0.91
  -5   2  -4   14.43    0.79
  -5   2  -4   17.10    0.89
  -5  -2  -4   16.18    0.99
  -5   2  -4   14.70    0.93
  -5  -2  -5    5.30    0.52
  -5   2  -5    4.60    0.46
  -5   2  -5    5.76    0.57
   5   2   5    5.54    0.58
  -5  -2  -5    4.96    0.58
  -5   2  -5    5.80    0.61
  -5  -2  -6    4.76    0.50
  -5   2  -6    4.99    0.59
   5   2   6    5.50    0.59
  -5  -2  -6    5.68    0.66
  -5   2  -6    6.21    0.68
  -5   2  -7    1.31    0.36
  -5  -2  -7    1.29    0.27
  -5  -2  -7    1.54    0.37
   5   2   7    1.29    0.31
  -5   2  -7    1.30    0.38
   5  -2   7    1.44    0.28
  -5   2  -8    1.61    0.42
  -5  -2  -8    1.72    0.43
  -5   2  -8    1.28    0.36
   5   2   8    1.01    0.32
  -5   2  -9    0.79    0.35
   5   2   9    0.92    0.32
  -5   2  -9    0.08    0.21
  -5  -2  -9    1.24    0.44
   5   3 -11    0.85    0.39
   5  -3 -11    1.11    0.32
  -5   3  10   20.52    1.18
   5  -3 -10   21.18    1.23
   5   3 -10   17.54    1.46
  -5   3   9    9.89    0.79
  -5  -3   9   10.39    0.69
   5  -3  -9    9.66    0.67
   5  -3  -9   10.77    0.84
   5   3  -9    9.61    1.01
  -5  -3   8   28.07    1.16
   5  -3  -8   29.26    1.32
   5   3  -8   26.63    1.58
  -5   3   8   30.76    1.26
   5  -3  -8   28.16    1.13
  -5  -3   7   16.77    0.90
  -5   3   7   18.23    1.04
  -5   3   7   18.60    0.91
   5   3  -7   16.78    1.18
   5  -3  -7   17.53    0.90
  -5  -3   6   25.59    1.12
  -5   3   6   26.58    1.20
  -5   3   6   28.00    0.99
   5   3  -6   27.31    1.41
   5  -3  -6   25.72    1.09
  -5  -3   5   47.42    1.52
  -5   3   5   49.08    1.56
  -5   3   5   46.46    1.11
   5   3  -5   48.04    1.71
   5  -3  -5   48.46    1.52
  -5   3   4   32.29    1.22
   5   3  -4   32.45    1.31
  -5   3   4   32.62    0.77
   5   3  -3   67.82    1.82
  -5   3   3   63.27    1.67
   5  -3  -3   63.93    0.96
  -5  -3   3   62.27    1.76
  -5   3   3   67.68    1.74
   5  -3  -3   65.38    1.03
  -5  -3   2   31.43    0.63
  -5   3   2   31.08    1.16
   5   3  -2   30.90    1.18
  -5  -3   2   30.09    1.22
  -5   3   2   33.46    1.22
   5   3  -2   31.80    0.68
  -5   3   1   30.32    1.14
   5   3  -1   28.92    1.13
  -5  -3   1   28.27    1.19
  -5   3   1   30.46    1.16
  -5  -3   1   28.97    0.76
  -5   3   0   12.83    0.76
  -5  -3   0   12.24    0.79
  -5   3   0   12.13    0.73
   5   3   0   11.86    0.73
  -5  -3   0   11.11    0.56
  -5   3  -1    1.12    0.24
  -5  -3  -1    1.21    0.25
   5   3   1    1.00    0.24
  -5   3  -1    1.07    0.22
  -5  -3  -1    1.36    0.24
  -5  -3  -2   30.45    1.26
  -5   3  -2   31.58    1.18
  -5   3  -2   29.42    0.75
  -5  -3  -2   28.75    1.13
   5   3   2   30.69    1.29
  -5   3  -2   31.56    1.25
  -5   3  -2   29.13    0.74
   5   3   3   73.66    2.09
  -5  -3  -3   73.42    1.94
  -5   3  -3   75.91    1.86
  -5   3  -3   76.78    1.60
  -5  -3  -3   74.79    1.98
  -5   3  -3   74.02    2.01
  -5   3  -4    0.46    0.17
  -5  -3  -4    0.91    0.24
   5   3   4    0.96    0.26
  -5  -3  -4    0.69    0.23
  -5   3  -4    0.82    0.21
  -5  -3  -5    4.02    0.47
   5   3   5    3.89    0.53
  -5   3  -5    3.93    0.48
  -5  -3  -5    3.40    0.49
  -5   3  -5    4.89    0.58
   5  -3   5    3.76    0.43
  -5  -3  -6    9.82    0.73
   5   3   6   10.72    0.89
  -5   3  -6    9.45    0.82
  -5  -3  -6    9.21    0.86
  -5   3  -6   12.30    0.95
   5  -3   6   11.36    0.72
   5  -3   7    1.60    0.27
  -5   3  -7    1.11    0.33
   5   3   7    1.05    0.31
  -5  -3  -7    1.35    0.29
  -5   3  -7    1.52    0.40
  -5  -3  -7    1.93    0.44
  -5   3  -8    1.84    0.42
  -5   3  -8    2.22    0.51
   5   3   8    2.27    0.46
  -5  -3  -8    2.54    0.51
   5   3   9    4.48    0.68
  -5   3  -9    4.04    0.72
  -5  -3  -9    4.34    0.69
  -5   3  -9    6.11    0.77
  -5   4  10    9.28    0.82
   5  -4 -10    9.95    0.91
   5   4 -10    9.70    1.10
   5  -4  -9    5.63    0.54
  -5   4   9    4.90    0.56
  -5  -4   9    5.82    0.53
   5  -4  -9    5.84    0.65
   5   4  -9    5.94    0.82
  -5   4   8    5.24    0.55
  -5  -4   8    6.10    0.57
   5  -4  -8    5.71    0.62
   5   4  -8    6.17    0.80
   5  -4  -8    6.22    0.56
   5   4  -7    1.64    0.41
  -5  -4   7    2.33    0.37
  -5   4   7    2.16    0.40
  -5   4   7    2.31    0.33
   5  -4  -7    1.82    0.31
  -5  -4   6   32.09    1.30
   5  -4  -6   32.08    1.26
  -5   4   6   34.80    1.46
  -5   4   6   31.81    1.07
   5   4  -6   31.95    1.58
  -5  -4   5   43.22    1.52
  -5   4   5   41.49    1.09
   5   4  -5   39.93    1.65
   5  -4  -5   42.40    1.45
   5  -4  -4    0.61    0.16
   5   4  -4    0.57    0.20
  -5  -4   4    1.12    0.23
  -5   4   4    0.99    0.22
  -5   4   4    0.89    0.14
   5   4  -3   47.57    1.66
   5  -4  -3   44.91    0.90
  -5   4   3   43.49    1.50
  -5  -4   3   46.14    1.55
  -5   4   3   44.84    0.78
   5  -4  -3   46.87    1.52
   5   4  -2   70.00    1.96
  -5   4   2   68.27    1.85
   5  -4  -2   63.84    1.76
  -5  -4   2   63.53    1.82
  -5  -4   2   59.67    0.85
  -5  -4   2   66.89    0.80
  -5   4   1   37.91    1.38
   5   4  -1   38.81    1.44
  -5  -4   1   38.20    1.41
   5   4  -1   40.62    0.90
  -5  -4   1   38.21    0.89
   5  -4  -1   38.35    1.36
  -5   4   0   10.66    0.73
  -5  -4   0   11.77    0.78
   5   4   0   11.68    0.81
  -5  -4   0   12.23    0.61
   5  -4   0   12.56    0.78
  -5   4  -1    5.34    0.53
  -5   4  -1    6.10    0.26
  -5   4  -1    6.12    0.25
  -5  -4  -1    5.44    0.55
   5   4   1    5.62    0.57
  -5  -4  -1    5.51    0.45
   5  -4   1    6.37    0.56
  -5   4  -2   45.99    1.59
  -5  -4  -2   46.88    1.60
  -5  -4  -2   45.79    1.47
   5   4   2   44.76    1.70
  -5   4  -2   49.27    1.03
   5  -4   2   47.04    1.53
  -5  -4  -3  120.51    2.59
  -5  -4  -3  129.45    2.66
  -5   4  -3  124.69    2.07
   5   4   3  119.97    2.90
   5  -4   3  122.46    2.44
  -5   4  -3  121.22    2.65
   5  -4   4    0.62    0.19
  -5   4  -4    0.52    0.17
  -5   4  -4    1.06    0.28
   5   4   4    1.09    0.31
  -5  -4  -4    0.46    0.18
  -5  -4  -4    0.59    0.21
   5   4   5    4.00    0.57
  -5  -4  -5    4.43    0.50
  -5   4  -5    4.20    0.52
  -5  -4  -5    4.85    0.59
  -5   4  -5    3.67    0.51
   5  -4   5    4.27    0.47
  -5  -4  -6    9.30    0.74
   5   4   6   10.13    0.94
  -5   4  -6    9.76    0.85
  -5  -4  -6    9.29    0.88
  -5   4  -6    8.15    0.78
   5  -4   6    8.93    0.67
  -5  -4  -7    4.44    0.52
   5   4   7    5.36    0.70
  -5   4  -7    4.95    0.67
  -5  -4  -7    4.35    0.66
  -5   4  -7    5.47    0.68
   5  -4   7    4.46    0.47
  -5   4  -8    1.11    0.33
   5   4   8    1.55    0.43
  -5  -4  -8    1.37    0.40
  -5   4  -8    0.75    0.31
  -5  -4  -9    3.86    0.66
   5   4   9    3.33    0.60
  -5   4  -9    3.72    0.62
  -5   4  -9    3.50    0.64
  -5   5  10    4.31    0.59
   5   5 -10    3.46    0.68
   5  -5 -10    3.98    0.60
   5  -5  -9   14.27    0.86
   5  -5  -9   16.12    1.12
   5   5  -9   13.75    1.28
  -5   5   9   14.31    0.96
   5  -5  -8   12.34    0.82
  -5  -5   8   11.94    0.81
  -5   5   8   12.95    0.85
   5   5  -8   12.60    1.15
  -5  -5   7    3.37    0.44
  -5   5   7    3.43    0.41
  -5   5   7    4.23    0.58
   5   5  -7    3.96    0.62
   5  -5  -7    4.88    0.54
   5  -5  -6   11.21    0.78
  -5   5   6   12.54    0.71
  -5  -5   6   12.58    0.85
  -5   5   6   11.87    0.91
   5   5  -6   12.73    1.04
  -5   5   5   28.55    0.98
  -5  -5   5   26.70    1.22
  -5   5   5   29.51    1.39
   5  -5  -5   28.58    1.25
   5   5  -5   30.57    1.53
  -5  -5   4  119.76    2.57
  -5   5   4  126.10    2.78
  -5   5   4  124.64    1.86
   5  -5  -4  125.15    2.57
   5   5  -4  127.22    3.01
   5   5  -3   39.06    1.62
  -5   5   3   39.12    1.51
  -5  -5   3   38.71    1.48
  -5   5   3   41.70    0.94
   5  -5  -3   39.98    1.45
   5   5  -2   21.38    1.19
  -5   5   2   20.25    1.07
  -5  -5   2   20.73    0.42
  -5  -5   2   19.89    1.07
  -5   5   2   21.58    0.60
  -5  -5   2   21.67    0.42
   5  -5  -2   22.54    1.09
  -5   5   1    6.58    0.30
  -5   5   1    6.50    0.60
  -5  -5   1    6.20    0.60
   5   5  -1    6.00    0.64
  -5  -5   1    6.40    0.38
   5  -5  -1    6.41    0.57
  -5   5   0   13.67    0.89
   5  -5   0   13.26    0.83
  -5  -5   0   14.08    0.91
   5   5   0   12.63    0.92
  -5   5   0   14.45    0.47
  -5  -5   0   12.65    0.62
  -5   5   0   13.20    0.38
  -5   5  -1   17.51    1.01
  -5   5  -1   18.25    0.61
  -5  -5  -1   16.32    0.98
   5   5   1   16.38    1.08
  -5  -5  -1   18.19    0.85
   5  -5   1   19.61    1.02
  -5   5  -2    7.40    0.46
  -5   5  -2    7.13    0.65
  -5  -5  -2    6.99    0.65
   5   5   2    7.11    0.74
  -5  -5  -2    7.15    0.59
   5  -5   2    6.53    0.59
  -5   5  -3   30.99    1.38
  -5  -5  -3   33.15    1.40
  -5  -5  -3   31.25    1.31
   5   5   3   32.72    1.61
  -5   5  -3   33.29    1.09
   5  -5   3   33.40    1.33
   5   5   4   21.53    1.36
   5  -5   4   21.35    1.07
  -5  -5  -4   19.87    1.11
  -5  -5  -4   20.51    1.16
  -5   5  -4   20.33    0.97
  -5   5  -4   17.37    1.09
   5   5   5    7.98    0.85
  -5  -5  -5    9.06    0.75
  -5  -5  -5    9.13    0.83
  -5   5  -5    8.23    0.69
  -5   5  -5    8.38    0.77
   5  -5   5    8.89    0.70
  -5   5  -6    2.00    0.40
  -5  -5  -6    2.69    0.42
  -5   5  -6    2.67    0.43
  -5  -5  -6    2.23    0.46
   5  -5   6    2.46    0.38
  -5  -5  -7    8.63    0.74
   5   5   7    8.78    0.97
  -5   5  -7    8.25    0.87
  -5  -5  -7    8.08    0.89
  -5   5  -7    9.12    0.88
   5  -5   7    9.93    0.75
   5   5   8   11.89    1.14
  -5   5  -8   10.51    1.05
  -5  -5  -8   10.72    1.07
  -5   5  -8   11.68    1.04
  -5   6   9    5.87    0.64
   5  -6  -9    4.68    0.65
   5  -6  -9    5.56    0.56
   5   6  -9    5.17    0.81
   5  -6  -8   11.42    0.81
  -5   6   8   14.30    0.94
  -5  -6   8   11.28    0.83
  -5   6   8   11.63    1.02
   5   6  -8   12.46    1.17
   5  -6  -7   42.45    1.61
  -5   6   7   41.99    1.51
  -5  -6   7   39.88    1.56
  -5   6   7   42.55    1.89
   5   6  -7   39.33    2.00
  -5  -6   6    6.61    0.64
  -5   6   6    5.92    0.69
   5   6  -6    6.23    0.78
  -5   6   6    6.60    0.57
   5  -6  -6    6.36    0.64
  -5  -6   5   18.72    1.07
  -5   6   5   18.31    1.16
  -5   6   5   18.22    0.89
   5   6  -5   17.33    1.24
   5  -6  -5   21.02    1.13
   5   6  -4   12.86    1.03
  -5  -6   4   11.84    0.85
  -5   6   4   11.23    0.90
   5  -6  -4   11.39    0.82
  -5   6   4   11.87    0.66
   5   6  -3   14.77    1.07
  -5   6   3   14.66    1.00
  -5  -6   3   12.82    0.89
  -5   6   3   14.94    0.70
   5  -6  -3   15.12    0.94
  -5   6   2   65.85    1.36
   5   6  -2   64.59    2.21
  -5   6   2   65.22    2.03
  -5  -6   2   64.73    1.99
   5  -6  -2   68.38    1.98
  -5  -6   2   63.10    0.76
  -5   6   1    2.89    0.43
  -5  -6   1    3.32    0.46
   5   6  -1    4.16    0.57
  -5  -6   1    3.48    0.28
  -5   6   1    3.51    0.31
   5  -6  -1    3.48    0.44
  -5   6   0   33.30    1.48
  -5  -6   0   33.84    1.45
   5   6   0   31.20    1.56
  -5   6   0   33.74    0.96
  -5  -6   0   33.14    1.06
   5  -6   0   35.76    1.43
  -5   6  -1   48.34    1.76
  -5  -6  -1   50.67    1.77
  -5   6  -1   52.73    1.24
   5   6   1   51.47    2.03
  -5  -6  -1   50.91    1.46
   5  -6   1   49.53    1.68
  -5   6  -2   16.37    1.04
  -5   6  -2   17.19    0.77
  -5  -6  -2   17.13    1.05
   5   6   2   15.75    1.16
  -5  -6  -2   15.53    0.89
   5  -6   2   16.80    0.98
  -5   6  -3   14.07    0.98
  -5  -6  -3   15.70    1.01
  -5  -6  -3   15.50    0.96
   5   6   3   13.26    1.11
  -5   6  -3   15.74    0.82
   5  -6   3   15.84    0.96
   5  -6   4    1.47    0.33
  -5   6  -4    1.34    0.32
  -5  -6  -4    1.45    0.32
  -5  -6  -4    1.68    0.36
  -5   6  -4    1.86    0.31
   5   6   4    2.13    0.47
   5   6   5   19.71    1.41
  -5  -6  -5   18.56    1.11
  -5  -6  -5   19.70    1.25
  -5   6  -5   19.28    1.11
   5  -6   5   18.34    1.05
  -5   6  -5   18.89    1.20
   5  -6   6    2.04    0.37
   5   6   6    2.49    0.56
  -5  -6  -6    2.15    0.38
  -5   6  -6    3.36    0.53
  -5  -6  -6    1.90    0.44
  -5   6  -6    2.45    0.45
   5  -6   7    4.45    0.52
  -5  -6  -7    4.74    0.60
   5   6   7    4.29    0.71
  -5  -6  -7    4.19    0.67
  -5   6  -7    4.92    0.67
  -5   6  -7    4.70    0.64
  -5   6  -8    2.29    0.49
  -5   6  -8    2.77    0.53
   5   6   8    2.62    0.58
  -5  -6  -8    2.64    0.55
   5  -7  -9    2.03    0.37
  -5   7   9    2.73    0.46
   5   7  -9    2.00    0.56
   5  -7  -9    2.36    0.49
   5  -7  -8   24.99    1.25
  -5   7   8   25.55    1.33
  -5  -7   8   26.17    1.32
  -5   7   8   27.45    1.67
   5   7  -8   24.39    1.71
   5  -7  -7   28.21    1.34
  -5  -7   7   25.86    1.32
  -5   7   7   28.49    1.64
  -5   7   7   29.19    1.35
   5   7  -7   25.65    1.68
   5  -7  -6    2.50    0.41
  -5  -7   6    2.00    0.39
   5   7  -6    2.32    0.52
  -5   7   6    1.92    0.44
  -5   7   6    2.73    0.41
   5  -7  -5   15.55    1.00
   5   7  -5   15.62    1.26
  -5  -7   5   15.12    1.01
  -5   7   5   14.20    1.10
  -5   7   5   12.64    0.83
   5   7  -4    2.07    0.47
   5  -7  -4    1.67    0.36
  -5  -7   4    1.78    0.34
  -5   7   4    1.95    0.31
  -5   7   4    1.59    0.37
   5   7  -3    2.46    0.49
  -5   7   3    3.25    0.38
  -5  -7   3    2.98    0.45
  -5   7   3    2.72    0.45
   5  -7  -3    3.24    0.47
  -5   7   2    1.13    0.23
   5  -7  -2    1.67    0.33
  -5  -7   2    1.53    0.34
  -5   7   2    0.91    0.28
   5   7  -2    1.14    0.34
  -5   7   1    5.70    0.65
  -5  -7   1    5.35    0.61
   5   7  -1    5.56    0.70
  -5  -7   1    5.77    0.40
  -5   7   1    6.42    0.50
   5  -7  -1    6.43    0.64
  -5   7   0    4.86    0.59
  -5  -7   0    4.34    0.55
   5   7   0    4.98    0.69
  -5   7   0    5.24    0.46
  -5  -7   0    5.40    0.45
   5  -7   0    5.05    0.58
  -5   7  -1   42.32    1.75
  -5  -7  -1   42.31    1.69
  -5   7  -1   41.97    1.29
   5   7   1   39.67    1.92
  -5  -7  -1   39.48    1.36
   5  -7   1   42.65    1.66
  -5   7  -2    7.24    0.74
  -5   7  -2    7.38    0.57
  -5  -7  -2    6.23    0.67
   5   7   2    6.95    0.82
  -5  -7  -2    7.23    0.62
   5  -7   2    7.24    0.69
  -5   7  -3   14.65    0.85
  -5   7  -3   15.47    1.07
  -5  -7  -3   16.16    1.07
  -5  -7  -3   15.50    1.00
   5   7   3   16.68    1.32
   5  -7   3   17.31    1.07
   5  -7   4   11.44    0.87
  -5   7  -4    9.76    0.89
  -5  -7  -4   12.71    0.96
  -5   7  -4   10.17    0.77
  -5  -7  -4   10.66    0.88
   5   7   4   11.08    1.10
   5  -7   5    3.22    0.45
  -5   7  -5    2.46    0.48
   5   7   5    3.51    0.64
  -5  -7  -5    4.05    0.56
  -5  -7  -5    3.17    0.53
  -5   7  -5    3.82    0.51
  -5   7  -6    8.84    0.88
   5  -7   6    7.87    0.71
   5   7   6    8.59    1.01
  -5  -7  -6    8.93    0.83
  -5  -7  -6    7.86    0.86
  -5   7  -6    8.30    0.82
   5  -7   7    1.75    0.35
  -5   7  -7    1.84    0.46
  -5  -7  -7    1.70    0.37
   5   7   7    2.40    0.57
  -5  -7  -7    2.35    0.50
   5  -8  -8    5.92    0.65
  -5  -8   8    5.78    0.66
  -5   8   8    6.43    0.86
   5   8  -8    4.44    0.79
   5  -8  -7    2.09    0.40
  -5  -8   7    1.85    0.38
   5   8  -7    1.77    0.48
  -5   8   7    1.79    0.37
  -5   8   7    0.84    0.30
   5   8  -6    9.65    1.05
   5  -8  -6    8.60    0.78
  -5  -8   6    7.49    0.76
  -5   8   6    9.35    0.95
  -5   8   6    9.64    0.81
   5  -8  -5    3.56    0.50
   5   8  -5    3.54    0.64
  -5  -8   5    2.47    0.45
  -5   8   5    2.87    0.55
  -5   8   5    2.69    0.43
   5  -8  -4    1.06    0.30
  -5  -8   4    1.19    0.33
  -5   8   4    1.12    0.34
   5   8  -4    1.35    0.41
  -5   8   4    0.88    0.25
   5  -8  -3    4.73    0.59
  -5   8   3    3.49    0.43
   5   8  -3    3.26    0.61
  -5  -8   3    3.35    0.50
  -5   8   3    4.37    0.64
   5  -8  -2    0.00    0.13
  -5  -8   2   -0.03    0.14
  -5   8   2   -0.08    0.15
   5   8  -2   -0.08    0.20
  -5   8   2    0.02    0.10
   5  -8  -1    9.09    0.79
  -5   8   1   10.35    0.92
  -5  -8   1    9.89    0.85
   5   8  -1    8.51    0.94
  -5   8   1   10.25    0.73
   5  -8   0   16.42    1.06
  -5   8   0   17.49    1.18
  -5  -8   0   17.51    1.13
   5   8   0   17.99    1.37
  -5   8   0   16.27    0.90
  -5  -8   0   16.51    0.82
   5  -8   1    5.08    0.60
  -5   8  -1    3.66    0.55
  -5  -8  -1    5.71    0.67
  -5   8  -1    4.11    0.46
   5   8   1    3.63    0.64
  -5  -8  -1    4.51    0.48
   5  -8   2   16.95    1.08
  -5   8  -2   14.88    1.10
  -5  -8  -2   15.94    1.09
   5   8   2   14.66    1.28
  -5  -8  -2   16.07    0.98
   5  -8   3    9.70    0.82
  -5   8  -3    8.16    0.84
  -5  -8  -3    9.38    0.84
  -5  -8  -3    7.70    0.73
   5   8   3    8.54    0.99
   5  -8   4    3.03    0.47
  -5   8  -4    3.20    0.54
  -5  -8  -4    3.10    0.51
  -5  -8  -4    3.53    0.55
   5   8   4    2.43    0.54
   5   8   5    0.55    0.31
   5  -8   5    0.49    0.21
  -5   8  -5    0.83    0.31
  -5  -8  -5    0.92    0.30
  -5  -8  -5    0.61    0.27
   5  -8   6    6.26    0.66
  -5   8  -6    5.86    0.74
   5   8   6    5.40    0.86
  -5  -8  -6    6.68    0.75
  -5  -8  -6    7.27    0.85
   5  -9  -6    0.16    0.14
  -5  -9   6   -0.15    0.17
   5   9  -6    0.46    0.30
   5  -9  -5    1.38    0.35
  -5  -9   5    1.43    0.37
  -5   9   5    0.95    0.35
   5   9  -5    0.98    0.37
   5  -9  -4    1.77    0.40
  -5  -9   4    0.92    0.29
  -5   9   4    1.36    0.42
   5   9  -4    1.76    0.51
   5  -9  -3    4.11    0.54
  -5  -9   3    3.56    0.55
  -5   9   3    4.15    0.65
   5   9  -3    2.76    0.58
   5  -9  -2    3.91    0.54
  -5  -9   2    3.92    0.57
  -5   9   2    3.84    0.61
   5   9  -2    3.89    0.68
   5  -9  -1    5.28    0.63
  -5   9   1    6.11    0.77
  -5  -9   1    5.57    0.68
   5   9  -1    5.06    0.77
   5  -9   0    7.89    0.76
  -5   9   0    7.33    0.82
  -5  -9   0    6.91    0.76
   5   9   0    7.31    0.94
   5  -9   1    0.87    0.26
   5   9   1    0.78    0.32
  -5  -9  -1    0.28    0.19
  -5   9  -1    0.71    0.25
  -5  -9  -1    0.75    0.23
   5  -9   2    6.20    0.69
  -5   9  -2    7.06    0.81
  -5  -9  -2    6.64    0.75
   5   9   2    5.92    0.86
  -5  -9  -2    6.23    0.64
   5  -9   3    1.73    0.37
  -5   9  -3    1.46    0.36
  -5  -9  -3    1.21    0.35
   5   9   3    1.33    0.47
  -5  -9  -3    1.17    0.30
   5  -9   4    0.41    0.22
  -5   9  -4   -0.01    0.19
  -5  -9  -4    0.03    0.19
   5   9   4    0.45    0.32
  -5  -9  -4    0.06    0.22
   5  -9   5    7.31    0.74
   5   9   5    9.29    1.15
  -5   9  -5    8.55    0.91
  -5  -9  -5    7.44    0.80
  -5  -9  -5    8.57    0.90
   5 -10  -5    0.87    0.33
  -5 -10   5    0.87    0.28
  -5  10   5    0.39    0.33
   5  10  -5    0.94    0.39
   5 -10  -4   17.46    1.18
   5  10  -4   16.79    1.51
  -5 -10   4   17.72    1.25
  -5  10   4   15.52    1.31
   5 -10  -3    3.81    0.54
  -5  10   3    3.44    0.62
  -5 -10   3    2.43    0.47
   5  10  -3    2.71    0.63
   5 -10  -2    3.58    0.56
  -5 -10   2    2.40    0.48
  -5  10   2    2.71    0.58
   5  10  -2    3.16    0.67
   5 -10  -1    0.17    0.14
  -5 -10   1    0.01    0.17
  -5  10   1    0.16    0.22
   5  10  -1    0.16    0.27
   5 -10   0   14.94    1.09
  -5  10   0   12.69    1.15
  -5 -10   0   11.27    0.99
   5  10   0   14.38    1.39
   5 -10   1    3.55    0.53
  -5  10  -1    2.87    0.55
  -5 -10  -1    3.00    0.53
   5  10   1    3.31    0.68
   5 -10   2    1.37    0.34
  -5 -10  -2    1.44    0.37
  -5  10  -2    1.06    0.33
   5  10   2    0.80    0.39
   5 -10   3    1.32    0.33
  -5  10  -3    0.96    0.35
  -5 -10  -3    0.99    0.34
   5  10   3    1.56    0.50
  -5 -10  -3    1.46    0.35
   6   0 -10    1.02    0.38
  -6   0   9   12.10    0.78
   6   0  -9   13.75    1.17
  -6   0   8    2.60    0.37
   6   0  -8    2.69    0.50
   6   0  -7    0.09    0.16
  -6   0   7    0.15    0.11
   6   0  -7    0.04    0.08
  -6   0   6    2.79    0.38
  -6   0   6    2.59    0.31
   6   0  -6    2.61    0.39
  -6   0   5   12.55    0.63
  -6   0   5   12.49    0.83
   6   0  -5   11.92    0.73
  -6   0   4    1.86    0.25
  -6   0   4    2.14    0.36
   6   0  -4    2.04    0.26
   6   0  -3    3.56    0.28
  -6   0   3    3.02    0.31
  -6   0   3    2.95    0.40
  -6   0   2   29.71    0.98
   6   0  -2   29.23    0.56
  -6   0   2   30.72    1.29
   6   0  -2   30.14    0.67
   6   0  -1    0.49    0.07
  -6   0   1    0.36    0.13
  -6   0   1    0.60    0.21
   6   0  -1    0.43    0.06
  -6   0   0    0.79    0.20
  -6   0   0    0.39    0.17
   6   0   0    0.67    0.09
  -6   0   0    0.67    0.10
  -6   0  -1    9.62    0.73
   6   0   1    8.84    0.38
  -6   0  -1   10.05    0.42
  -6   0  -1    9.45    0.65
   6   0   2   17.64    0.63
  -6   0  -2   18.11    1.00
  -6   0  -2   18.84    0.98
   6   0   3    9.32    0.52
  -6   0  -3    9.16    0.72
  -6   0  -3    9.89    0.75
   6   0   4   43.17    1.25
  -6   0  -4   41.68    1.52
  -6   0  -4   41.56    1.64
  -6   0  -5   25.76    1.21
   6   0   5   25.98    1.07
  -6   0  -5   26.66    1.40
  -6   0  -6   13.32    0.86
   6   0   6   14.21    0.86
  -6   0  -6   13.56    1.04
  -6   0  -7    0.55    0.23
  -6   0  -7    0.19    0.16
   6   0   7    0.52    0.20
  -6   0  -8    1.98    0.48
   6   0   8    1.15    0.30
   6   1 -10    1.00    0.38
   6  -1 -10    1.07    0.37
   6  -1  -9    0.30    0.14
   6   1  -9    0.29    0.24
  -6  -1   9    0.33    0.17
   6  -1  -9    0.63    0.29
  -6  -1   8    1.89    0.32
  -6   1   8    2.44    0.36
   6  -1  -8    2.60    0.36
   6   1  -8    2.74    0.48
   6  -1  -8    1.74    0.41
  -6  -1   7    8.80    0.70
  -6   1   7    8.50    0.66
   6  -1  -7    9.93    0.82
   6   1  -7    9.58    0.81
  -6  -1   6    4.33    0.48
  -6   1   6    4.35    0.44
  -6   1   6    4.81    0.50
   6   1  -6    4.87    0.35
   6  -1  -6    5.11    0.54
   6   1  -6    4.05    0.51
  -6   1   5    3.46    0.37
  -6  -1   5    4.11    0.48
  -6  -1   5    3.92    0.31
  -6   1   5    3.23    0.42
   6  -1  -5    4.00    0.40
   6   1  -5    2.95    0.38
  -6   1   4   10.86    0.64
  -6  -1   4   10.66    0.52
  -6  -1   4    9.02    0.72
  -6   1   4   10.92    0.76
   6  -1  -4   10.96    0.52
   6   1  -4   10.76    0.65
   6   1  -3    3.34    0.34
   6  -1  -3    3.83    0.21
  -6  -1   3    3.21    0.29
  -6   1   3    3.38    0.36
  -6  -1   3    3.12    0.41
  -6   1   3    3.60    0.45
  -6  -1   2    7.94    0.47
  -6   1   2    7.86    0.55
   6   1  -2    7.81    0.47
  -6  -1   2    8.02    0.67
  -6   1   2    7.56    0.64
  -6  -1   2    7.26    0.50
  -6   1   1   13.42    0.73
  -6  -1   1   13.00    0.85
  -6   1   1   15.20    0.91
   6   1  -1   14.69    0.62
  -6  -1   1   15.25    0.70
  -6  -1   0   50.18    1.67
  -6   1   0   50.34    1.65
   6   1   0   49.98    1.17
  -6  -1   0   50.57    1.35
  -6   1   0   50.50    1.46
   6   1   1   13.85    0.64
  -6  -1  -1   11.88    0.82
  -6   1  -1   12.96    0.84
  -6   1  -1   12.96    0.77
  -6  -1  -2   14.35    0.90
  -6   1  -2   14.66    0.89
   6   1   2   15.37    0.74
  -6  -1  -2   14.66    0.85
  -6   1  -2   14.39    0.87
  -6  -1  -3   20.62    1.09
  -6   1  -3   18.93    1.02
   6  -1   3   17.74    0.65
   6   1   3   19.22    0.87
  -6  -1  -3   20.29    1.08
  -6   1  -3   19.67    1.07
  -6  -1  -4    5.88    0.59
   6  -1   4    5.71    0.42
  -6   1  -4    6.11    0.57
  -6  -1  -4    5.21    0.58
   6   1   4    5.39    0.50
  -6   1  -4    5.91    0.62
   6   1   5   19.44    1.00
  -6  -1  -5   18.28    1.03
  -6   1  -5   17.34    0.97
   6  -1   5   18.52    0.88
  -6  -1  -5   18.33    1.15
  -6   1  -5   17.86    1.12
   6   1   6    2.62    0.40
  -6  -1  -6    3.31    0.45
  -6   1  -6    2.54    0.37
   6  -1   6    2.62    0.37
  -6  -1  -6    3.37    0.54
  -6   1  -6    2.62    0.50
   6   1   7    1.12    0.29
  -6   1  -7    1.40    0.37
  -6  -1  -7    1.27    0.30
  -6   1  -7    1.24    0.27
   6  -1   7    1.60    0.32
  -6  -1  -7    1.75    0.41
  -6   1  -8    2.76    0.52
   6  -1   8    2.54    0.44
   6   1   8    3.34    0.51
  -6  -1  -8    3.21    0.57
   6  -2 -10    4.89    0.73
   6   2 -10    5.06    0.79
  -6  -2   9    3.77    0.47
   6  -2  -9    3.81    0.48
   6  -2  -9    3.65    0.58
   6   2  -9    3.54    0.61
   6  -2  -9    4.15    0.46
  -6  -2   8    8.02    0.67
   6  -2  -8    7.49    0.64
   6  -2  -8    7.12    0.75
   6   2  -8    9.68    0.92
   6  -2  -8    8.75    0.67
  -6  -2   7   13.59    0.88
  -6   2   7   12.60    0.84
   6  -2  -7   12.35    0.89
   6   2  -7   14.54    1.06
  -6  -2   6    4.41    0.50
  -6   2   6    4.61    0.48
  -6   2   6    3.73    0.45
   6  -2  -6    4.03    0.45
   6   2  -6    3.47    0.48
  -6   2   5   10.35    0.71
  -6  -2   5    9.62    0.74
  -6   2   5   10.72    0.75
   6  -2  -5   10.32    0.62
   6   2  -5   10.29    0.75
  -6   2   4    1.93    0.31
  -6  -2   4    1.99    0.18
  -6  -2   4    1.86    0.32
  -6   2   4    2.65    0.39
   6  -2  -4    2.23    0.22
   6   2  -4    2.44    0.34
   6   2  -3   19.91    0.90
  -6  -2   3   18.38    0.59
  -6   2   3   18.82    0.91
  -6  -2   3   18.40    1.02
  -6   2   3   20.34    1.04
  -6  -2   2    4.08    0.31
  -6   2   2    3.89    0.42
   6   2  -2    4.67    0.42
  -6  -2   2    4.38    0.51
  -6   2   2    3.62    0.46
  -6   2   1   27.76    1.12
  -6  -2   1   26.36    1.23
  -6   2   1   27.21    1.20
   6   2  -1   27.26    1.01
  -6  -2   1   27.18    0.86
  -6   2   0   34.50    1.28
  -6  -2   0   33.17    1.38
  -6   2   0   35.53    1.37
   6   2   0   36.58    1.21
  -6  -2   0   34.24    1.09
  -6  -2  -1  149.70    2.95
  -6   2  -1  155.92    2.88
  -6  -2  -1  151.26    2.52
   6   2   1  157.27    2.57
  -6   2  -1  147.02    2.70
   6   2   2   15.61    0.84
  -6  -2  -2   16.53    0.98
  -6   2  -2   16.42    0.94
  -6   2  -2   16.34    0.46
  -6  -2  -2   13.75    0.82
  -6   2  -2   15.14    0.91
   6   2   3   29.69    1.22
  -6  -2  -3   27.12    1.26
  -6   2  -3   29.34    1.25
  -6   2  -3   29.75    0.95
  -6  -2  -3   30.49    1.32
  -6   2  -3   27.51    1.29
  -6  -2  -4   28.32    1.31
  -6   2  -4   30.94    1.27
   6   2   4   32.09    1.33
  -6   2  -4   31.68    1.20
  -6  -2  -4   29.05    1.38
  -6   2  -4   28.14    1.36
  -6  -2  -5    1.68    0.33
  -6   2  -5    1.17    0.27
  -6   2  -5    2.10    0.36
   6   2   5    1.73    0.36
  -6   2  -5    2.32    0.43
  -6  -2  -5    1.91    0.39
  -6  -2  -6    4.20    0.52
  -6   2  -6    4.12    0.48
  -6   2  -6    3.82    0.53
  -6  -2  -6    3.59    0.57
   6   2   6    3.88    0.51
  -6   2  -6    4.21    0.59
   6  -2   7   -0.08    0.16
  -6   2  -7    0.16    0.19
  -6  -2  -7    0.15    0.13
   6   2   7   -0.11    0.15
  -6   2  -7   -0.03    0.17
  -6  -2  -7   -0.24    0.25
  -6   2  -8    1.22    0.36
   6   2   8    1.29    0.35
  -6   2  -8    1.49    0.41
  -6  -2  -8    0.85    0.37
   6   3 -10    0.40    0.25
   6  -3 -10    0.62    0.25
   6  -3 -10    0.73    0.31
   6   3  -9    2.59    0.53
  -6  -3   9    2.42    0.39
   6  -3  -9    2.85    0.45
   6  -3  -9    1.99    0.42
   6  -3  -9    2.83    0.41
  -6  -3   8    3.62    0.46
   6  -3  -8    3.55    0.51
   6   3  -8    4.39    0.65
   6  -3  -8    3.62    0.47
   6  -3  -7    0.28    0.15
   6   3  -7    0.01    0.12
  -6  -3   7    0.26    0.14
  -6   3   7    0.29    0.17
   6  -3  -7    0.36    0.17
   6  -3  -6    0.37    0.19
   6   3  -6    0.51    0.23
  -6  -3   6    0.11    0.13
  -6   3   6    0.56    0.20
   6  -3  -6    0.32    0.18
  -6   3   5   11.47    0.79
  -6  -3   5   10.84    0.81
   6  -3  -5   10.94    0.62
   6   3  -5   11.09    0.84
   6   3  -4   12.57    0.84
  -6   3   4   12.55    0.81
  -6  -3   4   11.00    0.81
  -6   3   4   11.56    0.80
   6   3  -3    5.74    0.54
  -6  -3   3    4.82    0.24
  -6   3   3    4.81    0.48
  -6  -3   3    5.61    0.58
  -6   3   3    4.98    0.51
  -6  -3   2   22.76    0.65
  -6   3   2   22.48    1.06
   6   3  -2   22.89    1.05
  -6  -3   2   23.34    1.19
  -6   3   2   22.07    1.08
  -6   3   1   23.29    1.09
  -6  -3   1   20.40    1.11
   6   3  -1   19.81    0.99
  -6   3   1   22.97    1.10
  -6  -3   1   23.86    0.78
  -6   3   0   87.05    2.14
  -6  -3   0   83.02    2.23
  -6   3   0   86.77    2.13
   6   3   0   81.23    2.04
  -6  -3   0   80.70    1.62
  -6   3  -1  125.00    2.62
  -6  -3  -1  117.02    2.68
  -6   3  -1  125.50    2.58
   6   3   1  121.72    2.62
  -6  -3  -1  126.16    2.28
  -6  -3  -2    5.14    0.57
  -6   3  -2    5.03    0.52
  -6  -3  -2    4.64    0.49
   6   3   2    4.42    0.52
  -6   3  -2    4.48    0.52
  -6  -3  -3    2.39    0.39
   6   3   3    1.81    0.33
  -6   3  -3    1.85    0.32
  -6   3  -3    2.25    0.25
  -6  -3  -3    2.11    0.35
  -6   3  -3    2.12    0.37
   6   3   4    7.60    0.72
  -6  -3  -4    7.68    0.70
  -6   3  -4    7.05    0.70
  -6   3  -4    7.12    0.56
  -6  -3  -4    6.55    0.66
  -6  -3  -5    4.38    0.54
   6   3   5    5.26    0.62
  -6   3  -5    4.69    0.53
  -6  -3  -5    4.79    0.61
  -6   3  -5    4.05    0.56
   6  -3   5    4.43    0.51
   6  -3   6    1.35    0.29
  -6   3  -6    1.16    0.34
   6   3   6    1.45    0.35
  -6  -3  -6    1.23    0.33
  -6   3  -6    1.75    0.36
  -6  -3  -6    1.36    0.32
   6  -3   7    0.07    0.16
  -6   3  -7   -0.07    0.17
  -6  -3  -7    0.06    0.12
   6   3   7   -0.11    0.16
  -6   3  -7   -0.32    0.23
  -6  -3  -7   -0.17    0.26
   6   3   8   13.08    1.08
  -6  -3  -8   11.83    1.13
  -6   3  -8   12.93    1.12
   6  -4  -9    1.97    0.35
   6   4  -9    1.91    0.48
  -6  -4   9    1.52    0.33
   6  -4  -9    0.78    0.27
  -6  -4   8    2.05    0.36
  -6   4   8    2.03    0.41
   6   4  -8    2.64    0.53
   6  -4  -8    2.39    0.39
  -6  -4   7    5.88    0.61
  -6   4   7    8.46    0.78
   6   4  -7    6.22    0.75
   6  -4  -7    6.72    0.65
   6  -4  -6    0.15    0.14
   6   4  -6    0.14    0.17
  -6  -4   6    0.22    0.15
  -6   4   6    0.44    0.19
   6  -4  -5    0.27    0.17
   6   4  -5    0.32    0.20
  -6  -4   5    0.61    0.25
  -6   4   5    0.18    0.14
   6   4  -4   27.48    1.36
  -6   4   4   26.04    1.25
  -6  -4   4   25.46    1.27
   6  -4  -4   26.65    1.27
   6   4  -3   50.45    1.76
  -6   4   3   50.78    1.70
  -6  -4   3   49.81    1.78
   6  -4  -3   51.95    1.74
  -6  -4   2   11.47    0.41
  -6   4   2   12.11    0.83
   6   4  -2   12.13    0.85
  -6  -4   2   11.73    0.86
   6  -4  -2   11.45    0.82
  -6   4   1   10.89    0.79
  -6  -4   1   12.00    0.88
   6   4  -1   10.87    0.80
  -6  -4   1   10.94    0.52
   6  -4  -1   10.84    0.81
  -6   4   0   45.19    1.62
  -6  -4   0   40.43    1.62
   6   4   0   41.93    1.60
  -6  -4   0   43.14    1.21
   6  -4   0   41.66    1.57
  -6   4  -1    2.30    0.37
  -6  -4  -1    3.58    0.48
   6   4   1    2.18    0.38
  -6  -4  -1    2.74    0.35
   6  -4   1    2.44    0.39
  -6   4  -2   10.00    0.80
  -6  -4  -2    9.63    0.81
  -6  -4  -2   10.27    0.72
   6   4   2    9.46    0.81
   6  -4   2   10.56    0.79
   6  -4   3    1.22    0.28
   6   4   3    0.68    0.25
  -6   4  -3    1.16    0.29
  -6  -4  -3    1.42    0.33
  -6  -4  -3    1.02    0.28
   6  -4   4    0.31    0.19
  -6   4  -4   -0.16    0.20
  -6  -4  -4    0.46    0.23
   6   4   4    0.52    0.22
  -6  -4  -4    0.09    0.13
   6   4   5    6.30    0.72
  -6  -4  -5    7.86    0.74
  -6  -4  -5    6.31    0.70
  -6   4  -5    6.46    0.71
   6  -4   5    7.05    0.65
   6  -4   6    0.86    0.26
  -6   4  -6    1.22    0.35
  -6  -4  -6    0.63    0.23
   6   4   6    0.75    0.27
  -6  -4  -6    1.15    0.30
  -6  -4  -7    8.25    0.77
   6   4   7   10.39    1.00
  -6  -4  -7   11.74    1.09
  -6   4  -7    9.89    0.95
   6  -4   7   10.50    0.79
   6  -5  -9   11.09    0.86
   6  -5  -9   12.43    1.02
   6   5  -9    9.86    1.07
   6   5  -8    1.72    0.46
  -6   5   8    2.49    0.47
  -6  -5   8    2.00    0.38
   6  -5  -8    2.68    0.42
   6  -5  -7    0.42    0.20
   6   5  -7    0.32    0.21
  -6  -5   7    0.87    0.26
  -6   5   7    1.00    0.30
   6  -5  -6    0.25    0.16
   6   5  -6    0.57    0.28
  -6  -5   6    0.29    0.14
  -6   5   6    0.43    0.17
   6  -5  -5    0.91    0.26
  -6  -5   5    1.10    0.28
   6   5  -5    0.87    0.29
  -6   5   5    1.36    0.31
   6  -5  -4    1.29    0.27
  -6  -5   4    1.34    0.32
  -6   5   4    1.38    0.34
   6   5  -4    1.58    0.36
   6   5  -3   20.97    1.25
  -6   5   3   18.74    1.11
  -6  -5   3   18.32    1.12
   6  -5  -3   18.22    1.06
  -6   5   2   54.91    1.86
   6   5  -2   53.00    1.94
  -6  -5   2   54.01    1.90
   6  -5  -2   55.91    1.86
  -6   5   1   50.00    1.80
  -6  -5   1   51.55    1.87
   6   5  -1   49.39    1.88
  -6  -5   1   50.77    1.08
   6  -5  -1   50.12    1.77
   6  -5   0    1.29    0.32
   6   5   0    1.35    0.34
  -6   5   0    1.73    0.34
  -6  -5   0    0.85    0.28
  -6  -5   0    1.64    0.25
  -6   5  -1   26.20    1.32
  -6  -5  -1   23.70    1.28
   6   5   1   24.23    1.36
  -6  -5  -1   26.29    1.08
   6  -5   1   26.42    1.29
  -6   5  -2   15.50    1.03
  -6  -5  -2   17.18    1.11
  -6  -5  -2   18.13    0.98
   6   5   2   15.61    1.13
   6  -5   2   15.32    0.97
   6  -5   3    0.57    0.24
  -6   5  -3    0.62    0.25
  -6  -5  -3    0.33    0.18
  -6  -5  -3    0.50    0.16
   6   5   3    0.34    0.21
   6   5   4    4.47    0.62
  -6  -5  -4    3.34    0.51
  -6  -5  -4    3.88    0.53
   6  -5   4    4.67    0.55
  -6   5  -4    3.87    0.54
   6  -5   5    0.37    0.20
  -6   5  -5    0.13    0.16
  -6  -5  -5   -0.11    0.18
   6   5   5    0.03    0.13
  -6  -5  -5    0.39    0.25
   6  -5   6    0.86    0.28
   6   5   6    1.56    0.42
  -6   5  -6    1.37    0.37
  -6  -5  -6    1.21    0.30
  -6  -5  -6    1.90    0.45
  -6  -5  -7   12.78    0.99
   6   5   7   16.05    1.30
  -6  -5  -7   15.87    1.26
  -6   5  -7   15.26    1.19
   6  -5   7   15.82    1.02
   6  -6  -8    0.47    0.22
   6   6  -8    0.31    0.26
  -6  -6   8    0.83    0.29
  -6   6   8    0.79    0.33
   6  -6  -7    1.66    0.36
   6   6  -7    0.81    0.37
  -6  -6   7    1.33    0.35
  -6   6   7    1.20    0.34
  -6  -6   6    2.36    0.43
  -6   6   6    4.31    0.61
   6   6  -6    3.17    0.60
   6  -6  -6    3.41    0.49
   6   6  -5   13.70    1.15
  -6  -6   5   16.93    1.11
  -6   6   5   16.53    1.15
   6  -6  -5   14.37    0.99
  -6   6   4    3.42    0.53
  -6  -6   4    3.00    0.47
   6   6  -4    1.90    0.44
   6  -6  -4    2.71    0.45
   6   6  -3   14.52    1.11
  -6   6   3   12.94    0.98
  -6  -6   3   14.69    1.02
   6  -6  -3   14.16    0.96
  -6   6   2   11.69    0.92
   6   6  -2   12.35    1.00
  -6  -6   2   11.85    0.92
   6  -6  -2   12.08    0.89
  -6   6   1   25.05    1.35
  -6  -6   1   27.04    1.39
   6   6  -1   26.29    1.46
   6  -6  -1   27.76    1.35
  -6   6   0   77.61    2.35
  -6  -6   0   73.66    2.32
   6   6   0   76.70    2.52
  -6  -6   0   73.51    1.61
   6  -6   0   80.30    2.31
  -6   6  -1    3.67    0.52
  -6  -6  -1    5.03    0.62
   6   6   1    4.54    0.62
  -6  -6  -1    4.20    0.45
   6  -6   1    3.28    0.48
  -6   6  -2   11.19    0.92
  -6  -6  -2    9.94    0.87
   6   6   2   10.29    0.98
  -6  -6  -2   11.07    0.79
   6  -6   2    9.84    0.81
  -6   6  -3    5.27    0.64
  -6  -6  -3    5.59    0.66
  -6  -6  -3    5.59    0.62
   6   6   3    4.17    0.64
   6  -6   3    4.16    0.53
   6  -6   4    1.68    0.33
   6   6   4    1.50    0.42
  -6   6  -4    1.88    0.41
  -6  -6  -4    1.97    0.40
  -6  -6  -4    1.44    0.36
   6  -6   5    0.90    0.26
  -6   6  -5    0.78    0.27
   6   6   5    0.41    0.21
  -6  -6  -5    1.05    0.35
  -6  -6  -5    0.17    0.21
  -6  -6  -6    3.70    0.56
   6   6   6    1.95    0.48
  -6  -6  -6    2.91    0.55
  -6   6  -6    3.56    0.61
   6  -6   6    3.49    0.49
   6  -7  -7    4.35    0.57
  -6  -7   7    4.78    0.61
  -6   7   7    6.02    0.76
   6   7  -7    5.63    0.84
   6  -7  -6    2.34    0.44
  -6  -7   6    2.30    0.43
   6   7  -6    2.45    0.54
  -6   7   6    2.34    0.48
   6  -7  -5    0.85    0.29
  -6  -7   5    1.20    0.33
  -6   7   5    1.61    0.39
   6   7  -5    0.95    0.35
   6   7  -4    7.69    0.88
  -6  -7   4    8.48    0.81
  -6   7   4    7.99    0.85
   6  -7  -4    8.50    0.80
   6   7  -3    7.23    0.85
  -6   7   3    7.46    0.80
  -6  -7   3    7.68    0.79
   6  -7  -3    7.53    0.75
  -6   7   2   14.78    1.11
  -6  -7   2   13.96    1.05
   6   7  -2   14.70    1.19
   6  -7  -2   13.82    1.02
  -6   7   1    5.40    0.66
  -6  -7   1    6.27    0.70
   6   7  -1    5.92    0.77
   6  -7  -1    5.68    0.66
  -6   7   0   30.50    1.55
  -6  -7   0   29.94    1.54
   6   7   0   28.83    1.70
   6  -7   0   30.30    1.49
  -6   7  -1   29.16    1.53
  -6  -7  -1   29.42    1.53
   6   7   1   27.87    1.68
  -6  -7  -1   26.50    1.14
   6  -7   1   28.66    1.44
  -6   7  -2   14.88    1.13
  -6  -7  -2   15.03    1.10
   6   7   2   13.62    1.20
  -6  -7  -2   13.73    0.91
   6  -7   2   14.33    1.04
  -6   7  -3   17.52    1.24
  -6  -7  -3   18.44    1.22
  -6  -7  -3   19.75    1.17
   6   7   3   18.63    1.42
   6  -7   3   17.69    1.14
  -6   7  -4   15.29    1.16
  -6  -7  -4   13.85    1.08
  -6  -7  -4   14.35    1.07
   6   7   4   15.49    1.33
   6  -7   4   14.21    1.05
  -6   7  -5    4.16    0.65
   6   7   5    3.27    0.65
  -6  -7  -5    4.26    0.62
  -6  -7  -5    4.40    0.63
   6  -7   5    3.20    0.51
   6  -8  -6    6.27    0.71
   6   8  -6    6.09    0.88
  -6  -8   6    5.78    0.69
  -6   8   6    4.98    0.72
   6  -8  -5    5.50    0.66
   6   8  -5    5.68    0.82
  -6  -8   5    6.38    0.75
  -6   8   5    5.90    0.78
   6  -8  -4    0.89    0.30
  -6  -8   4    0.72    0.23
  -6   8   4    0.24    0.23
   6   8  -4    0.96    0.40
   6  -8  -3    1.68    0.43
  -6  -8   3    2.37    0.44
  -6   8   3    1.78    0.41
   6   8  -3    2.22    0.50
   6  -8  -2    1.73    0.39
  -6  -8   2    0.70    0.29
  -6   8   2    1.06    0.31
   6   8  -2    0.71    0.33
  -6   8   1    4.39    0.63
  -6  -8   1    3.60    0.56
   6   8  -1    3.55    0.64
   6  -8  -1    3.41    0.52
  -6   8   0    3.41    0.54
  -6  -8   0    2.05    0.43
   6   8   0    3.53    0.65
   6  -8   0    3.11    0.50
  -6   8  -1    9.35    0.93
  -6  -8  -1   10.97    0.97
   6   8   1   11.51    1.17
   6  -8   1   11.45    0.97
   6  -8   2    2.65    0.47
  -6   8  -2    2.39    0.50
  -6  -8  -2    1.49    0.38
   6   8   2    3.06    0.62
  -6  -8  -2    2.29    0.40
   6  -8   3   13.68    1.04
  -6   8  -3   12.14    1.07
  -6  -8  -3   14.17    1.12
  -6  -8  -3   12.34    0.95
   6   8   3   15.86    1.40
   6  -8   4    4.23    0.59
  -6   8  -4    3.56    0.61
  -6  -8  -4    4.38    0.64
  -6  -8  -4    5.07    0.65
   6   8   4    5.54    0.88
   6  -9  -5    3.45    0.55
  -6  -9   5    2.41    0.49
  -6   9   5    3.22    0.61
   6   9  -5    1.79    0.52
   6  -9  -4    4.27    0.63
   6   9  -4    3.98    0.73
  -6  -9   4    3.69    0.59
  -6   9   4    5.70    0.80
   6  -9  -3    1.31    0.38
  -6  -9   3    1.34    0.36
  -6   9   3    1.31    0.39
   6   9  -3    1.63    0.48
   6  -9  -2    6.63    0.75
  -6   9   2    6.44    0.82
  -6  -9   2    7.23    0.81
   6   9  -2    7.00    0.93
   6  -9  -1    2.77    0.50
   6   9  -1    2.00    0.53
  -6  -9   1    2.35    0.48
  -6   9   1    2.57    0.51
   6  -9   0    0.46    0.21
   6   9   0    0.35    0.28
  -6  -9   0    0.43    0.29
  -6   9   0    0.30    0.20
   6  -9   1    0.61    0.25
   6   9   1    0.49    0.30
  -6   9  -1    0.93    0.38
  -6  -9  -1    0.29    0.21
   6  -9   2    1.05    0.33
  -6   9  -2    0.83    0.33
  -6  -9  -2    0.84    0.34
   6   9   2    0.79    0.40
   6  -9   3    2.13    0.44
  -6   9  -3    2.80    0.54
  -6  -9  -3    3.11    0.57
   6   9   3    2.71    0.63
  -7   0   9    3.98    0.48
  -7   0   8    0.15    0.18
  -7   0   7    3.12    0.44
  -7   0   6    0.10    0.13
  -7   0   5    1.81    0.27
  -7   0   5    1.88    0.37
  -7   0   4    6.11    0.48
  -7   0   4    5.80    0.62
  -7   0   3    0.06    0.10
  -7   0   3   -0.12    0.10
  -7   0   2   88.97    1.87
  -7   0   2   85.33    2.35
  -7   0   1   18.53    0.89
  -7   0   1   17.60    1.08
  -7   0   0    9.70    0.81
  -7   0   0   10.78    0.70
  -7   0  -1    5.07    0.59
  -7   0  -1    7.37    0.62
  -7   0  -2   -0.08    0.12
  -7   0  -2   -0.01    0.13
  -7   0  -3    2.00    0.38
  -7   0  -3    2.14    0.39
  -7   0  -4    6.72    0.67
  -7   0  -4    9.10    0.80
  -7   0  -5   26.83    1.35
  -7   0  -5   28.37    1.50
  -7   0  -6   27.80    1.37
  -7   0  -6   30.31    1.63
  -7   0  -7    2.00    0.49
  -7   0  -7    0.74    0.23
   7   1  -9    2.16    0.49
  -7  -1   9    3.04    0.44
  -7  -1   8    3.72    0.50
  -7   1   8    2.98    0.44
   7   1  -8    3.36    0.55
  -7  -1   7    5.59    0.63
  -7   1   7    5.96    0.55
  -7   1   7    5.31    0.57
   7   1  -7    6.07    0.65
  -7   1   6    7.99    0.61
  -7  -1   6    6.95    0.68
  -7   1   6    7.04    0.67
   7   1  -6    7.04    0.62
  -7   1   5   23.79    1.06
  -7  -1   5   20.52    1.17
  -7   1   5   21.77    1.17
   7   1  -5   25.42    1.07
   7   1  -4    3.83    0.38
  -7   1   4    4.12    0.43
  -7  -1   4    3.91    0.34
  -7  -1   4    3.47    0.49
  -7   1   4    4.85    0.55
  -7  -1   3    5.03    0.40
  -7   1   3    5.27    0.48
  -7  -1   3    3.95    0.51
  -7   1   3    4.39    0.55
  -7  -1   2   56.06    1.38
  -7   1   2   54.23    1.57
  -7  -1   2   49.96    1.82
  -7   1   2   51.89    1.83
  -7  -1   1   37.22    1.18
  -7   1   1   37.34    1.33
  -7  -1   1   38.75    1.62
  -7   1   1   38.03    1.58
  -7   1   0    2.34    0.35
  -7   1   0    2.03    0.37
  -7  -1   0    1.57    0.33
  -7  -1   0    2.21    0.31
  -7  -1  -1    0.57    0.20
  -7   1  -1    0.76    0.22
  -7  -1  -1    0.41    0.18
  -7   1  -1    0.34    0.16
  -7  -1  -2    2.43    0.41
  -7   1  -2    3.30    0.47
  -7  -1  -2    3.07    0.43
  -7   1  -2    3.44    0.45
  -7  -1  -3   15.24    1.02
  -7   1  -3   16.83    1.06
  -7  -1  -3   16.15    1.01
  -7   1  -3   16.07    1.02
  -7  -1  -4   21.12    1.21
  -7   1  -4   22.46    1.22
  -7  -1  -4   23.50    1.30
  -7   1  -4   23.70    1.32
  -7  -1  -5    3.22    0.49
  -7   1  -5    3.74    0.49
  -7  -1  -5    4.38    0.61
  -7   1  -5    3.34    0.53
  -7  -1  -6   22.37    1.26
  -7   1  -6   24.26    1.25
  -7  -1  -6   23.71    1.47
  -7  -1  -7   19.64    1.18
  -7   1  -7   19.25    1.11
  -7  -1  -7   23.18    1.53
  -7   1  -7   20.84    1.41
  -7  -2   9    4.34    0.54
   7   2  -9    4.08    0.64
   7  -2  -9    3.81    0.52
   7   2  -8    1.25    0.34
  -7  -2   8    1.07    0.29
  -7  -2   7    3.93    0.52
  -7   2   7    4.88    0.54
  -7   2   7    4.71    0.56
   7   2  -7    3.65    0.52
  -7   2   6    6.28    0.59
  -7  -2   6    4.61    0.57
  -7   2   6    6.25    0.63
   7   2  -6    5.55    0.60
  -7   2   5    9.14    0.70
  -7  -2   5    8.25    0.75
  -7   2   5    9.05    0.74
   7   2  -5    9.12    0.71
   7   2  -4    1.98    0.33
  -7   2   4    2.42    0.36
  -7  -2   4    1.90    0.37
  -7   2   4    1.47    0.33
  -7  -2   3   14.73    0.60
  -7   2   3   13.30    0.81
   7   2  -3   13.93    0.77
  -7  -2   3   13.14    0.94
  -7   2   3   14.05    0.94
  -7  -2   2   22.67    0.82
  -7   2   2   23.36    1.10
  -7  -2   2   21.32    1.20
   7   2  -2   20.85    0.92
  -7   2   2   20.13    1.13
  -7   2   1   16.97    0.95
  -7  -2   1   15.72    1.04
  -7   2   1   15.70    1.01
   7   2  -1   16.50    0.81
  -7  -2   1   15.65    0.74
  -7   2   0    3.39    0.45
  -7  -2   0    3.13    0.48
  -7   2   0    3.28    0.46
   7   2   0    3.71    0.39
  -7  -2   0    4.13    0.41
  -7   2  -1   32.33    1.38
   7   2   1   32.80    1.17
  -7  -2  -1   30.05    1.44
  -7   2  -1   32.01    1.42
  -7  -2  -1   31.51    1.21
   7   2   2    4.18    0.43
  -7  -2  -2    3.91    0.52
  -7   2  -2    5.46    0.61
  -7  -2  -2    4.21    0.48
  -7   2  -2    4.33    0.53
  -7  -2  -3   30.85    1.49
  -7   2  -3   33.32    1.46
   7   2   3   34.17    1.31
  -7  -2  -3   32.08    1.44
  -7   2  -3   33.48    1.50
  -7  -2  -4   14.77    1.04
  -7   2  -4   14.18    0.95
   7   2   4   14.26    0.88
  -7  -2  -4   16.19    1.09
  -7   2  -4   15.78    1.08
  -7  -2  -5    8.16    0.77
  -7   2  -5    8.14    0.73
  -7  -2  -5    9.57    0.88
   7   2   5    9.35    0.75
  -7   2  -5    7.99    0.82
  -7  -2  -6    2.25    0.48
  -7   2  -6    1.62    0.42
  -7  -2  -6    1.53    0.35
  -7   2  -6    0.99    0.27
   7   2   6    0.96    0.27
  -7  -2  -7    2.53    0.53
  -7   2  -7    1.86    0.45
  -7  -2  -7    2.97    0.48
   7  -2   7    3.84    0.54
   7  -3  -9    1.20    0.31
   7   3  -9    0.99    0.37
  -7  -3   9    0.86    0.25
   7  -3  -8    0.36    0.21
   7   3  -8    0.32    0.20
  -7  -3   8    0.21    0.17
  -7   3   8    0.25    0.17
   7  -3  -7    1.69    0.36
   7   3  -7    1.81    0.42
  -7  -3   7    2.46    0.43
  -7   3   7    1.97    0.38
  -7   3   6    2.56    0.40
  -7  -3   6    2.39    0.43
   7  -3  -6    2.06    0.38
   7   3  -6    2.43    0.43
   7   3  -5   18.61    1.10
  -7   3   5   17.22    1.03
  -7  -3   5   15.31    1.04
   7   3  -4   14.62    0.92
  -7   3   4   14.91    0.95
  -7  -3   4   13.35    0.99
  -7   3   4   13.43    0.94
  -7   3   3   10.50    0.78
   7   3  -3   10.14    0.74
  -7  -3   3   10.65    0.87
  -7   3   3   10.27    0.81
  -7  -3   2    8.48    0.46
  -7   3   2    7.67    0.67
  -7  -3   2    8.94    0.80
   7   3  -2    9.14    0.70
  -7   3   2    8.11    0.71
  -7   3   1   46.39    1.65
  -7  -3   1   52.84    1.94
  -7   3   1   49.40    1.76
   7   3  -1   50.45    1.61
  -7  -3   1   49.71    1.23
  -7  -3   0    1.10    0.21
  -7   3   0    1.63    0.34
  -7  -3   0    1.20    0.29
  -7   3   0    0.93    0.25
   7   3   0    1.35    0.28
  -7  -3  -1    1.39    0.26
  -7   3  -1    0.93    0.25
  -7  -3  -1    0.73    0.24
  -7   3  -1    1.28    0.30
   7   3   1    1.10    0.27
  -7   3  -2   20.27    1.17
   7   3   2   22.79    1.17
  -7  -3  -2   23.14    1.30
  -7   3  -2   22.35    1.20
  -7  -3  -2   22.09    1.11
   7   3   3    5.30    0.58
  -7  -3  -3    5.85    0.66
  -7   3  -3    5.53    0.61
  -7  -3  -3    6.60    0.65
  -7   3  -3    5.93    0.66
  -7  -3  -4    0.42    0.21
  -7   3  -4    0.64    0.26
   7   3   4    0.39    0.20
  -7  -3  -4    0.29    0.16
  -7   3  -4    0.12    0.14
   7  -3   5    0.44    0.21
   7   3   5    0.23    0.21
  -7   3  -5    0.41    0.25
  -7  -3  -5    0.82    0.28
  -7  -3  -5    0.16    0.16
  -7   3  -6    2.65    0.51
  -7  -3  -6    2.00    0.42
   7   3   6    2.52    0.46
   7  -3   6    2.91    0.45
  -7  -3  -6    2.40    0.51
   7  -4  -8    0.92    0.28
   7   4  -8    0.66    0.29
  -7  -4   8    1.16    0.31
  -7   4   8    0.76    0.32
   7  -4  -7    0.33    0.18
   7   4  -7    0.73    0.30
  -7  -4   7    0.90    0.28
  -7   4   7    0.53    0.23
   7  -4  -6    0.82    0.25
   7   4  -6    0.98    0.31
  -7  -4   6    0.74    0.22
  -7   4   6    1.01    0.30
   7   4  -5    3.11    0.50
  -7   4   5    3.22    0.48
  -7  -4   5    2.74    0.48
   7  -4  -5    2.86    0.47
   7   4  -4   15.29    1.03
  -7   4   4   14.53    0.99
  -7  -4   4   13.86    1.02
   7  -4  -4   13.66    0.98
  -7   4   3    2.67    0.42
   7   4  -3    2.00    0.40
  -7  -4   3    2.46    0.45
   7  -4  -3    2.05    0.41
   7  -4  -2    0.36    0.19
  -7   4   2    0.27    0.18
  -7  -4   2    0.73    0.27
   7   4  -2    0.23    0.17
  -7   4   1    4.31    0.54
  -7  -4   1    3.61    0.54
   7   4  -1    4.88    0.57
   7  -4  -1    4.42    0.57
  -7  -4   1    4.21    0.35
   7  -4   0    0.71    0.23
  -7  -4   0    0.67    0.18
  -7   4   0    1.50    0.33
   7   4   0    0.77    0.25
  -7  -4   0    0.92    0.29
  -7   4  -1    4.53    0.56
  -7  -4  -1    3.72    0.54
   7   4   1    4.46    0.55
  -7  -4  -1    4.77    0.48
   7  -4   1    5.27    0.61
  -7   4  -2   14.85    1.03
  -7  -4  -2   14.29    1.08
  -7  -4  -2   14.42    0.89
   7  -4   2   14.93    1.02
   7   4   2   15.29    1.06
  -7  -4  -3    0.74    0.24
  -7   4  -3    0.54    0.24
   7   4   3    0.75    0.26
  -7  -4  -3    1.27    0.34
   7  -4   4    1.39    0.34
  -7   4  -4    0.90    0.32
  -7  -4  -4    1.12    0.31
   7   4   4    0.94    0.32
  -7  -4  -4    1.46    0.35
   7  -4   5    0.43    0.19
  -7   4  -5    0.16    0.17
   7   4   5    0.66    0.27
  -7  -4  -5    0.70    0.25
  -7  -4  -5    0.66    0.25
  -7  -4  -6    6.41    0.72
   7   4   6    7.31    0.82
  -7  -4  -6    8.02    0.89
  -7   4  -6    6.33    0.78
   7  -4   6    6.29    0.68
   7  -5  -8    1.63    0.35
   7   5  -8    1.88    0.51
  -7  -5   8    1.91    0.41
  -7   5   8    2.17    0.48
   7  -5  -7    0.66    0.25
   7   5  -7    0.69    0.33
  -7  -5   7    0.50    0.26
  -7   5   7    0.46    0.24
   7   5  -6    7.02    0.81
  -7  -5   6    6.96    0.75
  -7   5   6    5.94    0.72
   7  -5  -6    7.16    0.74
   7   5  -5   10.84    0.95
  -7   5   5   12.19    0.98
  -7  -5   5   10.81    0.93
   7  -5  -5   10.25    0.86
   7   5  -4    3.19    0.53
  -7   5   4    3.13    0.49
  -7  -5   4    2.70    0.46
   7  -5  -4    2.77    0.45
   7  -5  -3   -0.03    0.15
  -7  -5   3    0.36    0.19
  -7   5   3    0.71    0.26
   7   5  -3    0.53    0.22
  -7   5   2   10.60    0.89
  -7  -5   2   11.37    0.95
   7   5  -2   12.14    0.96
   7  -5  -2   11.08    0.90
  -7   5   1    5.95    0.66
  -7  -5   1    6.86    0.75
   7   5  -1    5.69    0.66
   7  -5  -1    6.65    0.70
   7  -5   0    0.97    0.26
  -7   5   0    0.98    0.28
   7   5   0    1.46    0.35
  -7  -5   0    0.82    0.28
  -7  -5   0    1.38    0.24
  -7  -5  -1    0.14    0.11
   7  -5   1    0.37    0.22
  -7   5  -1    0.05    0.13
  -7  -5  -1   -0.01    0.15
   7   5   1    0.17    0.20
   7  -5   2    0.34    0.16
  -7   5  -2    0.14    0.18
  -7  -5  -2    0.32    0.17
   7   5   2    0.45    0.24
  -7  -5  -2    0.58    0.23
   7  -5   3    0.90    0.28
   7   5   3    0.66    0.28
  -7   5  -3    1.21    0.32
  -7  -5  -3    0.98    0.30
  -7  -5  -3    1.29    0.30
   7  -5   4    1.91    0.41
  -7   5  -4    2.43    0.45
  -7  -5  -4    2.37    0.47
   7   5   4    2.46    0.47
  -7  -5  -4    2.75    0.46
  -7   5  -5    2.40    0.48
  -7  -5  -5    2.46    0.48
   7   5   5    2.66    0.52
  -7  -5  -5    2.58    0.48
   7  -5   5    2.36    0.44
   7  -6  -7    0.87    0.32
  -7  -6   7    0.58    0.24
   7   6  -7    0.77    0.37
  -7   6   7    0.38    0.22
   7  -6  -6   -0.04    0.14
  -7  -6   6    0.07    0.14
  -7   6   6    0.02    0.16
   7   6  -6    0.05    0.24
   7  -6  -5    1.41    0.35
  -7  -6   5    1.16    0.34
  -7   6   5    1.07    0.34
   7   6  -5    1.11    0.37
   7   6  -4    8.10    0.87
  -7   6   4    7.60    0.80
  -7  -6   4    7.53    0.80
   7  -6  -4    8.27    0.80
  -7   6   3    5.41    0.68
   7   6  -3    5.44    0.71
  -7  -6   3    7.70    0.81
   7  -6  -3    5.90    0.70
   7  -6  -2    1.28    0.33
  -7   6   2    0.98    0.31
  -7  -6   2    1.73    0.40
   7   6  -2    0.86    0.30
  -7  -6   1    4.12    0.61
   7   6  -1    3.78    0.60
   7  -6  -1    4.81    0.61
  -7   6   0    4.26    0.61
  -7  -6   0    4.28    0.63
   7   6   0    4.49    0.65
   7  -6   0    5.67    0.69
  -7   6  -1    8.82    0.86
  -7  -6  -1    8.23    0.85
   7   6   1    8.94    0.93
   7  -6   1    8.45    0.82
  -7   6  -2   10.52    0.95
  -7  -6  -2    9.40    0.92
  -7  -6  -2    9.67    0.75
   7   6   2    8.61    0.93
   7  -6   2   11.11    0.93
   7   6   3    2.47    0.51
  -7   6  -3    4.13    0.62
  -7  -6  -3    2.88    0.54
  -7  -6  -3    3.63    0.52
   7  -6   3    3.92    0.57
  -7   6  -4    2.40    0.49
   7   6   4    2.47    0.54
  -7  -6  -4    3.27    0.55
  -7  -6  -4    3.42    0.55
   7  -6   4    3.51    0.53
  -7   6  -5    5.42    0.73
   7   6   5    7.05    0.88
  -7  -6  -5    6.67    0.80
  -7  -6  -5    7.62    0.84
   7  -6   5    7.28    0.79
   7  -7  -6    1.61    0.40
  -7  -7   6    1.74    0.43
  -7   7   6    1.78    0.47
   7   7  -6    2.73    0.58
   7  -7  -5    2.23    0.43
  -7  -7   5    2.44    0.48
  -7   7   5    2.91    0.52
   7   7  -5    2.53    0.56
   7  -7  -4    0.18    0.22
  -7  -7   4    0.83    0.31
  -7   7   4    0.46    0.22
   7   7  -4    0.30    0.24
  -7   7   3   16.94    1.25
   7   7  -3   17.62    1.35
  -7  -7   3   18.81    1.29
   7  -7  -3   18.39    1.24
  -7   7   2    9.96    0.94
  -7  -7   2    9.71    0.93
   7   7  -2   10.66    1.07
   7  -7  -2   10.16    0.92
  -7   7   1   23.51    1.45
  -7  -7   1   24.37    1.49
   7   7  -1   22.60    1.53
   7  -7  -1   23.37    1.38
  -7   7   0    3.13    0.54
   7   7   0    2.45    0.51
  -7  -7   0    3.68    0.60
   7  -7   0    2.98    0.51
   7  -7   1    0.47    0.24
  -7   7  -1    0.40    0.30
  -7  -7  -1    0.26    0.20
   7   7   1    0.40    0.26
  -7   7  -2    7.39    0.85
  -7  -7  -2    7.30    0.85
   7   7   2    8.25    0.96
   7  -7   2    8.10    0.83
  -7   7  -3    9.90    0.98
  -7  -7  -3    8.06    0.89
  -7  -7  -3    9.59    0.83
   7   7   3   10.28    1.10
   7  -7   3   11.29    0.98
   7   8  -4   12.71    1.24
  -7   8   4   12.91    1.19
  -7  -8   4   10.94    1.03
   7  -8  -4   13.17    1.10
  -7   8   3   12.36    1.12
  -7  -8   3   10.73    1.03
   7   8  -3    9.81    1.08
   7  -8  -3   10.24    0.97
  -7   8   2    9.55    0.98
  -7  -8   2   10.20    1.01
   7   8  -2    7.28    0.94
   7  -8  -2   11.09    1.01
  -7   8   1    4.58    0.67
  -7  -8   1    4.61    0.67
   7   8  -1    4.47    0.73
   7  -8  -1    4.55    0.68
  -7   8   0    4.92    0.70
  -7  -8   0    4.22    0.65
   7   8   0    3.19    0.63
   7  -8   0    4.68    0.66
   7  -8   1    0.38    0.24
  -7   8  -1    0.24    0.21
  -7  -8  -1   -0.13    0.19
   7   8   1    0.38    0.29
   7  -8   2    0.30    0.23
  -7   8  -2    0.80    0.32
  -7  -8  -2    0.51    0.27
   7   8   2    0.70    0.34
  -8   0   8    0.55    0.24
  -8   0   7    0.41    0.19
  -8   0   6    1.32    0.33
  -8   0   5    7.28    0.74
  -8   0   4   32.22    1.18
  -8   0   4   33.36    1.61
  -8   0   3    3.58    0.40
  -8   0   3    3.33    0.52
  -8   0   2    2.95    0.38
  -8   0   2    2.72    0.45
  -8   0   1    0.01    0.12
  -8   0   1    0.35    0.24
  -8   0   0    2.33    0.36
  -8   0   0    1.60    0.40
  -8   0  -1    0.32    0.19
  -8   0  -1    0.66    0.27
  -8   0  -2   -0.18    0.16
  -8   0  -2   -0.14    0.16
  -8   0  -3    1.60    0.37
  -8   0  -3    0.73    0.28
  -8   0  -4    0.29    0.17
  -8   0  -4    0.11    0.14
  -8   0  -5    0.40    0.24
  -8   0  -5    0.46    0.25
  -8  -1   8    0.37    0.22
  -8   1   8    1.10    0.32
  -8  -1   7    6.45    0.72
  -8   1   7    8.54    0.79
  -8  -1   6    1.24    0.31
  -8   1   6    1.28    0.32
  -8   1   5    0.78    0.22
  -8  -1   5    0.53    0.26
  -8   1   5    1.19    0.34
  -8   1   4   11.25    0.75
  -8  -1   4   10.30    0.91
  -8   1   4    9.92    0.86
  -8   1   3   17.15    0.94
  -8  -1   3   14.61    1.07
  -8   1   3   17.35    1.15
  -8  -1   2    1.44    0.25
  -8   1   2    1.30    0.28
  -8  -1   2    1.31    0.32
  -8   1   2    0.84    0.27
  -8  -1   1    3.61    0.42
  -8   1   1    4.59    0.51
  -8  -1   1    3.37    0.52
  -8   1   1    2.97    0.48
  -8   1   0   10.29    0.77
  -8  -1   0    8.56    0.84
  -8   1   0    8.61    0.81
  -8  -1   0   10.11    0.72
  -8   1  -1    3.25    0.45
  -8  -1  -1    3.04    0.49
  -8   1  -1    4.06    0.56
  -8  -1  -1    4.19    0.49
  -8  -1  -2    1.53    0.34
  -8   1  -2    1.08    0.29
  -8  -1  -2    1.29    0.33
  -8   1  -2    0.84    0.26
  -8  -1  -3    1.64    0.34
  -8   1  -3    2.11    0.39
  -8  -1  -3    2.82    0.47
  -8   1  -3    1.74    0.38
  -8  -1  -4    6.44    0.73
  -8   1  -4    7.15    0.76
  -8  -1  -4    7.78    0.79
  -8   1  -4    7.69    0.80
  -8  -1  -5    0.66    0.27
  -8   1  -5    1.28    0.36
  -8  -1  -5    1.36    0.37
  -8   1  -5    0.43    0.21
  -8  -2   7    1.06    0.31
  -8   2   7    1.93    0.40
  -8   2   6    0.16    0.17
  -8  -2   6   -0.06    0.16
  -8   2   6   -0.08    0.12
  -8   2   5    4.80    0.54
  -8  -2   5    4.44    0.61
  -8   2   5    4.91    0.61
  -8   2   4    7.84    0.69
  -8  -2   4    8.35    0.83
  -8   2   4    8.28    0.77
  -8   2   3   25.74    1.22
  -8  -2   3   23.27    1.37
  -8   2   3   25.04    1.38
  -8   2   2   11.61    0.84
  -8   2   2   10.51    0.88
  -8  -2   1   13.17    0.74
  -8   2   1   11.99    0.86
  -8  -2   1   11.45    0.98
  -8   2   1   12.30    0.96
  -8   2   0    6.97    0.67
  -8  -2   0    6.73    0.75
  -8   2   0    6.81    0.73
  -8  -2   0    7.46    0.60
  -8   2  -1    1.51    0.31
  -8  -2  -1    1.51    0.36
  -8   2  -1    1.87    0.39
  -8  -2  -1    1.66    0.32
  -8   2  -2    1.94    0.37
  -8  -2  -2    2.28    0.45
  -8   2  -2    1.72    0.36
  -8  -2  -2    2.40    0.39
  -8  -2  -3    1.02    0.29
  -8   2  -3    1.29    0.31
  -8  -2  -3    0.63    0.25
  -8   2  -3    0.67    0.25
  -8  -2  -4    7.02    0.78
  -8   2  -4    6.61    0.70
  -8  -2  -4    7.29    0.75
  -8   2  -4    7.12    0.77
  -8  -2  -5    1.06    0.32
  -8   2  -5    1.04    0.34
  -8  -2  -5    0.60    0.25
  -8   2  -5    1.18    0.39
  -8  -3   7    3.32    0.54
  -8   3   7    4.53    0.59
   8  -3  -7    4.58    0.62
   8  -3  -6    1.23    0.32
  -8   3   6    1.44    0.35
  -8  -3   6    1.50    0.38
  -8   3   5    3.93    0.53
  -8  -3   5    4.73    0.64
  -8   3   4    3.71    0.51
  -8  -3   4    3.55    0.54
  -8   3   4    3.53    0.52
  -8   3   3    1.04    0.28
  -8  -3   3    1.03    0.33
  -8   3   3    0.50    0.23
  -8   3   2    1.63    0.34
  -8  -3   2    1.58    0.38
  -8   3   2    1.31    0.33
  -8   3   1    3.28    0.47
  -8  -3   1    3.32    0.54
  -8   3   1    4.40    0.57
  -8   3   0   11.77    0.91
  -8  -3   0   12.03    1.02
  -8   3   0   11.68    0.94
  -8  -3   0   12.88    0.76
  -8   3  -1    6.00    0.67
  -8  -3  -1    7.30    0.79
  -8   3  -1    6.92    0.72
  -8  -3  -1    7.02    0.61
  -8   3  -2    2.51    0.46
  -8  -3  -2    2.15    0.41
  -8   3  -2    1.55    0.36
  -8  -3  -2    2.61    0.40
  -8  -3  -3    3.10    0.54
  -8   3  -3    3.97    0.58
  -8  -3  -3    3.46    0.51
  -8   3  -3    3.36    0.54
  -8  -3  -4    5.37    0.69
  -8  -3  -4    6.96    0.76
  -8   3  -4    6.09    0.74
  -8  -4   7   12.85    1.06
   8  -4  -7   11.36    0.99
  -8   4   6    5.77    0.68
  -8  -4   6    3.43    0.55
   8  -4  -6    4.77    0.63
  -8   4   5    2.34    0.45
  -8  -4   5    2.38    0.47
   8  -4  -5    2.47    0.47
  -8   4   4    3.85    0.55
  -8  -4   4    4.30    0.62
   8  -4  -4    4.08    0.57
   8  -4  -3    1.59    0.40
  -8   4   3    1.29    0.33
  -8  -4   3    1.52    0.38
  -8   4   2   10.58    0.89
  -8  -4   2   10.52    0.95
   8  -4  -2   10.95    0.94
  -8   4   1    2.18    0.42
  -8  -4   1    2.57    0.47
   8  -4  -1    2.53    0.46
  -8   4   0    3.14    0.51
  -8  -4   0    2.70    0.49
   8  -4   0    2.53    0.48
  -8   4  -1    5.60    0.68
  -8  -4  -1    5.16    0.68
  -8  -4  -1    5.22    0.53
   8  -4   1    6.29    0.73
  -8  -4  -2    4.87    0.68
  -8  -4  -2    4.45    0.51
   8  -4   2    5.73    0.69
   8  -4   3    0.38    0.21
  -8  -4  -3    0.41    0.23
  -8   4  -3    0.57    0.24
  -8  -4  -3    0.30    0.21
  -8   4  -4    2.76    0.53
  -8  -4  -4    1.96    0.44
  -8  -4  -4    3.51    0.55
   8  -4   4    3.87    0.57
  -8   5   6    4.61    0.66
  -8  -5   6    5.54    0.72
   8  -5  -6    4.58    0.66
  -8   5   5   12.59    1.05
  -8  -5   5   11.37    1.02
   8  -5  -5   10.40    0.95
  -8   5   4    7.82    0.81
  -8  -5   4    6.93    0.79
   8  -5  -4    6.47    0.77
   8  -5  -3    0.48    0.21
  -8   5   3    0.46    0.26
  -8  -5   3    0.88    0.30
   8  -5  -2    0.18    0.23
  -8   5   2    0.22    0.17
  -8  -5   2    0.16    0.19
  -8   5   1    5.48    0.69
  -8  -5   1    5.53    0.73
   8  -5  -1    6.56    0.77
  -8   5   0    1.37    0.35
  -8  -5   0    3.03    0.53
   8  -5   0    2.37    0.46
  -8   5  -1    4.75    0.66
  -8  -5  -1    4.70    0.69
   8  -5   1    3.41    0.55
  -8   5  -2    2.06    0.45
  -8  -5  -2    2.54    0.51
   8  -5   2    2.78    0.52
  -8   5  -3    6.80    0.80
  -8  -5  -3    6.39    0.80
  -8  -5  -3    7.67    0.76
   8  -5   3    6.77    0.77
   8   6  -4    4.46    0.67
  -8   6   4    3.43    0.57
  -8  -6   4    3.00    0.57
   8  -6  -4    2.62    0.51
  -8   6   3    3.69    0.60
  -8  -6   3    2.96    0.56
   8   6  -3    3.60    0.59
   8  -6  -3    3.60    0.59
  -8   6   2    2.88    0.50
  -8  -6   2    4.18    0.66
   8   6  -2    3.90    0.62
   8  -6  -2    4.22    0.64
  -8   6   1    3.79    0.59
  -8  -6   1    4.58    0.68
   8   6  -1    4.03    0.63
   8  -6  -1    3.66    0.58
   8  -6   0    0.15    0.16
  -8   6   0    0.24    0.16
  -8  -6   0    0.25    0.25
   8   6   0    0.00    0.19
  -8   6  -1    4.47    0.66
  -8  -6  -1    4.23    0.66
   8   6   1    6.07    0.78
   8  -6   1    4.91    0.68
  -8   6  -2   20.77    1.41
  -8  -6  -2   21.00    1.47
   8  -6   2   21.00    1.37
   8  -7  -2    1.43    0.36
   8   7  -2    1.41    0.44
  -8   7   2    1.14    0.36
  -8  -7   2    0.67    0.24
   8  -7  -1    2.36    0.51
   8   7  -1    2.33    0.54
  -8   7   1    2.15    0.49
  -8  -7   1    2.20    0.51
  -9   0   5   15.31    1.16
  -9   0   4   20.95    1.37
  -9   0   3    7.47    0.83
  -9   0   2    0.78    0.28
  -9   0   1    0.78    0.24
  -9   0   1    1.19    0.33
  -9   0   0    0.34    0.16
  -9   0   0   -0.06    0.21
  -9   0  -1    6.92    0.68
  -9   0  -1    4.52    0.62
  -9   0  -2    2.57    0.50
  -9   0  -2    5.48    0.64
  -9  -1   5    1.11    0.35
  -9   1   5    0.68    0.26
  -9  -1   4    8.85    0.91
  -9   1   4    6.08    0.74
  -9   1   3    1.00    0.28
  -9  -1   3    1.10    0.34
  -9   1   3    0.51    0.28
  -9   1   2    0.96    0.28
  -9  -1   2    1.14    0.37
  -9   1   2    0.66    0.28
  -9   1   1    0.39    0.19
  -9  -1   1    0.19    0.23
  -9   1   1    0.17    0.15
  -9  -1   0    0.78    0.24
  -9   1   0    0.86    0.27
  -9  -1   0    0.56    0.26
  -9   1   0    0.70    0.29
  -9   1  -1    3.29    0.50
  -9  -1  -1    2.55    0.49
  -9   1  -1    2.33    0.46
  -9  -1  -1    2.24    0.40
  -9  -1  -2    0.79    0.29
  -9   1  -2    0.83    0.31
  -9  -2   5    3.67    0.61
  -9   2   5    3.64    0.58
  -9   2   4    4.85    0.58
  -9  -2   4    4.82    0.68
  -9   2   4    4.33    0.61
  -9   2   3    7.98    0.74
  -9  -2   3    5.87    0.75
  -9   2   3    6.67    0.77
  -9   2   2    0.47    0.19
  -9  -2   2    0.77    0.31
  -9   2   2    0.79    0.31
  -9   2   1    0.15    0.14
  -9  -2   1    0.00    0.15
  -9   2   1    0.12    0.15
  -9   2   0    3.37    0.52
  -9   2   0    3.31    0.55
  -9  -2   0    2.45    0.51
  -9  -2  -1    0.14    0.13
  -9   2  -1    0.41    0.23
  -9  -2  -1    0.03    0.18
  -9   2  -1    0.21    0.17
  -9   2  -2    4.58    0.63
  -9  -2  -2    4.62    0.68
  -9   2  -2    4.32    0.63
  -9  -2  -2    4.36    0.55
  -9   3   4    7.95    0.79
  -9  -3   4    6.59    0.81
  -9   3   3    8.61    0.80
  -9  -3   3    7.62    0.88
  -9   3   3    7.56    0.82
  -9   3   2   12.40    0.98
  -9  -3   2   13.00    1.13
  -9   3   2   12.45    1.05
  -9   3   1    1.99    0.41
  -9  -3   1    2.53    0.55
  -9   3   1    2.25    0.48
  -9   3   0    2.58    0.48
  -9   3   0    2.93    0.53
  -9  -3   0    2.16    0.46
  -9   3  -1    0.85    0.28
  -9  -3  -1    0.56    0.32
  -9   3  -1    0.89    0.34
  -9  -4   3    3.06    0.58
  -9   4   3    2.12    0.44
   9  -4  -2    0.86    0.32
  -9   4   2    0.80    0.29
  -9  -4   2    0.61    0.29
   9  -4  -1    0.26    0.23
  -9   4   1    0.60    0.28
  -9  -4   1    0.77    0.30
   9  -4   0    1.41    0.39
  -9   4   0    1.87    0.44
  -9  -4   0    1.32    0.39
   0   0   0    0.00    0.00
;
_shelx_hkl_checksum              56522
loop_
_space_group_symop_operation_xyz
'x, y, z'
'-x, y+1/2, -z'
loop_
_atom_site_label
_atom_site_type_symbol
_atom_site_fract_x
_atom_site_fract_y
_atom_site_fract_z
_atom_site_U_iso_or_equiv
_atom_site_adp_type
_atom_site_occupancy
_atom_site_site_symmetry_order
_atom_site_calc_flag
_atom_site_refinement_flags_posn
_atom_site_refinement_flags_adp
_atom_site_refinement_flags_occupancy
_atom_site_disorder_assembly
_atom_site_disorder_group
O1 O -0.23102(19) 0.35556(14) 0.20602(16) 0.0343(4) Uani 1 1 d . . . . .
N1 N -0.0750(2) 0.02178(16) 0.10562(16) 0.0247(4) Uani 1 1 d . . . . .
C1 C -0.0260(3) -0.0806(2) 0.0408(2) 0.0283(5) Uani 1 1 d . . . . .
H1 H 0.087998 -0.079030 0.013279 0.034 Uiso 1 1 calc R U . . .
C2 C -0.1306(3) -0.1927(2) 0.0090(2) 0.0296(5) Uani 1 1 d . . . . .
H2 H -0.086585 -0.264654 -0.036291 0.036 Uiso 1 1 calc R U . . .
C3 C -0.2964(3) -0.1952(2) 0.0448(2) 0.0284(5) Uani 1 1 d . . . . .
H3 H -0.369298 -0.269708 0.025316 0.034 Uiso 1 1 calc R U . . .
C4 C -0.3587(2) -0.08604(19) 0.11115(19) 0.0235(4) Uani 1 1 d . . . . .
C5 C -0.2419(2) 0.02022(19) 0.14184(18) 0.0209(4) Uani 1 1 d . . . . .
C6 C -0.3014(2) 0.13184(19) 0.20782(19) 0.0219(4) Uani 1 1 d . . . . .
C7 C -0.4733(3) 0.1373(2) 0.2325(2) 0.0274(4) Uani 1 1 d . . . . .
H7 H -0.514438 0.213882 0.272042 0.033 Uiso 1 1 calc R U . . .
C8 C -0.5899(3) 0.0327(2) 0.2008(2) 0.0297(5) Uani 1 1 d . . . . .
H8 H -0.707695 0.038547 0.220190 0.036 Uiso 1 1 calc R U . . .
C9 C -0.5339(3) -0.0777(2) 0.1420(2) 0.0292(5) Uani 1 1 d . . . . .
H9 H -0.612426 -0.148960 0.121863 0.035 Uiso 1 1 calc R U . . .
C10 C -0.1849(2) 0.24664(19) 0.2469(2) 0.0234(4) Uani 1 1 d . . . . .
C11 C -0.0201(2) 0.22876(19) 0.34098(19) 0.0217(4) Uani 1 1 d . . . . .
C12 C 0.0206(2) 0.11205(18) 0.4096(2) 0.0230(4) Uani 1 1 d . . . . .
H12 H -0.058290 0.040157 0.396939 0.028 Uiso 1 1 calc R U . . .
C13 C 0.1759(3) 0.10048(19) 0.4962(2) 0.0239(4) Uani 1 1 d . . . . .
H13 H 0.202108 0.020247 0.542072 0.029 Uiso 1 1 calc R U . . .
C14 C 0.2947(2) 0.20465(19) 0.51749(19) 0.0231(4) Uani 1 1 d . . . . .
C15 C 0.2491(3) 0.32327(19) 0.4518(2) 0.0260(4) Uani 1 1 d . . . . .
H15 H 0.325436 0.396457 0.466796 0.031 Uiso 1 1 calc R U . . .
C16 C 0.0947(3) 0.33462(19) 0.3657(2) 0.0253(4) Uani 1 1 d . . . . .
H16 H 0.065843 0.415808 0.322488 0.030 Uiso 1 1 calc R U . . .
C17 C 0.4676(2) 0.18795(19) 0.60170(19) 0.0240(4) Uani 1 1 d . . . . .
C18 C 0.4870(3) 0.09999(19) 0.7086(2) 0.0277(4) Uani 1 1 d . . . . .
H18 H 0.387919 0.052386 0.730017 0.033 Uiso 1 1 calc R U . . .
C19 C 0.6502(3) 0.0815(2) 0.7840(2) 0.0320(5) Uani 1 1 d . . . . .
H19 H 0.662058 0.020827 0.856102 0.038 Uiso 1 1 calc R U . . .
C20 C 0.7957(3) 0.1509(2) 0.7549(2) 0.0328(5) Uani 1 1 d . . . . .
H20 H 0.906844 0.138108 0.806892 0.039 Uiso 1 1 calc R U . . .
C21 C 0.7784(3) 0.2391(2) 0.6497(2) 0.0308(5) Uani 1 1 d . . . . .
H21 H 0.877712 0.287091 0.629466 0.037 Uiso 1 1 calc R U . . .
C22 C 0.6152(3) 0.2572(2) 0.5736(2) 0.0278(4) Uani 1 1 d . . . . .
H22 H 0.604290 0.317742 0.501401 0.033 Uiso 1 1 calc R U . . .
loop_
_atom_site_aniso_label
_atom_site_aniso_U_11
_atom_site_aniso_U_22
_atom_site_aniso_U_33
_atom_site_aniso_U_23
_atom_site_aniso_U_13
_atom_site_aniso_U_12
O1 0.0317(8) 0.0233(7) 0.0459(9) 0.0025(7) -0.0019(7) 0.0045(6)
N1 0.0208(8) 0.0269(9) 0.0265(9) -0.0015(7) 0.0038(6) 0.0014(7)
C1 0.0245(10) 0.0325(11) 0.0278(10) -0.0026(8) 0.0031(8) 0.0045(9)
C2 0.0365(11) 0.0256(10) 0.0261(11) -0.0033(8) 0.0011(8) 0.0079(9)
C3 0.0348(11) 0.0220(9) 0.0272(11) -0.0003(8) -0.0006(9) -0.0025(8)
C4 0.0247(10) 0.0238(10) 0.0213(9) 0.0030(8) 0.0002(7) -0.0015(8)
C5 0.0206(8) 0.0222(9) 0.0196(9) 0.0023(7) 0.0019(7) 0.0011(7)
C6 0.0203(9) 0.0250(10) 0.0203(9) 0.0011(8) 0.0019(7) 0.0021(8)
C7 0.0252(10) 0.0325(11) 0.0248(10) -0.0007(9) 0.0037(8) 0.0039(8)
C8 0.0213(9) 0.0401(12) 0.0284(11) 0.0030(9) 0.0063(8) -0.0017(9)
C9 0.0246(10) 0.0337(11) 0.0288(11) 0.0051(9) 0.0015(8) -0.0075(9)
C10 0.0247(10) 0.0221(9) 0.0245(10) -0.0015(8) 0.0075(8) 0.0036(8)
C11 0.0223(9) 0.0216(9) 0.0218(9) -0.0014(7) 0.0051(7) 0.0010(7)
C12 0.0241(9) 0.0189(9) 0.0269(10) -0.0025(7) 0.0062(7) -0.0025(7)
C13 0.0271(10) 0.0194(9) 0.0258(10) 0.0020(7) 0.0050(8) 0.0009(7)
C14 0.0251(9) 0.0234(10) 0.0216(9) -0.0023(8) 0.0065(7) -0.0005(8)
C15 0.0267(10) 0.0210(10) 0.0306(11) -0.0012(8) 0.0044(8) -0.0050(8)
C16 0.0279(10) 0.0198(10) 0.0287(10) 0.0024(8) 0.0057(8) -0.0001(8)
C17 0.0254(10) 0.0232(9) 0.0234(10) -0.0048(8) 0.0036(8) -0.0005(8)
C18 0.0320(11) 0.0229(10) 0.0279(11) -0.0018(8) 0.0028(8) -0.0016(8)
C19 0.0406(12) 0.0249(11) 0.0287(11) -0.0015(8) -0.0028(9) 0.0037(9)
C20 0.0312(11) 0.0317(11) 0.0331(11) -0.0113(9) -0.0056(9) 0.0060(9)
C21 0.0248(10) 0.0353(11) 0.0324(11) -0.0089(9) 0.0040(8) -0.0022(9)
C22 0.0290(10) 0.0303(10) 0.0239(10) -0.0034(8) 0.0032(8) -0.0042(8)
loop_
_atom_type_symbol
_atom_type_description
_atom_type_scat_dispersion_real
_atom_type_scat_dispersion_imag
_atom_type_scat_source
C C 0.0033 0.0016 'International Tables Vol C Tables 4.2.6.8 and 6.1.1.4'
H H 0.0000 0.0000 'International Tables Vol C Tables 4.2.6.8 and 6.1.1.4'
N N 0.0061 0.0033 'International Tables Vol C Tables 4.2.6.8 and 6.1.1.4'
O O 0.0106 0.0060 'International Tables Vol C Tables 4.2.6.8 and 6.1.1.4'
loop_
_geom_angle_atom_site_label_1
_geom_angle_atom_site_label_2
_geom_angle_atom_site_label_3
_geom_angle
_geom_angle_site_symmetry_1
_geom_angle_site_symmetry_3
_geom_angle_publ_flag
C1 N1 C5 117.26(17) . . ?
N1 C1 C2 124.69(17) . . ?
N1 C1 H1 117.7 . . ?
C2 C1 H1 117.7 . . ?
C3 C2 C1 118.45(18) . . ?
C3 C2 H2 120.8 . . ?
C1 C2 H2 120.8 . . ?
C2 C3 C4 119.47(18) . . ?
C2 C3 H3 120.3 . . ?
C4 C3 H3 120.3 . . ?
C3 C4 C5 117.76(17) . . ?
C3 C4 C9 122.48(18) . . ?
C5 C4 C9 119.70(18) . . ?
N1 C5 C4 122.31(17) . . ?
N1 C5 C6 118.62(17) . . ?
C4 C5 C6 119.02(16) . . ?
C7 C6 C5 119.30(17) . . ?
C7 C6 C10 118.31(17) . . ?
C5 C6 C10 122.35(16) . . ?
C6 C7 C8 121.67(19) . . ?
C6 C7 H7 119.2 . . ?
C8 C7 H7 119.2 . . ?
C9 C8 C7 120.06(18) . . ?
C9 C8 H8 120.0 . . ?
C7 C8 H8 120.0 . . ?
C8 C9 C4 120.14(19) . . ?
C8 C9 H9 119.9 . . ?
C4 C9 H9 119.9 . . ?
O1 C10 C11 120.68(18) . . ?
O1 C10 C6 119.26(17) . . ?
C11 C10 C6 119.97(17) . . ?
C12 C11 C16 118.66(17) . . ?
C12 C11 C10 122.51(17) . . ?
C16 C11 C10 118.77(17) . . ?
C13 C12 C11 120.25(17) . . ?
C13 C12 H12 119.9 . . ?
C11 C12 H12 119.9 . . ?
C12 C13 C14 121.32(18) . . ?
C12 C13 H13 119.3 . . ?
C14 C13 H13 119.3 . . ?
C13 C14 C15 117.90(18) . . ?
C13 C14 C17 120.92(17) . . ?
C15 C14 C17 121.11(17) . . ?
C16 C15 C14 120.67(18) . . ?
C16 C15 H15 119.7 . . ?
C14 C15 H15 119.7 . . ?
C15 C16 C11 121.11(18) . . ?
C15 C16 H16 119.4 . . ?
C11 C16 H16 119.4 . . ?
C22 C17 C18 118.35(18) . . ?
C22 C17 C14 120.83(18) . . ?
C18 C17 C14 120.80(17) . . ?
C19 C18 C17 120.53(19) . . ?
C19 C18 H18 119.7 . . ?
C17 C18 H18 119.7 . . ?
C20 C19 C18 120.5(2) . . ?
C20 C19 H19 119.8 . . ?
C18 C19 H19 119.8 . . ?
C21 C20 C19 119.73(19) . . ?
C21 C20 H20 120.1 . . ?
C19 C20 H20 120.1 . . ?
C20 C21 C22 119.9(2) . . ?
C20 C21 H21 120.0 . . ?
C22 C21 H21 120.0 . . ?
C21 C22 C17 121.0(2) . . ?
C21 C22 H22 119.5 . . ?
C17 C22 H22 119.5 . . ?
loop_
_geom_bond_atom_site_label_1
_geom_bond_atom_site_label_2
_geom_bond_distance
_geom_bond_site_symmetry_2
_geom_bond_publ_flag
O1 C10 1.224(3) . ?
N1 C1 1.314(3) . ?
N1 C5 1.375(2) . ?
C1 C2 1.412(3) . ?
C1 H1 0.9500 . ?
C2 C3 1.365(3) . ?
C2 H2 0.9500 . ?
C3 C4 1.416(3) . ?
C3 H3 0.9500 . ?
C4 C5 1.416(3) . ?
C4 C9 1.419(3) . ?
C5 C6 1.425(3) . ?
C6 C7 1.373(3) . ?
C6 C10 1.497(3) . ?
C7 C8 1.404(3) . ?
C7 H7 0.9500 . ?
C8 C9 1.370(3) . ?
C8 H8 0.9500 . ?
C9 H9 0.9500 . ?
C10 C11 1.489(3) . ?
C11 C12 1.394(3) . ?
C11 C16 1.397(3) . ?
C12 C13 1.387(3) . ?
C12 H12 0.9500 . ?
C13 C14 1.400(3) . ?
C13 H13 0.9500 . ?
C14 C15 1.404(3) . ?
C14 C17 1.488(3) . ?
C15 C16 1.379(3) . ?
C15 H15 0.9500 . ?
C16 H16 0.9500 . ?
C17 C22 1.395(3) . ?
C17 C18 1.396(3) . ?
C18 C19 1.390(3) . ?
C18 H18 0.9500 . ?
C19 C20 1.385(3) . ?
C19 H19 0.9500 . ?
C20 C21 1.384(3) . ?
C20 H20 0.9500 . ?
C21 C22 1.392(3) . ?
C21 H21 0.9500 . ?
C22 H22 0.9500 . ?
loop_
_geom_torsion_atom_site_label_1
_geom_torsion_atom_site_label_2
_geom_torsion_atom_site_label_3
_geom_torsion_atom_site_label_4
_geom_torsion
_geom_torsion_site_symmetry_1
_geom_torsion_site_symmetry_2
_geom_torsion_site_symmetry_3
_geom_torsion_site_symmetry_4
_geom_torsion_publ_flag
C5 N1 C1 C2 -1.7(3) . . . . ?
N1 C1 C2 C3 1.6(3) . . . . ?
C1 C2 C3 C4 0.5(3) . . . . ?
C2 C3 C4 C5 -2.2(3) . . . . ?
C2 C3 C4 C9 175.02(18) . . . . ?
C1 N1 C5 C4 -0.2(3) . . . . ?
C1 N1 C5 C6 -177.67(18) . . . . ?
C3 C4 C5 N1 2.2(3) . . . . ?
C9 C4 C5 N1 -175.18(17) . . . . ?
C3 C4 C5 C6 179.59(17) . . . . ?
C9 C4 C5 C6 2.3(3) . . . . ?
N1 C5 C6 C7 173.48(18) . . . . ?
C4 C5 C6 C7 -4.1(3) . . . . ?
N1 C5 C6 C10 -4.1(3) . . . . ?
C4 C5 C6 C10 178.38(17) . . . . ?
C5 C6 C7 C8 3.4(3) . . . . ?
C10 C6 C7 C8 -178.90(17) . . . . ?
C6 C7 C8 C9 -0.9(3) . . . . ?
C7 C8 C9 C4 -0.9(3) . . . . ?
C3 C4 C9 C8 -177.0(2) . . . . ?
C5 C4 C9 C8 0.2(3) . . . . ?
C7 C6 C10 O1 -54.1(3) . . . . ?
C5 C6 C10 O1 123.5(2) . . . . ?
C7 C6 C10 C11 122.36(19) . . . . ?
C5 C6 C10 C11 -60.1(2) . . . . ?
O1 C10 C11 C12 167.6(2) . . . . ?
C6 C10 C11 C12 -8.8(3) . . . . ?
O1 C10 C11 C16 -9.7(3) . . . . ?
C6 C10 C11 C16 173.88(17) . . . . ?
C16 C11 C12 C13 -2.7(3) . . . . ?
C10 C11 C12 C13 -179.93(18) . . . . ?
C11 C12 C13 C14 0.2(3) . . . . ?
C12 C13 C14 C15 2.2(3) . . . . ?
C12 C13 C14 C17 -174.86(18) . . . . ?
C13 C14 C15 C16 -2.1(3) . . . . ?
C17 C14 C15 C16 174.89(19) . . . . ?
C14 C15 C16 C11 -0.3(3) . . . . ?
C12 C11 C16 C15 2.7(3) . . . . ?
C10 C11 C16 C15 -179.92(18) . . . . ?
C13 C14 C17 C22 147.46(19) . . . . ?
C15 C14 C17 C22 -29.5(3) . . . . ?
C13 C14 C17 C18 -30.8(3) . . . . ?
C15 C14 C17 C18 152.23(19) . . . . ?
C22 C17 C18 C19 -0.6(3) . . . . ?
C14 C17 C18 C19 177.77(18) . . . . ?
C17 C18 C19 C20 0.5(3) . . . . ?
C18 C19 C20 C21 -0.2(3) . . . . ?
C19 C20 C21 C22 -0.2(3) . . . . ?
C20 C21 C22 C17 0.1(3) . . . . ?
C18 C17 C22 C21 0.2(3) . . . . ?
C14 C17 C22 C21 -178.10(19) . . . . ?
