#------------------------------------------------------------------------------
#$Date: 2020-05-17 02:29:30 +0300 (Sun, 17 May 2020) $
#$Revision: 252118 $
#$URL: file:///home/coder/svn-repositories/cod/cif/4/03/83/4038374.cif $
#------------------------------------------------------------------------------
#
# This file is available in the Crystallography Open Database (COD),
# http://www.crystallography.net/
#
# All data on this site have been placed in the public domain by the
# contributors.
#
data_4038374
loop_
_publ_author_name
'Schoemaker, Robin'
'Schwedtmann, Kai'
'Hennersdorf, Felix'
'Bauz\'a, Antonio'
'Frontera, Antonio'
'Weigand, Jan J.'
_publ_section_title
;
 Toward N,P-Doped \p-Extended PAHs: A One-Pot Synthesis to Diannulated
 1,4,2-Diazaphospholium Triflate Salts.
;
_journal_name_full               'The Journal of organic chemistry'
_journal_paper_doi               10.1021/acs.joc.0c00577
_journal_year                    2020
_chemical_formula_moiety         'C9 H6 Cl2 N P'
_chemical_formula_sum            'C9 H6 Cl2 N P'
_chemical_formula_weight         230.02
_space_group_crystal_system      monoclinic
_space_group_IT_number           14
_space_group_name_Hall           '-P 2yn'
_space_group_name_H-M_alt        'P 1 21/n 1'
_atom_sites_solution_hydrogens   geom
_audit_creation_date             2017-01-23
_audit_creation_method
;
Olex2 1.2
(compiled 2015.09.30 svn.r3233 for OlexSys, GUI svn.r5103)
;
_cell_angle_alpha                90
_cell_angle_beta                 109.657(4)
_cell_angle_gamma                90
_cell_formula_units_Z            4
_cell_length_a                   12.4333(5)
_cell_length_b                   5.84986(19)
_cell_length_c                   14.1072(5)
_cell_measurement_reflns_used    2471
_cell_measurement_temperature    100.01(10)
_cell_measurement_theta_max      76.0080
_cell_measurement_theta_min      4.0790
_cell_volume                     966.26(7)
_computing_cell_refinement       'CrysAlisPro 1.171.38.43 (Rigaku OD, 2015)'
_computing_data_collection       'CrysAlisPro 1.171.38.43 (Rigaku OD, 2015)'
_computing_data_reduction        'CrysAlisPro 1.171.38.43 (Rigaku OD, 2015)'
_computing_molecular_graphics    'Olex2 (Dolomanov et al., 2009)'
_computing_publication_material  'Olex2 (Dolomanov et al., 2009)'
_computing_structure_refinement  'ShelXL (Sheldrick, 2015)'
_computing_structure_solution    'ShelXT (Sheldrick, 2015)'
_diffrn_ambient_environment      N~2~
_diffrn_ambient_temperature      100.01(10)
_diffrn_detector                 'CCD plate'
_diffrn_detector_area_resol_mean 10.5700
_diffrn_detector_type            AtlasS2
_diffrn_measured_fraction_theta_full 1.000
_diffrn_measured_fraction_theta_max 0.979
_diffrn_measurement_details
;
List of Runs (angles in degrees, time in seconds):

  # Type    Start    End  Width  t~exp~   \w     \q     \k     \f   Frames
--------------------------------------------------------------------------
  1  \w      8.00 118.00   0.50    0.50    --   42.75  19.00 150.00  220
  2  \w     61.00 111.00   0.50    2.00    --  111.00 -77.00  60.00  100
  3  \w     75.00 129.00   0.50    2.00    --  111.00 -45.00 -30.00  108
  4  \w    114.00 160.00   0.50    2.00    --  111.00  30.00 -60.00   92
  5  \w     95.00 177.00   0.50    2.00    --  111.00  30.00-150.00  164
  6  \w    129.00 164.00   0.50    2.00    --  111.00 125.00   0.00   70
  7  \w     43.00 136.00   0.50    2.00    --  111.00 -61.00  90.00  186
  8  \w     45.00 135.00   0.50    2.00    --  111.00 -77.00 -60.00  180
  9  \w     66.00  91.00   0.50    2.00    --  111.00 -94.00-180.00   50
 10  \w     39.00 114.00   0.50    2.00    --  111.00-125.00 -90.00  150
 11  \w     35.00  67.00   0.50    0.50    --   42.75-140.00   5.00   64
 12  \w   -103.00 -16.00   0.50    0.50    --  -38.50 -38.00-180.00  174
;
_diffrn_measurement_device       'four-circle diffractometer'
_diffrn_measurement_device_type  'SuperNova, Dual, Cu at zero, AtlasS2'
_diffrn_measurement_method       '\w scans'
_diffrn_orient_matrix_type
'CrysAlisPro convention (1999,Acta A55,543-557)'
_diffrn_orient_matrix_UB_11      -0.0948861000
_diffrn_orient_matrix_UB_12      -0.0847330000
_diffrn_orient_matrix_UB_13      -0.0952345000
_diffrn_orient_matrix_UB_21      0.0539103000
_diffrn_orient_matrix_UB_22      0.1363089000
_diffrn_orient_matrix_UB_23      -0.0660399000
_diffrn_orient_matrix_UB_31      0.0735234000
_diffrn_orient_matrix_UB_32      -0.2087880000
_diffrn_orient_matrix_UB_33      -0.0045178000
_diffrn_radiation_monochromator  mirror
_diffrn_radiation_probe          x-ray
_diffrn_radiation_type           CuK\a
_diffrn_radiation_wavelength     1.54184
_diffrn_reflns_av_R_equivalents  0.0407
_diffrn_reflns_av_unetI/netI     0.0336
_diffrn_reflns_Laue_measured_fraction_full 1.000
_diffrn_reflns_Laue_measured_fraction_max 0.979
_diffrn_reflns_limit_h_max       15
_diffrn_reflns_limit_h_min       -13
_diffrn_reflns_limit_k_max       6
_diffrn_reflns_limit_k_min       -7
_diffrn_reflns_limit_l_max       16
_diffrn_reflns_limit_l_min       -17
_diffrn_reflns_number            4303
_diffrn_reflns_point_group_measured_fraction_full 1.000
_diffrn_reflns_point_group_measured_fraction_max 0.979
_diffrn_reflns_theta_full        67.684
_diffrn_reflns_theta_max         76.808
_diffrn_reflns_theta_min         4.108
_diffrn_source                   'micro-focus sealed X-ray tube'
_diffrn_source_type              'SuperNova (Cu) X-ray Source'
_exptl_absorpt_coefficient_mu    7.181
_exptl_absorpt_correction_T_max  0.114
_exptl_absorpt_correction_T_min  0.012
_exptl_absorpt_correction_type   gaussian
_exptl_absorpt_process_details
;
CrysAlisPro 1.171.38.43 (Rigaku Oxford Diffraction, 2015)
Numerical absorption correction based on gaussian integration over
			a multifaceted crystal model
Empirical absorption correction using spherical harmonics,
 implemented in SCALE3 ABSPACK scaling algorithm.
;
_exptl_crystal_colour            red
_exptl_crystal_colour_primary    red
_exptl_crystal_density_diffrn    1.581
_exptl_crystal_description       block
_exptl_crystal_F_000             464
_exptl_crystal_size_max          0.255
_exptl_crystal_size_mid          0.169
_exptl_crystal_size_min          0.139
_refine_diff_density_max         1.042
_refine_diff_density_min         -0.867
_refine_diff_density_rms         0.169
_refine_ls_extinction_method     none
_refine_ls_goodness_of_fit_ref   1.086
_refine_ls_hydrogen_treatment    constr
_refine_ls_matrix_type           full
_refine_ls_number_parameters     118
_refine_ls_number_reflns         2004
_refine_ls_number_restraints     0
_refine_ls_restrained_S_all      1.086
_refine_ls_R_factor_all          0.0633
_refine_ls_R_factor_gt           0.0625
_refine_ls_shift/su_max          0.000
_refine_ls_shift/su_mean         0.000
_refine_ls_structure_factor_coef Fsqd
_refine_ls_weighting_details
'w=1/[\s^2^(Fo^2^)+(0.1263P)^2^+0.1068P] where P=(Fo^2^+2Fc^2^)/3'
_refine_ls_weighting_scheme      calc
_refine_ls_wR_factor_gt          0.1577
_refine_ls_wR_factor_ref         0.1596
_reflns_Friedel_coverage         0.000
_reflns_number_gt                1915
_reflns_number_total             2004
_reflns_threshold_expression     'I > 2\s(I)'
_cod_data_source_file            jo0c00577_si_008.cif
_cod_data_source_block           jjw573
_cod_original_cell_volume        966.27(6)
_cod_database_code               4038374
_chemical_oxdiff_formula         'C36 H24 Cl8 N4 P4 '
_shelx_space_group_comment
;
The symmetry employed for this shelxl refinement is uniquely defined
by the following loop, which should always be used as a source of
symmetry information in preference to the above space-group names.
They are only intended as comments.
;
_reflns_odcompleteness_completeness 100.00
_reflns_odcompleteness_iscentric 1
_reflns_odcompleteness_theta     66.97
_olex2_refinement_description
;
1. Fixed Uiso
 At 1.2 times of:
  All C(H) groups
2.a Aromatic/amide H refined with riding coordinates:
 C2(H2), C3(H3), C5(H5), C6(H6), C7(H7), C8(H8)
;
_shelx_res_file
;
    jjw573.res created by SHELXL-2014/7

TITL rs14012017cu_a.res in P2(1)/n
REM Old TITL RS14012017Cu in P21/n #14
REM SHELXT solution in P2(1)/n
REM R1 0.127, Rweak 0.014, Alpha 0.014, Orientation as input
REM Formula found by SHELXT: C9 N P Cl2
CELL 1.54184 12.433323 5.849865 14.107169 90 109.6567 90
ZERR 4 0.000461 0.000187 0.000489 0 0.0039 0
LATT 1
SYMM 0.5-X,0.5+Y,0.5-Z
SFAC C H Cl N P
UNIT 36 24 8 4 4

L.S. 10
PLAN  20
BOND $H
LIST 6
MORE -1
CONF
fmap 2
acta
REM <olex2.extras>
REM <HklSrc "%.\\RS14012017Cu.hkl">
REM </olex2.extras>

WGHT    0.126300    0.106800
FVAR       5.58703
CL1   3    0.203261    0.386922    0.651159    11.00000    0.03388    0.03613 =
         0.02743    0.01045    0.01430    0.00618
CL2   3    0.105114    0.810698    0.514241    11.00000    0.03481    0.04146 =
         0.03006    0.01038    0.01265    0.01795
P1    5    0.261151    0.675603    0.600061    11.00000    0.02544    0.02903 =
         0.01687   -0.00088    0.00646    0.00190
N1    4    0.369296    0.708064    0.473728    11.00000    0.02074    0.02156 =
         0.01554   -0.00032    0.00255    0.00247
C1    1    0.301833    0.559008    0.496168    11.00000    0.01956    0.02490 =
         0.01563    0.00155    0.00258    0.00412
C2    1    0.265898    0.348517    0.445897    11.00000    0.01999    0.02495 =
         0.02168    0.00149    0.00363   -0.00103
AFIX  43
H2    2    0.217836    0.250207    0.464705    11.00000   -1.20000
AFIX   0
C3    1    0.304692    0.295396    0.368501    11.00000    0.02248    0.02230 =
         0.01912   -0.00327    0.00025    0.00009
AFIX  43
H3    2    0.283367    0.158102    0.334047    11.00000   -1.20000
AFIX   0
C4    1    0.376830    0.447928    0.340805    11.00000    0.01951    0.02181 =
         0.01424    0.00055   -0.00033    0.00343
C5    1    0.419423    0.404555    0.260464    11.00000    0.02320    0.02622 =
         0.01792   -0.00232    0.00244    0.00473
AFIX  43
H5    2    0.401409    0.268278    0.224644    11.00000   -1.20000
AFIX   0
C6    1    0.486422    0.562127    0.236017    11.00000    0.02474    0.03505 =
         0.01711    0.00070    0.00623    0.00524
AFIX  43
H6    2    0.513583    0.532544    0.183346    11.00000   -1.20000
AFIX   0
C7    1    0.515304    0.770899    0.289918    11.00000    0.02068    0.02865 =
         0.02243    0.00358    0.00432    0.00090
AFIX  43
H7    2    0.560291    0.877534    0.271687    11.00000   -1.20000
AFIX   0
C8    1    0.477344    0.816545    0.368715    11.00000    0.02301    0.02182 =
         0.02086   -0.00092    0.00213    0.00020
AFIX  43
H8    2    0.498072    0.952014    0.404766    11.00000   -1.20000
AFIX   0
C9    1    0.406732    0.657311    0.394922    11.00000    0.01859    0.02130 =
         0.01479    0.00027    0.00021    0.00229
HKLF 4

REM  rs14012017cu_a.res in P2(1)/n
REM R1 =  0.0625 for    1915 Fo > 4sig(Fo)  and  0.0633 for all    2004 data
REM    118 parameters refined using      0 restraints

END

WGHT      0.1263      0.1068

REM Highest difference peak  1.042,  deepest hole -0.867,  1-sigma level  0.169
Q1    1   0.2361  0.4693  0.6071  11.00000  0.05    1.04
Q2    1   0.2212  0.5857  0.6422  11.00000  0.05    1.01
Q3    1   0.2923  0.6374  0.5602  11.00000  0.05    0.89
Q4    1   0.1564  0.4071  0.6798  11.00000  0.05    0.70
Q5    1   0.0515  0.8285  0.5481  11.00000  0.05    0.68
Q6    1   0.0839  0.6423  0.5221  11.00000  0.05    0.63
Q7    1   0.1535  0.8143  0.4874  11.00000  0.05    0.62
Q8    1   0.1351  1.0175  0.5193  11.00000  0.05    0.61
Q9    1   0.2816  0.8719  0.6033  11.00000  0.05    0.60
Q10   1   0.3136  0.6853  0.4851  11.00000  0.05    0.56
Q11   1   0.3913  0.6584  0.4304  11.00000  0.05    0.54
Q12   1   0.3236  0.7416  0.4976  11.00000  0.05    0.54
Q13   1   0.2419  0.2105  0.6395  11.00000  0.05    0.53
Q14   1   0.3578  0.5490  0.4713  11.00000  0.05    0.53
Q15   1   0.4003  0.4346  0.2934  11.00000  0.05    0.52
Q16   1   0.3703  0.3372  0.3594  11.00000  0.05    0.52
Q17   1   0.1840  0.1863  0.6458  11.00000  0.05    0.50
Q18   1   0.4842  0.8000  0.3328  11.00000  0.05    0.49
Q19   1   0.4391  0.7188  0.3856  11.00000  0.05    0.47
Q20   1   0.4603  0.4662  0.2558  11.00000  0.05    0.44
;
_shelx_res_checksum              83910
_shelx_hkl_file
;
   0   0  -1 18.0032 13.8775  12
   0   0  -2 111070. 1092.70  12
   0   0  -3 20.9416 36.6002  12
   0   0  -4 2612.50 242.779  12
   0   0  -5 6.42989 29.2392  12
   0   0  -6 77131.8 1619.31  12
   0   0  -7 46.2710 82.3975  12
   0   0  -8 250330. 3475.98  12
   0   0  -9 151.348 132.275  12
   0   0 -10 1274.19 145.972   5
   0   0  10 1205.39 117.378   7
   0   0 -11-30.1303 65.2045  12
   0   0  11-9.69034 22.1053   7
   0   0 -11 14.0655 26.4752   5
   0   0 -12 14073.4 509.717   5
   0   0 -13 11.8548 35.1658   5
   0   0 -14 308.012 81.4318   5
   0   0 -15 3.04556 27.7453   5
   0   0 -16 11931.0 338.499   5
   0  -1   0 7.96952 10.6675   1
   0  -1  -1 171724. 1363.60   1
   0  -1   1 168666. 929.410   1
   0  -1   2 605.232 76.1913   1
   0  -1   2 502.045 70.6948  11
   0  -1  -2 428.699 62.6744  11
   0  -1  -3 84803.8 1209.11  12
   0   1  -3 85390.9 1306.19  12
   0  -1   3 71168.5 831.254  11
   0  -1  -3 73406.5 848.864  11
   0  -1  -4 114267. 1115.54  11
   0  -1  -4 116575. 1555.01  12
   0   1  -5 22433.6 867.558  12
   0  -1  -5 18819.1 687.591  12
   0   1  -6 3442.52 372.207  12
   0  -1  -6 3036.14 306.158  12
   0   1  -7 29677.4 1183.20  12
   0  -1  -7 26782.6 992.137  12
   0   1  -8 13870.5 875.498  12
   0  -1  -8 13231.0 752.461  12
   0  -1  -9 5974.79 547.109  12
   0   1  -9 5203.50 575.242  12
   0   1 -10 517.470 201.508  12
   0  -1  10 576.663 86.9967   7
   0   1 -10 531.571 96.6359   5
   0  -1 -10 527.757 170.338  12
   0  -1 -10 589.016 94.0420   5
   0  -1  11 153.326 46.9329   7
   0  -1 -11 241.401 64.1426   5
   0   1 -11 213.444 71.7685   5
   0   1 -11 364.110 146.739  12
   0  -1  11 324.459 207.007   1
   0   1 -12 24132.6 696.136   5
   0  -1 -12 25591.8 656.054   5
   0  -1  12 25557.9 594.190   7
   0  -1 -13 6203.19 325.760   5
   0   1 -13 6074.88 359.781   5
   0  -1 -14 6688.51 323.082   5
   0   1 -14 6808.01 356.294   5
   0   1 -15 3986.56 238.758   5
   0  -1 -15 4184.10 217.809   5
   0   1 -16 2315.99 144.279   5
   0  -1 -16 2404.50 130.510   5
   0  -2   0 172757. 1789.33  11
   0  -2   0 158014. 1407.49   1
   0  -2  -1 198.140 59.3638   1
   0  -2   1 200.650 67.9537  11
   0  -2  -1 192.645 62.7932  11
   0  -2   2 94033.9 1338.61  11
   0  -2   2 93346.3 986.078   1
   0  -2  -3 1910.03 203.656  11
   0  -2   3 1442.63 137.621   1
   0  -2   3 1646.35 190.797  11
   0  -2   4 128.149 50.9942   1
   0  -2   4 258.633 71.4959  11
   0  -2  -4 226.140 63.7724  11
   0  -2  -5 12305.9 540.009  11
   0   2  -5 11057.4 698.052  12
   0  -2   5 11043.7 496.247  11
   0   2  -6 108.045 96.5476  12
   0  -2   6-80.7846 53.4252   1
   0   2  -7 59400.4 1865.70  12
   0  -2   7 52074.0 1441.77   1
   0  -2   8 11193.0 736.774   1
   0   2  -8 13005.8 929.373  12
   0   2  -9 33937.6 757.586   5
   0  -2   9 37254.6 1471.32   1
   0   2  -9 37791.3 1684.85  12
   0   2 -10 27810.8 1515.80  12
   0  -2  10 34128.1 692.389   7
   0   2 -10 26983.2 717.089   5
   0  -2 -10 33245.6 656.383   5
   0  -2 -11 217.857 52.0359   5
   0  -2  11 260.047 63.0327   7
   0   2 -11 256.295 68.2309   5
   0  -2 -12 8912.64 358.334   5
   0  -2  12 8827.26 369.440   7
   0   2 -13 1390.85 162.800   5
   0  -2 -13 1639.44 148.852   5
   0   2 -14 232.012 65.7268   5
   0  -2 -14 338.231 60.3602   5
   0   2 -15 17610.2 431.958   5
   0  -2  16 423.713 54.8252  10
   0  -3   0 81.3495 65.2006  11
   0  -3  -1 19329.9 816.946  11
   0  -3   1 18422.1 804.719  11
   0  -3   2 11477.1 637.114  11
   0  -3  -2 12592.3 658.255  11
   0  -3   3 48365.1 1314.64  11
   0  -3  -3 52599.9 1344.46  11
   0  -3   4 272.865 127.231  11
   0  -3  -4 241.033 101.483  11
   0  -3  -5 136276. 2303.43  11
   0  -3   5 121264. 2162.48  11
   0   3  -6 27993.4 1346.11  12
   0   3  -7 12671.0 971.176  12
   0  -3   7 13675.4 407.276   7
   0  -3   8 12998.2 421.382   7
   0   3  -8 11724.1 977.653  12
   0  -3   9 126.012 48.6843   7
   0  -3  -9 213.637 57.5302   8
   0  -3  10 1179.59 140.737   7
   0  -3  11 403.847 93.2801   7
   0   3 -11 487.645 93.8167   5
   0   3 -12 266.968 63.3426   5
   0  -3  13 2401.67 195.670  10
   0   3 -13 1769.26 148.184   5
   0  -3  14 973.737 111.795  10
   0  -3  15 15436.5 348.034  10
   0  -4   0 31329.2 1309.55  11
   0  -4   1 20620.3 1081.38  11
   0  -4  -1 21969.5 1105.91  11
   0  -4   2 1088.24 249.318  11
   0  -4  -2 1062.71 240.648  11
   0  -4   3 6885.33 636.366  11
   0  -4  -3 7746.67 656.486  11
   0  -4   4 24841.5 1189.73  11
   0  -4  -4 25763.0 1184.95  11
   0  -4  -4 25944.4 608.016   8
   0  -4  -5 12478.0 437.338   8
   0  -4   5 13047.9 488.125  10
   0  -4  -6 328.174 75.6516   8
   0   4  -6 228.887 159.623  12
   0  -4   6 298.354 81.9072  10
   0  -4   7 38331.0 896.431  10
   0  -4  -7 33620.7 690.670   8
   0  -4   8 866.144 116.056   7
   0  -4   8 1129.11 162.057  10
   0  -4  -8 1019.84 121.075   8
   0  -4  -9 11151.2 370.974   8
   0  -4   9 12260.7 516.531  10
   0  -4  10 12151.5 501.440  10
   0  -4 -10 9575.84 309.663   8
   0  -4  11 1878.77 192.890  10
   0  -4  12 1645.46 158.742  10
   0  -4  13 5522.38 263.782   6
   0  -4  13 6125.94 254.494  10
   0  -4  14 246.261 41.7664   6
   0  -5   0-29.7328 67.3073  11
   0  -5  -1 3666.55 513.951  11
   0  -5   1 4086.94 550.326  11
   0  -5   2 125.094 48.6498   6
   0  -5   2 336.066 155.794  11
   0  -5  -2 277.505 139.781  11
   0  -5  -3 451.884 89.0548   8
   0  -5   3 369.201 82.5615   6
   0  -5   4 16214.3 548.213   6
   0  -5  -4 14774.9 487.482   8
   0  -5  -5 35098.4 725.098   8
   0  -5   5 37393.0 845.295   6
   0  -5   6 10633.5 434.850  10
   0  -5   6 9926.22 438.758   6
   0  -5  -6 9309.85 362.223   8
   0  -5   7 23164.5 630.461  10
   0  -5   7 22245.9 647.577   6
   0  -5  -7 21472.6 527.099   8
   0  -5   8 2938.43 231.335   6
   0  -5  -8 2606.68 176.166   8
   0  -5   8 3005.14 221.175  10
   0  -5   9 1716.15 171.047   6
   0  -5  -9 1437.16 112.765   8
   0  -5   9 1840.42 164.903  10
   0  -5  10 82.2594 34.2722  10
   0  -5 -10 43.7794 20.1761   8
   0  -5  10 103.096 46.4643   6
   0  -5  11 1358.66 125.864   6
   0  -5  12 12268.8 302.282   6
   0  -6   0 7382.85 327.084   8
   0  -6  -1 11721.3 409.416   8
   0  -6  -2 21196.0 548.644   8
   0  -6  -3 4197.06 233.652   8
   0  -6  -4 7906.30 307.412   8
   0  -6   5 35944.7 671.350   6
   0  -6  -5 36660.2 633.068   8
   0  -6   6 5562.39 258.374   6
   0  -6  -6 5412.60 229.279   8
   0  -6  -7 2474.90 144.657   8
   0  -6   7 2915.23 177.815   6
   0  -6  -8 888.289 73.0839   8
   0  -6   8 1155.69 100.650   6
   0  -6  -9 28.0769 11.5663   8
   0  -7   0 19.8625 19.5890   8
   0  -7  -1 243.550 39.7358   8
   0  -7   1 329.043 45.2128   8
   0  -7   2 9193.13 216.827   8
   0  -7  -2 12509.8 288.223   8
   0  -7  -3 156.612 34.0679   8
   0  -7  -4 54.6155 20.2651   8
   0  -7  -5 399.321 40.7916   8
   1   0 -17 2826.23 126.617   5
   1   0 -16-3.56954 26.7320   5
   1   0 -15 22977.8 595.914   5
   1   0 -14 27.8726 37.6608   5
   1   0 -13 49198.4 984.106   5
  -1   0  12-11.3851 37.4119   1
   1   0 -12-12.5329 31.7384   5
   1   0 -11 6790.38 347.014   5
   1   0 -11 8261.09 762.030  12
   1   0 -10-16.9497 18.6590   5
   1   0 -10 149.465 113.170  12
   1   0  -9 4990.73 497.709  12
   1   0  -8-6.55397 33.4341  12
   1   0  -7 797.432 169.779  12
   1   0  -6 28.5930 51.0521  12
   1   0  -5 2134.54 229.795  12
   1   0  -4 10.3475 26.5884  12
   1   0  -3 376343. 2133.35  12
   1   0  -2 21.9135 16.7902  12
  -1   0   1 2442.80 109.884   1
  -1   0   0 12.2364 10.4791  12
  -1   0   0 5.23899 6.68401   1
  -1   0  -1 68242.4 823.694   1
  -1   0  -1 74404.8 869.014  12
  -1   0  -2 8.46951 26.6690  12
  -1   0  -3 30145.0 795.556  12
  -1   0  -4 30.2104 39.0182  12
  -1   0  -5 233723. 2753.56  12
  -1   0  -6-47.7205 52.8663  12
  -1   0  -7 46107.2 1476.98  12
  -1   0  -8 42.4513 45.4545  12
  -1   0  -9 329.771 184.106  12
   1   0  10 54.8228 38.9847   7
  -1   0 -10-18.0457 17.4634   5
  -1   0 -10-24.8457 103.222  12
   1   0  11 428.957 72.0727   7
  -1   0 -11 451.726 90.7332   5
   1   0  12 20.1408 26.1635   7
  -1   0 -12 23.0597 30.3183   5
  -1   0 -13 2821.40 224.505   5
  -1   0 -14 51.2797 31.3038   5
  -1   0 -15 12609.2 390.311   5
  -1   0 -16 0.49644 12.7265   5
   1   1 -16 115.114 38.2386   5
   1  -1 -16 57.2138 24.4765   5
   1   1 -15 27506.9 661.720   5
   1  -1 -15 26888.7 587.582   5
   1   1 -14 6776.69 361.035   5
   1  -1 -14 6487.26 326.824   5
   1  -1 -13 19915.0 597.466   5
   1   1 -13 19634.5 654.069   5
   1  -1 -12 10003.3 413.219   5
   1   1 -12 9347.50 438.431   5
   1   1 -11 3556.37 260.298   5
  -1  -1  11 3662.83 240.935   7
   1  -1 -11 3697.09 240.686   5
   1   1 -11 3475.19 497.326  12
  -1  -1  11 3921.70 571.004   1
  -1  -1  10 4757.80 583.751   1
  -1  -1  10 4735.15 242.170   7
   1  -1 -10 4680.34 255.829   5
   1   1 -10 4223.01 269.668   5
   1   1 -10 5252.87 582.566  12
   1   1  -9 53167.3 1771.03  12
   1  -1  -9 57968.4 1580.61  12
   1   1  -8 17052.3 927.605  12
   1  -1  -8 16621.9 767.013  12
   1   1  -7 19322.4 910.940  12
   1  -1  -7 17694.7 728.757  12
   1   1  -6 35174.4 1132.43  12
   1  -1  -6 33339.5 920.758  12
   1  -1  -5 34380.3 828.077  12
   1   1  -5 35441.4 1012.30  12
   1  -1  -4 147102. 1516.55  12
  -1  -1   4 152949. 1724.34   1
  -1  -1   3 115383. 1274.81   1
   1  -1  -3 117966. 1192.79  12
  -1  -1   2 32559.4 587.957   1
   1  -1  -2 32153.5 647.771  11
   1  -1  -1 15146.1 427.692  11
  -1  -1   1 15930.6 361.267   1
  -1  -1   0 124659. 1098.55   1
  -1  -1  -1 197953. 1701.50   1
   1  -1   1 171669. 1457.63  11
  -1   1  -2 25534.8 676.740  12
  -1  -1  -2 24964.6 699.160  12
  -1  -1  -2 26695.5 734.289   1
  -1   1  -3 310762. 2741.29  12
  -1  -1  -3 291988. 2585.01  12
  -1   1  -4 16719.0 722.849  12
  -1  -1  -4 15364.2 643.046  12
  -1  -1  -5 17883.8 399.310  11
  -1  -1  -5 19206.5 781.027  12
  -1   1  -6 58027.3 1609.53  12
  -1  -1  -6 51440.9 1385.94  12
  -1  -1  -7 738.266 174.950  12
  -1   1  -7 736.299 195.579  12
  -1   1  -8 5427.28 576.423  12
  -1  -1  -8 5818.66 536.567  12
  -1  -1  -9 125689. 1376.78   5
  -1   1  -9 114006. 1396.64   5
  -1   1  -9 137380. 3076.17  12
   1  -1   9 116917. 1194.06   7
  -1  -1  -9 146050. 2907.18  12
  -1  -1 -10 1780.69 173.818   5
  -1  -1 -10 1908.96 363.222  12
   1  -1  10 1586.20 146.426   7
  -1   1 -10 1469.62 169.019   5
  -1   1 -10 1375.83 320.728  12
   1  -1  11 151883. 3619.48   1
  -1   1 -11 160747. 1749.69   5
  -1  -1 -11 168361. 1649.73   5
   1  -1  11 159453. 1436.15   7
  -1   1 -12 811.228 128.571   5
  -1  -1 -12 820.953 116.027   5
   1  -1  12 859.051 104.602   7
  -1  -1 -13 636.184 104.800   5
  -1   1 -13 651.478 112.936   5
  -1  -1 -14 107.115 38.9142   5
  -1   1 -14 169.117 61.1560   5
  -1   1 -15 1815.50 150.427   5
  -1  -1 -15 1930.77 138.784   5
  -1   1 -16 37.5426 17.8688   5
   1  -1  16 9.14870 14.8719  10
  -1  -2  16 539.219 67.6960  10
   1   2 -16 552.961 64.2896   5
   1   2 -15 2376.07 174.058   5
   1   2 -14 4441.48 274.820   5
   1  -2 -14 4949.81 236.767   5
   1  -2 -13 27448.9 615.126   5
   1   2 -13 25911.0 722.353   5
   1   2 -12 3617.90 277.459   5
   1  -2 -12 3882.43 241.511   5
   1  -2 -11 21043.5 552.049   5
  -1  -2  11 23109.4 597.473   7
   1   2 -10 129327. 3218.35  12
  -1  -2  10 140615. 3081.04   1
   1   2 -10 124018. 1555.61   5
   1  -2 -10 136273. 1226.34   8
   1   2  -9 4086.27 536.259  12
  -1  -2   9 4705.18 241.782   7
  -1  -2   9 4149.70 492.626   1
   1   2  -8 6016.20 616.837  12
  -1  -2   8 5329.64 508.317   1
  -1  -2   7 850.632 188.828   1
   1   2  -7 1754.94 307.418  12
  -1  -2   6 61609.9 1138.06  11
   1   2  -6 63653.0 1710.49  12
  -1  -2   5 13034.1 516.528  11
  -1  -2   5 12740.0 578.866   1
   1  -2  -4 10473.2 502.793  11
  -1  -2   4 8229.13 410.248   1
   1  -2  -3 57559.6 1165.07  11
  -1  -2   3 40757.7 749.013   1
  -1  -2   2 80793.6 1079.26   1
   1  -2  -2 89220.1 1416.72  11
   1  -2  -1 2800.02 247.469  11
  -1  -2   1 2214.17 178.907   1
  -1  -2   0 49924.6 916.673   1
   1  -2   0 49343.5 1044.86  11
   1  -2   1 23.5993 10.0800   1
  -1  -2  -1 79.0929 53.4410   1
   1  -2   1 0.56754 36.6210  11
   1  -2   2 6246.79 376.761  11
  -1  -2  -2 6180.68 417.257   1
   1  -2   3 29979.4 839.586  11
  -1   2  -3 31818.1 1021.50  12
   1  -2   4 11875.6 464.686   1
  -1  -2  -4 12017.1 483.112  11
   1  -2   5 2101.23 233.168   1
  -1   2  -5 2545.49 349.042  12
  -1  -2  -5 2412.64 225.763  11
  -1   2  -6 100199. 2359.69  12
   1  -2   6 87098.8 1690.66   1
   1  -2   7 32109.6 1141.11   1
  -1   2  -7 34588.4 1468.20  12
  -1   2  -8 6637.05 690.191  12
   1  -2   9 2182.18 172.017   7
  -1  -2  -9 2245.99 180.002   5
  -1   2  -9 1802.26 376.911  12
  -1   2  -9 1613.21 166.298   5
   1  -2  10 41040.0 763.414   7
  -1  -2 -10 39795.5 739.196   5
  -1   2 -11 1293.88 160.919   5
   1  -2  11 1438.09 146.407   7
  -1  -2 -11 1270.53 133.334   5
   1  -2  12 3326.54 220.946   7
  -1   2 -12 3092.29 250.249   5
  -1  -2 -12 3562.10 222.044   5
  -1   2 -13 1838.71 178.904   5
  -1  -2 -13 2183.78 163.205   5
  -1   2 -14 35556.2 700.000   5
  -1  -2 -14 41365.2 610.307   5
   1  -2  15 337.816 57.2413  10
  -1   2 -15 313.903 51.5790   5
  -1  -3  15 19660.7 422.721  10
  -1  -3  14 12066.8 394.660  10
   1   3 -14 8648.08 298.162   5
   1   3 -13 4611.49 255.031   5
   1   3 -12 916.721 128.109   5
   1   3 -11 1233.44 149.647   5
   1  -3 -11 1498.15 124.385   8
  -1  -3  10 31337.1 743.477   7
   1  -3 -10 32099.0 629.887   8
  -1  -3   9 18829.9 563.713   7
   1   3  -9 17785.5 1245.39  12
  -1  -3   8 27660.4 603.743   7
   1  -3  -8 30034.2 634.529   8
   1   3  -7 108.101 88.3308  12
   1   3  -6 44942.5 1710.33  12
  -1  -3   6 53744.8 1447.29  11
  -1  -3   5 3519.52 363.524  11
  -1  -3   4 43596.0 1267.96  11
   1  -3  -4 48970.6 1370.74  11
  -1  -3   3 16057.0 565.910   1
  -1  -3   3 19114.9 792.409  11
  -1  -3   2 5876.09 434.520  11
  -1  -3   2 5117.59 317.925   1
   1  -3  -1 2380.08 297.628  11
  -1  -3   1 1858.88 203.394   1
  -1  -3   1 1897.22 254.556  11
   1  -3   0 9257.91 597.455  11
  -1  -3   0 8772.68 529.939  11
  -1  -3   0 7924.31 458.204   1
  -1  -3  -1 62466.3 1390.08  11
   1  -3   1 64791.0 1556.14  11
  -1  -3  -2 137781. 2073.31  11
   1  -3   2 142815. 2342.13  11
   1  -3   3 16016.1 783.852  11
  -1  -3  -3 17010.2 759.036  11
  -1   3  -4 2711.26 378.490  12
  -1  -3  -4 2823.64 312.763  11
  -1   3  -5 219.925 132.460  12
  -1  -3  -5 126.748 77.3972  11
  -1   3  -6 28943.3 1419.15  12
   1  -3   7 28008.5 608.926   7
  -1  -3  -7 27189.7 578.893   8
   1  -3   8 3671.86 234.397   7
  -1   3  -8 2878.69 504.934  12
   1  -3   9 393.828 79.5058   7
   1  -3  10 277.031 69.7342   7
   1  -3  11 400.239 81.0831   7
   1  -3  12 608.929 109.470  10
   1  -3  13 8543.35 362.827  10
   1  -3  14 22.8955 24.6613  10
  -1  -4  14 26720.5 480.657   6
  -1  -4  13 272.200 52.2567  10
  -1  -4  12 14523.5 475.627  10
   1  -4 -12 9162.00 232.323   8
  -1  -4  11 4695.75 298.473  10
   1  -4 -11 3111.67 164.412   8
   1  -4 -10 7410.44 289.201   8
  -1  -4  10 10008.2 446.835  10
  -1  -4   9 2671.12 235.722  10
   1  -4  -9 2072.69 167.385   8
  -1  -4   8 147.287 61.5606  10
   1  -4  -8 100.555 46.4972   8
   1  -4  -7 2164.31 184.575   8
  -1  -4   7 2830.76 237.236  10
   1  -4  -6 18987.7 524.588   8
   1   4  -6 14623.6 1108.42  12
  -1  -4   5 12690.9 856.990  11
   1  -4  -5 13913.3 456.892   8
  -1  -4   4 26774.7 1243.30  11
   1  -4  -4 27153.7 628.756   8
  -1  -4   3 788.766 211.411  11
   1  -4  -3 758.091 195.489  11
  -1  -4   2 8721.79 683.310  11
   1  -4  -2 8506.67 688.817  11
  -1  -4   1 19324.1 1004.48  11
   1  -4  -1 18946.2 1029.98  11
   1  -4   0 6278.45 593.899  11
  -1  -4   0 6421.98 577.902  11
   1  -4   1 9980.90 746.324  11
  -1  -4  -1 10128.1 723.325  11
  -1  -4  -2 11575.0 774.962  11
   1  -4   2 11089.9 789.646  11
   1  -4   3 15129.2 511.851   6
  -1  -4  -3 15220.9 898.229  11
   1  -4   3 13442.6 504.517   9
   1  -4   4 56610.2 1023.87   6
   1  -4   4 57617.6 1027.83  10
  -1  -4  -4 57556.2 1757.38  11
   1  -4   5 32474.1 809.129  10
   1  -4   5 29367.3 770.644   9
  -1  -4  -5 31205.3 680.438   8
  -1  -4  -5 31568.4 1295.41  11
   1  -4   6 16134.8 594.306  10
  -1  -4  -6 15097.9 461.691   8
   1  -4   7 21.3693 48.0771  10
   1  -4   7 12.3244 19.3288   7
  -1  -4  -7 18.1244 31.3337   8
   1  -4   8 9180.84 454.039  10
  -1  -4  -8 8805.18 332.940   8
  -1  -4  -9 15380.5 401.487   8
   1  -4   9 14773.1 472.585   7
   1  -4  10 1078.34 153.642  10
   1  -4  11 124.001 49.4358  10
   1  -4  12 19.8514 30.8480  10
   1  -4  12 35.2464 29.1417   6
   1  -4  13 192.785 46.0914   6
   1  -4  13 234.713 49.2289  10
  -1  -5  12 747.911 78.7894   6
   1  -5 -11 2504.99 110.398   8
  -1  -5  11 3858.29 212.809   6
   1  -5 -10 5964.74 211.932   8
  -1  -5  10 7615.82 329.835   6
  -1  -5   9 2732.57 214.312   6
   1  -5  -9 2350.23 153.756   8
  -1  -5   8 60832.0 1040.68   6
   1  -5  -8 55585.3 821.973   8
  -1  -5   7 3232.43 242.826   6
   1  -5  -7 3055.43 207.754   8
   1  -5  -6 14795.8 459.556   8
  -1  -5   6 16183.1 540.695   6
  -1  -5   5 2892.94 226.203   6
   1  -5  -5 2528.36 196.403   8
   1  -5  -4 1503.11 154.139   8
  -1  -5   3 10051.6 883.200  11
   1  -5  -3 10182.5 429.478  10
   1  -5  -3 10446.1 406.707   8
   1  -5  -2 38191.9 765.802   8
   1  -5  -2 36908.3 817.164  10
   1  -5  -1 1299.68 151.103  10
  -1  -5   1 1228.77 316.737  11
   1  -5   0 5163.11 303.244  10
   1  -5   0 5264.45 299.677   6
  -1  -5   0 5581.59 655.840  11
  -1  -5  -1 444.569 185.612  11
   1  -5   1 451.423 88.4394  10
   1  -5   1 533.328 99.7414   6
   1  -5   2 6558.50 352.438  10
   1  -5   2 6629.08 353.823   6
  -1  -5  -2 6610.16 689.035  11
   1  -5   3 387.069 94.9540  10
   1  -5   3 316.309 80.3686   6
   1  -5   4 10122.0 447.207   6
  -1  -5  -4 9653.43 394.043   8
   1  -5   4 10506.4 455.228  10
   1  -5   5 12716.5 507.161   6
   1  -5   5 13145.9 503.294  10
  -1  -5  -5 12629.5 427.936   8
  -1  -5  -6 6994.82 303.398   8
   1  -5   6 7270.01 372.684  10
   1  -5   6 7438.29 385.776   6
   1  -5   7 964.002 138.955   6
   1  -5   7 920.894 132.144  10
  -1  -5  -7 797.406 102.847   8
   1  -5   8 27962.2 711.660   6
   1  -5   8 28007.5 687.198  10
  -1  -5  -8 25807.9 511.524   8
   1  -5   9 6711.20 330.458   6
   1  -5   9 7176.67 324.596  10
   1  -5  10 215.039 58.0852   6
   1  -5  10 194.818 49.4839  10
   1  -5  11 7670.46 280.989   6
   1  -5  11 7111.82 237.220  10
   1  -6  -9 150.854 28.3506   8
   1  -6  -8 313.689 49.8881   8
   1  -6  -7 5195.02 216.871   8
   1  -6  -6 23.8908 26.3409   8
   1  -6  -5 15145.1 412.607   8
   1  -6  -4 2053.12 157.567   8
   1  -6  -3 10243.1 361.136   8
   1  -6  -2 1381.02 134.670   8
   1  -6  -1 693.278 100.096   8
   1  -6   0 5655.60 279.321   8
  -1  -6  -1 77.0663 28.7846   8
   1  -6   1 134.846 43.8247   8
   1  -6   2 674.532 89.6648   8
  -1  -6  -2 928.280 115.027   8
  -1  -6  -3 164.184 52.1133   8
   1  -6   3 25.3093 22.9183   8
  -1  -6  -4 288.659 52.4964   8
   1  -6   4 246.378 61.4365   6
   1  -6   5 1243.79 130.472   6
  -1  -6  -5 1190.32 109.204   8
   1  -6   6 14.5033 30.9894   6
  -1  -6  -6 53.8344 31.4815   8
   1  -6   7 5280.62 241.322   6
  -1  -6  -7 4413.47 175.023   8
  -1  -6  -8 129.681 26.5092   8
   1  -6   8 184.524 43.4130   6
   1  -7  -5 976.678 65.7771   8
   1  -7  -4 601.177 58.4771   8
  -1  -7   3 1286.58 81.0425   8
   1  -7  -3 1724.14 100.297   8
  -1  -7   2 2232.50 116.768   8
   1  -7  -2 2289.80 120.585   8
  -1  -7   1 5601.15 195.524   8
   1  -7  -1 5723.55 189.070   8
   1  -7   0 1796.42 101.513   8
  -1  -7   0 1974.29 117.694   8
   1  -7   1 14469.5 263.160   8
  -1  -7  -1 19738.9 366.892   8
  -1  -7  -2 215.632 38.4267   8
  -1  -7  -3 71.4845 23.3672   8
  -1  -7  -4 3200.48 124.211   8
   2   0 -17 12.7806 22.5530   5
   2   0 -16 34610.2 641.791   5
   2   0 -15 20.4183 33.0850   5
   2   0 -14 30351.0 755.507   5
   2   0 -13 154.299 59.1113   5
   2   0 -12 692.612 116.990   5
  -2   0  12 541.743 209.755   1
  -2   0  11-66.7037 124.655   1
   2   0 -11 21.5600 33.9472   5
   2   0 -10 43166.9 1496.47  12
   2   0  -9-12.8911 49.9859  12
   2   0  -8 161087. 2464.49  12
   2   0  -7 76.3330 42.4989  12
   2   0  -6 15120.9 616.960  12
   2   0  -5-4.83421 22.5916  12
   2   0  -4 366987. 2278.97  12
  -2   0   3 25.8674 42.4797   1
  -2   0   2 35803.1 602.482   1
  -2   0   1 21.9261 14.1785   1
  -2   0   0 115075. 1014.72   1
  -2   0   0 119874. 1088.01  12
  -2   0  -1 22.7732 39.0533  12
  -2   0  -1 24.9922 29.0190   1
  -2   0  -2 999999. 4584.93  12
  -2   0  -3-0.11429 45.4403  12
  -2   0  -4 228339. 2738.03  12
  -2   0  -5-12.8739 40.0481  12
  -2   0  -6 12741.4 778.924  12
  -2   0  -7-12.4631 80.8261  12
  -2   0  -8 142444. 3385.12  12
   2   0   9-44.0578 23.8974   7
  -2   0  -9 58.1341 47.0045   5
  -2   0 -10 26181.9 701.278   5
  -2   0 -10 26402.3 1381.36  12
   2   0  11 42.9541 22.6282   7
  -2   0 -11 35.0461 28.4491   5
   2   0  12 10416.1 335.405   7
  -2   0 -12 10417.8 432.727   5
  -2   0 -13 0.62532 27.1649   5
  -2   0 -14 17877.8 496.610   5
  -2   0 -15 5.51684 23.2799   5
   2   1 -17 877.230 79.8211   5
   2   1 -16 77.4276 33.2612   5
   2  -1 -16 116.971 38.2367   5
   2  -1 -16 95.7270 34.4923   3
   2  -1 -15 1434.41 139.887   5
   2   1 -15 1686.14 168.967   5
   2   1 -14 612.271 112.326   5
   2  -1 -14 391.260 85.6725   5
   2  -1 -13 7685.41 371.638   5
   2   1 -13 7374.76 399.430   5
   2  -1 -12 25718.0 678.343   5
  -2  -1  12 24697.5 1435.27   1
   2   1 -12 24276.8 723.237   5
   2   1 -11 8436.11 744.996  12
  -2  -1  11 9156.53 839.248   1
   2   1 -11 8812.50 427.113   5
   2  -1 -11 9348.10 389.174   5
  -2  -1  10 6406.88 662.534   1
   2   1 -10 6402.34 626.417  12
  -2  -1  10 6645.16 294.701   7
   2   1 -10 5619.74 311.625   5
   2   1  -9 2411.16 360.262  12
  -2  -1   9 2052.90 347.820   1
   2  -1  -8 42973.8 1121.33  12
  -2  -1   8 40286.7 1395.51   1
   2   1  -8 43807.7 1416.96  12
   2   1  -7 24374.4 980.793  12
   2  -1  -7 22501.8 737.348  12
  -2  -1   6 49.4679 54.4246   1
   2   1  -6 47.3193 41.8913  12
   2  -1  -6 98.4839 47.0594  12
  -2  -1   5 17567.6 665.210   1
   2  -1  -5 16680.8 485.030  12
  -2  -1   4 267838. 2323.02   1
   2  -1  -4 264724. 1631.93  12
  -2  -1   3 25232.4 637.308   1
  -2   1   2 74308.3 590.010  12
  -2  -1   2 122140. 1097.93   1
  -2  -1   1 12365.2 391.225   1
  -2   1   1 11376.8 214.150   1
  -2   1   1 11981.2 279.345  12
  -2  -1   0 7121.71 318.187   1
  -2   1   0 7063.05 288.303  12
  -2   1  -1 633748. 3291.58  12
  -2  -1  -2 102519. 1631.73  12
  -2  -1  -2 105530. 1671.96   1
  -2   1  -2 105101. 1547.41  12
  -2   1  -3 35924.2 1022.34  12
  -2  -1  -3 31790.1 964.111  12
  -2   1  -4 12179.8 670.435  12
  -2  -1  -4 11394.7 620.809  12
  -2   1  -5 19137.3 912.175  12
  -2  -1  -5 16972.4 820.325  12
  -2   1  -6 33645.8 1295.95  12
  -2  -1  -6 30852.0 1185.20  12
  -2   1  -7 8510.82 697.325  12
  -2  -1  -7 7958.18 645.556  12
  -2  -1  -8 101724. 2450.06  12
  -2   1  -8 104043. 2631.82  12
  -2  -1  -9 11067.9 864.405  12
  -2   1  -9 10010.5 860.804  12
  -2  -1  -9 9737.79 401.436   5
   2  -1   9 8469.71 328.218   7
  -2   1  -9 9054.55 409.554   5
  -2  -1 -10 581.296 100.826   5
   2  -1  10 420.086 75.7709   7
  -2   1 -10 540.993 105.349   5
  -2   1 -10 423.214 209.059  12
  -2  -1 -10 763.421 230.630  12
  -2  -1 -11 13666.4 486.493   5
   2  -1  11 11998.0 392.924   7
  -2   1 -11 12878.3 487.827   5
  -2   1 -12 4672.17 296.699   5
   2  -1  12 4066.16 225.098   7
  -2  -1 -12 4409.54 262.725   5
  -2   1 -13 4752.66 285.804   5
  -2  -1 -13 4514.91 257.498   5
  -2   1 -14 12665.8 427.908   5
  -2  -1 -14 12506.3 379.923   5
  -2  -1 -15 83.3977 29.8767   5
  -2   1 -15 61.5544 25.4767   5
   2   2 -16 7061.98 255.262   5
   2   2 -15 4518.90 250.289   5
   2   2 -14 11991.4 463.823   5
   2   2 -13 5832.91 351.024   5
   2  -2 -13 6068.13 289.958   5
   2  -2 -12 6376.28 256.994   8
   2   2 -12 6349.11 369.735   5
   2  -2 -11 3946.36 209.639   8
  -2  -2  11 3861.66 537.537   1
   2   2 -11 3891.65 286.263   5
   2  -2 -10 16713.5 444.357   8
   2   2 -10 16782.0 1126.36  12
   2   2 -10 14982.7 542.946   5
  -2  -2  10 16924.3 1075.93   1
  -2  -2   9 45023.8 1625.07   1
   2   2  -9 45681.1 1759.02  12
  -2  -2   8 4781.86 488.058   1
   2   2  -8 5347.45 566.032  12
  -2  -2   7 94788.7 1987.47   1
   2   2  -7 104507. 2283.41  12
  -2  -2   6 64373.6 1472.67   1
  -2  -2   5 20876.4 760.398   1
  -2  -2   4 60579.2 1051.29   1
  -2  -2   3 1697.71 181.211   1
  -2  -2   2 2359.77 207.427   1
   2  -2  -1 158192. 1988.06  11
  -2  -2   1 142065. 1632.83   1
   2  -2   0 2144.43 235.331  11
  -2  -2   0 1992.80 209.326   1
  -2  -2  -1 77846.4 1472.55   1
  -2   2  -1 68617.1 1278.97  12
  -2  -2  -2 213.203 108.446   1
  -2   2  -2 102.772 60.7391  12
  -2   2  -3 92523.0 1839.17  12
  -2   2  -4 1058.39 218.063  12
  -2   2  -5 105683. 2315.20  12
  -2  -2  -5 92271.4 1376.05  11
  -2   2  -6 19691.1 1081.95  12
  -2   2  -7 328.050 149.878  12
  -2   2  -8 6084.47 683.736  12
   2  -2   8 6207.01 288.908   7
  -2  -2  -8 6045.82 300.202   5
  -2   2  -8 5383.61 295.359   5
   2  -2   9 4738.85 265.558   7
  -2   2  -9 3952.12 261.745   5
  -2   2  -9 4437.64 594.715  12
  -2  -2  -9 4876.54 265.702   5
   2  -2  10 14145.6 458.794   7
  -2  -2 -10 14979.3 475.842   5
  -2  -2 -11 33679.0 676.508   5
   2  -2  11 34383.4 696.141   7
  -2   2 -11 33221.4 786.920   5
  -2   2 -12 7985.85 381.464   5
   2  -2  12 7948.37 319.499   7
  -2  -2 -12 8407.52 324.535   5
  -2   2 -13 11307.0 415.150   5
  -2  -2 -13 12385.2 364.713   5
  -2   2 -14 4503.89 221.460   5
   2  -2  14 4684.07 238.968  10
   2  -2  15 6051.28 218.743  10
  -2  -3  15 825.175 87.3701  10
   2   3 -14 19489.0 485.463   5
  -2  -3  14 25233.2 563.296  10
   2  -3 -13 3432.67 158.790   8
   2   3 -13 3599.90 234.468   5
   2   3 -12 3362.04 243.713   5
   2  -3 -12 2877.01 166.690   8
   2  -3 -11 2294.75 163.119   8
   2   3 -11 2161.36 203.436   5
   2  -3 -10 7970.33 323.785   8
   2   3 -10 7716.70 377.373   5
   2   3  -9 5281.68 671.956  12
   2  -3  -9 6272.29 293.406   8
   2  -3  -8 8709.63 346.101   8
  -2  -3   8 8217.44 336.607   7
   2   3  -7 14586.1 1011.05  12
  -2  -3   6 3375.27 361.820  11
  -2  -3   6 3072.61 332.370   1
  -2  -3   5 10334.8 604.951  11
  -2  -3   5 9667.82 552.288   1
  -2  -3   4 24709.2 814.761   1
  -2  -3   3 18915.9 693.323   1
  -2  -3   2 67421.1 1339.79   1
   2  -3  -2 84453.8 1804.85  11
  -2  -3   1 47700.3 1160.94   1
   2  -3  -1 54363.1 1475.94  11
  -2  -3   0 6328.13 463.674   1
   2  -3   0 7335.47 531.334  11
  -2  -3  -1 106431. 2006.94   1
  -2   3  -2 17513.7 869.047  12
  -2   3  -3 10213.0 693.352  12
  -2  -3  -3 11493.1 619.076  11
  -2  -3  -4 13740.5 687.714  11
  -2   3  -4 12533.4 834.669  12
  -2  -3  -5 46681.1 1288.92  11
  -2   3  -5 39555.5 1591.62  12
   2  -3   6 20763.1 518.019   7
  -2   3  -6 17946.9 1139.24  12
  -2   3  -7 541.556 214.372  12
   2  -3   7 708.434 101.751   7
   2  -3   8 2187.08 184.918   7
   2  -3   9 1107.11 135.540   7
   2  -3  10-6.46431 36.2017   7
   2  -3  11 2572.07 193.610   7
   2  -3  11 2256.02 209.589  10
   2  -3  12 10541.0 368.145   7
   2  -3  12 9789.86 411.778  10
   2  -3  13 7568.31 327.952  10
   2  -3  14 388.578 63.4337  10
   2  -3  14 373.765 54.1120   6
  -2  -4  14 792.994 88.1055   6
   2  -4 -13 8538.45 199.359   8
   2  -4 -12 2942.53 144.897   8
   2  -4 -11 321.507 54.7618   8
   2  -4 -10 2338.74 168.879   8
   2  -4  -9 15095.7 455.729   8
   2  -4  -8 708.446 104.134   8
   2  -4  -7 11995.2 421.750   8
   2   4  -7 9646.34 927.405  12
  -2  -4   6 9360.44 749.792  11
   2  -4  -6 9607.16 374.857   8
  -2  -4   5 11631.6 813.604  11
   2  -4  -5 13190.2 439.931   8
   2  -4  -5 11455.3 472.307  10
  -2  -4   4 1894.63 319.816  11
   2  -4  -4 1788.30 182.541  10
   2  -4  -4 2277.78 185.920   8
  -2  -4   3 6027.07 584.105  11
  -2  -4   2 9100.91 702.274  11
  -2  -4   1 8448.49 662.636  11
  -2  -4   0 35305.0 1336.05  11
  -2   4  -1 56349.6 1744.83  12
  -2  -4  -1 65095.0 1847.87  11
  -2   4  -2 4002.65 482.229  12
   2  -4   2 4986.39 288.555   6
  -2  -4  -2 5361.79 534.890  11
   2  -4   2 5061.83 314.078   9
   2  -4   3 89461.8 1284.41  10
  -2  -4  -3 93238.7 2198.01  11
   2  -4   3 91300.8 1290.49   6
   2  -4   3 88540.8 1343.29   9
   2  -4   4 13192.3 513.338  10
   2  -4   4 13531.5 519.736   6
  -2  -4  -4 13648.7 846.316  11
   2  -4   4 12878.1 524.953   9
  -2  -4  -5 8340.22 353.158   8
   2  -4   5 7899.03 414.879   9
   2  -4   5 8259.32 420.241  10
  -2  -4  -6 897.066 110.871   8
   2  -4   6 991.008 146.559   9
   2  -4   6 808.698 104.286   7
   2  -4   6 1207.41 169.337  10
  -2  -4  -7 201.707 55.0087   8
   2  -4   7 217.003 72.8893  10
   2  -4   7 146.426 44.3798   7
   2  -4   7 150.487 50.6072   9
   2  -4   8 44.7764 29.4042   7
   2  -4   8 81.2384 44.7493  10
   2  -4   9 944.575 115.607   7
   2  -4   9 1252.50 170.120  10
   2  -4  10 537.815 91.4301   7
   2  -4  10 667.925 121.253  10
   2  -4  11 5732.01 310.990   6
   2  -4  11 6167.75 320.318  10
   2  -4  12 873.887 103.966  10
   2  -4  12 791.383 98.1785   6
   2  -4  13 10351.5 272.192   6
   2  -4  13 10635.0 269.920  10
   2  -5 -12 1541.50 73.4348   8
  -2  -5  12 2383.07 134.255   6
   2  -5 -11 151.877 29.6152   8
  -2  -5  11 320.505 62.1416   6
  -2  -5  10 347.187 68.7603   6
   2  -5 -10 289.370 53.7733   8
   2  -5  -9 35406.9 615.910   8
  -2  -5   9 42824.7 806.040   6
  -2  -5   8 8658.18 372.641   6
   2  -5  -8 7642.18 311.973   8
  -2  -5   7 1670.43 167.427   6
   2  -5  -7 1610.88 153.219   8
   2  -5  -6 29.6292 24.1200   8
   2  -5  -5 7589.63 333.884   8
   2  -5  -4 45751.9 960.006  10
   2  -5  -4 50478.4 867.599   8
   2  -5  -3 667.612 108.511   8
   2  -5  -3 615.743 107.716  10
  -2  -5   2 24323.0 1368.74  11
   2  -5  -2 23064.2 595.775   8
   2  -5  -1 18053.6 520.866   8
   2  -5  -1 17095.3 567.462  10
  -2  -5   0 1541.45 338.653  11
   2  -5   0 1501.61 169.177  10
   2  -5   0 1426.28 161.733   6
   2  -5   1 161.327 61.8256  10
   2  -5   1 157.566 56.7424   6
  -2  -5  -1-9.87493 45.6397  11
   2  -5   2 5.35928 27.1626   6
   2  -5   2-4.45914 32.1618  10
   2  -5   3 1100.61 152.043  10
   2  -5   3 975.436 141.566   6
   2  -5   4 1553.56 177.356   6
   2  -5   4 1684.12 188.687  10
  -2  -5  -4 1518.48 154.777   8
   2  -5   5 3474.44 268.159   6
  -2  -5  -5 3304.84 216.688   8
   2  -5   5 3442.26 263.826  10
  -2  -5  -6 1129.54 119.601   8
   2  -5   6 1174.09 150.683  10
   2  -5   6 1299.35 161.338   6
   2  -5   7 4491.92 287.391  10
   2  -5   7 4435.63 291.120   6
  -2  -5  -7 4094.37 207.811   8
   2  -5   8 4571.95 274.606  10
   2  -5   8 4386.58 278.920   6
   2  -5   9 4603.17 254.605  10
   2  -5   9 4197.08 253.727   6
   2  -5  10 421.087 71.8840   6
   2  -5  10 441.846 71.7003  10
   2  -5  11 3240.11 164.407   6
   2  -6 -10 21.6912 10.6258   8
   2  -6  -9 344.423 42.5732   8
   2  -6  -8 190.788 38.3457   8
   2  -6  -7 300.267 53.3462   8
   2  -6  -6 24436.9 496.454   8
   2  -6  -5 21542.1 495.192   8
   2  -6  -4 2979.38 186.188   8
   2  -6  -3 17058.8 452.415   8
   2  -6  -2 62.9175 22.0358   8
   2  -6  -1 533.376 83.8081   8
   2  -6  -1 578.094 94.7811  10
   2  -6   0 3535.66 204.951   8
   2  -6   0 4266.90 259.502  10
  -2  -6  -1 11782.9 409.138   8
   2  -6   1 10963.5 408.375  10
  -2  -6  -2 15.6060 29.7429   8
   2  -6   2 34.6766 19.4493  10
   2  -6   3 34147.2 722.164   6
   2  -6   3 33666.2 703.639  10
  -2  -6  -3 35830.3 659.220   8
   2  -6   4 2206.57 173.572  10
   2  -6   4 2413.46 188.316   6
  -2  -6  -4 2243.26 154.313   8
   2  -6   5 1017.33 112.893  10
   2  -6   5 995.780 116.017   6
  -2  -6  -5 890.540 94.8592   8
   2  -6   6 10336.4 356.403   6
   2  -6   6 9918.90 325.067  10
   2  -6   7 1517.33 125.998   6
   2  -6   7 1393.07 107.635  10
   2  -6   8 22.3552 16.5196   6
   2  -7  -5 642.326 51.6016   8
   2  -7  -4 140.948 27.2355   8
   2  -7  -3 173.764 30.6641   8
  -2  -7   3 222.118 38.9675   8
  -2  -7   2 19640.8 364.264   8
   2  -7  -2 18179.6 312.837   8
   2  -7  -1 42.4662 24.7895   8
  -2  -7   1 2.49703 15.5175   8
  -2  -7   0 1712.29 107.915   8
  -2  -7  -1 936.294 78.8389   8
  -2  -7  -2 8293.79 221.527   8
  -2  -7  -3 219.192 35.2312   8
   3   0 -17 63231.3 717.233   5
   3   0 -16 0.54042 20.4295   5
   3   0 -15 2977.03 222.511   5
   3   0 -15 2644.62 227.327   3
   3   0 -14 28.7819 43.5187   5
   3   0 -13 25748.3 722.754   5
   3   0 -12 75.6686 42.7351   8
   3   0 -12 5.99606 35.6333   5
   3   0 -11 19885.9 614.879   5
  -3   0  11 21953.0 1290.08   1
  -3   0  10 168.862 104.090   1
  -3   0   9 10857.4 786.370   1
   3   0  -9 11021.9 644.960  12
   3   0  -8-83.8044 57.1400  12
  -3   0   8 62.8907 56.1949   1
   3   0  -7 73046.2 1401.12  12
  -3   0   7 72500.2 1687.77   1
  -3   0   6 236.473 92.5048   1
   3   0  -6 46.1894 34.7771  12
  -3   0   5 60595.9 1242.27   1
   3   0  -5 61312.0 994.494  12
  -3   0   4 37.2856 35.0442   1
  -3   0   3 3285.94 229.514   1
  -3   0   2 9.37155 14.4411   1
  -3   0   1 215665. 1608.80   1
  -3   0   0 39.6824 38.7729  12
  -3   0   0 36.1437 26.6687   1
  -3   0  -1 240731. 2275.85   1
  -3   0  -1 258727. 2335.51  12
  -3   0  -2 12.3637 53.8916   1
  -3   0  -2 47.3081 37.6970  12
  -3   0  -3 170655. 2550.32  12
  -3   0  -4 129.976 91.7366  12
  -3   0  -5 108615. 2403.12  12
  -3   0  -6 93.0489 49.6523  12
  -3   0  -7 194018. 3599.45  12
  -3   0  -8 62.4069 87.7078  12
   3   0   9 68.8656 30.1187   7
  -3   0  -9 111.596 130.151  12
  -3   0  -9 60.6417 42.9637   5
  -3   0 -10 12.5371 21.3339   5
   3   0  10-12.6450 26.6128   7
   3   0  11 394.529 66.4051   7
  -3   0 -11 525.623 104.398   5
   3   0  12 43.6155 29.1371   7
  -3   0 -12 28.5843 20.2339   5
  -3   0 -13 4048.23 243.607   5
  -3   0 -14 1.73123 22.4050   5
  -3   0 -15 4243.58 175.108   5
   3   1 -17 1150.62 97.1816   5
   3  -1 -16 1937.77 137.507   5
   3  -1 -16 1672.71 156.554   3
   3   1 -16 2025.89 161.548   5
   3  -1 -15 8781.66 346.270   5
   3   1 -15 9198.62 396.886   5
   3   1 -14 24522.6 707.760   5
   3  -1 -14 23889.8 637.064   5
   3  -1 -13 28214.4 709.451   5
   3   1 -13 28539.1 786.676   5
  -3  -1  12 4495.26 611.114   1
   3  -1 -12 3875.36 211.750   8
   3   1 -12 4287.40 300.756   5
  -3   1  12 3730.93 552.254   1
   3  -1 -12 4531.41 285.293   5
   3  -1 -11 12.8584 19.6638   5
   3  -1 -11 35.5247 35.9520   8
  -3  -1  11 12.3016 100.894   1
   3   1 -11 1.37828 34.9036   5
  -3   1  11 8.62062 65.2400   1
   3   1 -10 8941.96 402.537   5
  -3  -1  10 9441.43 792.401   1
   3   1 -10 9677.35 740.524  12
  -3  -1   9 6331.87 602.291   1
   3   1  -9 6304.65 557.569  12
   3   1  -8 293.928 117.659  12
  -3  -1   8 331.382 127.459   1
  -3  -1   7 184818. 2703.25   1
   3   1  -7 190766. 2595.65  12
  -3  -1   6 17946.5 767.714   1
   3  -1  -6 16569.4 453.038  12
  -3  -1   5 310244. 2933.59   1
  -3  -1   4 20779.6 677.196   1
  -3  -1   3 36333.1 761.135   1
  -3   1   3 40252.7 742.176   1
  -3  -1   2 2424.01 204.326   1
  -3   1   2 2079.27 139.308   1
  -3  -1   1 286.930 68.5360   1
  -3   1   1 262.325 50.7563  12
  -3   1   1 223.838 40.2830   1
  -3   1   0 5842.89 304.661  12
  -3  -1   0 5486.48 328.923   1
  -3  -1  -1 637148. 3956.84   1
  -3   1  -1 638304. 3724.72  12
  -3   1  -2 384655. 3249.45  12
  -3  -1  -2 377091. 3597.75  12
  -3  -1  -2 386546. 3544.84   1
  -3  -1  -3 56694.7 1457.24  12
  -3   1  -3 60397.5 1430.68  12
  -3   1  -4 67.3873 70.6378  12
  -3  -1  -4 204.589 95.2837  12
  -3  -1  -5 263.171 115.858  12
  -3   1  -5 177.556 106.051  12
  -3  -1  -6 2003.77 336.815  12
  -3   1  -6 2228.36 353.223  12
  -3  -1  -7 24950.6 1244.91  12
  -3   1  -7 25770.0 1290.47  12
  -3   1  -8 3527.93 514.119  12
  -3   1  -8 2697.22 234.862   5
  -3  -1  -8 3159.89 472.130  12
   3  -1   8 2526.29 180.451   7
  -3  -1  -9 2118.85 403.003  12
  -3  -1  -9 1808.15 181.960   5
   3  -1   9 1481.24 143.981   7
  -3   1  -9 1425.64 177.781   5
  -3   1  -9 1766.06 412.524  12
  -3   1 -10 19063.9 615.077   5
  -3  -1 -10 18775.3 578.079   5
  -3  -1 -11 22864.3 628.947   5
  -3   1 -11 21639.1 629.508   5
  -3   1 -12 940.965 131.324   5
   3  -1  12 772.393 94.9990   7
  -3  -1 -12 937.190 118.405   5
  -3  -1 -13 5339.45 259.285   5
  -3   1 -13 5486.46 285.840   5
  -3  -1 -14 14411.1 373.864   5
  -3   1 -14 13484.3 398.051   5
  -3   1 -15 7678.61 216.346   5
   3   2 -16 1526.00 126.001   5
   3   2 -15 59.8907 31.4421   5
   3   2 -14 251.493 71.0464   5
   3  -2 -14 185.594 44.1194   8
   3   2 -13 6674.48 375.559   5
   3  -2 -13 6106.77 247.485   8
   3  -2 -12 1280.28 120.743   8
   3   2 -12 1171.19 160.593   5
   3   2 -11 3109.44 498.309  12
  -3  -2  11 2965.53 466.517   1
   3  -2 -11 3310.43 198.293   8
   3   2 -11 3376.24 269.451   5
  -3   2  11 3174.85 495.408   1
   3  -2 -10 29623.5 603.512   8
   3   2 -10 28857.9 1433.73  12
  -3  -2  10 29554.0 1397.68   1
   3   2 -10 27139.8 733.073   5
   3   2  -9 2689.70 420.436  12
  -3  -2   9 2735.26 400.840   1
  -3  -2   8 68687.1 1835.02   1
   3   2  -8 73269.9 2020.50  12
  -3  -2   7 21297.7 954.313   1
   3   2  -7 23659.7 1083.61  12
  -3  -2   6 20916.0 850.044   1
  -3  -2   5 15885.3 615.621   1
  -3  -2   4 10938.1 515.114   1
  -3  -2   3 13038.6 564.841   1
  -3   2   3 12028.9 380.044   1
  -3  -2   2 75774.8 1309.95   1
  -3   2   2 76390.7 937.184  12
  -3  -2   1 135.638 65.1694   1
  -3   2   1 235.747 75.6831  12
  -3  -2   0 13219.1 600.094   1
  -3   2   0 11465.5 500.218  12
  -3  -2  -1 6600.71 477.471   1
  -3   2  -1 5186.62 379.333  12
  -3   2  -2 4916.34 406.332  12
  -3  -2  -2 5580.30 491.299   1
  -3   2  -3 17970.9 852.221  12
  -3   2  -4 36366.1 1319.14  12
  -3   2  -5 25322.8 1190.30  12
  -3   2  -6 933.529 242.780  12
   3  -2   7 20301.6 534.610   7
  -3   2  -7 20532.3 1212.86  12
  -3   2  -8 512.520 95.6933   5
  -3   2  -8 374.266 200.204  12
   3  -2   8 553.685 92.2161   7
   3  -2   9 26228.6 624.620   7
  -3  -2  -9 26784.4 654.355   5
  -3   2 -10 38455.8 835.040   5
  -3  -2 -10 40879.5 788.514   5
   3  -2  10 40060.8 766.848   7
  -3   2 -11 2396.72 209.595   5
   3  -2  11 2444.20 182.292   7
  -3  -2 -11 2529.05 183.187   5
  -3   2 -12 11695.3 423.336   5
   3  -2  12 11134.7 362.728   7
  -3  -2 -12 11701.6 363.220   5
   3  -2  13 547.864 86.6855  10
  -3  -2 -13 812.067 86.3732   5
  -3   2 -13 662.360 93.3400   5
  -3   2 -14 8778.53 247.549   5
   3  -2  14 9043.28 300.906  10
   3   3 -15 3868.01 178.967   5
   3  -3 -14 40560.0 509.024   8
   3   3 -14 41517.7 740.466   5
   3  -3 -13 4915.94 208.801   8
   3   3 -13 5264.60 294.594   5
   3  -3 -12 55968.2 764.418   8
   3   3 -12 59700.9 1038.48   5
   3   3 -11 6848.49 360.641   5
   3  -3 -11 7247.16 297.828   8
   3   3 -10 969.474 135.522   5
   3  -3 -10 963.242 114.283   8
   3  -3  -9 45449.3 798.443   8
   3   3  -9 38731.4 1793.35  12
   3   3  -8 12731.4 972.827  12
  -3  -3   8 12934.2 802.738   1
   3   3  -7 11607.0 882.905  12
  -3  -3   7 11166.8 715.640   1
  -3  -3   6 13.2871 30.0085   1
  -3  -3   5 7203.94 505.216   1
  -3  -3   4 2037.15 256.676   1
  -3  -3   3 27805.5 938.477   1
  -3  -3   2 11762.1 625.284   1
  -3  -3   1 24231.4 921.234   1
  -3   3   1 25151.4 834.490  12
  -3  -3   0 26932.3 1042.01   1
  -3   3   0 24243.6 878.848  12
  -3  -3  -1 482.988 149.941   1
  -3   3  -1 343.285 121.747  12
  -3  -3  -2 84211.5 2116.83   1
  -3   3  -2 77796.5 1876.74  12
  -3   3  -3 16195.6 917.917  12
  -3  -3  -4 29406.3 1018.20  11
  -3   3  -4 26459.2 1248.44  12
   3  -3   5 22676.1 611.244  10
  -3   3  -5 23696.4 1260.46  12
   3  -3   6 4989.45 302.648  10
   3  -3   6 6240.43 361.082   9
  -3   3  -6 4853.73 607.706  12
   3  -3   6 5933.65 292.791   7
   3  -3   7 757.126 125.235  10
   3  -3   7 809.021 114.224   7
   3  -3   7 880.234 136.928   9
  -3   3  -7 503.682 194.898  12
   3  -3   8 97.4473 43.8281  10
   3  -3   8 140.879 55.2582   7
   3  -3   9 11.1957 29.8920  10
   3  -3   9 10.9636 38.2547   7
   3  -3  10 24475.7 596.193   7
   3  -3  10 22083.5 669.595  10
   3  -3  11 11102.5 376.711   7
   3  -3  11 10707.1 456.011  10
   3  -3  12 14729.7 487.498  10
   3  -3  12 15176.3 409.808   7
   3  -3  13 502.489 76.9652  10
   3  -3  13 434.056 64.0423   6
  -3  -4  14 236.086 52.6095   6
   3  -4 -13 5595.58 179.950   8
   3  -4 -12 7266.96 241.664   8
   3  -4 -11 3551.85 192.578   8
   3  -4 -10 32924.7 644.551   8
   3  -4  -9 1176.09 128.902   8
   3  -4  -8 146.859 52.5954   8
   3   4  -7 2976.36 547.379  12
   3  -4  -7 3755.94 241.168   8
  -3  -4   6 187.514 93.9064  11
   3  -4  -6 657.769 99.1479   8
   3  -4  -5 9171.87 370.426   8
  -3  -4   5 9150.23 739.156  11
   3  -4  -5 8547.61 413.910  10
   3  -4  -4 1446.55 143.992   8
   3  -4  -4 1209.18 150.631  10
  -3  -4   4 1298.44 277.107  11
   3  -4  -3 1237.99 149.994  10
   3  -4  -3 1528.34 147.218   8
  -3  -4   3 1537.17 290.699  11
  -3  -4   2 6406.46 586.230  11
  -3  -4   1 37569.0 1409.38  11
   3  -4   0 15945.3 546.943   9
   3  -4   0 16868.7 554.816  10
   3  -4   0 17164.5 546.758   6
  -3  -4   0 17820.5 965.153  11
   3  -4   1 1511.50 173.118   9
  -3  -4  -1 1548.97 287.054  11
   3  -4   1 1634.40 171.127  10
   3  -4   1 1626.54 169.464   6
   3  -4   2 15107.8 561.898   9
  -3  -4  -2 14794.7 860.670  11
   3  -4   2 15075.4 528.083  10
   3  -4   2 14941.1 521.133   6
   3  -4   3 8870.96 440.106   9
  -3  -4  -3 9238.21 719.872  11
   3  -4   3 9330.63 433.438  10
  -3   4  -3 8392.70 755.663  12
   3  -4   3 9003.41 415.888   6
   3  -4   4 8988.85 438.575  10
   3  -4   4 8526.10 442.041   9
  -3   4  -4 7051.88 720.532  12
   3  -4   4 8013.84 405.058   6
  -3  -4  -4 8218.16 651.929  11
   3  -4   5 8030.79 421.197  10
  -3  -4  -5 7720.53 337.751   8
   3  -4   5 7722.09 319.461   7
   3  -4   5 8073.64 419.609   6
   3  -4   5 7888.17 430.565   9
   3  -4   6 78.5404 26.6112   9
   3  -4   6 81.1785 53.7893  10
   3  -4   6 55.4797 42.4527   6
   3  -4   6-0.48110 30.6054   7
  -3  -4  -6 80.5207 41.8959   8
   3  -4   7 41635.2 965.335   6
   3  -4   7 42295.6 994.323  10
   3  -4   7 42406.5 920.447   9
   3  -4   7 38981.4 744.458   7
   3  -4   8 14652.1 577.537  10
   3  -4   8 13504.0 431.256   7
   3  -4   8 14330.4 561.071   6
   3  -4   9 4389.59 237.916   7
   3  -4   9 4853.16 313.674   6
   3  -4   9 5208.36 330.556  10
   3  -4  10 5232.52 252.044   7
   3  -4  10 5540.60 315.686  10
   3  -4  10 5407.34 305.425   6
   3  -4  11 945.253 118.949  10
   3  -4  11 904.661 109.579   6
   3  -4  12 641.338 80.1894  10
   3  -4  12 522.043 69.2890   6
   3  -5 -12 26749.4 340.813   8
   3  -5 -11 2319.16 123.209   8
   3  -5 -10 6873.89 246.310   8
   3  -5  -9 4187.03 210.680   8
   3  -5  -8 19249.4 497.626   8
   3  -5  -7 4592.42 250.275   8
   3  -5  -6 896.488 116.392   8
   3  -5  -5 14985.1 460.813   8
   3  -5  -4 33863.7 833.156  10
   3  -5  -4 37541.9 728.120   8
   3  -5  -3 3594.46 227.869   8
   3  -5  -3 3167.82 250.568  10
   3  -5  -2 72.9020 38.6253  10
   3  -5  -2 50.7145 33.4968   8
   3  -5  -1 4270.76 291.403  10
   3  -5  -1 4216.33 243.759   8
   3  -5   0 44167.4 929.697  10
   3  -5   0 43555.8 909.500   6
   3  -5   1 1128.04 154.196  10
   3  -5   1 1052.18 146.942   6
   3  -5   2 285.670 80.1038  10
   3  -5   2 306.319 83.9597   6
   3  -5   3 4759.36 318.425  10
   3  -5   3 4677.97 313.557   6
  -3  -5  -4 5816.34 296.348   8
   3  -5   4 6235.45 360.291   6
   3  -5   4 6419.60 365.977  10
   3  -5   5 596.687 108.640   6
  -3  -5  -5 483.968 81.8231   8
   3  -5   5 633.681 111.556  10
   3  -5   6 14937.1 538.987   6
   3  -5   6 14695.9 532.513  10
  -3  -5  -6 13127.0 369.944   8
  -3  -5  -7 874.720 86.6124   8
   3  -5   7 1139.33 142.742  10
   3  -5   7 1142.37 146.389   6
   3  -5   8 314.475 73.0384  10
   3  -5   8 258.303 66.5386   6
   3  -5   9 828.800 109.182   6
   3  -5   9 864.466 108.171  10
   3  -5  10 32.2465 25.9311  10
   3  -5  10 29.3938 15.7853   6
   3  -6 -10 81.6443 18.1927   8
   3  -6  -9 3776.85 141.468   8
   3  -6  -8 41.7003 17.6402   8
   3  -6  -7 8020.85 260.529   8
   3  -6  -6 2829.93 168.080   8
   3  -6  -5 49.6456 28.5671   8
   3  -6  -4 52.7352 24.0461   8
   3  -6  -3 17906.4 446.648   8
   3  -6  -2 333.788 76.3990  10
   3  -6  -2 244.146 52.4408   8
   3  -6  -1 464.765 72.4058   8
   3  -6  -1 475.543 89.4197  10
   3  -6   0 15693.1 500.668  10
   3  -6   0 11758.0 337.777   8
   3  -6   1 98.9868 43.4713  10
  -3  -6  -1 141.721 44.9521   8
   3  -6   2 9889.10 391.886  10
  -3  -6  -2 10777.7 368.140   8
  -3  -6  -3 791.089 96.1290   8
   3  -6   3 820.751 114.612  10
   3  -6   4 3039.85 203.510  10
  -3  -6  -4 2554.12 157.019   8
   3  -6   4 3001.70 204.889   6
   3  -6   5 4293.79 235.400   6
   3  -6   5 4040.35 221.014  10
   3  -6   6 7092.51 281.833   6
   3  -6   6 6331.87 254.036  10
   3  -6   7 24282.5 468.511   6
   3  -6   7 21694.9 405.372  10
  -3  -7   4 353.697 42.0506   8
   3  -7  -4 269.383 31.2895   8
  -3  -7   3 4619.65 170.495   8
  -3  -7   2 960.711 79.1466   8
  -3  -7   1 25.9274 19.2408   8
  -3  -7   0 3173.84 141.164   8
  -3  -7  -1 309.915 44.1501   8
  -3  -7  -2 74.9410 20.6369   8
   4   0 -17 1.33148 20.0298   5
   4   0 -16 8113.35 337.123   3
   4   0 -16 9752.16 353.849   5
   4   0 -15 6.96553 27.9200   5
   4   0 -15 76.9950 53.6024   3
   4   0 -14 8.69965 21.7191   5
   4   0 -13 32.6281 38.7437   5
   4   0 -13 39.8394 22.9314   8
   4   0 -12 23730.8 686.538   5
  -4   0  12 23889.1 1387.83   1
   4   0 -11 82.4792 35.1289   5
   4   0 -11 26.6067 33.0814   8
  -4   0  11 155.876 134.741   1
  -4   0  10 1376.29 289.619   1
  -4   0   9 77.0351 92.1306   1
   4   0  -8 66778.6 1360.96  12
  -4   0   8 71991.2 1816.22   1
  -4   0   7 29.9945 22.1869   1
   4   0  -7 65.4395 34.9894  12
  -4   0   6 76100.2 1550.66   1
   4   0  -6 71551.2 1164.20  12
  -4   0   5 25.6451 38.6081   1
   4   0  -5-67.8231 32.1679  12
  -4   0   4 36486.8 885.133   1
  -4   0   3 30.3921 17.8530   1
  -4   0   2 244942. 2044.84   1
  -4   0   1 25.5580 26.9714   1
  -4   0   0 38002.5 908.449  12
  -4   0   0 36158.0 860.788   1
  -4   0  -1 14.4982 23.6985  12
  -4   0  -1 13.6465 22.2184   1
  -4   0  -2 16990.6 747.214  12
  -4   0  -2 17864.7 795.048   1
  -4   0  -3 94.4767 82.3539  12
  -4   0  -4 352509. 3980.36  12
  -4   0  -5 135.973 116.431  12
  -4   0  -6 116793. 2595.81  12
  -4   0  -7 70.1669 58.0747  12
   4   0   8 11455.5 364.970   7
  -4   0  -8 13507.9 980.849  12
  -4   0  -9-6.12807 27.2785   5
   4   0   9 42.9146 34.2658   7
  -4   0 -10 601.082 109.098   5
   4   0  10 385.702 66.3718   7
  -4   0 -11 13.3534 31.6340   5
   4   0  11 14.8064 22.3755   7
  -4   0 -12 37959.1 750.783   5
  -4   0 -13 10.2916 18.9830   5
  -4   0 -14 609.445 74.5110   5
   4  -1 -17 1745.31 95.7544   5
   4   1 -17 2065.28 135.273   5
   4  -1 -16 5877.47 306.486   3
   4   1 -16 6204.91 287.511   5
   4  -1 -16 6281.00 250.658   5
   4  -1 -15 6292.23 293.197   5
   4   1 -15 6802.65 346.297   5
   4  -1 -14 3462.60 236.929   5
   4  -1 -14 2808.83 178.010   8
   4   1 -14 3629.11 271.484   5
   4   1 -13 1049.24 150.191   5
   4  -1 -13 1084.79 141.443   5
   4  -1 -13 917.324 105.913   8
   4   1 -13 1302.80 179.003   3
  -4   1  12 208.683 126.139   1
  -4  -1  12 102.147 91.8190   1
   4  -1 -12 128.327 50.5299   5
   4  -1 -12 108.665 40.3251   8
   4   1 -12 119.754 46.0191   5
   4   1 -12 289.511 83.1454   3
   4  -1 -11 12905.5 465.805   5
   4   1 -11 12918.4 515.891   5
   4  -1 -11 12042.5 380.976   8
   4   1 -11 13198.4 592.192   3
  -4   1  11 13022.9 965.432   1
  -4  -1  11 13381.9 1015.91   1
   4   1 -10 5075.62 303.267   5
  -4  -1  10 5476.07 615.305   1
  -4   1  10 5221.36 572.642   1
   4   1 -10 5125.21 515.183  12
   4  -1 -10 4904.42 236.910   8
  -4  -1   9 8029.43 684.821   1
   4   1  -9 7470.28 589.020  12
  -4   1   9 7972.27 655.001   1
  -4   1   8 76288.6 1863.75   1
  -4  -1   8 76370.9 1948.59   1
   4   1  -8 74903.2 1730.25  12
  -4  -1   7 12104.8 712.915   1
   4   1  -7 12335.3 648.614  12
  -4   1   7 12684.8 688.654   1
  -4  -1   6 53778.1 1367.05   1
  -4   1   6 52350.2 1269.58   1
  -4   1   5 28874.4 844.945   1
  -4  -1   5 29004.0 923.032   1
  -4  -1   4 7327.73 385.196   1
  -4   1   4 9510.52 431.105   1
  -4  -1   3 44.7492 36.0441   1
  -4   1   3 84.4197 40.7787   1
  -4  -1   2 4490.67 311.099   1
  -4   1   2 3765.14 223.996   1
  -4   1   1 6962.79 305.492  12
  -4  -1   1 7637.23 412.151   1
  -4  -1   0 77224.4 1410.78   1
  -4   1   0 79198.6 1253.14  12
  -4  -1  -1 40968.5 1148.96   1
  -4   1  -1 39733.8 1037.02  12
  -4  -1  -2 28513.3 1097.90  12
  -4   1  -2 28247.4 963.640  12
  -4  -1  -2 27832.8 1058.92   1
  -4   1  -3 77157.1 1743.80  12
  -4  -1  -3 73674.1 1845.13  12
  -4  -1  -3 72774.0 1834.46   1
  -4   1  -4 171573. 2833.37  12
  -4  -1  -4 166755. 2927.40  12
  -4  -1  -5 50600.8 1725.00  12
  -4   1  -5 50488.2 1658.22  12
  -4   1  -6 3802.63 500.953  12
  -4  -1  -6 3377.34 467.375  12
  -4  -1  -7 36714.3 1647.85  12
  -4   1  -7 36758.3 1716.61  12
  -4   1  -8 13506.1 526.080   5
   4  -1   8 12478.6 417.629   7
  -4   1  -8 17056.3 1277.83  12
  -4  -1  -8 16124.6 1148.84  12
  -4   1  -9 11290.5 479.292   5
   4  -1   9 10114.6 369.454   7
  -4   1 -10 1473.99 175.496   5
   4  -1  10 1315.02 131.717   7
  -4  -1 -10 1444.89 162.512   5
   4  -1  11 706.403 90.6145   7
  -4   1 -11 846.347 119.369   5
  -4  -1 -11 883.159 123.894   5
  -4  -1 -12 25755.5 575.878   5
  -4   1 -12 26476.0 623.466   5
  -4  -1 -13 2604.96 165.605   5
  -4   1 -13 2793.08 183.638   5
  -4  -1 -14 965.845 83.4589   5
  -4   1 -14 841.027 82.5412   5
   4   2 -16 1417.30 126.009   5
   4  -2 -15 674.562 65.9281   8
   4   2 -15 851.037 115.532   5
   4  -2 -14 2766.42 162.703   8
   4   2 -14 3227.66 246.308   5
   4  -2 -13 497.163 72.7955   8
   4   2 -13 473.966 100.779   5
   4   2 -12 235.943 73.9784   5
   4  -2 -12 273.457 55.6111   8
   4   2 -11 76959.3 1266.67   5
  -4  -2  11 76522.4 2361.06   1
   4  -2 -11 77860.9 979.002   8
  -4   2  11 74001.2 2261.61   1
   4  -2 -10 346.409 66.7164   8
  -4   2  10 199.564 137.322   1
   4   2 -10 279.854 151.945  12
  -4  -2  10 245.836 116.173   1
   4   2 -10 350.665 87.6695   5
  -4   2   9 284.234 137.066   1
   4  -2  -9 210.137 51.4763   8
   4   2  -9 189.649 139.911  12
  -4  -2   9 470.845 164.806   1
  -4   2   8 2672.73 348.030   1
   4   2  -8 2712.42 387.336  12
  -4  -2   8 2545.07 357.950   1
  -4   2   7 29748.2 1057.26   1
  -4  -2   7 21747.3 916.662   1
  -4   2   6 23213.5 844.442   1
  -4  -2   6 16315.6 715.574   1
  -4   2   5 15848.6 603.556   1
  -4  -2   5 13488.3 649.932   1
  -4   2   4 55281.2 973.046   1
  -4  -2   4 56517.1 1338.73   1
  -4  -2   3 265314. 2764.85   1
  -4  -2   2 22461.8 796.829   1
  -4  -2   1 3430.52 325.957   1
  -4   2   1 3291.35 241.141  12
  -4  -2   0 133.506 78.0323   1
  -4   2   0 228.550 73.3361  12
  -4  -2  -1 14162.6 757.762   1
  -4   2  -1 11702.9 610.124  12
  -4  -2  -2 55136.4 1636.98   1
  -4   2  -2 45852.9 1343.64  12
  -4   2  -3 19182.8 928.402  12
  -4  -2  -3 19449.4 1042.99   1
  -4   2  -4 102179. 2315.33  12
  -4   2  -5 19427.7 1078.24  12
   4  -2   6 16633.9 499.844   7
  -4   2  -6 17188.0 1092.38  12
   4  -2   7 2535.81 197.903   7
  -4   2  -7 2518.41 463.519  12
  -4   2  -7 2633.84 214.729   5
  -4   2  -8 8147.58 391.588   5
   4  -2   8 7344.39 336.734   7
  -4   2  -9 5103.46 300.670   5
   4  -2   9 4953.03 272.698   7
  -4  -2  -9 5227.58 293.940   5
  -4   2 -10-4.02226 19.7195   5
  -4  -2 -10-12.2522 29.5190   5
   4  -2  10-17.4749 30.8459   7
   4  -2  11 20595.4 503.382   7
  -4  -2 -11 21025.8 506.474   5
   4  -2  12 6355.38 303.710  10
  -4   2 -12 7836.47 322.272   5
   4  -2  12 6589.25 260.338   7
  -4  -2 -12 7693.65 271.589   5
   4  -2  13 24929.8 532.594  10
  -4   2 -13 26590.8 479.007   5
   4  -3 -16 471.705 68.1784   3
   4  -3 -15 14050.8 247.233   8
   4   3 -15 14622.0 368.977   5
   4  -3 -14 9399.11 259.063   8
   4   3 -14 9548.01 362.204   5
   4  -3 -13 10785.0 317.587   8
   4   3 -13 11418.4 440.090   5
   4  -3 -12 1303.55 121.304   8
   4   3 -12 1631.67 174.912   5
   4  -3 -11 17972.7 474.143   8
   4   3 -11 18328.0 599.908   5
   4  -3 -10 30487.7 647.465   8
   4   3 -10 29570.3 757.595   5
   4  -3  -9 8944.99 351.133   8
  -4  -3   9 8476.99 727.064   1
   4   3  -9 8076.63 383.343   5
   4   3  -8 22082.6 1308.90  12
  -4  -3   8 22378.3 1135.70   1
   4  -3  -7 5097.99 262.539   8
  -4  -3   7 4070.43 460.116   1
  -4  -3   6 216.902 106.958   1
  -4  -3   5 1722.72 266.897   1
  -4  -3   4 11749.3 670.589   1
  -4  -3   3 149.185 89.8830   1
  -4  -3   2 85.5965 55.2895   1
  -4  -3   1 25281.3 1039.46   1
  -4  -3   0 20190.2 984.772   1
  -4  -3  -1 83647.9 2146.18   1
  -4   3  -1 73141.8 1716.56  12
  -4   3  -2 22325.0 1028.47  12
  -4  -3  -2 27261.8 1275.50   1
  -4   3  -3 5304.69 545.109  12
   4  -3   4 8019.57 384.423  10
  -4   3  -4 7116.23 664.285  12
   4  -3   5 8955.36 417.966  10
  -4   3  -5 7850.20 741.877  12
   4  -3   6 15453.2 554.105  10
  -4   3  -6 12576.8 982.038  12
   4  -3   7 11720.9 503.482   9
   4  -3   7 11267.4 420.343   7
   4  -3   8 736.762 127.602  10
   4  -3   8 806.662 116.672   7
   4  -3   9 31341.3 811.229  10
   4  -3   9 33140.8 703.885   7
   4  -3  10 3549.80 267.420  10
   4  -3  10 3797.21 226.456   7
   4  -3  11 2083.18 191.732  10
   4  -3  11 2008.55 151.606   7
   4  -3  11 2046.15 173.006   6
   4  -3  12 1227.85 124.293  10
   4  -3  12 1138.44 104.170   6
   4  -3  13 322.187 48.9281  10
   4  -4 -14 544.368 46.6976   8
  -4  -4  14 772.504 78.2314   6
   4  -4 -13 42191.4 523.318   8
   4  -4 -12 10279.8 295.437   8
   4  -4 -11 11263.4 346.257   8
   4  -4 -10 223.745 57.4946   8
   4  -4  -9 14040.7 438.028   8
   4  -4  -8 18951.0 529.454   8
   4  -4  -7 3880.91 236.945   8
   4  -4  -6 7072.42 319.287   8
   4  -4  -6 6580.25 378.539  10
   4  -4  -5 26930.0 611.566   8
   4  -4  -5 24116.3 716.680  10
  -4  -4   5 24545.2 1208.75  11
   4  -4  -4 33.1743 34.3464   8
   4  -4  -4 49.8774 26.2772  10
   4  -4  -3 42085.5 736.844   8
   4  -4  -3 39967.0 874.555  10
   4  -4  -2 391.558 81.9650  10
   4  -4  -2 468.226 92.7180   9
   4  -4  -2 370.995 79.8892   6
   4  -4  -2 433.454 76.9532   8
   4  -4  -1 109342. 1439.95   9
   4  -4  -1 114351. 1478.23  10
   4  -4  -1 112409. 1441.17   6
   4  -4   0 5522.49 325.053   6
   4  -4   0 5530.76 330.484  10
   4  -4   0 5014.65 315.875   9
  -4  -4   0 5758.51 601.662   1
   4  -4   1 13754.2 514.180   6
   4  -4   1 13417.6 529.541   9
   4  -4   1 13623.0 512.064  10
  -4  -4  -2 14111.4 863.860  11
   4  -4   2 14119.3 559.051   9
   4  -4   2 13959.3 526.256  10
   4  -4   2 14179.4 527.532   6
   4  -4   3 15243.9 596.213   9
   4  -4   3 16033.0 577.525  10
  -4  -4  -3 15400.7 886.440  11
   4  -4   3 15247.9 551.791   6
   4  -4   4 10581.8 496.327   9
  -4  -4  -4 10309.0 383.934   8
   4  -4   4 10552.5 463.101   6
   4  -4   4 10964.1 489.703  10
   4  -4   5 3483.28 283.746   9
   4  -4   5 3534.87 221.746   7
   4  -4   5 3407.33 271.689   6
   4  -4   5 3761.46 293.351  10
   4  -4   6 38.1155 31.7977   9
   4  -4   6 9.16172 21.1408   7
   4  -4   6 4.89752 27.2806   6
   4  -4   7 8403.14 409.334   9
   4  -4   7 8257.08 340.113   7
   4  -4   7 8492.68 435.401  10
   4  -4   7 8455.01 421.481   6
   4  -4   8 12638.3 443.365   9
   4  -4   8 12371.6 398.782   7
   4  -4   8 13028.1 500.125   6
   4  -4   8 13277.6 527.523  10
   4  -4   9 1702.20 139.565   7
   4  -4   9 1894.44 190.184  10
   4  -4   9 1652.23 166.768   6
   4  -4  10 3784.18 240.045  10
   4  -4  10 3391.41 190.524   7
   4  -4  10 3574.92 218.946   6
   4  -4  11 5541.34 243.784  10
   4  -4  11 4986.30 219.356   6
   4  -5 -12 2041.07 99.2458   8
   4  -5 -11 650.376 66.3808   8
   4  -5 -10 279.856 50.0099   8
   4  -5  -9 4703.50 223.610   8
   4  -5  -8 9664.57 340.074   8
   4  -5  -7 28.8890 29.3320   8
   4  -5  -6 1652.46 152.538   8
   4  -5  -5 15434.3 461.249   8
   4  -5  -5 14236.5 549.347  10
   4  -5  -4 8163.82 333.063   8
   4  -5  -4 7843.15 406.926  10
   4  -5  -3 10866.7 377.516   8
   4  -5  -3 9897.84 444.413  10
   4  -5  -2 17320.0 592.275  10
   4  -5  -2 17135.8 466.874   8
   4  -5  -1 8590.40 415.240  10
   4  -5  -1 7637.39 306.234   8
   4  -5   0 116.882 53.6136  10
   4  -5   0 100.683 47.9615   6
   4  -5   1 1227.67 159.579   6
   4  -5   1 1283.49 168.527  10
   4  -5   2 3229.75 266.896   9
   4  -5   2 3410.77 273.553  10
   4  -5   2 3472.41 270.601   6
  -4  -5  -3 1826.07 164.734   8
   4  -5   3 2121.22 214.391  10
   4  -5   3 2093.86 210.598   6
   4  -5   3 2003.53 210.369   9
   4  -5   4 1049.95 146.568  10
  -4  -5  -4 891.860 108.897   8
   4  -5   4 947.254 141.388   6
  -4  -5  -5 3245.79 181.944   8
   4  -5   5 4133.58 287.178  10
   4  -5   5 4179.45 286.199   6
   4  -5   6 2313.41 209.079  10
   4  -5   6 2405.44 211.899   6
   4  -5   7 1071.54 134.776  10
   4  -5   7 1008.28 130.304   6
   4  -5   8 5303.36 269.879   6
   4  -5   8 5574.16 279.111  10
   4  -5   9 15921.4 416.377  10
   4  -5   9 15088.6 400.933   6
   4  -5  10 8470.00 232.812   6
   4  -6 -10 204.455 27.8128   8
   4  -6  -9 293.434 40.5151   8
   4  -6  -8 30.3293 17.9536   8
   4  -6  -7 7213.28 235.087   8
   4  -6  -6 14376.8 354.221   8
   4  -6  -5 495.735 70.9529   8
   4  -6  -4 12646.4 353.357   8
   4  -6  -3 382.352 76.8981  10
   4  -6  -3 238.692 53.0619   8
   4  -6  -2 3646.95 184.446   8
   4  -6  -2 4541.82 271.268  10
   4  -6  -1 6216.37 317.943  10
   4  -6   0 198.706 53.4093  10
   4  -6   1 221.764 63.1501  10
  -4  -6  -1 239.135 58.2094   8
  -4  -6  -2 4266.83 220.174   8
   4  -6   2 4297.28 254.665  10
  -4  -6  -3 7690.11 265.497   8
   4  -6   3 9267.58 363.587  10
  -4  -6  -4 6985.44 224.789   8
   4  -6   4 8675.14 331.890  10
   4  -6   5 209.701 51.6263  10
  -4  -6  -5 173.121 36.5754   8
   4  -6   6 2326.24 146.072  10
  -4  -7   4 973.325 70.7378   8
  -4  -7   3 104.261 31.1423   8
  -4  -7   2 16.9274 18.9300   8
  -4  -7   1 355.269 45.8362   8
  -4  -7   0 2069.09 102.308   8
  -4  -7  -1 693.463 54.8691   8
   5   0 -17 27447.3 487.871   5
   5   0 -16-23.2765 24.2645   3
   5   0 -16 9.78828 25.2445   5
   5   0 -15 8000.14 429.217   3
   5   0 -15 7982.03 360.750   5
   5   0 -14-10.6398 43.4134   3
   5   0 -14-6.29750 39.3821   5
   5   0 -13 41253.4 750.711   8
   5   0 -13 45384.1 952.625   5
   5   0 -12 23.2104 29.9202   5
   5   0 -12-15.2415 27.7267   8
   5   0 -11 5058.98 307.407   5
   5   0 -11 4942.31 255.624   8
  -5   0  11 5296.36 623.177   1
   5   0 -10 32.9246 49.5725   5
   5   0 -10 58.6365 37.5081   8
  -5   0  10 40.6127 52.2394   1
  -5   0   9 131155. 2708.23   1
  -5   0   8 61.0274 61.1325   1
  -5   0   7 4805.80 444.361   1
  -5   0   6-31.9413 38.4203   1
  -5   0   5 52815.6 1223.17   1
  -5   0   4 3.11278 26.7550   1
  -5   0   3 63493.2 1185.75   1
  -5   0   2-1.01290 26.2164   1
  -5   0   1 14713.1 588.113   1
  -5   0   0 44.9605 44.5719   1
  -5   0   0 296.769 101.889  12
  -5   0  -1 114886. 2078.61   1
  -5   0  -1 101391. 1871.21  12
  -5   0  -2 18.2084 60.0910   1
  -5   0  -2-14.9709 38.6485  12
  -5   0  -3 279034. 3477.18  12
  -5   0  -4 20.8691 52.7728  12
  -5   0  -5 565.947 181.084  12
  -5   0  -6 12.2958 42.3466  12
   5   0   7 899.815 106.755   7
  -5   0  -7 702.306 228.275  12
   5   0   8 81.1503 38.9256   7
  -5   0  -8-88.0159 98.1695  12
   5   0   9 12309.5 374.886   7
  -5   0  -9 14024.4 541.955   5
  -5   0 -10 47.5661 43.7352   5
   5   0  10 14.6690 17.6435   7
  -5   0 -11 34931.2 757.820   5
  -5   0 -12-16.1722 29.3596   5
  -5   0 -13 912.082 93.5888   5
   5  -1 -17 21.4491 24.2518   3
   5   1 -17-0.78135 18.4368   5
   5   1 -16 8558.20 341.389   5
   5  -1 -16 8090.97 374.132   3
   5  -1 -16 8350.21 288.535   5
   5  -1 -15 2407.00 154.215   8
   5  -1 -15 2836.03 194.911   5
   5   1 -15 3088.69 233.068   5
   5  -1 -14 9678.74 333.096   8
   5  -1 -14 10717.6 413.814   5
   5   1 -14 10994.8 467.778   5
   5   1 -14 10660.0 497.840   3
   5  -1 -13 6734.94 290.826   8
   5   1 -13 6825.17 381.223   5
   5  -1 -13 6503.79 338.981   5
   5   1 -13 7312.68 448.043   3
   5   1 -12 8034.75 412.616   5
  -5  -1  12 8845.97 843.389   1
   5   1 -12 8668.40 493.552   3
   5  -1 -12 7822.46 369.813   5
   5  -1 -12 7934.98 319.589   8
  -5   1  12 7414.13 743.508   1
   5  -1 -11 32914.6 742.859   5
   5  -1 -11 33211.5 648.153   8
  -5   1  11 33158.7 1507.68   1
  -5  -1  11 34227.0 1594.98   1
   5   1 -11 33148.7 814.105   5
   5   1 -11 34987.8 981.395   3
   5   1 -10 9899.27 428.233   5
   5  -1 -10 9747.98 390.160   5
   5   1 -10 9646.16 354.593   8
  -5  -1  10 10428.9 835.390   1
  -5   1  10 9927.43 777.469   1
   5  -1 -10 10193.4 348.598   8
   5   1 -10 10599.3 523.890   3
  -5  -1   9 65974.9 1958.33   1
  -5   1   9 66256.3 1880.44   1
  -5  -1   8 2140.32 326.479   1
   5   1  -8 1984.05 273.665  12
  -5   1   8 2183.92 313.373   1
  -5  -1   7 9914.65 657.534   1
  -5   1   7 9599.91 601.347   1
   5   1  -7 9607.46 561.613  12
  -5   1   6 8580.09 520.975   1
  -5  -1   6 8345.73 538.808   1
  -5   1   5 119995. 1743.30   1
  -5  -1   5 106181. 1667.09   1
  -5   1   4 23806.9 671.320   1
  -5  -1   4 29363.4 913.618   1
  -5  -1   3 29707.9 913.146   1
  -5   1   3 23662.7 653.679   1
  -5   1   2 5105.01 291.657   1
  -5  -1   2 6819.59 426.107   1
  -5  -1   1 16745.2 701.926   1
  -5   1   1 14778.4 495.457  12
  -5  -1   0 62603.9 1449.31   1
  -5   1   0 58510.6 1171.98  12
  -5  -1  -1 7054.59 538.601   1
  -5   1  -1 9514.26 622.512  12
  -5  -1  -2 39963.2 1394.22   1
  -5   1  -2 43338.1 1383.51  12
  -5   1  -3 296982. 3861.22  12
  -5  -1  -3 278093. 3988.89  12
  -5  -1  -4 21106.8 1153.86  12
  -5   1  -4 23107.4 1204.30  12
  -5   1  -5 44196.6 1829.71  12
  -5  -1  -5 38151.6 1646.75  12
  -5   1  -6 54412.2 2119.37  12
  -5  -1  -6 51751.3 2019.39  12
   5  -1   7 3457.66 226.372   7
  -5   1  -7 3888.59 545.331  12
  -5  -1  -7 4729.02 630.791  12
   5  -1   8 560.478 87.7971   7
  -5   1  -9 850.530 136.177   5
   5  -1   9 958.863 113.310   7
  -5   1 -10 10196.2 439.762   5
   5  -1  10 9393.49 342.020   7
  -5  -1 -10 10374.6 422.995   5
  -5  -1 -11 417.943 82.9086   5
  -5   1 -11 346.398 74.6393   5
   5  -1  11 315.428 58.0984   7
   5  -1  12 172.262 46.2829  10
  -5   1 -12 217.739 55.3134   5
  -5  -1 -12 199.208 46.0377   5
   5  -1  12 129.138 34.3803   7
  -5  -1 -13 11055.7 294.997   5
  -5   1 -13 11790.4 325.461   5
   5  -2 -17 636.098 69.5358   3
   5   2 -17 769.629 68.3382   5
   5  -2 -16 9276.58 373.553   3
   5   2 -16 9728.30 329.677   5
   5  -2 -15 96.1724 27.9037   8
   5   2 -15 126.945 52.1242   5
   5  -2 -14 5965.01 243.936   8
   5   2 -14 6289.54 346.987   5
   5   2 -13 9.59417 37.8354   5
   5  -2 -13 28.9018 19.7109   8
   5  -2 -12 5314.55 259.351   8
   5   2 -12 5065.53 328.692   5
   5   2 -11 9081.55 435.863   5
  -5   2  11 8813.71 747.112   1
  -5  -2  11 7321.55 668.066   1
   5  -2 -11 9088.16 340.178   8
   5   2 -10 16745.6 573.734   5
   5   2 -10 16579.4 1059.29  12
  -5   2  10 15969.7 963.755   1
   5  -2 -10 17404.6 471.591   8
   5   2 -10 15557.0 614.723   3
   5   2  -9 10651.4 437.868   5
   5   2  -9 11474.4 831.720  12
  -5   2   9 10423.3 722.581   1
   5  -2  -9 12093.4 388.525   8
  -5   2   8 3299.21 375.542   1
   5   2  -8 3335.95 433.631  12
  -5  -2   8 2769.79 348.519   1
  -5   2   7 21782.5 876.294   1
  -5  -2   7 19261.4 910.650   1
  -5   2   6 68960.4 1414.51   1
  -5  -2   6 67958.4 1675.67   1
  -5  -2   5 76.2871 56.2602   1
  -5  -2   4 24614.6 945.791   1
  -5  -2   3 20160.6 830.220   1
  -5  -2   2 105923. 1955.22   1
  -5  -2   1 14146.8 734.728   1
  -5   2   0 6878.16 426.902  12
  -5  -2   0 8605.14 606.550   1
  -5  -2  -1 63763.1 1859.85   1
  -5   2  -1 47283.2 1276.11  12
  -5   2  -2 72072.6 1747.77  12
  -5  -2  -2 91181.6 2303.89   1
  -5   2  -3 4966.78 501.694  12
  -5   2  -4 1657.43 317.149  12
   5   2   5 21586.3 539.469   4
  -5   2  -5 21742.6 1214.25  12
   5  -2   6 13419.7 472.595   7
  -5   2  -6 13225.0 1042.44  12
  -5   2  -7 279.417 77.3788   5
   5  -2   7 426.681 86.2712   7
  -5   2  -7 130.007 140.488  12
   5  -2   8 1824.10 169.468   7
  -5   2  -8 1649.58 184.481   5
   5  -2   9 423.598 92.9257  10
  -5   2  -9 471.456 97.9040   5
   5  -2   9 463.742 79.6882   7
  -5  -2  -9 541.761 99.2166   5
  -5  -2 -10 17109.9 484.276   5
  -5   2 -10 16082.6 500.708   5
   5  -2  10 16488.7 462.003   7
   5  -2  11 1462.36 148.932  10
  -5  -2 -11 1537.05 126.270   5
   5  -2  11 1529.69 129.079   7
  -5   2 -11 1439.79 139.088   5
   5  -2  11 1281.32 121.485   6
   5  -2  12 11698.6 377.078  10
  -5   2 -12 13620.4 357.743   5
  -5  -2 -12 13027.3 313.689   5
   5  -2  12 11393.4 322.707   7
   5  -2  13 6522.11 201.706  10
   5  -3 -16 45.3764 30.6877   3
   5  -3 -15 2216.05 106.787   8
   5   3 -15 2059.14 141.071   5
   5  -3 -14 15889.6 350.652   8
   5   3 -14 16016.1 468.775   5
   5  -3 -13 12614.1 352.844   8
   5   3 -13 13189.9 473.057   5
   5   3 -12 28230.1 735.745   5
   5  -3 -12 26667.9 545.887   8
   5   3 -11 4419.25 295.323   5
   5  -3 -11 4160.44 226.690   8
   5  -3 -10 5179.79 263.415   8
   5   3 -10 4527.48 297.087   5
   5  -3  -9 4400.23 248.907   8
  -5  -3   9 4182.75 532.179   1
   5   3  -9 3399.15 521.796  12
   5   3  -9 4280.32 285.263   5
   5  -3  -8 7945.63 334.192   8
   5   3  -8 5911.81 664.381  12
  -5  -3   8 6863.03 654.663   1
   5   3  -8 6725.23 342.741   5
   5  -3  -7 5640.99 275.916   8
  -5  -3   7 4889.90 527.073   1
  -5  -3   6 7067.10 596.328   1
  -5  -3   5 11368.9 727.420   1
  -5  -3   4 37941.0 1329.92   1
  -5  -3   3 2056.67 308.833   1
  -5  -3   2 48073.4 1525.11   1
  -5  -3   1 306.587 123.522   1
  -5  -3   0 61279.2 1922.56   1
  -5  -3  -1 1799.94 344.808   1
  -5  -3  -2 1262.50 301.866   1
   5  -3   3 186.617 57.7200  10
   5   3   3 260.548 54.5950   4
   5  -3   3 274.523 68.9006   7
   5  -3   3 182.965 55.2701   6
   5  -3   4 1087.92 151.916  10
   5   3   4 1098.77 126.064   4
   5  -3   4 1142.67 137.607   7
  -5   3  -4 1173.04 286.147  12
   5  -3   4 1156.74 148.951   6
   5  -3   5 28139.0 779.016  10
   5   3   5 29483.0 626.682   4
   5  -3   5 27227.0 739.748   6
   5  -3   6 47355.4 1030.50  10
   5  -3   6 47291.5 986.158   6
   5  -3   7 1197.69 167.260  10
   5  -3   7 1176.42 163.911   9
   5  -3   7 1035.67 138.910   7
   5  -3   7 1072.81 151.404   6
   5  -3   8 29060.1 800.991  10
   5  -3   8 30814.2 746.849   9
   5  -3   8 29567.7 665.468   7
   5  -3   8 28512.6 746.949   6
   5  -3   9 114.615 49.7578  10
   5  -3   9 143.792 45.7751   7
   5  -3   9 182.934 55.4809   6
   5  -3  10 733.578 90.9571   7
   5  -3  10 732.472 115.112  10
   5  -3  10 720.549 102.087   6
   5  -3  11 2035.35 164.217  10
   5  -3  11 2034.40 134.301   7
   5  -3  11 1883.40 135.264   6
   5  -3  12 5368.94 208.080  10
   5  -4 -14 16722.1 281.274   8
   5  -4 -13 11833.7 281.141   8
   5  -4 -12 1030.29 99.5820   8
   5  -4 -11 2358.58 157.551   8
   5  -4 -10 17233.9 457.245   8
   5  -4  -9 500.302 81.8250   8
   5  -4  -8 3293.17 213.688   8
   5  -4  -7 1609.71 153.194   8
   5  -4  -6 38969.7 927.947  10
  -5  -4   6 38705.4 1569.49  11
   5  -4  -5 1452.28 143.321   8
   5  -4  -5 1196.05 161.737  10
   5  -4  -4 3127.03 203.943   8
   5  -4  -4 2835.08 239.970  10
   5  -4  -4 2646.64 203.207   9
   5  -4  -3 15692.1 519.942   9
   5  -4  -3 16630.4 452.444   8
   5  -4  -3 16021.7 564.946  10
   5  -4  -2 12426.7 486.923   9
   5  -4  -2 12591.5 488.995   6
   5  -4  -2 12127.9 488.469  10
   5  -4  -1 3699.39 275.014  10
   5  -4  -1 3541.17 262.269   9
   5  -4  -1 3606.22 262.933   6
  -5  -4   1 3817.50 527.970   1
   5  -4   0 5666.28 346.244  10
   5  -4   0 5409.03 337.757   9
  -5  -4   0 5867.15 656.511   1
   5   4   0 5144.48 291.713   4
   5  -4   0 5703.18 337.494   6
   5   4   1 6592.52 309.427   4
   5  -4   1 7188.33 398.997   9
   5  -4   1 7556.83 392.370  10
   5  -4   1 7674.36 393.066   6
   5  -4   2 6737.16 368.995  10
   5  -4   2 6604.75 391.427   9
   5   4   2 5689.65 266.121   4
   5  -4   2 7145.16 381.356   6
  -5  -4  -2 7130.40 641.055  11
   5  -4   3 19824.4 646.773  10
   5  -4   3 20184.9 695.157   9
   5  -4   3 19637.0 638.155   6
  -5  -4  -3 19701.3 1025.47  11
   5   4   3 18086.8 480.452   4
   5  -4   4 5813.93 376.563   9
   5  -4   4 5606.08 350.013  10
   5  -4   4 5459.70 275.907   7
   5  -4   4 5360.49 333.637   6
   5  -4   5 3643.37 289.714   9
   5  -4   5 3458.73 222.042   7
   5  -4   5 3625.89 282.594  10
   5  -4   5 3597.39 272.181   6
   5  -4   6 223.236 74.7291  10
   5  -4   6 299.893 82.6531   9
   5  -4   6 266.315 61.3540   7
   5  -4   6 221.049 75.0662   6
   5  -4   7 14706.9 547.683  10
   5  -4   7 14373.8 518.077   9
   5  -4   7 13997.4 424.607   7
   5  -4   7 13484.8 499.564   6
   5  -4   8 11110.4 452.629  10
   5  -4   8 11077.8 385.627   9
   5  -4   8 10526.9 345.071   7
   5  -4   8 10475.4 415.569   6
   5  -4   9 2733.47 205.227  10
   5  -4   9 2518.27 157.139   7
   5  -4   9 2681.71 189.669   6
   5  -4  10 9143.96 297.247   6
   5  -4  10 8669.36 257.829   7
   5  -4  10 9282.05 324.798  10
   5  -4  11 541.586 61.7876  10
   5  -5 -12 1537.49 85.7975   8
   5  -5 -11 1942.55 112.228   8
   5  -5 -10 26520.0 465.952   8
   5  -5  -9 16320.3 402.527   8
   5  -5  -8 137.022 46.1207   8
   5  -5  -7 1594.94 138.917   8
   5  -5  -6 156.499 50.2961   8
   5  -5  -5 5429.82 263.518   8
   5  -5  -5 5173.11 329.422  10
   5  -5  -4 62645.5 1154.98  10
   5  -5  -4 63240.4 888.765   8
   5  -5  -3 24.1930 38.0533  10
   5  -5  -3 99.3727 43.4308   8
   5   5  -2 31412.6 737.127   4
   5  -5  -2 38833.9 893.485  10
   5   5  -1 13790.5 460.020   4
   5  -5  -1 16918.0 585.613  10
   5  -5   0-6.37460 38.3779  10
   5  -5   0 53.6952 44.6524   9
   5   5   0 84.4815 37.5825   4
   5  -5   0 27.3033 22.0334   6
   5  -5   1 9389.72 451.620   9
   5  -5   1 9136.11 426.497   6
   5  -5   1 9693.65 454.495  10
   5  -5   2 3045.50 258.584   9
   5  -5   2 3067.48 250.098   6
   5  -5   2 2969.21 252.363  10
   5  -5   3 8497.84 428.148   9
  -5  -5  -3 7454.28 303.570   8
   5  -5   3 9010.73 439.662  10
   5  -5   3 8673.20 419.716   6
   5  -5   4 12147.1 493.728   9
   5  -5   4 12397.8 492.501   6
   5  -5   4 12748.5 510.281  10
   5  -5   5 5997.24 329.162   6
   5  -5   5 6129.75 339.469  10
   5  -5   6 3570.15 241.518   6
   5  -5   6 3414.58 240.196  10
   5  -5   7 519.284 85.9443   6
   5  -5   7 593.685 95.1054  10
   5  -5   8 2902.97 185.244  10
   5  -5   8 2728.62 168.944   6
   5  -5   9 1203.58 95.5168  10
   5  -5   9 1213.43 89.6865   6
   5  -6 -10 515.373 40.7163   8
   5  -6  -9 445.337 45.6122   8
   5  -6  -8 11446.7 253.983   8
   5  -6  -7 17661.0 341.812   8
   5  -6  -6 74.4213 26.9439   8
   5   6  -6 20.0433 22.1991   4
   5  -6  -5 52.0619 19.7259   8
   5   6  -5 55.2315 35.7868   4
   5  -6  -4 66.8825 27.3640   8
   5   6  -4 74.1074 26.5760   4
   5  -6  -3 1217.75 94.2719   8
   5  -6  -3 1617.29 159.755  10
   5  -6  -2 4593.57 269.492  10
   5  -6  -1 2789.63 209.114  10
   5  -6   0 1215.22 135.177  10
  -5  -6  -1 6106.28 253.316   8
   5  -6   1 6900.04 315.577  10
   5  -6   2 79.1869 39.4330  10
  -5  -6  -2 54.9339 26.0812   8
   5  -6   3 52.3407 23.9134  10
  -5  -6  -3-13.6314 16.1896   8
   5  -6   4 1719.32 140.115  10
   5  -6   5 785.063 87.9886  10
   6   0 -17-10.2827 22.9344   3
   6   0 -17-8.87445 20.9638   5
   6   0 -16 5800.74 272.247   5
   6   0 -16 5230.73 292.976   3
   6   0 -15-8.86463 36.3115   5
   6   0 -15 16.8575 53.0301   3
   6   0 -14 811.094 153.083   3
   6   0 -14 782.132 120.696   5
   6   0 -13-0.25309 42.1866   3
   6   0 -13 3.82996 31.0978   5
   6   0 -12 127885. 1335.51   8
   6   0 -12 128656. 1598.38   5
  -6   0  11 21.4852 94.9317   1
   6   0 -11-27.9044 23.4000   5
   6   0 -11 32.5564 29.0158   8
  -6   0  10 74491.8 2174.47   1
   6   0 -10 71791.3 1121.06   5
   6   0 -10 75222.5 975.622   8
  -6   0   9 160.994 93.4809   1
  -6   0   8 2958.70 379.581   1
  -6   0   7-106.918 69.3973   1
  -6   0   6 8450.35 526.459   1
  -6   0   5 57.6845 47.8620   1
  -6   0   4 34305.5 1007.07   1
  -6   0   3 69.6281 52.1503   1
  -6   0   2 19929.2 749.166   1
  -6   0   1-6.73720 57.7956   1
  -6   0   0 54313.6 1446.43   1
  -6   0  -1 0.19773 63.7746   1
  -6   0  -1-45.4393 51.7358  12
  -6   0  -2 110796. 2318.06  12
  -6   0  -2 104948. 2341.01   1
  -6   0  -3-127.912 88.5920  12
  -6   0  -4 25162.2 1249.22  12
  -6   0  -5 36.8644 77.5767  12
   6   0   6 88202.9 1137.91   7
  -6   0  -6 93788.8 2703.89  12
   6   0   7-17.4580 27.6366   7
  -6   0  -7-155.045 135.449  12
   6   0   8 17899.1 467.928   7
  -6   0  -9 99.2310 57.8252   5
   6   0   9 41.3077 25.5950   7
  -6   0 -10 6433.06 328.413   5
   6   0  10 5201.39 216.678   7
  -6   0 -11 8.93177 18.4808   5
  -6   0 -12 9076.20 294.159   5
  -6   0 -13-3.50922 10.9060   5
   6  -1 -17 9.95468 16.9381   3
   6   1 -17 57.0509 25.6536   5
   6  -1 -16 5024.44 297.810   3
   6  -1 -16 5426.54 223.430   5
   6   1 -16 5878.93 279.694   5
   6  -1 -15 24081.7 494.901   8
   6   1 -15 24950.0 692.695   3
   6  -1 -15 26750.3 589.542   5
   6   1 -15 27990.7 692.294   5
   6  -1 -15 27556.7 802.893   3
   6  -1 -14 1175.62 124.465   8
   6   1 -14 1313.59 176.377   3
   6  -1 -14 1320.49 144.724   5
   6   1 -14 1363.12 166.115   5
   6   1 -13 62.8138 65.0978   3
   6  -1 -13 50.1298 42.5796   5
   6   1 -13 92.2159 41.3640   5
   6  -1 -13 54.9214 21.8520   8
   6  -1 -12 343.853 77.0334   5
   6   1 -12 467.568 98.2709   5
   6  -1 -12 345.542 68.8954   8
   6   1 -12 403.776 113.481   3
   6   1 -11 2252.79 214.541   5
   6  -1 -11 2199.90 169.471   8
  -6   1  11 2114.09 383.040   1
  -6  -1  11 2256.72 418.354   1
   6   1 -11 2634.57 277.450   3
   6  -1 -11 2218.61 193.683   5
   6   1 -10 4882.89 256.938   8
   6  -1 -10 4661.94 239.772   8
  -6   1  10 4760.75 543.126   1
   6   1 -10 4506.42 292.957   5
  -6  -1  10 5260.04 591.246   1
   6  -1 -10 4677.66 271.103   5
   6   1 -10 4970.38 364.698   3
  -6   1   9 3957.02 457.457   1
  -6  -1   9 3618.84 459.389   1
  -6   1   8 21244.9 984.613   1
  -6  -1   8 19325.7 968.519   1
  -6   1   7 35442.8 1160.96   1
  -6  -1   7 27650.2 973.992   1
  -6  -1   6 6986.15 505.105   1
  -6   1   6 6764.82 460.698   1
  -6  -1   5 11275.1 651.054   1
  -6   1   5 8285.65 431.906   1
  -6  -1   4 22949.8 900.457   1
  -6   1   4 20761.5 726.560   1
  -6  -1   3 5657.84 433.346   1
  -6   1   3 4745.14 328.333   1
  -6   1   2 17869.8 653.722   1
  -6  -1   2 21126.9 857.898   1
  -6  -1   1 713.874 167.158   1
  -6   1   1 681.193 134.622   1
  -6   1   1 1027.72 155.355  12
  -6  -1   0 48900.2 1447.17   1
  -6   1   0 47231.5 1164.23  12
  -6  -1  -1 21957.7 1097.94   1
  -6   1  -1 18461.8 805.246  12
  -6  -1  -2 69250.7 2028.07   1
  -6   1  -2 60472.8 1592.49  12
  -6   1  -3 11565.3 750.923  12
  -6   1  -4 888.581 219.098  12
   6  -1   5 13012.6 464.144   7
  -6   1  -5 11569.8 879.752  12
   6  -1   6 24601.5 643.367   7
  -6   1  -6 21947.4 1259.34  12
   6  -1   7 2761.52 205.067   7
   6  -1   8 6391.21 303.430   7
  -6   1  -8 6322.62 379.613   5
  -6   1  -9 18066.9 590.232   5
   6  -1   9 17187.9 466.112   7
  -6  -1 -10 4768.02 269.980   5
   6  -1  10 4357.65 215.952   7
  -6   1 -10 4950.98 284.463   5
   6  -1  11 1388.58 128.006  10
  -6  -1 -11 1544.00 137.796   5
   6  -1  11 1374.30 108.296   7
  -6   1 -11 1583.58 140.290   5
   6  -1  12 19194.4 324.364   7
  -6  -1 -12 21411.7 420.870   5
   6  -2 -17 67.2449 22.5530   3
   6  -2 -16 123.409 38.7624   3
   6   2 -16 166.960 44.7461   5
   6   2 -15 34.4963 29.4802   5
   6  -2 -15-0.55340 16.8617   8
   6  -2 -14 1694.53 136.189   8
   6   2 -14 2130.35 199.788   5
   6  -2 -13 5077.31 243.596   8
   6   2 -13 5397.83 333.396   5
   6  -2 -12 51568.6 809.471   8
   6   2 -12 51684.0 1058.96   5
   6   2 -12 49685.8 1115.36   3
   6  -2 -11 6145.83 283.378   8
  -6  -2  11 5462.78 619.805   1
   6   2 -11 5989.66 398.519   3
   6   2 -11 6187.96 366.161   5
   6  -2 -10 29197.3 605.088   8
   6   2 -10 28722.0 769.756   5
  -6  -2  10 26780.2 1316.32   1
   6   2 -10 26046.6 826.654   3
   6  -2  -9 6050.90 273.109   8
   6   2  -9 5659.27 328.010   5
  -6  -2   9 5029.17 544.542   1
   6   2  -9 4877.74 349.246   3
   6  -2  -8 9471.89 334.804   8
   6   2  -8 8768.60 394.015   5
  -6  -2   8 8457.71 690.648   1
  -6  -2   7 30666.3 1290.11   1
  -6  -2   6 8376.74 650.451   1
  -6  -2   5 15321.0 827.045   1
  -6  -2   4 13716.3 759.149   1
  -6  -2   3 63634.1 1643.57   1
  -6  -2   2 28436.4 1136.28   1
  -6  -2   1 16797.6 893.522   1
  -6  -2   0 23604.5 1132.06   1
  -6  -2  -1 14005.1 963.369   1
  -6   2  -2 21053.5 1058.13  12
  -6  -2  -2 21131.4 1232.20   1
  -6   2  -3 55969.9 1904.04  12
   6  -2   4 1390.42 157.001  10
   6  -2   4 1787.57 209.802   2
  -6   2  -4 1914.39 407.591  12
   6  -2   4 1734.59 173.355   7
   6  -2   4 1608.17 165.208   6
   6  -2   5 310.972 73.6725  10
   6   2   5 271.590 72.3919   4
   6  -2   5 295.675 78.9636   7
  -6   2  -5 311.087 225.217  12
   6  -2   6 9120.77 413.364  10
   6  -2   6 11695.4 447.857   7
   6  -2   7 949.170 134.318  10
  -6   2  -7 882.806 142.031   5
   6  -2   7 1172.16 139.547   7
   6  -2   8 2093.45 199.080  10
   6  -2   8 2397.79 189.852   7
  -6   2  -8 2186.77 208.989   5
   6  -2   8 2078.18 184.244   6
   6  -2   9 8046.09 379.720  10
  -6  -2  -9 8820.58 362.193   5
   6  -2   9 8425.71 333.651   7
  -6   2  -9 8003.55 344.945   5
   6  -2  10 2284.64 189.798  10
  -6  -2 -10 2607.38 176.497   5
   6  -2  10 2648.96 169.709   7
  -6   2 -10 2598.73 181.576   5
  -6   2 -11 1270.88 111.035   5
   6  -2  11 1080.78 112.573  10
   6  -2  11 1087.83 102.005   7
  -6  -2 -11 1207.83 98.8251   5
  -6  -2 -12 493.787 48.8399   5
   6  -3 -16 2476.22 143.848   3
   6  -3 -15 23389.3 360.479   8
   6  -3 -15 25312.3 593.194   3
   6  -3 -14 8035.92 254.023   8
   6   3 -14 7799.14 323.723   5
   6  -3 -13 1062.40 103.647   8
   6   3 -13 1351.40 149.286   5
   6  -3 -12 9352.74 325.058   8
   6   3 -12 9385.30 414.926   5
   6  -3 -11 11317.3 371.053   8
   6   3 -11 11943.1 481.646   5
   6  -3 -10 6049.07 279.651   8
   6   3 -10 5716.73 334.459   5
   6  -3  -9 2242.55 172.535   8
  -6  -3   9 1953.05 372.446   1
   6   3  -9 1994.01 197.135   5
   6   3  -8 134.154 73.4114   3
  -6  -3   8 102.074 74.3484   1
   6   3  -8 21.5089 40.0903   5
   6  -3  -8 14.3706 27.8979   8
  -6  -3   7 60145.0 1913.94   1
   6   3  -7 57947.6 1360.18   3
   6  -3  -6 39637.8 696.823   8
  -6  -3   6 32430.3 1362.85   1
   6   3  -6 31868.3 1030.20   3
   6  -3  -6 36935.9 874.438  10
  -6  -3   5 23863.5 1145.45   1
   6  -3  -5 26140.8 704.879  10
  -6  -3   4 2897.30 400.339   1
  -6  -3   3 8066.42 675.351   1
  -6  -3   2 1385.10 284.093   1
  -6  -3   1 422.001 168.802   1
  -6  -3   0 41729.6 1740.21   1
   6  -3   1 10949.4 445.042  10
   6  -3   1 12354.3 532.726   2
   6   3   1 13140.4 440.272   4
   6  -3   1 10927.9 438.479   6
  -6  -3  -1 11685.3 932.491   1
   6  -3   2 3858.09 272.821  10
   6  -3   2 4151.81 311.207   2
   6   3   2 4229.95 241.303   4
   6  -3   2 4213.90 265.968   7
   6  -3   2 3906.86 263.597   6
  -6  -3  -2 4325.49 586.235   1
   6  -3   3 10182.6 455.955  10
   6  -3   3 10885.9 522.141   2
   6   3   3 10965.9 396.156   4
   6  -3   3 12215.8 473.576   7
   6  -3   3 9213.91 409.810   6
   6  -3   4 3328.14 265.369  10
   6   3   4 4010.91 254.042   4
   6  -3   4 3974.56 263.513   7
   6  -3   4 3126.52 241.768   6
   6   3   5 56895.3 898.900   4
   6  -3   5 55497.5 965.051   7
   6  -3   6 7661.95 411.741  10
   6  -3   6 8023.77 361.469   7
   6  -3   6 7077.96 365.410   6
   6  -3   7 41.0638 46.0165  10
   6  -3   7 58.1887 42.1661   9
   6  -3   7-3.96701 35.6163   7
   6  -3   7-26.3033 24.0799   6
   6  -3   8 2771.98 233.977  10
   6  -3   8 2712.65 209.636   9
  -6  -3  -8 2362.27 163.642   5
   6  -3   8 2756.53 195.324   7
   6  -3   8 2286.30 188.201   6
   6  -3   9 17650.0 538.620  10
   6  -3   9 17996.0 454.775   7
   6  -3  10 9491.87 347.576  10
   6  -3  10 9611.22 293.566   7
   6  -3  10 8874.78 279.514   6
   6  -3  11 21.3336 19.5881  10
   6  -3  11 9.45252 11.7657   7
   6  -4 -14 7423.30 187.415   8
   6  -4 -14 6701.94 249.554   3
   6  -4 -13 5548.24 191.016   8
   6  -4 -12 4603.16 198.602   8
   6  -4 -11 105.367 33.4962   8
   6  -4 -10 1740.29 140.886   8
   6  -4  -9 22881.0 534.955   8
   6  -4  -8 17616.6 479.725   8
   6  -4  -7 20391.7 515.279   8
   6  -4  -6 8614.08 335.896   8
   6  -4  -6 7741.96 421.396  10
   6  -4  -5 13925.0 424.767   8
   6  -4  -5 12418.1 523.494  10
  -6  -4   4 3335.90 477.180   1
   6  -4  -4 3831.69 247.943   9
   6  -4  -4 3983.06 222.935   8
   6  -4  -4 3729.23 276.694  10
  -6  -4   3 28346.3 1453.62   1
   6  -4  -3 26080.1 690.737   9
   6  -4  -3 26545.7 742.198  10
   6  -4  -2 13073.6 503.207   9
   6  -4  -2 13185.7 518.158  10
   6  -4  -1 20401.2 651.100   9
   6   4  -1 21381.2 623.437   4
  -6  -4   1 22660.5 1351.46   1
   6  -4  -1 21301.8 644.191   6
   6  -4  -1 21291.3 668.461  10
   6  -4   0 4957.01 328.949   9
   6  -4   0 5494.06 348.600  10
   6   4   0 5385.39 299.355   4
   6  -4   0 5352.04 329.860   6
  -6  -4   0 4797.14 625.991   1
   6  -4   1 43809.6 1007.84   9
   6  -4   1 46496.3 984.552   6
   6  -4   1 45653.5 992.274  10
   6  -4   2 4419.91 324.939   9
   6   4   2 4329.46 239.886   4
   6  -4   2 4537.55 307.707   6
   6  -4   2 4238.22 301.196  10
   6  -4   3 1728.15 192.618  10
   6  -4   3 1810.69 212.243   9
   6   4   3 1694.50 149.840   4
   6  -4   3 1587.06 152.027   7
   6  -4   3 1756.27 192.216   6
   6  -4   4 6238.13 363.166  10
   6  -4   4 6394.69 388.775   9
   6   4   4 6679.46 287.263   4
   6  -4   4 6141.62 292.229   7
   6  -4   4 6172.99 354.539   6
   6  -4   5 18479.6 616.563  10
   6  -4   5 18673.7 639.209   9
   6  -4   5 18051.6 489.478   7
   6  -4   5 19015.6 606.699   6
   6  -4   6 9291.69 424.407  10
   6  -4   6 9164.59 427.691   9
   6  -4   6 8828.87 333.275   7
   6  -4   6 9088.40 403.494   6
   6  -4   7 39863.3 831.236  10
   6  -4   7 39501.9 794.558   9
   6  -4   7 38350.1 654.991   7
   6  -4   7 37796.3 770.073   6
   6  -4   8 4873.34 266.526  10
   6  -4   8 4268.83 201.090   7
   6  -4   8 4703.00 245.121   6
   6  -4   9 5673.47 199.706   7
   6  -4   9 6152.01 239.127   6
   6  -4   9 6395.74 267.412  10
   6  -4  10 95.2792 29.5539  10
   6  -5 -12 1750.01 88.6715   8
   6  -5 -11 1308.02 89.3289   8
   6  -5 -10 47.3702 22.4561   8
   6  -5  -9 706.876 77.9326   8
   6  -5  -8 2230.88 148.045   8
   6  -5  -7 2097.89 148.501   8
   6  -5  -6 849.256 97.1326   8
   6  -5  -5 37013.9 634.337   8
   6  -5  -5 39154.3 901.388  10
   6  -5  -4 5185.54 236.105   8
   6  -5  -4 5652.12 346.001  10
   6   5  -3 2141.58 197.652   4
   6  -5  -3 2408.79 219.051  10
   6  -5  -2 2583.51 228.901  10
   6   5  -2 1936.05 179.943   4
   6  -5  -1 6285.91 345.469   9
   6  -5  -1 6169.82 354.780  10
   6  -5   0 1805.03 192.749   9
   6   5   0 1220.02 121.337   4
   6  -5   0 1626.77 181.840  10
   6  -5   1 4940.88 318.658   9
   6  -5   1 4909.25 304.809   6
   6  -5   1 5080.39 319.305  10
   6  -5   2 6912.97 376.017   9
   6  -5   2 7020.35 374.627  10
   6  -5   2 6442.07 344.756   6
   6  -5   3 16443.8 570.525   9
   6  -5   3 16089.8 534.248   6
   6  -5   3 16884.2 572.723  10
   6  -5   4 237.354 62.1836   9
   6  -5   4 280.939 75.1785  10
   6  -5   4 226.155 64.7054   6
   6  -5   5 1901.97 169.313   6
   6  -5   5 2092.43 188.625  10
   6  -5   6 192.146 54.0036  10
   6  -5   6 162.251 46.4825   6
   6  -5   7 1108.15 110.999  10
   6  -5   7 1127.55 103.454   6
   6  -5   8 714.263 73.2369  10
   6  -6  -9 2078.49 85.0977   8
   6  -6  -8 706.879 59.2396   8
   6   6  -8 429.279 64.7758   4
   6  -6  -7 2060.16 102.470   8
   6   6  -7 1480.70 121.919   4
   6  -6  -6 2480.21 117.569   8
   6   6  -6 1928.67 140.550   4
   6  -6  -5 348.858 46.8843   8
   6   6  -5 337.833 59.8935   4
   6   6  -4 117.748 25.0458   4
   6  -6  -3 393.896 74.8412  10
   6   6  -3 214.807 37.4665   4
   6  -6  -2 8600.10 352.114  10
   6  -6  -1 1286.47 138.817  10
  -6  -6   0 9412.11 294.188   8
   6  -6   0 10981.6 383.704  10
  -6  -6  -1 4794.83 193.637   8
   6  -6   1 6003.28 276.666  10
   6  -6   2 266.006 55.5890  10
  -6  -6  -2 201.035 36.2750   8
   6  -6   3 347.868 60.4177  10
   6  -6   4 2300.84 143.129  10
   7   0 -17 3534.45 162.004   5
   7   0 -17 2461.32 148.424   3
   7   0 -16-5.15895 29.4843   3
   7   0 -16-18.6741 24.8729   5
   7   0 -15 6115.61 307.851   5
   7   0 -15 6014.17 366.621   3
   7   0 -14-22.1333 46.9399   3
   7   0 -14 3.77716 27.4259   5
   7   0 -13 62864.4 1372.22   3
   7   0 -13 60731.3 1092.62   5
   7   0 -12-2.65841 25.1122   5
   7   0 -12 59.8753 40.5496   8
   7   0 -12-8.39904 36.1773   3
   7   0 -11 14813.4 459.920   8
   7   0 -11 15645.9 689.509   3
  -7   0  11 13989.3 982.441   1
   7   0 -11 15040.3 542.022   5
   7   0 -10 3.17443 41.3480   3
   7   0 -10 72.7486 41.5393   5
   7   0 -10-14.5061 21.5476   8
  -7   0  10 26.2538 88.3614   1
  -7   0   9 22524.4 1079.67   1
   7   0  -9 25991.0 554.375   8
   7   0  -9 23974.9 640.577   5
   7   0  -9 28146.3 846.159   3
  -7   0   8-139.597 74.7668   1
  -7   0   7 3249.33 354.409   1
  -7   0   6 72.1811 70.9967   1
  -7   0   5 37620.7 1199.50   1
  -7   0   4-3.29299 20.9767   1
  -7   0   3 287.055 96.0304   1
  -7   0   2-53.6292 48.0213   1
  -7   0   1 229.301 98.1124   1
  -7   0   0-26.5358 43.6266   1
  -7   0  -1 1401.21 287.711   1
  -7   0  -2-40.8969 58.1588  12
  -7   0  -3 66597.9 2154.56  12
   7   0   4 30.9251 37.7869   2
   7   0   4-14.3399 31.0556   7
  -7   0  -4 120.885 129.011  12
   7   0   5 3547.25 230.059   7
  -7   0  -5 4210.26 588.356  12
   7   0   6 64.5334 37.8714   7
   7   0   7 53872.0 833.472   7
   7   0   8 38.1312 28.8690   7
   7   0   9 16945.7 396.752   7
  -7   0  -9 20764.1 605.473   5
  -7   0 -10 5.81126 23.1811   5
  -7   0 -11 31578.9 547.755   5
  -7   0 -12 56.3587 22.8325   5
   7  -1 -17 7848.96 278.341   3
   7  -1 -16 11064.4 429.981   3
   7  -1 -16 11104.8 302.290   5
   7   1 -16 11505.6 377.867   5
   7  -1 -15 829.204 94.9639   8
   7   1 -15 876.739 121.656   5
   7   1 -15 750.350 120.578   3
   7  -1 -15 934.788 105.686   5
   7  -1 -15 802.833 132.417   3
   7   1 -14 49.5872 35.9347   3
   7  -1 -14-11.5913 37.3629   3
   7  -1 -14-27.6622 24.6289   5
   7   1 -14 34.5136 41.0972   5
   7  -1 -14 23.2460 21.7644   8
   7   1 -13 19.2699 63.4220   3
   7  -1 -13 28.0543 23.6718   5
   7   1 -13 44.2437 46.4046   5
   7  -1 -13 21.7040 25.2693   8
   7  -1 -12 11735.2 403.672   8
   7   1 -12 12086.4 590.902   3
   7  -1 -12 11582.7 452.232   5
   7   1 -12 12097.1 508.359   5
  -7   1  11 10332.1 824.346   1
   7  -1 -11 11064.3 438.575   5
   7  -1 -11 11311.1 389.467   8
  -7  -1  11 9226.12 753.682   1
   7   1 -11 11123.2 567.764   3
   7   1 -11 11068.0 482.118   5
  -7   1  10 36163.6 1466.58   1
   7   1 -10 36845.9 857.765   5
   7  -1 -10 35534.3 772.873   5
   7   1 -10 37650.2 1018.12   3
   7  -1 -10 36133.4 674.894   8
   7   1  -9 89876.8 1064.72   8
   7  -1  -9 89681.1 1020.82   8
   7   1  -9 90712.0 1527.79   3
  -7   1   9 83846.3 2103.94   1
   7  -1  -9 84932.2 1166.61   5
   7   1  -9 90133.9 1300.73   5
  -7   1   8 23282.5 988.675   1
  -7  -1   8 23892.7 1114.43   1
  -7  -1   7 6580.90 574.792   1
  -7   1   7 5571.70 424.881   1
  -7  -1   6 11114.0 731.596   1
  -7   1   6 9524.24 562.267   1
  -7  -1   5 186.821 105.319   1
  -7   1   5 168.270 75.1576   1
  -7  -1   4 548.338 153.173   1
  -7   1   4 318.617 86.9900   1
  -7   1   3 11998.8 599.490   1
  -7  -1   3 12305.8 715.121   1
  -7   1   2 31388.1 991.592   1
  -7  -1   2 32335.3 1202.86   1
  -7  -1   1 269912. 3611.28   1
  -7  -1   0 1591.79 299.814   1
  -7  -1  -1 6223.50 639.496   1
  -7   1  -1 5930.93 547.702  12
  -7  -1  -2 459.102 183.558   1
  -7   1  -2 259.022 113.914  12
   7  -1   3 1723.23 200.186   2
   7   1   3 1616.15 162.469   4
   7  -1   3 1840.65 185.208   7
  -7   1  -3 1630.54 322.901  12
   7  -1   4 10761.6 531.024   2
   7   1   4 9081.93 393.805   4
   7  -1   4 9701.78 408.764   7
  -7   1  -4 8968.03 788.111  12
   7  -1   5 814.128 119.468   7
  -7   1  -5 846.038 275.646  12
   7  -1   6 21289.5 605.559   7
   7  -1   7 6911.19 319.292   7
  -7   1  -8 6217.34 351.976   5
   7  -1   8 6252.22 287.270   7
  -7   1  -9 6564.93 326.570   5
  -7  -1  -9 6915.63 344.096   5
   7  -1   9 6120.30 257.620   7
  -7   1 -10 3772.76 222.230   5
  -7  -1 -10 4090.74 228.291   5
   7  -1  10 3729.23 178.705   7
  -7  -1 -11 5678.00 220.292   5
   7  -1  11 5111.60 166.403   7
  -7  -1 -12 662.093 59.1498   5
   7  -2 -16 5284.16 265.153   3
   7  -2 -15 6869.59 237.061   8
   7   2 -15 7543.66 327.675   5
   7  -2 -15 7202.09 370.922   3
   7   2 -14 123.759 54.3903   3
   7   2 -14 171.120 59.5748   5
   7  -2 -14 114.826 39.0863   8
   7  -2 -13 10374.7 351.131   8
   7   2 -13 10497.2 457.622   5
   7   2 -13 9175.28 466.108   3
   7   2 -12 8254.24 466.665   3
   7   2 -12 9359.01 448.558   5
   7  -2 -12 9351.14 342.909   8
   7   2 -11 380.774 102.149   3
   7   2 -11 419.146 98.8342   5
   7  -2 -11 356.073 70.2758   8
   7   2 -10 525.544 121.948   3
   7  -2 -10 643.055 93.3802   8
  -7  -2  10 703.479 228.060   1
   7   2 -10 620.651 117.932   5
   7  -2  -9 12553.2 391.886   8
  -7  -2   9 13426.4 986.037   1
   7   2  -9 12642.8 498.797   5
   7  -2  -8 12610.4 379.686   8
   7   2  -8 12125.6 474.477   5
  -7  -2   8 13607.8 952.643   1
   7  -2  -7 956.020 101.764   8
  -7  -2   7 992.479 246.199   1
   7   2  -7 766.679 134.559   3
   7   2  -7 1025.31 135.547   5
  -7  -2   6 20373.7 1056.79   1
  -7  -2   5 6912.09 596.107   1
  -7  -2   4 100159. 2265.38   1
  -7  -2   3 57262.6 1746.12   1
  -7  -2   2 5825.70 565.678   1
  -7  -2   1 6453.95 627.072   1
  -7  -2   0 3055.46 457.820   1
  -7  -2  -1 1934.92 384.180   1
   7  -2   2 39350.8 823.355  10
   7  -2   2 40122.9 975.701   2
   7   2   2 45181.6 812.414   4
   7  -2   2 44603.2 878.911   7
  -7  -2  -2 42680.5 1864.16   1
   7  -2   3 67.9761 42.4352  10
   7   2   3 172.306 62.3272   4
   7  -2   3 113.271 61.3958   2
   7  -2   3 109.889 52.1080   7
   7  -2   4 89856.6 1560.85   2
   7   2   4 87343.4 1166.37   4
   7  -2   4 90189.2 1296.57   7
   7   2   5 41209.9 848.416   4
   7  -2   5 40025.3 873.952   7
   7  -2   6 2657.68 234.587  10
  -7   2  -6 2341.94 217.376   5
   7  -2   6 2917.00 222.574   7
   7  -2   7 248.558 68.1427  10
  -7   2  -7 241.109 73.6952   5
   7  -2   7 301.572 69.2348   7
   7  -2   8 1021.28 134.376  10
  -7   2  -8 925.719 120.059   5
   7  -2   8 1111.95 123.351   7
   7  -2   9 368.050 71.7841  10
  -7   2  -9 366.901 68.7167   5
  -7  -2  -9 366.065 70.2234   5
   7  -2   9 408.929 68.4530   7
   7  -2  10 733.443 85.4418  10
  -7   2 -10 756.683 81.8312   5
  -7  -2 -10 745.461 84.2176   5
   7  -2  10 638.884 79.2142   7
  -7  -2 -11 1440.23 86.8437   5
   7  -2  11 1471.99 92.1293   7
   7  -3 -15 57.3366 31.4401   3
   7  -3 -15 63.5278 21.9966   8
   7  -3 -14 2422.99 205.342   3
   7  -3 -14 2463.46 138.953   8
   7  -3 -13 216.268 49.1747   8
   7  -3 -12 980.775 105.593   8
   7   3 -12 1014.97 135.434   5
   7  -3 -11 33170.7 627.015   8
   7   3 -11 32728.5 790.476   5
   7  -3 -10 29843.3 600.384   8
   7   3 -10 28889.3 751.999   5
   7   3  -9 119.180 67.4015   3
   7  -3  -9 152.747 53.8295   8
   7  -3  -8 41490.3 715.577   8
  -7  -3   8 38784.0 1647.27   1
   7   3  -8 38445.1 1165.00   3
   7   3  -7 158.768 84.8793   3
   7  -3  -7 288.231 62.5983   8
  -7  -3   7 283.639 146.054   1
   7   3  -6 959.523 201.954   3
   7  -3  -6 947.711 105.141   8
  -7  -3   6 1061.94 272.666   1
   7  -3  -6 870.539 139.570  10
   7  -3  -5 10668.2 338.998   8
  -7  -3   5 10625.6 831.046   1
   7  -3  -5 9894.57 443.087  10
   7   3  -5 10469.6 630.599   3
  -7  -3   4 2088.24 364.208   1
   7  -3  -4 1788.44 191.362   2
   7  -3  -4 2050.83 200.925  10
  -7  -3   3 15361.3 1010.58   1
   7  -3  -3 13382.5 532.480   2
   7  -3  -3 14744.4 522.585  10
   7  -3  -2 440.288 92.3640  10
  -7  -3   2 384.169 174.597   1
   7  -3  -2 503.751 102.357   2
  -7  -3   1 831.999 247.359   1
   7  -3  -1 746.949 132.923   2
   7   3  -1 771.997 124.215   4
   7  -3  -1 719.276 114.453   6
   7  -3  -1 772.626 123.325  10
  -7  -3   0 5715.98 703.805   1
   7  -3   0 4757.63 328.341   2
   7  -3   0 5594.43 303.308   7
   7  -3   0 5143.62 311.927   6
   7  -3   0 5189.76 316.970  10
   7  -3   1 24924.9 687.513  10
  -7  -3  -1 26098.4 1510.33   1
   7  -3   1 27760.9 839.055   2
   7   3   1 28575.8 646.352   4
   7  -3   1 28071.9 687.408   7
   7  -3   1 25976.9 698.336   6
   7  -3   2 73.4007 43.9407  10
   7   3   2 69.4635 36.4672   4
   7  -3   2 71.4947 53.1127   2
   7  -3   2 119.123 58.4869   7
   7  -3   2 39.5994 26.8587   6
   7  -3   3 1723.55 186.833  10
   7  -3   3 2125.53 238.725   2
   7   3   3 2149.21 185.976   4
   7  -3   3 2241.19 206.974   7
   7  -3   3 1745.59 182.494   6
   7  -3   4 6997.21 380.337  10
   7   3   4 8078.63 350.850   4
   7  -3   4 7848.57 374.962   7
   7  -3   4 7097.72 363.686   6
   7  -3   5 2857.05 242.592  10
   7   3   5 3452.28 233.348   4
   7  -3   5 2929.08 221.293   7
   7  -3   5 2681.26 220.444   6
   7  -3   6 30594.9 775.350  10
   7  -3   6 30562.2 680.643   7
   7  -3   6 28884.3 690.155   6
   7  -3   7 242.569 70.4104  10
   7  -3   7 273.233 78.0425   9
   7  -3   7 255.533 65.3936   7
   7  -3   7 245.666 63.1786   6
   7  -3   8 16276.7 495.103  10
   7  -3   8 16444.5 460.167   9
   7  -3   8 17253.1 444.692   7
   7  -3   8 15700.7 423.598   6
   7  -3   9 9167.42 323.402  10
   7  -3   9 9965.87 299.747   7
   7  -3  10 476.482 62.2430   7
   7  -3  10 536.581 62.7580  10
   7  -4 -14 1580.08 84.6444   8
   7  -4 -13 8358.19 226.529   8
   7  -4 -13 7057.40 273.049   3
   7  -4 -12 2021.75 126.701   8
   7  -4 -12 1751.83 154.260   3
   7  -4 -11 654.897 80.2880   8
   7  -4 -10 3547.79 189.395   8
   7  -4  -9 17930.6 443.159   8
   7  -4  -8 1069.23 111.397   8
   7  -4  -7 11028.1 360.819   8
   7  -4  -6 14722.1 412.882   8
   7  -4  -6 14957.8 582.100  10
   7  -4  -5 41.4995 38.6194  10
   7  -4  -5 66.7505 31.8935   8
   7  -4  -4 13494.9 472.105   9
   7  -4  -4 13143.3 524.092  10
   7  -4  -3 14189.7 512.679   9
   7  -4  -3 13656.6 538.285  10
  -7  -4   2 922.311 276.833   1
   7  -4  -2 705.599 119.413   9
   7   4  -2 679.458 121.648   4
   7  -4  -2 670.399 116.248  10
   7  -4  -1 3219.93 259.177   9
   7   4  -1 3242.24 243.552   4
   7  -4  -1 2857.24 245.635  10
   7  -4   0 8852.02 444.938   9
   7   4   0 8799.37 360.438   4
   7  -4   0 8577.07 412.678   6
   7  -4   0 8943.77 441.792  10
   7  -4   1 39.0237 33.7912   9
   7   4   1 42.0196 37.8287   4
   7  -4   1 44.1559 45.8525   6
   7  -4   2 9618.51 475.532   9
   7   4   2 10710.0 389.721   4
   7  -4   2 9910.33 451.278   6
   7  -4   2 10009.4 461.848  10
   7  -4   3 6583.79 391.928   9
   7  -4   3 6164.93 290.111   7
   7  -4   3 6706.13 363.663   6
   7  -4   3 6850.58 376.880  10
   7  -4   4 50462.9 1050.98   9
   7  -4   4 48941.0 795.004   7
   7  -4   4 50488.8 965.333   6
   7  -4   4 51332.8 1005.95  10
   7  -4   5 3966.78 280.915   9
   7  -4   5 3630.55 207.605   7
   7  -4   5 3707.66 250.717   6
   7  -4   5 3786.18 263.570  10
   7  -4   6 11940.5 450.222   9
   7  -4   6 11446.8 349.485   7
   7  -4   6 11544.7 410.427   6
   7  -4   6 11679.1 435.669  10
   7  -4   7 4388.51 231.728   9
   7  -4   7 4121.67 194.343   7
   7  -4   7 4453.05 228.519   6
   7  -4   7 4665.34 254.061  10
   7  -4   8 1939.32 113.568   7
   7  -4   8 1792.03 118.137   6
   7  -4   8 2109.44 150.813  10
   7  -4   9 432.954 47.9102   7
   7  -4   9 623.366 65.3632  10
   7  -5 -12 3410.91 114.478   8
   7  -5 -11 3636.51 138.106   8
   7  -5 -10 964.406 78.1028   8
   7  -5  -9 6632.54 216.869   8
   7  -5  -8 12367.1 313.710   8
   7  -5  -7 8072.29 260.825   8
   7  -5  -6 14107.8 349.389   8
   7  -5  -5 6697.52 238.072   8
   7  -5  -5 7781.27 393.969  10
   7   5  -4 7184.98 357.128   4
   7  -5  -4 8452.10 412.008  10
   7   5  -3 3053.31 223.192   4
   7  -5  -3 3240.42 249.673  10
   7   5  -2 6817.59 311.040   4
   7  -5  -2 8270.31 398.023  10
   7  -5  -1 12115.8 463.854   9
   7  -5  -1 11650.5 473.963  10
   7  -5   0 12917.6 489.458   9
   7  -5   0 12542.0 482.014  10
   7  -5   1 5477.37 320.042   9
   7  -5   1 5353.95 312.003  10
   7  -5   2 1481.75 168.108   9
   7   5   2 1135.88 104.268   4
   7  -5   2 1563.56 166.372  10
   7  -5   3 6407.05 329.161   9
   7  -5   3 6191.35 305.271   6
   7  -5   3 6303.41 322.031  10
   7  -5   4 19365.7 531.042   9
   7  -5   4 18551.0 494.111   6
   7  -5   4 19417.7 534.132  10
   7  -5   5 8.78203 17.3438  10
   7  -5   6 751.569 86.6718  10
   7  -5   7 577.547 61.2440  10
   7   6  -8 1805.51 108.147   4
   7   6  -7 259.923 46.9775   4
   7   6  -6 3247.92 158.187   4
   7   6  -5 149.035 33.1769   4
   7   6  -4 471.883 56.4169   4
   7   6  -3 4158.53 161.552   4
   7  -6  -2 2205.47 166.321  10
   7  -6  -1 135.774 41.4084  10
  -7  -6   1 127.977 33.9800   8
   7  -6   0 2698.79 178.183  10
  -7  -6   0 1980.12 111.998   8
   7  -6   1 12424.0 361.455  10
   7  -6   2 711.422 80.3624  10
   7  -6   3 164.981 34.4163  10
   8   0 -17-8.69735 16.8989   3
   8   0 -16 18973.3 548.841   3
   8   0 -16 20226.1 460.861   5
   8   0 -15 14.7388 30.3829   3
   8   0 -15 7.42458 21.4417   5
   8   0 -14 61713.1 1017.79   5
   8   0 -14 62324.7 1261.76   3
   8   0 -13-10.8663 33.4142   3
   8   0 -13 29.0191 40.4655   5
   8   0 -13-2.29498 23.2187   8
   8   0 -12 4871.56 271.107   8
   8   0 -12 5116.29 396.584   3
   8   0 -12 4758.17 308.470   5
   8   0 -11-10.8501 42.1640   3
   8   0 -11-45.1512 50.5099   5
   8   0 -11 25.6973 30.9335   8
   8   0 -10 10253.6 370.496   8
  -8   0  10 8528.83 702.851   1
   8   0 -10 9259.64 418.572   5
   8   0 -10 10657.6 551.973   3
   8   0  -9-65.0933 47.7515   3
   8   0  -9-4.69943 26.4049   5
   8   0  -9-2.45514 20.1006   8
  -8   0   9 25.8909 50.7038   1
   8   0  -8 28322.1 564.257   8
  -8   0   8 27078.3 1194.77   1
   8   0  -8 26583.2 678.818   5
   8   0  -8 29318.0 852.783   3
  -8   0   7 44.0130 49.3642   1
  -8   0   6 40138.2 1368.32   1
  -8   0   5 13.9411 29.9790   1
  -8   0   4 19861.3 914.057   1
  -8   0   3-19.0102 37.5318   1
  -8   0   2 797.383 193.912   1
  -8   0   1 164.865 91.1767   1
  -8   0   0 41557.6 1606.21   1
  -8   0  -1-216.161 117.678   1
   8   0   2 47299.8 995.944   2
   8   0   2 49456.6 897.563   7
   8   0   3 13.3142 41.8778   2
   8   0   3 80.2627 43.4917   7
   8   0   4 66.5914 37.9079   7
   8   0   5-43.7116 47.0890   7
   8   0   6 70.0352 43.2391   7
   8   0   7 26.3180 20.6028   7
   8   0   8 5769.78 233.135   7
  -8   0  -9 19.5635 26.5398   5
   8   0   9 21.4678 18.4748   7
  -8   0 -10 22758.3 476.016   5
  -8   0 -11 26.5942 19.6396   5
   8  -1 -17 127.215 40.7898   3
   8   1 -16 6699.45 294.341   3
   8  -1 -16 7799.65 341.247   3
   8   1 -15 3059.70 238.919   3
   8   1 -15 3638.18 233.540   5
   8  -1 -15 3365.48 266.936   3
   8  -1 -14 22516.9 523.265   8
   8  -1 -14 21521.1 540.452   5
   8   1 -14 23597.4 650.218   5
   8   1 -14 22074.8 731.072   3
   8  -1 -14 23767.2 788.367   3
   8  -1 -13 1814.45 158.112   8
   8   1 -13 1764.28 221.148   3
   8  -1 -13 1715.41 165.205   5
   8   1 -13 1813.92 191.952   5
   8  -1 -13 1890.01 232.375   3
   8  -1 -12 2538.17 187.488   8
   8  -1 -12 2345.51 200.201   5
   8   1 -12 2531.02 232.678   5
   8   1 -12 2477.79 270.928   3
   8  -1 -12 2610.04 277.411   3
   8  -1 -11 22486.9 556.634   8
   8  -1 -11 20320.2 595.704   5
   8   1 -11 21146.3 791.812   3
   8   1 -11 21937.9 676.461   5
   8  -1 -11 23535.2 825.774   3
   8  -1 -10 4510.80 358.079   3
   8  -1 -10 4581.27 243.257   8
  -8  -1  10 4643.12 573.892   1
  -8   1  10 3910.24 451.225   1
   8   1 -10 4013.74 342.545   3
   8  -1 -10 3988.71 261.717   5
   8   1 -10 4360.36 299.173   5
   8  -1  -9 6847.20 285.937   8
  -8  -1   9 7256.74 697.930   1
  -8   1   9 5932.47 533.716   1
   8   1  -9 6680.15 427.249   3
   8  -1  -9 6196.59 320.448   5
   8   1  -9 6763.55 362.778   5
   8  -1  -9 7006.23 427.625   3
   8  -1  -8 4629.17 225.097   8
  -8  -1   8 4969.72 560.601   1
  -8   1   8 4115.44 434.699   1
   8   1  -8 4660.28 347.313   3
   8   1  -8 4541.34 289.367   5
   8  -1  -8 4607.15 333.870   3
  -8  -1   7 15619.9 961.152   1
  -8   1   7 15281.2 831.377   1
   8   1  -7 14762.2 593.764   3
   8   1  -7 15451.4 518.415   5
  -8  -1   6 743.337 197.290   1
  -8   1   6 710.345 163.232   1
  -8   1   5 104.581 61.9144   1
  -8  -1   5 96.6054 54.3047   1
  -8  -1   4 69326.9 1858.40   1
  -8  -1   3 766.591 199.235   1
  -8  -1   2 55973.3 1747.56   1
  -8  -1   1 14257.0 938.265   1
  -8  -1   0 979.380 265.905   1
  -8  -1  -1 1643.59 352.948   1
   8  -1   1 1369.27 172.559   2
   8   1   1 1550.92 155.568   4
   8  -1   1 1691.15 169.051   7
   8  -1   2 301.593 91.7897   2
   8  -1   2 235.225 79.3472   7
   8   1   2 283.428 66.0598   7
   8   1   3 213.882 64.7005   4
   8  -1   3 198.734 69.6989   2
   8  -1   3 124.415 55.7488   7
   8   1   3 287.349 69.1262   7
   8  -1   4 18128.4 692.059   2
   8  -1   4 17640.3 553.322   7
   8  -1   5 34563.6 804.326   7
   8  -1   6 17862.8 535.283   7
   8  -1   7 3737.27 224.258   7
  -8   1  -8 3531.72 240.035   5
   8  -1   8 3619.09 199.728   7
  -8   1  -9 24.1438 23.5424   5
  -8  -1  -9 52.8192 34.6636   5
   8  -1   9 40.8061 21.7391   7
  -8   1 -10 18.5169 15.5704   5
  -8  -1 -10 37.5706 25.1370   5
   8  -1  10 24.6456 14.1872   7
  -8  -1 -11 294.127 40.0910   5
   8  -2 -16 9859.10 333.045   3
   8  -2 -15 4991.37 196.676   8
   8  -2 -15 4865.63 285.318   3
   8   2 -14 36.4212 35.6124   3
   8  -2 -14 94.2267 45.0269   3
   8   2 -14 179.011 59.8393   5
   8  -2 -14 97.7624 36.8775   8
   8  -2 -13 6550.16 284.550   8
   8   2 -13 5742.91 375.484   3
   8   2 -13 7057.45 365.961   5
   8  -2 -13 6771.31 412.634   3
   8   2 -12 358.489 97.4406   3
   8  -2 -12 430.003 110.452   3
   8   2 -12 404.142 91.2012   5
   8  -2 -12 346.010 63.7281   8
   8  -2 -11 15267.7 436.144   8
   8   2 -11 15132.6 568.779   5
   8  -2 -10 6847.05 292.483   8
   8   2 -10 5946.72 409.940   3
   8   2 -10 6885.66 382.356   5
   8  -2  -9 18538.2 469.867   8
  -8  -2   9 18939.6 1190.07   1
   8   2  -9 17821.8 604.862   5
   8   2  -8 47.3103 49.8916   3
  -8  -2   8 107.641 140.579   1
   8  -2  -8 118.737 52.9541   3
   8  -2  -8-27.8080 23.9821   8
   8  -2  -7 38803.1 633.023   8
  -8  -2   7 40037.1 1606.37   1
  -8  -2   6 4245.69 512.908   1
   8   2  -6 3849.01 323.731   3
   8  -2  -6 4569.35 299.286  10
  -8  -2   5 16932.0 1024.63   1
   8   2  -5 16184.7 691.353   3
  -8  -2   4 4179.12 515.961   1
   8   2  -4 4445.23 389.242   3
   8   2  -3 51026.0 951.881   4
   8   2  -3 50355.2 1340.48   3
  -8  -2   2 22414.2 1218.53   1
   8  -2  -2 21586.6 683.459   2
  -8  -2   1 6562.64 696.014   1
   8  -2  -1 6014.93 365.418   2
   8  -2  -1 7122.32 339.191   7
  -8  -2   0 20380.1 1302.27   1
   8   2   0 22830.8 576.061   4
   8  -2   0 20865.4 594.603   7
   8  -2   1 78240.1 1415.83   2
   8   2   1 88681.2 1145.87   4
   8  -2   1 88356.6 1269.06   7
  -8  -2  -1 77493.2 2592.13   1
   8  -2   2 5498.53 308.679  10
   8  -2   2 5641.80 384.480   2
   8   2   2 6630.70 332.441   4
   8  -2   2 6470.84 347.847   7
   8  -2   3 4750.99 292.599  10
   8  -2   3 5383.16 382.763   2
   8   2   3 5997.47 324.343   4
   8  -2   3 5697.33 325.851   7
   8  -2   4 5720.51 323.897  10
   8   2   4 6522.75 332.971   4
   8  -2   4 6893.99 374.481   7
   8  -2   5 22919.1 644.276  10
   8  -2   5 27270.6 699.545   7
   8  -2   6 2701.29 216.139  10
   8  -2   6 3011.75 214.995   7
   8  -2   7 5167.39 274.719  10
  -8   2  -7 4619.99 250.467   5
   8  -2   8 2291.99 163.991  10
  -8   2  -8 1840.51 138.282   5
  -8  -2  -8 2138.47 171.563   5
   8  -2   8 2353.22 159.324   7
  -8  -2  -9 141.017 37.2276   5
   8  -2   9 128.634 37.3984   7
  -8  -2 -10 7554.90 201.623   5
   8  -2  10 8543.30 223.028   7
   8  -3 -15 1282.50 81.9941   8
   8  -3 -15 1105.97 102.736   3
   8  -3 -14 680.873 70.0751   8
   8  -3 -14 670.956 97.2006   3
   8  -3 -13 2918.20 164.294   8
   8  -3 -13 2647.14 217.373   3
   8  -3 -12 14302.3 381.714   8
   8  -3 -12 13039.7 507.612   3
   8  -3 -11 35687.0 884.774   3
   8  -3 -11 38339.5 651.296   8
   8  -3 -10 2330.25 224.583   3
   8  -3 -10 2485.67 168.762   8
   8   3 -10 2364.77 308.505   3
   8   3  -9 429.286 132.648   3
   8  -3  -9 372.781 68.0187   8
   8  -3  -8 2182.32 155.914   8
   8   3  -8 2244.56 305.326   3
   8  -3  -7 12433.2 365.304   8
  -8  -3   7 13658.4 1024.47   1
   8   3  -7 13434.4 757.691   3
   8  -3  -6 25072.9 502.175   8
  -8  -3   6 27467.0 1451.90   1
   8   3  -6 28195.4 1086.05   3
   8  -3  -6 27277.4 777.448  10
  -8  -3   5 1509.20 353.665   1
   8  -3  -5 1294.48 171.184   2
   8  -3  -5 1564.64 179.430  10
  -8  -3   4 634.361 210.843   1
   8  -3  -4 509.022 108.807   2
   8  -3  -4 906.720 135.049  10
  -8  -3   3 2975.08 490.067   1
   8  -3  -3 3108.81 271.505   2
   8   3  -3 3646.83 274.329   4
   8  -3  -3 3081.70 247.476  10
  -8  -3   2 709.164 257.192   1
   8  -3  -2 709.979 133.590   2
   8   3  -2 924.215 138.312   4
   8  -3  -2 827.811 125.078  10
  -8  -3   1 1204.73 334.389   1
   8  -3  -1 1068.06 161.916   2
   8   3  -1 1492.86 168.866   4
   8  -3  -1 1130.22 141.297   7
   8  -3  -1 1103.14 149.003  10
   8  -3   0 7726.07 449.481   2
   8   3   0 8872.92 375.914   4
   8  -3   0 7522.38 362.919   7
   8  -3   0 7002.41 358.654   6
  -8  -3   0 7677.98 838.988   1
   8  -3   0 8197.49 412.598  10
   8  -3   1 1918.37 223.745   2
   8   3   1 2661.76 203.166   4
   8  -3   1 2048.03 197.777   7
   8  -3   1 1879.15 186.854   6
  -8  -3  -1 2474.06 478.747   1
   8  -3   1 2072.13 205.430  10
   8  -3   2 40561.9 1040.33   2
   8   3   2 44990.0 852.353   4
   8  -3   2 42251.7 899.197   7
   8  -3   2 36923.9 830.044   6
   8  -3   2 35717.1 843.173  10
   8  -3   3 922.555 136.963  10
   8  -3   3 1091.78 172.663   2
   8   3   3 1257.85 144.658   4
   8  -3   3 1110.61 143.581   7
   8  -3   3 891.268 124.325   6
   8  -3   4 8649.93 399.416  10
   8  -3   4 9349.71 395.808   7
   8  -3   4 8474.28 379.279   6
   8  -3   5 22764.8 626.611  10
   8  -3   5 22172.4 581.121   6
   8  -3   6 15320.3 487.940  10
   8  -3   6 16135.4 554.023   9
   8  -3   6 16678.7 467.475   7
   8  -3   7 17104.2 470.651  10
   8  -3   7 17352.7 498.950   9
   8  -3   7 18574.6 448.098   7
   8  -3   8 11757.7 320.146   9
   8  -3   8 12071.2 346.455  10
   8  -3   9 2991.78 137.652   7
   8  -4 -14 5747.80 146.055   8
   8  -4 -13 566.168 58.6836   8
   8  -4 -12 1731.76 108.247   8
   8  -4 -11 5114.12 202.946   8
   8  -4 -11 4848.51 236.721   2
   8  -4 -10 7462.64 257.994   8
   8  -4 -10 7087.56 315.703   2
   8  -4  -9 49530.9 678.916   8
   8  -4  -9 46111.6 860.594   2
   8  -4  -8 4059.53 198.997   8
   8  -4  -8 3805.52 261.902   2
   8  -4  -7 39826.1 619.436   8
   8  -4  -7 39477.9 874.026   2
   8  -4  -6 1651.62 125.099   8
   8  -4  -6 1637.15 183.772   2
   8  -4  -6 1860.26 202.188  10
   8  -4  -5 5898.89 350.285   2
   8  -4  -5 6182.52 366.377  10
   8  -4  -4 1117.81 135.175   9
   8  -4  -4 1203.57 158.313   2
   8  -4  -4 1003.08 142.744  10
   8  -4  -3 1175.74 145.925   9
   8  -4  -3 1038.91 143.076   2
   8   4  -3 1440.90 168.542   4
   8  -4  -3 1072.61 150.036  10
   8  -4  -2 165.278 56.9569  10
   8  -4  -2 127.875 53.1508   9
   8   4  -2 204.532 63.7792   4
   8  -4  -2 116.373 42.1592   2
   8  -4  -1 3163.15 253.156   9
   8  -4  -1 3876.37 298.040   2
   8   4  -1 3510.47 231.233   4
   8  -4  -1 3115.77 249.723  10
   8  -4   0 1262.58 163.533   9
   8  -4   0 1476.34 184.563   2
   8   4   0 1557.46 151.042   4
   8  -4   0 1327.93 165.264  10
   8  -4   1 16055.5 597.092   9
   8  -4   1 18627.0 649.175   2
   8   4   1 19373.5 521.535   4
   8  -4   1 16240.6 542.688   6
   8  -4   1 16550.1 580.630  10
   8  -4   2 15375.9 583.079   9
   8  -4   2 15021.0 432.587   7
   8  -4   2 15233.4 509.968   6
   8  -4   2 16332.0 569.195  10
   8  -4   3 2084.48 209.637   9
   8   4   3 2551.63 175.909   4
   8  -4   3 2017.05 155.806   7
   8  -4   3 2022.44 181.611   6
   8  -4   3 2325.07 214.025  10
   8  -4   4 29.7684 30.9403  10
   8  -4   4 5.79752 29.9568   9
   8  -4   4 91.0334 39.0914   7
   8  -4   4 17.9925 18.6419   6
   8  -4   5 5.54955 27.0133  10
   8  -4   5 11.5232 26.6986   9
   8  -4   5 16.2573 16.5107   7
   8  -4   5 28.4464 23.4781   6
   8  -4   6 4111.87 228.330   9
   8  -4   6 3951.20 177.353   7
   8  -4   6 4056.70 193.580   6
   8  -4   6 4453.76 239.938  10
   8  -4   7 8350.41 221.392   7
   8  -4   7 9067.56 289.037  10
   8  -5 -11 315.115 37.7922   8
   8  -5 -10 468.641 48.7931   8
   8  -5  -9 838.334 70.2357   8
   8  -5  -8 2451.75 123.279   8
   8  -5  -7 692.179 66.2072   8
   8   5  -6 1785.36 171.169   4
   8   5  -5 642.671 103.710   4
   8  -5  -5 652.771 110.714  10
   8   5  -4 13619.9 452.456   4
   8  -5  -4 15020.6 520.784  10
   8  -5  -3 172.001 53.1720  10
   8   5  -3 239.251 60.7974   4
   8   5  -2 6792.81 283.831   4
   8  -5  -2 8747.72 388.160  10
   8  -5  -1 10865.7 408.970   9
   8  -5  -1 10522.9 420.536  10
   8  -5   0 692.778 106.604   9
   8   5   0 534.111 76.5103   4
   8  -5   0 565.516 98.7307  10
   8  -5   1 576.358 95.3988   9
   8   5   1 545.507 75.8715   4
   8  -5   1 574.376 95.2970  10
   8  -5   2 2498.25 194.369   9
   8  -5   2 2484.84 188.586  10
   8  -5   3 2315.47 174.148   9
   8  -5   3 2185.58 165.148  10
   8  -5   4 2.23807 16.0139  10
   8  -5   5 1655.11 116.405  10
   8   6  -6 619.679 57.1378   4
   8   6  -5 333.334 43.0938   4
   8   6  -4 1879.87 99.8981   4
   8   6  -3 7924.91 198.386   4
  -8  -6   2 10439.5 238.122   8
   8  -6  -1 3173.43 172.363  10
   8  -6   0 11997.8 318.367  10
   8  -6   1 332.714 50.6778  10
   9   0 -16 23.0471 24.1850   3
   9   0 -15 3515.65 263.760   3
   9   0 -14 0.81458 35.3936   3
   9   0 -13 39219.6 1027.37   3
   9   0 -13 38017.0 815.738   5
   9   0 -12 5.33029 31.2700   3
   9   0 -12 13.0427 26.6225   5
   9   0 -11 15169.2 467.559   8
   9   0 -11 14232.4 642.991   3
   9   0 -11 13640.6 520.067   5
   9   0 -10 31.4797 52.3221   3
   9   0 -10-9.48783 35.5187   5
   9   0 -10-1.48288 20.7427   8
   9   0  -9 46332.5 792.150   8
  -9   0   9 48021.1 1778.44   1
   9   0  -9 46927.4 1125.23   3
   9   0  -8 73.8156 58.1882   3
   9   0  -8 14.0143 15.8304   8
   9   0  -7 6941.11 274.185   8
  -9   0   7 7575.79 646.835   1
   9   0  -7 7104.48 413.277   3
   9   0  -6-1.05889 28.0930   3
  -9   0   6-70.8942 61.4861   1
  -9   0   5 71471.5 1932.37   1
  -9   0   4-142.088 88.3787   1
  -9   0   3 11518.5 795.265   1
  -9   0   2-37.9004 49.6713   1
  -9   0   1 450.750 175.844   1
   9   0  -1 179.852 57.5160   2
   9   0   0 9.33055 20.7542   4
   9   0   0 49.5183 27.7936   2
   9   0   0-0.20860 31.9306   7
   9   0   1 210.556 65.0313   4
   9   0   1 156.660 67.5058   2
   9   0   1 168.505 67.9089   7
   9   0   2-2.85772 34.1118   2
   9   0   2 16.8916 34.2438   7
   9   0   3 4545.62 337.280   2
   9   0   3 4969.12 288.034   7
   9   0   4 2.93996 24.0351   7
   9   0   5 7722.82 349.421   7
   9   0   6 39.5490 28.9698   7
   9   0   7 69097.8 807.083   7
  -9   0  -8 47.3106 32.2467   5
   9   0   8 34.6406 24.5027   7
  -9   0  -9 14808.0 380.651   5
  -9   0 -10 18.7230 11.5603   5
   9   1 -16 2663.91 182.927   3
   9  -1 -16 2919.03 196.151   3
   9   1 -15 13026.8 482.831   3
   9  -1 -15 13606.8 493.866   3
   9  -1 -14 1988.41 153.665   8
   9   1 -14 1821.10 201.450   3
   9  -1 -14 2012.49 213.770   3
   9  -1 -13 1533.59 144.374   8
   9   1 -13 1669.47 210.093   3
   9   1 -13 1643.59 176.788   5
   9  -1 -13 1601.96 203.959   3
   9  -1 -12 6292.80 287.400   8
   9   1 -12 6184.64 420.112   3
   9   1 -12 6306.93 358.808   5
   9  -1 -12 6390.75 422.649   3
   9  -1 -11 28281.0 609.338   8
   9   1 -11 27562.9 901.865   3
   9   1 -11 27404.3 758.319   5
   9  -1 -11 28896.4 902.098   3
   9   1 -10 70.4876 53.0010   3
   9  -1 -10 138.797 64.2458   3
   9   1 -10 114.130 48.6753   5
   9  -1 -10 36.6638 31.9154   8
   9  -1  -9 9120.20 331.504   8
  -9  -1   9 9179.40 819.678   1
   9   1  -9 8137.51 484.994   3
   9  -1  -9 9111.02 490.971   3
   9  -1  -8 44234.8 707.736   8
  -9  -1   8 45078.7 1730.36   1
   9  -1  -8 43634.1 1030.40   3
   9  -1  -7 66.1114 29.2199   3
   9  -1  -7 29.1260 19.1811   8
   9   1  -6 519.432 112.399   3
   9  -1  -6 550.689 104.585   3
  -9  -1   6 436.887 160.857   1
  -9  -1   5 58062.4 1882.54   1
   9   1  -5 50182.2 1121.44   3
   9   1  -4 143.955 74.8373   3
  -9  -1   4 27.7283 43.7073   1
   9   1  -4 82.9922 56.0628   4
   9  -1  -4 61.0860 33.1771   2
  -9  -1   3 7201.59 676.327   1
   9   1  -3 6882.70 308.046   4
   9  -1  -3 7087.43 381.188   2
   9   1  -3 7623.50 510.148   3
  -9  -1   2 8055.59 745.100   1
   9   1  -2 8413.62 338.582   4
   9  -1  -2 7750.16 407.958   2
  -9  -1   1 16245.6 1120.76   1
   9  -1  -1 14433.7 558.896   2
   9   1  -1 15030.6 459.766   4
   9  -1   0 11980.1 515.521   2
   9   1   0 14394.7 476.914   4
   9  -1   0 13457.5 499.491   7
   9   1   0 14654.7 476.106   7
  -9  -1   0 12653.0 1026.14   1
   9  -1   1 4391.53 331.906   2
   9  -1   1 4614.80 308.330   7
   9   1   1 4919.88 271.291   7
  -9  -1  -1 4105.69 606.951   1
   9  -1   2 2875.32 271.759   2
   9   1   2 2968.48 220.880   4
   9  -1   2 3258.21 259.123   7
   9   1   2 3000.12 211.456   7
   9   1   3 38051.6 842.732   4
   9  -1   3 40377.0 853.578   7
   9   1   3 38680.5 739.563   7
   9  -1   4 14993.3 511.996   7
   9  -1   5 2803.76 217.860   7
   9  -1   6 690.846 98.9014   7
  -9   1  -7 11626.4 422.091   5
   9  -1   7 12946.8 377.087   7
  -9   1  -8 6375.21 272.745   5
  -9  -1  -8 6982.45 306.861   5
   9  -1   8 6753.43 234.362   7
  -9  -1  -9 3040.86 165.649   5
   9  -1   9 2878.93 124.233   7
  -9  -1 -10 4502.60 147.450   5
   9  -2 -16 5192.37 217.999   3
   9  -2 -15 2193.90 124.294   8
   9   2 -15 2149.80 194.893   3
   9  -2 -15 1889.52 161.261   3
   9  -2 -14 8534.90 280.752   8
   9   2 -14 8074.83 413.095   3
   9  -2 -14 8009.63 382.129   3
   9  -2 -13 1334.21 121.984   8
   9   2 -13 1171.93 169.626   3
   9  -2 -13 1339.05 171.307   3
   9  -2 -12 5442.48 251.353   8
   9   2 -12 4841.03 365.785   3
   9  -2 -12 5081.54 346.739   3
   9   2 -11 202.609 84.4469   3
   9  -2 -11 174.074 70.4178   3
   9  -2 -11 200.415 47.9300   8
   9  -2 -10 22.7621 32.7755   3
   9  -2 -10 26.3201 24.8803   8
   9  -2  -9 7631.71 295.947   8
   9   2  -9 6630.06 449.599   3
   9  -2  -9 7123.24 416.023   3
   9  -2  -8 20630.1 469.947   8
  -9  -2   8 21157.7 1248.71   1
   9   2  -8 18224.3 753.992   3
   9  -2  -8 20242.7 674.378   3
   9   2  -7 20.1028 37.6352   3
   9  -2  -7 22.5689 17.9908   8
   9   2  -6 18.4077 47.3052   3
  -9  -2   6-15.6555 112.534   1
   9   2  -5 729.818 174.065   3
  -9  -2   5 741.421 245.721   1
  -9  -2   4 2215.11 405.134   1
   9   2  -4 1846.16 187.781   4
   9  -2  -4 1714.85 198.960   2
   9  -2  -4 2127.55 204.114   7
   9   2  -4 2012.28 289.270   3
  -9  -2   3 13798.0 1013.90   1
   9  -2  -3 12410.3 543.113   2
   9   2  -3 14339.9 510.586   4
   9  -2  -3 12869.9 491.799   7
  -9  -2   2 6694.84 740.817   1
   9  -2  -2 6029.68 380.857   2
   9   2  -2 7909.18 357.705   4
   9  -2  -2 7030.90 354.186   7
  -9  -2   1 9685.45 944.438   1
   9  -2  -1 8215.26 443.912   2
   9   2  -1 10507.4 402.347   4
   9  -2  -1 10150.6 427.578   7
   9  -2   0 28633.8 864.163   2
   9   2   0 33755.2 720.444   4
   9  -2   0 32227.0 772.979   7
  -9  -2   0 29745.4 1657.80   1
   9  -2   1 4959.96 368.737   2
   9   2   1 6191.35 321.910   4
   9  -2   1 5949.03 342.581   7
  -9  -2  -1 4538.68 652.215   1
   9  -2   2 36021.0 990.467   2
   9  -2   2 40349.7 870.781   7
   9  -2   3 4196.67 344.059   2
   9   2   3 4209.51 264.921   4
   9  -2   3 4678.23 296.364   7
   9  -2   4 5625.56 326.347   7
   9  -2   5 18456.0 537.930   7
   9  -2   6 356.517 70.0949   7
   9  -2   7 20187.2 460.822   7
   9  -2   8-5.52131 21.4850   9
  -9  -2  -8-1.91270 11.5116   5
   9  -2   8 12.4301 18.4754   7
  -9  -2  -9 1198.41 79.4199   5
   9  -2   9 1505.47 90.3159   7
   9  -3 -15 3858.86 130.700   8
   9  -3 -14 6266.47 198.481   8
   9  -3 -14 5237.09 234.659   3
   9  -3 -13 3451.38 164.460   8
   9  -3 -13 3038.67 204.841   3
   9  -3 -12 9241.73 291.094   8
   9  -3 -12 7821.09 357.865   3
   9  -3 -11 1462.07 121.766   8
   9   3 -11 1672.44 251.933   3
   9  -3 -11 1403.02 159.742   3
   9  -3 -10 10258.2 322.229   8
   9   3 -10 12301.2 703.792   3
   9   3  -9 224.530 113.526   3
   9  -3  -9 135.955 44.6964   8
   9  -3  -8 34025.8 590.771   8
   9   3  -8 40600.1 1322.48   3
   9  -3  -7 14390.2 369.675   8
   9   3  -7 16701.4 853.547   3
   9  -3  -6 6096.57 373.604   2
   9  -3  -6 7357.14 399.156  10
   9  -3  -5 31.9835 26.9801  10
   9  -3  -5 23.8684 35.4389   2
   9  -3  -4-4.68869 32.0123  10
   9  -3  -4 53.4496 39.0348   9
   9   3  -4 91.7096 58.6359   4
   9  -3  -4-30.6368 38.8132   2
   9  -3  -3 1161.87 173.797   2
   9   3  -3 1552.85 174.640   4
   9  -3  -3 1071.14 129.421   7
   9  -3  -3 1226.46 156.310  10
   9  -3  -2 4400.39 325.528   2
   9  -3  -2 4447.16 295.299   7
   9  -3  -2 4551.15 293.978  10
   9  -3  -1 1305.85 185.184   2
   9   3  -1 1834.87 172.036   4
   9  -3  -1 1432.82 156.640   7
   9  -3  -1 1241.10 152.726  10
   9  -3   0 21128.0 748.699   2
   9  -3   0 21321.6 607.046   7
   9  -3   0 20159.4 626.705  10
   9  -3   1 2558.33 263.442   2
   9   3   1 2973.70 220.674   4
   9  -3   1 2468.10 208.672   7
   9  -3   1 2256.56 210.889  10
   9  -3   2 57624.9 1235.89   2
   9  -3   2 53088.7 1009.23  10
   9   3   3 5085.40 271.518   4
   9  -3   3 4926.61 287.023   7
   9  -3   3 4240.70 274.356  10
   9  -3   4 8493.66 349.849   7
   9  -3   4 7642.12 349.673  10
   9  -3   5 6460.87 281.620   7
   9  -3   5 6339.62 297.301  10
   9  -3   6 9999.70 380.115   9
   9  -3   6 10968.8 330.174   7
   9  -3   6 10481.0 344.064  10
   9  -3   7 3065.72 169.189   9
   9  -3   7 2987.97 149.070  10
   9  -3   8 1779.02 102.253   7
   9  -4 -13 18835.3 291.079   8
   9   4 -13 16717.0 353.945   4
   9  -4 -12 14178.4 289.727   8
   9  -4 -11 1949.46 113.932   8
   9  -4 -11 2070.60 147.616   2
   9  -4 -10 33523.1 491.313   8
   9  -4 -10 33955.4 666.226   2
   9  -4  -9 4014.71 176.632   8
   9  -4  -9 4231.70 256.814   2
   9  -4  -8 199.982 40.4401   8
   9  -4  -8 227.974 65.6919   2
   9  -4  -7 114.962 50.2941   2
   9  -4  -6 2821.01 235.306   2
   9  -4  -5 21429.9 657.901   2
   9  -4  -5 24085.1 689.923  10
   9  -4  -4 7702.02 338.181   9
   9  -4  -4 6995.14 372.485   2
   9  -4  -4 8014.77 399.024  10
   9  -4  -3 1338.80 149.356   9
   9  -4  -3 1390.17 176.576   2
   9   4  -3 1582.91 162.289   4
   9  -4  -3 1133.17 145.323  10
   9  -4  -2 18298.4 567.681   9
   9  -4  -2 19671.6 664.318   2
   9  -4  -2 17967.6 580.943  10
   9  -4  -1 995.310 139.565   9
   9  -4  -1 1034.25 153.558   2
   9   4  -1 1228.84 135.399   4
   9  -4  -1 956.435 134.544  10
   9  -4   0 7883.43 392.065   9
   9  -4   0 7672.17 366.651  10
   9  -4   1 2058.42 202.320   9
   9  -4   1 1791.84 138.737   7
   9  -4   1 1893.62 179.024  10
   9  -4   2 4129.95 278.767   9
   9  -4   2 3559.24 196.767   7
   9  -4   2 4239.19 259.769  10
   9  -4   3 903.681 126.993   9
   9   4   3 1149.81 117.963   4
   9  -4   3 831.606 90.3540   7
   9  -4   3 834.323 110.675  10
   9  -4   4 4942.81 270.913   9
   9  -4   4 4535.97 195.207   7
   9  -4   4 5014.21 249.264  10
   9  -4   5 946.303 105.732   9
   9  -4   5 877.964 77.9125   7
   9  -4   5 935.392 96.2806  10
   9  -4   6 278.542 46.9964   9
   9  -4   6 219.674 35.2925   7
   9  -4   6 263.404 42.6215  10
   9   5 -11 3.40352 13.7166   4
   9   5 -10 701.033 84.4826   4
   9  -5  -9 662.257 50.6196   8
   9   5  -9 835.928 97.9413   4
   9   5  -8 257.876 59.3115   4
   9   5  -7 185.534 51.2498   4
   9   5  -6 27305.5 597.439   4
   9   5  -5 2188.29 163.964   4
   9  -5  -4 94.0861 40.9513  10
   9   5  -4 109.098 40.1065   4
   9   5  -3 1061.51 108.328   4
   9  -5  -3 1362.23 144.899  10
   9   5  -2 1615.00 128.443   4
   9  -5  -2 1967.01 170.578  10
   9   5  -1 7735.70 277.818   4
   9  -5  -1 8918.95 347.880  10
   9  -5   0 13957.5 415.584   9
   9   5   0 13279.1 361.553   4
   9  -5   0 13936.6 421.835  10
   9  -5   1 2488.83 172.630   9
   9  -5   1 2393.55 166.687  10
   9  -5   2 31227.0 566.010  10
   9  -5   3 788.981 81.1750  10
  10   0 -16 8113.63 312.360   3
  10   0 -15 5.18838 25.1417   3
  10   0 -14 23545.4 711.108   3
  10   0 -13 24.2167 34.9754   3
  10   0 -12 1047.18 170.607   3
  10   0 -11-5.85544 38.7319   3
  10   0 -10 7594.48 464.934   3
  10   0  -9 74.0307 49.6237   3
 -10   0   8 173118. 3276.82   1
  10   0  -8 163039. 2058.55   3
  10   0  -7 6.57388 41.6771   3
 -10   0   7 166.456 118.448   1
 -10   0   6 89154.6 2346.24   1
  10   0  -6 73466.1 1337.43   3
  10   0  -5 159.614 80.9603   3
 -10   0   5 95.0101 127.864   1
  10   0  -5 24.7650 46.3946   2
 -10   0   4 5707.67 599.027   1
  10   0  -4 5614.75 339.591   2
  10   0  -4 5136.85 382.176   3
 -10   0   3-114.367 101.374   1
  10   0  -3 41.8008 47.6190   2
  10   0  -2 104.629 52.4084   2
  10   0  -1 43.4970 27.6849   4
  10   0  -1 4.79556 28.1704   2
  10   0  -1 56.8913 36.7114   7
  10   0   0 63532.4 1210.83   2
  10   0   0 69310.6 1135.68   7
  10   0   1 9.56445 25.5969   2
  10   0   1 290.475 77.1565   7
  10   0   2-4.78774 26.1429   2
  10   0   2 2.63607 28.8441   7
  10   0   3-11.3681 25.0896   7
  10   0   4 5783.81 296.145   7
  10   0   5 18.3792 29.8094   7
  10   0   6 19820.3 423.422   7
 -10   0  -7 19.0997 20.1504   5
  10   0   7 6.19303 12.2326   7
 -10   0  -8 2334.44 140.574   5
 -10   0  -9 7.82835 10.5183   5
  10   1 -16 1572.16 140.884   3
  10  -1 -16 1700.82 131.380   3
  10   1 -15 2624.62 209.048   3
  10  -1 -15 2622.22 199.315   3
  10   1 -14 3058.02 256.531   3
  10  -1 -14 2967.27 240.347   3
  10  -1 -13 1839.22 148.670   8
  10   1 -13 1656.53 200.018   3
  10  -1 -13 1796.62 202.611   3
  10  -1 -12 4053.27 225.219   8
  10   1 -12 3505.81 308.711   3
  10  -1 -12 3660.46 300.361   3
  10  -1 -11 14851.9 426.924   8
  10   1 -11 13359.8 612.952   3
  10  -1 -11 13998.6 596.300   3
  10  -1 -10 8448.55 323.930   8
  10   1 -10 7650.96 467.690   3
  10  -1 -10 8323.46 459.098   3
  10  -1  -9 2691.43 181.286   8
  10   1  -9 2414.62 264.865   3
  10  -1  -9 2578.99 254.805   3
  10  -1  -8 29696.4 585.060   8
  10   1  -8 28421.4 905.726   3
  10  -1  -8 30055.6 856.527   3
  10   1  -7 28856.1 911.250   3
  10  -1  -7 29205.0 815.418   3
 -10  -1   6 4841.41 583.611   1
  10   1  -6 4011.85 344.965   3
  10   1  -5 93.0611 60.6835   3
  10   1  -5 64.8677 29.1025   4
  10  -1  -5 207.735 71.6418   2
 -10  -1   4 2616.69 440.715   1
  10   1  -4 2170.81 176.138   4
  10  -1  -4 2869.31 256.616   2
  10   1  -4 2830.56 330.606   3
 -10  -1   3 13806.7 1026.59   1
  10   1  -3 11579.4 405.114   4
  10  -1  -3 13795.3 564.890   2
  10   1  -3 13597.0 719.892   3
 -10  -1   2 18443.3 1248.83   1
  10  -1  -2 17094.0 630.816   2
  10   1  -2 18375.2 523.158   4
  10   1  -1 284.425 71.0848   4
  10  -1  -1 328.371 91.4574   7
  10   1  -1 298.855 87.4744   7
  10  -1  -1 315.711 86.1717   2
  10  -1   0 5756.40 389.450   2
  10   1   0 7629.62 374.611   4
  10  -1   0 7316.67 369.761   7
  10   1   0 6550.75 320.225   7
 -10  -1   0 5809.31 728.911   1
  10   1   1 1.03125 32.3607   4
  10  -1   1 38.8498 40.4532   2
  10  -1   1 52.0286 44.5976   7
  10   1   1 55.0964 39.6475   7
  10   1   2 18040.5 568.801   4
  10  -1   2 19781.3 599.577   7
  10   1   2 18508.7 523.799   7
  10  -1   3 2801.51 220.210   7
  10   1   3 2567.93 181.117   7
  10  -1   4 6464.83 331.961   7
  10  -1   5 1677.50 149.555   7
  10  -1   6 14786.1 391.583   7
 -10   1  -7 136.181 37.2579   5
  10  -1   7 137.479 35.6747   7
 -10   1  -8 133.816 30.8424   5
 -10  -1  -8 157.711 37.7332   5
  10  -1   8 194.185 34.4013   7
  10   2 -15 22938.4 586.051   3
  10  -2 -15 21873.7 480.991   3
  10  -2 -14 2239.32 132.588   8
  10   2 -14 2316.00 235.596   3
  10  -2 -14 1801.27 162.644   3
  10  -2 -13 8187.56 274.344   8
  10   2 -13 8531.52 479.288   3
  10  -2 -13 7275.32 354.642   3
  10  -2 -12 3589.54 191.654   8
  10   2 -12 3589.85 320.686   3
  10  -2 -12 3260.78 253.322   3
  10  -2 -11 3174.02 185.243   8
  10   2 -11 2945.02 301.710   3
  10  -2 -11 2688.88 236.337   3
  10  -2 -10 5417.56 246.050   8
  10   2 -10 5080.89 405.581   3
  10  -2 -10 4613.36 314.087   3
  10   2  -9 13.8030 48.7751   3
  10  -2  -9 89.0900 42.1946   3
  10  -2  -9 19.1366 17.4295   8
  10  -2  -8 9383.59 308.199   8
  10   2  -8 9600.79 604.969   3
  10   2  -7 391.887 140.170   3
  10   2  -7 204.481 71.6340   4
  10   2  -6 13013.3 491.634   4
  10  -2  -6 13980.7 569.776   2
 -10  -2   5 4627.63 620.303   1
  10   2  -5 3563.28 256.600   4
  10  -2  -5 3848.93 305.193   2
  10  -2  -5 4792.13 299.750   7
  10   2  -5 4488.12 440.955   3
 -10  -2   4 8408.79 843.137   1
  10  -2  -4 8074.53 450.206   2
  10   2  -4 9183.98 392.833   4
  10  -2  -4 8952.79 399.343   7
 -10  -2   3 11556.5 1010.50   1
  10  -2  -3 10540.4 514.362   2
  10   2  -3 11611.4 427.553   4
  10  -2  -3 12191.3 474.730   7
  10   2  -2 698.221 106.672   4
  10  -2  -2 722.235 121.669   7
  10  -2  -2 448.042 103.857   2
  10   2  -1 7810.91 354.998   4
  10  -2  -1 6950.60 358.608   7
  10   2   0 182.034 61.7621   4
  10  -2   0 204.129 69.9652   2
  10  -2   0 181.629 56.6414   7
  10   2   1 42003.5 853.628   4
  10  -2   1 39190.8 857.811   7
  10  -2   2 6849.74 430.058   2
  10   2   2 7542.45 344.729   4
  10  -2   2 8023.15 378.803   7
  10  -2   3 25723.5 693.908   7
  10  -2   4 129.046 52.6550   7
  10  -2   5 444.587 74.2734   7
  10  -2   6 116.131 35.3339   7
  10  -2   7 54.3077 25.2626   9
 -10  -2  -7 24.9519 16.1485   5
  10  -2   7 33.6634 20.0086   7
 -10  -2  -8 115.350 25.5231   5
  10  -2   8 110.137 26.0911   7
  10  -3 -14 781.619 66.8077   8
  10  -3 -14 872.674 82.8591   2
  10   3 -13 2162.56 126.795   4
  10  -3 -13 2169.07 143.489   3
  10  -3 -12 731.835 74.9321   8
  10  -3 -12 657.100 89.9218   3
  10  -3 -11 29192.4 492.704   8
  10  -3 -10 1548.21 118.181   8
  10   3 -10 1848.02 265.198   3
  10  -3  -9 12004.4 331.425   8
  10   3  -9 14493.3 769.770   3
  10  -3  -8 18207.0 393.932   8
  10  -3  -8 17665.8 611.097   2
  10  -3  -7 10091.1 477.128   2
  10   3  -7 9983.32 441.195   4
  10   3  -6 43.0078 42.8544   4
  10  -3  -6 49.6101 34.2923   2
  10  -3  -5-1.55313 49.7267  10
  10   3  -5 46.8814 39.6083   4
  10  -3  -5-12.7646 60.4792   2
  10  -3  -4 2288.03 193.968   9
  10  -3  -4 1887.41 214.397   2
  10   3  -4 2425.04 206.868   4
  10  -3  -4 1635.80 153.618   7
  10  -3  -4 2126.63 199.614  10
  10  -3  -3 38283.1 958.586   2
  10  -3  -3 37612.0 784.363   7
  10  -3  -2 29916.9 866.023   2
  10  -3  -2 28924.1 687.432   7
  10  -3  -2 30299.9 727.497  10
  10  -3  -1 32841.9 928.217   2
  10  -3  -1 32898.3 736.119   7
  10  -3  -1 31373.4 733.991  10
  10  -3   0 118.073 43.7405  10
  10   3   0 221.912 61.7275   4
  10  -3   0 125.140 63.6030   2
  10  -3   0 187.998 60.4658   7
  10  -3   1 1159.62 173.995   2
  10   3   1 1440.70 160.475   4
  10  -3   1 1233.77 145.574   7
  10  -3   1 914.241 117.222  10
  10  -3   2 275.668 66.0259  10
  10   3   2 195.537 63.2076   4
  10  -3   2 293.446 72.2289   7
  10  -3   3 3959.82 225.636   7
  10  -3   3 3395.22 206.251  10
  10  -3   4 865.620 97.2219   7
  10  -3   5 5069.84 259.818   9
  10  -3   5 5684.65 226.357   7
  10  -3   6 4100.75 190.969   9
  10  -3   6 4598.06 179.468   7
  10  -3   7 2559.11 106.258   7
  10  -4 -12 8.54837 13.1902   8
  10   4 -12 18.4597 18.8391   4
  10  -4 -11 983.138 69.1556   8
  10  -4 -11 1171.64 100.033   2
  10   4 -11 923.032 101.424   4
  10  -4 -10 7675.99 202.278   8
  10  -4 -10 8076.20 299.562   2
  10  -4  -9 8190.96 215.829   8
  10  -4  -9 8596.16 338.554   2
  10  -4  -8 2337.06 187.308   2
  10   4  -8 2111.78 184.110   4
  10  -4  -7 1322.37 148.132   2
  10   4  -7 1251.33 147.745   4
  10  -4  -6 5988.05 320.991   2
  10   4  -6 6214.35 320.526   4
  10  -4  -5 1088.67 138.222   2
  10   4  -5 1405.40 147.595   4
  10  -4  -5 1236.16 145.260  10
  10  -4  -4 4424.44 234.465   9
  10  -4  -4 4670.31 302.815   2
  10   4  -4 5396.11 279.290   4
  10  -4  -4 4691.26 281.147  10
  10  -4  -3 3743.68 233.113   9
  10  -4  -3 3790.37 275.056   2
  10   4  -3 4670.95 253.628   4
  10  -4  -3 3980.42 257.753  10
  10  -4  -2 1038.49 125.315   9
  10  -4  -2 1155.23 148.526   2
  10   4  -2 1356.09 135.952   4
  10  -4  -2 986.588 124.244  10
  10  -4  -1 4211.79 258.420   9
  10  -4  -1 4471.88 292.428   2
  10  -4  -1 4052.28 245.744  10
  10  -4   0 869.286 120.122   9
  10  -4   0 906.076 130.493   2
  10   4   0 1206.68 129.982   4
  10  -4   0 881.607 112.720  10
  10  -4   1 4699.72 273.311   9
  10  -4   1 4797.69 249.174  10
  10  -4   2 1643.73 154.812   9
  10  -4   2 1402.62 105.732   7
  10  -4   2 1625.77 135.744  10
  10  -4   3 8898.90 333.441   9
  10  -4   3 8410.92 277.555  10
  10  -4   4 1041.31 73.5268   7
  10  -4   4 1130.83 84.5236  10
  10  -4   5 2827.22 134.261   9
  10   5  -9 310.854 46.1907   4
  10   5  -8 402.918 57.5517   4
  10   5  -7 1297.23 104.492   4
  10   5  -6 2902.93 160.213   4
  10   5  -5 114.764 36.2188   4
  10   5  -4 7723.92 260.152   4
  10   5  -3 4644.20 203.016   4
  10  -5  -3 5989.04 258.178  10
  10   5  -2 15359.9 360.108   4
  10  -5  -2 18172.9 440.321  10
  10   5  -1 17251.3 363.827   4
  10  -5  -1 21068.8 451.397  10
  10  -5   0 178.110 43.0225  10
  10   5   0 147.664 33.1130   4
  10  -5   1 7027.50 224.517  10
  11   0 -16-9.79711 16.7763   3
  11   0 -15 3286.62 215.829   3
  11   0 -14 0.07654 25.2535   3
  11   0 -13 471.735 102.838   3
  11   0 -12 0.19700 41.7454   3
  11   0 -11 195.434 73.6980   3
  11   0 -10-15.8476 40.1228   3
  11   0  -9 11743.2 554.172   3
  11   0  -8 18.3258 31.4602   3
  11   0  -7 43284.5 949.955   2
  11   0  -7 37215.4 1003.73   3
  11   0  -6-31.8927 54.4791   3
  11   0  -6 5.80516 26.4584   2
  11   0  -5 75.6760 56.3367   3
  11   0  -5 107.137 35.2989   2
  11   0  -4-39.9610 49.7864   3
  11   0  -4 36.9234 44.9724   2
  11   0  -3-0.67916 41.4172   7
  11   0  -3 24.2120 29.9226   2
  11   0  -2 8.31912 39.3760   2
  11   0  -2 2.51710 37.0810   7
  11   0  -1 18966.5 664.786   2
  11   0  -1 23345.4 634.668   7
  11   0   0 27.3018 51.6375   2
  11   0   0 63.0401 49.8530   7
  11   0   1 15900.4 607.845   2
  11   0   1 19169.4 570.221   7
  11   0   2 4.28948 25.7530   7
  11   0   3 16448.6 475.488   7
  11   0   4 7.61299 24.1603   7
  11   0   5 34.8516 27.2786   7
  11   0   6 18.3310 14.0824   7
 -11   0  -7 5047.59 189.665   5
  11   1 -15 2452.10 198.891   3
  11  -1 -15 2057.75 154.277   3
  11   1 -14 118.127 46.5360   3
  11  -1 -14 117.599 45.3138   3
  11   1 -13 9479.73 465.716   3
  11  -1 -13 9102.21 411.363   3
  11   1 -12 27133.9 835.496   3
  11  -1 -12 25643.0 733.234   3
  11   1 -11 1714.92 222.909   3
  11  -1 -11 1675.37 193.621   3
  11   1 -10 248.150 88.7559   3
  11  -1 -10 216.689 74.6974   3
  11  -1 -10 196.628 56.3825   8
  11  -1  -9 8314.06 303.042   8
  11   1  -9 8211.02 497.927   3
  11  -1  -9 7459.16 410.101   3
  11   1  -8 146.930 78.7519   3
  11  -1  -8 7.69405 36.1069   3
  11  -1  -7 8001.56 423.832   2
  11   1  -7 8034.46 522.168   3
  11  -1  -7 7019.18 396.247   3
  11   1  -6 671.357 166.916   3
  11  -1  -6 630.417 119.622   2
  11  -1  -5 8213.25 444.281   2
  11   1  -5 9412.08 619.405   3
  11   1  -4 13928.9 437.867   4
  11  -1  -4 20127.3 695.145   2
  11  -1  -3 12537.3 544.366   2
  11   1  -3 9368.54 372.436   4
  11  -1  -2 1899.62 207.869   2
  11   1  -2 1860.61 176.062   4
  11  -1  -2 2589.42 218.728   7
  11   1  -2 2322.72 223.192   7
  11  -1  -1 2201.18 241.322   2
  11   1  -1 2261.55 193.306   4
  11  -1  -1 2509.49 215.223   7
  11   1  -1 2121.74 195.849   7
  11   1   0 52.0418 42.9250   4
  11  -1   0-13.7805 28.8182   2
  11  -1   0-50.6855 48.8320   7
  11   1   0 34.1487 34.4847   7
  11  -1   1 3430.52 295.511   2
  11  -1   1 4126.37 273.358   7
  11   1   1 3917.85 238.834   7
  11  -1   2 97.8821 63.2214   2
  11  -1   2 163.957 62.0927   7
  11   1   2 118.403 41.1170   7
  11   1   3 56843.6 804.932   7
  11  -1   3 71281.7 1044.81   7
  11  -1   4 64.3640 38.5787   7
  11  -1   5 11283.6 325.881   7
 -11   1  -6 219.448 42.8220   5
  11  -1   6 269.019 43.7214   7
 -11  -1  -7 54.6285 21.4548   5
  11  -1   7 54.8870 18.0813   7
  11  -2 -15 501.382 61.7532   2
  11   2 -14 574.415 112.052   3
  11  -2 -14 467.784 70.5114   3
  11   2 -13 4.89103 46.4451   3
  11  -2 -13 24.8740 14.3144   3
  11  -2 -12 8504.19 268.964   8
  11  -2 -12 7075.75 330.727   3
  11  -2 -11 6526.93 241.791   8
  11   2 -11 7508.84 508.786   3
  11  -2 -10 5229.86 220.764   8
  11  -2 -10 4496.49 280.940   3
  11  -2  -9 4659.72 204.158   8
  11   2  -9 3889.85 234.325   4
  11   2  -8 95.9821 82.2225   3
  11   2  -8 93.7063 45.3898   4
  11  -2  -8 69.1020 44.8475   7
  11  -2  -8 82.3028 36.2128   2
  11  -2  -7 11884.8 526.931   2
  11  -2  -7 11791.6 448.339   7
  11   2  -6 2688.80 201.481   4
  11  -2  -6 3398.33 288.182   2
  11  -2  -6 3798.87 251.270   7
  11   2  -6 3832.55 411.702   3
  11   2  -5 5224.51 277.153   4
  11  -2  -5 6012.09 389.199   2
  11  -2  -5 6318.24 327.506   7
  11  -2  -4 7541.15 432.487   2
  11   2  -4 7100.05 323.324   4
  11  -2  -4 8277.27 377.608   7
  11   2  -3 568.504 92.1494   4
  11  -2  -3 660.681 112.008   7
  11   2  -3 612.775 105.345   7
  11  -2  -3 538.950 113.282   2
  11  -2  -2 11226.1 532.950   2
  11   2  -2 14164.9 468.094   4
  11  -2  -2 13518.0 485.338   7
  11   2  -2 11446.6 392.759   7
  11   2  -1 8421.50 369.218   4
  11  -2  -1 8227.12 391.426   7
  11   2   0 39161.3 785.664   4
  11  -2   0 36976.1 812.650   7
  11   2   1 12997.6 432.652   4
  11  -2   1 13024.5 462.302   7
  11  -2   2 835.058 122.217   7
  11  -2   3 25201.9 595.080   7
  11  -2   4 29781.4 568.375   7
  11  -2   5 414.003 60.2111   7
  11  -2   6 10283.0 285.969   9
 -11  -2  -6 9759.99 265.345   5
  11  -3 -13 3708.29 180.135   2
  11  -3 -12 30330.6 413.418   8
  11  -3 -12 30834.8 596.691   2
  11  -3 -11 2948.93 133.744   8
  11   3 -11 2484.22 156.191   4
  11  -3 -11 3021.76 205.167   2
  11  -3 -10 2437.79 125.645   8
  11   3 -10 2214.93 164.365   4
  11  -3 -10 2603.80 204.798   2
  11   3  -9 3917.75 234.560   4
  11  -3  -9 4674.34 290.755   2
  11  -3  -8 2137.12 207.145   2
  11   3  -8 1862.10 167.861   4
  11  -3  -7 12353.0 512.902   2
  11   3  -7 10238.4 397.284   4
  11  -3  -6 9670.81 459.994   2
  11   3  -6 8658.69 363.092   4
  11   3  -5 92.6920 47.8686   4
  11  -3  -5 58.7209 39.4307   2
  11  -3  -4 14968.1 459.817   9
  11   3  -4 16101.4 476.596   4
  11  -3  -3 2284.66 192.791   9
  11  -3  -3 2214.89 228.884   2
  11   3  -3 2641.00 193.601   4
  11  -3  -3 2007.79 170.136   7
  11   3  -2 19.1197 30.7078   4
  11  -3  -2-18.2966 22.2709   7
  11  -3  -2 16.4435 42.3744   2
  11  -3  -1 1087.30 160.069   2
  11  -3  -1 880.237 118.693   7
  11  -3   0 1594.28 191.024   2
  11   3   0 2002.52 172.250   4
  11  -3   0 1532.68 162.537   7
  11  -3   1 739.773 125.982   2
  11   3   1 783.157 103.946   4
  11  -3   1 735.161 102.881   7
  11  -3   2 907.271 100.985   7
  11  -3   3 4571.02 255.238   9
  11  -3   3 4685.24 205.364   7
  11  -3   4 1908.24 145.079   9
  11  -3   4 2166.18 125.985   7
  11  -3   5 367.434 53.4076   9
  11  -3   5 384.311 48.6454   7
  11   4 -11 8036.15 209.136   4
  11  -4 -10 4066.81 176.419   2
  11   4 -10 3450.44 168.237   4
  11  -4  -9 5223.88 227.052   2
  11   4  -9 4205.08 202.150   4
  11   4  -8 127.949 42.1896   4
  11  -4  -8 79.8531 31.1278   2
  11  -4  -7 858.294 104.827   2
  11   4  -7 729.674 91.2422   4
  11  -4  -6 4648.15 265.052   2
  11   4  -6 3841.60 208.986   4
  11  -4  -5 7687.52 349.312   2
  11   4  -5 6454.76 271.947   4
  11  -4  -4 6208.10 313.884   2
  11   4  -4 6072.36 264.100   4
  11  -4  -3 286.928 59.4298  10
  11  -4  -3 328.969 62.1302   9
  11   4  -3 438.704 71.1668   4
  11  -4  -3 308.924 70.6026   2
  11  -4  -2 11945.9 374.208   9
  11  -4  -2 12269.0 439.608   2
  11  -4  -2 11788.6 366.039  10
  11  -4  -1 1116.79 117.568   9
  11  -4  -1 1141.84 129.459   2
  11   4  -1 1540.80 136.751   4
  11  -4  -1 1175.41 111.061  10
  11  -4   0 14304.8 414.002   9
  11  -4   0 14237.1 357.231  10
  11  -4   1 3287.83 191.152   9
  11  -4   2 1872.63 134.221   9
  11  -4   3 2080.50 122.697   9
  11   5  -7 640.602 61.5604   4
  11   5  -6 3093.53 139.721   4
  11   5  -5 736.762 71.3313   4
  11   5  -4 35.6645 16.3410   4
  11   5  -3 2362.05 122.378   4
  11   5  -2 10390.0 229.736   4
  12   0 -15-16.8520 33.1689   3
  12   0 -14 887.333 91.8416   2
  12   0 -14 793.053 112.695   3
  12   0 -13 0.39105 28.2061   3
  12   0 -13-17.8600 30.5939   2
  12   0 -12 11752.6 406.527   2
  12   0 -12 10217.1 460.725   3
  12   0 -11-8.44305 30.9166   3
  12   0 -11 68.2806 33.9724   2
  12   0 -10 52005.4 964.712   2
  12   0 -10 45981.5 1062.32   3
  12   0  -9 51.1706 49.2000   3
  12   0  -9-20.4530 50.5696   2
  12   0  -8 1271.34 160.534   2
  12   0  -8 1322.19 198.693   3
  12   0  -7-178.875 82.2443   3
  12   0  -7-6.31486 50.1393   2
  12   0  -6 151610. 1784.93   2
  12   0  -6 151202. 2306.68   3
  12   0  -5 5.01005 48.8738   2
  12   0  -4 6373.81 352.079   2
  12   0  -4 9736.30 434.177   7
  12   0  -3 20.5577 33.8940   2
  12   0  -3 151.954 62.6964   7
  12   0  -2 15961.1 589.109   2
  12   0  -2 19075.9 566.195   7
  12   0  -1-3.65680 31.7327   2
  12   0  -1 29.2830 30.8332   7
  12   0   0 1479.80 176.706   2
  12   0   0 1707.48 165.397   7
  12   0   1 28.3434 28.7642   7
  12   0   2 27020.1 574.763   7
  12   0   3 20.2657 28.0114   7
  12   0   4 438.983 55.2061   7
  12   0   5 24.1267 16.4941   7
 -12   0  -6 2024.76 99.5649   5
  12   1 -15 92.2099 40.0326   3
  12  -1 -14 9808.08 305.823   2
  12   1 -14 11272.2 467.959   3
  12  -1 -13 6384.54 283.276   2
  12   1 -13 7006.27 404.826   3
  12   1 -12 1124.36 176.175   3
  12  -1 -12 858.142 123.696   3
  12   1 -11 486.124 120.746   3
  12  -1 -11 363.858 83.6382   3
  12  -1 -11 498.137 96.7543   2
  12  -1 -10 19405.7 606.662   2
  12   1 -10 21397.9 814.929   3
  12  -1  -9 4073.00 289.394   2
  12   1  -9 3846.80 360.564   3
  12  -1  -9 3093.45 258.071   3
  12  -1  -8 1170.38 159.784   2
  12   1  -8 1406.96 236.394   3
  12  -1  -8 820.388 133.296   3
  12  -1  -7 30659.8 831.005   2
  12   1  -7 33623.7 1145.54   3
  12  -1  -6 2171.97 223.135   2
  12  -1  -6 2698.52 228.898   7
  12   1  -6 1976.51 277.857   3
  12  -1  -5 10453.5 487.473   2
  12  -1  -5 14364.6 515.006   7
  12   1  -4 1434.09 140.477   4
  12  -1  -4 1660.09 192.556   2
  12  -1  -3 5532.11 360.440   2
  12  -1  -3 6513.53 333.620   7
  12   1  -3 6098.44 323.232   7
  12   1  -2 60.3979 33.9934   4
  12  -1  -2 25.1580 30.3153   2
  12  -1  -2 56.4276 37.0516   7
  12   1  -2 14.1941 29.4192   7
  12   1  -1 562.515 97.0276   4
  12  -1  -1 707.221 109.564   7
  12   1  -1 630.048 94.9671   7
  12  -1  -1 530.787 113.878   2
  12  -1   0 9558.29 464.593   2
  12   1   0 10172.4 374.933   7
  12  -1   1 5079.47 331.816   2
  12   1   1 5059.18 238.258   7
  12   1   2 15608.4 389.743   7
  12  -1   2 22397.6 540.256   7
  12  -1   3 2393.02 162.926   7
  12  -1   4 4249.68 183.736   7
  12  -1   5 366.734 47.7735   7
 -12  -1  -6 88.5637 21.6854   5
  12  -2 -14 4273.60 181.025   2
  12  -2 -13 8973.69 307.222   2
  12  -2 -13 6138.16 229.401   3
  12  -2 -12 12439.4 407.043   2
  12   2 -12 14789.5 632.738   3
  12  -2 -11 685.131 104.909   2
  12   2 -11 1034.33 184.077   3
  12  -2 -10 12432.4 469.968   2
  12   2 -10 15248.7 730.329   3
  12  -2  -9 714.731 115.442   2
  12   2  -9 967.844 205.208   3
  12  -2  -9 385.561 65.6540   7
  12   2  -8 4.48582 20.1914   4
  12  -2  -8 22.2371 24.7648   7
  12  -2  -8 74.3286 47.1269   2
  12   2  -7 4195.76 217.397   4
  12  -2  -7 4083.30 260.118   7
  12   2  -6 1006.59 110.059   4
  12  -2  -6 1243.53 143.398   7
  12  -2  -5 7186.24 403.543   2
  12  -2  -5 7814.58 347.800   7
  12   2  -4-5.97350 19.8010   4
  12  -2  -4 7.48775 22.9817   7
  12   2  -4-45.3959 32.2683   7
  12  -2  -3 16086.0 619.003   2
  12   2  -3 15232.1 458.087   4
  12   2  -2 6857.12 321.351   4
  12  -2  -2 7470.35 348.112   7
  12   2  -1 18783.4 493.070   4
  12  -2  -1 19845.3 554.330   7
  12  -2   0 2981.53 258.545   2
  12   2   0 3133.62 207.881   4
  12  -2   0 3220.59 215.042   7
  12  -2   1 953.020 115.252   7
  12  -2   2 3272.00 196.273   7
  12  -2   3 584.200 72.6078   7
  12  -2   4 4300.15 168.409   7
  12  -2   5 3952.38 153.120   9
 -12  -2  -5 3639.81 137.488   5
  12  -2   5 3838.76 126.865   7
  12  -3 -12 6042.09 227.509   2
  12  -3 -11 5088.11 237.270   2
  12   3 -10 533.293 60.6033   4
  12  -3 -10 693.974 96.1973   2
  12  -3  -9 445.122 83.7870   2
  12   3  -9 327.421 53.0268   4
  12  -3  -8 5425.28 298.868   2
  12   3  -8 3904.38 193.041   4
  12  -3  -7 25675.6 671.153   2
  12   3  -7 18775.9 442.196   4
  12   3  -6 0.43484 23.1477   4
  12  -3  -6-12.8183 39.6427   2
  12  -3  -5 15069.9 528.035   2
  12   3  -5 12567.4 378.085   4
  12   3  -4 252.512 57.9389   4
  12  -3  -4 146.797 34.7052   7
  12  -3  -4 279.217 75.0105   2
  12  -3  -3 2344.94 169.025   9
  12  -3  -3 2389.27 219.917   2
  12   3  -3 2690.03 179.780   4
  12  -3  -2 3579.30 216.846   9
  12  -3  -2 3472.88 258.453   2
  12  -3  -2 3051.86 183.673   7
  12  -3  -1 7904.62 327.759   9
  12  -3  -1 8131.22 385.831   2
  12  -3  -1 7988.59 304.859   7
  12  -3   0 14730.0 442.132   9
  12  -3   0 14681.9 385.360   7
  12  -3   1 148.983 43.7498   9
  12  -3   1 145.691 36.8955   7
  12  -3   2 147.095 38.7289   9
  12  -3   2 166.936 33.6853   7
  12  -3   3 338.118 54.9455   9
  12  -3   3 362.503 44.8957   7
  12   4  -9 723.023 62.9878   4
  12  -4  -8 377.098 58.6639   2
  12   4  -8 313.266 47.4755   4
  12   4  -7 17.7465 25.0842   4
  12  -4  -7-3.83445 31.9464   2
  12  -4  -6 13888.5 379.363   2
  12   4  -6 10273.3 291.536   4
  12  -4  -5 21882.5 491.826   2
  12   4  -5 17123.4 386.109   4
  12   4  -4 75.6080 31.0635   4
  12  -4  -4 99.5948 32.1068   2
  12  -4  -3 12321.5 367.124   2
  12   4  -3 12098.6 334.452   4
  12  -4  -2 1508.32 102.112   9
  12   4  -2 1812.91 119.931   4
  12  -4  -1 283.009 47.6027   9
  12   4  -1 330.530 53.6660   4
  12  -4   0 331.119 47.7401   9
  12  -4   1 65.2304 18.5220   9
  13   0 -14 34.3601 18.7100   3
  13   0 -13 6859.88 223.649   2
  13   0 -13 8075.75 376.485   3
  13   0 -12-9.20342 35.9183   3
  13   0 -12 20.0954 26.5363   2
  13   0 -11 16555.8 458.245   2
  13   0 -11 16454.3 620.717   3
  13   0 -10 8.93313 44.0776   3
  13   0 -10 10.5488 23.0624   2
  13   0  -9 8082.06 359.368   2
  13   0  -9 7991.65 479.320   3
  13   0  -8-19.5890 53.6440   3
  13   0  -8-38.6567 32.5110   2
  13   0  -7 3658.76 253.716   2
  13   0  -6 72.5241 40.7607   7
  13   0  -6 10.1756 36.3010   2
  13   0  -5 18682.8 594.367   2
  13   0  -5 23286.4 609.090   7
  13   0  -4 11.1490 22.8611   2
  13   0  -4-12.2648 25.6597   7
  13   0  -3 2052.46 193.364   2
  13   0  -3 2448.99 189.200   7
  13   0  -2 52.0749 33.5831   2
  13   0  -2 34.9225 27.4195   7
  13   0  -1 18870.3 569.576   2
  13   0  -1 22448.9 553.917   7
  13   0   0-0.45533 20.6597   7
  13   0   1 4070.85 202.272   7
  13   0   2 19.5121 25.7626   7
  13   0   3 516.536 51.8776   7
 -13   0  -4 23.3718 14.8318   5
  13  -1 -13 22610.8 452.482   2
  13  -1 -13 20683.1 509.035   3
  13  -1 -12 1304.97 125.026   2
  13   1 -12 1265.94 175.637   3
  13  -1 -12 1098.52 129.106   3
  13  -1 -11 21553.2 551.732   2
  13   1 -11 23099.7 790.517   3
  13  -1 -10 4774.98 277.068   2
  13   1 -10 5096.72 391.523   3
  13  -1 -10 4853.11 314.452   3
  13  -1  -9 749.960 115.299   2
  13  -1  -9 673.009 96.3996   7
  13   1  -9 894.438 178.291   3
  13  -1  -8 3181.87 240.849   2
  13  -1  -8 3638.57 227.273   7
  13  -1  -7 8962.15 414.436   2
  13  -1  -7 10013.6 377.427   7
  13  -1  -6 8074.02 394.841   2
  13  -1  -6 9771.25 379.925   7
  13  -1  -5 1750.02 159.639   7
  13   1  -5 1844.71 169.396   7
  13  -1  -4 7767.67 402.263   2
  13  -1  -4 8681.08 362.317   7
  13   1  -4 8084.93 334.112   7
  13  -1  -3 523.545 89.7253   7
  13   1  -3 590.978 89.9311   7
  13  -1  -3 555.027 109.766   2
  13  -1  -2 1673.92 182.800   2
  13  -1  -2 2125.68 176.295   7
  13   1  -2 1745.03 143.564   7
  13  -1  -1 12539.7 485.106   2
  13   1  -1 11760.4 364.140   7
  13  -1   0 1161.34 118.970   7
  13   1   0 806.843 87.1423   7
  13   1   1 6341.67 220.993   7
  13  -1   1 12054.7 362.430   7
  13  -1   2 3511.48 173.005   7
  13  -1   3 6027.97 188.323   7
  13  -2 -13 1532.97 104.062   2
  13  -2 -12 5260.70 226.887   2
  13  -2 -11 70.9042 33.7353   2
  13  -2 -10 2088.63 172.314   2
  13  -2  -9 149.133 36.8821   7
  13  -2  -9 372.067 76.4791   2
  13  -2  -8 20092.9 583.490   2
  13  -2  -8 10569.3 317.155   7
  13  -2  -7 300.210 61.0172   7
  13  -2  -7 400.388 88.4788   2
  13   2  -6 0.04112 15.6704   4
  13  -2  -6-14.4276 25.4651   7
  13   2  -6-8.16697 24.3251   7
  13  -2  -6 43.3081 29.9330   2
  13   2  -5 1558.48 127.232   4
  13  -2  -5 1695.05 148.794   7
  13   2  -5 1362.69 130.120   7
  13  -2  -4 4270.41 293.927   2
  13   2  -4 2920.69 175.060   4
  13  -2  -4 4270.61 233.772   7
  13   2  -4 2629.48 163.531   7
  13   2  -3 132.853 41.7795   4
  13  -2  -3 275.220 75.7525   2
  13  -2  -3 307.897 63.3501   7
  13   2  -3 100.306 34.9119   7
  13  -2  -2 6191.90 340.452   2
  13  -2  -2 6729.11 281.258   7
  13  -2  -1 566.290 103.303   2
  13  -2  -1 482.138 70.6391   7
  13  -2   0 4985.10 232.877   7
  13  -2   1 9872.37 291.191   7
  13  -2   2 1504.95 98.5479   7
  13  -2   3 328.257 47.8278   9
  13  -2   3 236.727 31.8095   7
  13  -3 -11 68.8057 24.9382   2
  13  -3 -10-2.73399 19.0364   2
  13  -3  -9 8275.15 291.550   2
  13  -3  -8 1161.39 116.497   2
  13   3  -8 848.161 73.3853   4
  13   3  -7 86.0859 30.3545   4
  13  -3  -7 104.536 36.6512   2
  13  -3  -6 851.935 116.043   2
  13   3  -6 662.763 76.2202   4
  13  -3  -5 1643.71 157.247   2
  13   3  -5 1305.51 107.740   4
  13  -3  -4 20185.9 543.157   2
  13   3  -4 16649.9 389.458   4
  13  -3  -3 11378.4 284.975   9
  13  -3  -3 12746.0 428.026   2
  13  -3  -2 843.356 83.6887   9
  13  -3  -2 855.759 109.677   2
  13   3  -2 952.219 90.4566   4
  13  -3  -2 634.339 66.4029   7
  13  -3  -1 346.089 52.6800   9
  13  -3  -1 298.704 44.3582   7
  13  -3   0 2875.41 146.473   9
  13  -3   0 1984.49 99.5730   7
  13  -3   1 204.283 36.4539   9
  13   4  -6 10232.7 224.337   4
  13   4  -5 365.068 44.2013   4
  13   4  -4 1252.01 78.8564   4
  14   0 -12 9.03078 15.8917   7
  14   0 -11 0.54317 15.4963   7
  14   0 -10 24422.6 458.200   2
  14   0 -10 24365.6 489.799   7
  14   0  -9-4.47376 19.9491   2
  14   0  -9-33.0423 37.1382   7
  14   0  -8 5809.61 267.673   2
  14   0  -8 6440.95 274.411   7
  14   0  -7-4.01814 30.4681   2
  14   0  -7 18.1505 26.7776   7
  14   0  -6 2538.88 189.092   2
  14   0  -6 2841.78 183.860   7
  14   0  -5 12.7229 36.1114   2
  14   0  -5 20.7321 29.2508   7
  14   0  -4 1848.98 159.125   2
  14   0  -4 2076.26 154.989   7
  14   0  -3 18.4841 18.6876   2
  14   0  -3 23.2625 35.0368   7
  14   0  -2 56259.8 753.359   7
  14   0  -1-5.09775 21.2756   7
  14   0   0 2260.90 131.947   7
  14   0   1-43.5869 21.9432   7
  14  -1 -11 34.1377 19.9004   7
  14  -1 -11 0.22905 19.6650   2
  14  -1 -10 1413.77 123.147   2
  14  -1 -10 662.531 74.8040   7
  14  -1  -9 2084.26 158.590   2
  14   1  -9 2230.28 154.362   7
  14  -1  -8 63.7524 32.6468   7
  14   1  -8 68.9038 29.7020   7
  14  -1  -8 130.949 41.6179   2
  14  -1  -7 1417.05 140.457   2
  14  -1  -7 1501.07 124.171   7
  14   1  -7 1585.46 129.369   7
  14  -1  -6 15310.4 493.083   2
  14  -1  -6 15032.8 406.655   7
  14   1  -6 14750.9 397.193   7
  14  -1  -5 29832.8 682.683   2
  14  -1  -5 30369.5 575.726   7
  14  -1  -4 25608.0 622.868   2
  14   1  -4 23007.7 471.525   7
  14  -1  -3 2779.46 201.683   2
  14   1  -3 2240.06 141.717   7
  14  -1  -2 4957.66 262.156   2
  14  -1  -2 5227.63 225.800   7
  14   1  -1 56.3969 26.5873   7
  14  -1  -1 37.2734 23.0539   7
  14  -1   0 24.6229 21.9295   7
  14  -1   1 2556.80 116.591   7
  14  -2 -11 22240.4 384.792   2
  14   2 -11 6659.08 191.096   7
  14  -2 -10 3152.17 164.932   2
  14   2 -10 1409.56 98.0438   7
  14  -2  -9 7036.38 267.971   2
  14   2  -9 3809.12 167.854   7
  14  -2  -8 3.78707 16.9778   7
  14  -2  -8 27.2030 22.5088   2
  14   2  -8-6.64927 16.6211   7
  14  -2  -7 715.724 73.8703   7
  14   2  -7 591.562 67.7046   7
  14  -2  -6 157.829 36.6620   7
  14   2  -6 122.221 35.8841   7
  14  -2  -5 551.979 88.1178   2
  14  -2  -5 412.092 59.8047   7
  14  -2  -4 1099.78 124.542   2
  14  -2  -4 787.818 80.8459   7
  14  -2  -3 2451.92 181.542   2
  14  -2  -3 1991.40 128.978   7
  14  -2  -2 2317.17 127.598   9
  14  -2  -2 2430.19 139.871   7
  14  -2  -1 2913.23 143.387   9
  14  -2  -1 2815.92 139.017   7
  14  -2   0 4369.98 162.849   9
  14  -2   0 3848.98 140.262   7
  14  -3  -8 3692.69 162.633   2
  14  -3  -7 18418.7 384.024   2
  14  -3  -6 978.175 94.6697   2
  14  -3  -5 22751.7 450.691   2
  14  -3  -4 9346.27 285.483   2
  15   0 -10-11.3967 15.4052   7
  15   0  -9 2638.13 128.984   7
  15   0  -8 2.69456 15.2924   7
  15   0  -7 962.111 84.5791   7
  15   0  -6 4.17318 18.6886   7
  15   0  -5 46602.2 599.537   7
  15   0  -4 90.4774 35.3936   7
  15   0  -3 22388.7 375.656   7
  15   0  -2 27.3849 17.3814   7
  15   1 -10 4.46329 12.5321   7
  15  -1  -9 852.562 62.9109   7
  15   1  -9 1203.68 80.9004   7
  15  -1  -8 2007.02 108.116   7
  15   1  -8 2109.75 114.132   7
  15  -1  -7 2780.92 133.846   7
  15   1  -7 2650.75 131.444   7
  15  -1  -6 15.6226 22.0700   2
  15  -1  -6 11.6314 17.4061   7
  15   1  -6-4.22849 14.9980   7
  15  -1  -5 14949.6 364.122   2
  15  -1  -5 12201.9 293.189   7
  15  -1  -4 6622.72 208.812   7
  15   1  -4 3407.08 134.856   7
  15  -1  -3 995.085 77.8092   7
  15  -1  -2 703.766 62.7892   7
  15  -2  -7 2611.16 135.586   2
  15  -2  -6 717.699 73.6937   2
  15  -2  -5 1035.96 87.6431   2
   0   0   0    0.00    0.00   0

TITL RS14012017Cu in P2(1)/n
REM P2(1)/n (#14 in standard setting)
CELL 1.54184  12.433323   5.849865  14.107169  90.0000 109.6567  90.0000
ZERR    1.00   0.000461   0.000187   0.000489   0.0000   0.0039   0.0000
LATT  1
SYMM -x+1/2, y+1/2,-z+1/2
SFAC C H N P Cl
UNIT 36.00 24.00 4.00 4.00 8.00
TREF
HKLF 4
END
;
_shelx_hkl_checksum              27107
_shelx_shelxl_version_number     2014/7
_olex2_submission_special_instructions 'No special instructions were received'
_oxdiff_exptl_absorpt_empirical_details
;
Empirical correction (ABSPACK) includes:
- Absorption correction using spherical harmonics
- Frame scaling
;
_oxdiff_exptl_absorpt_empirical_full_max 3.075
_oxdiff_exptl_absorpt_empirical_full_min 0.367
loop_
_space_group_symop_operation_xyz
'x, y, z'
'-x+1/2, y+1/2, -z+1/2'
'-x, -y, -z'
'x-1/2, -y-1/2, z-1/2'
loop_
_atom_site_label
_atom_site_type_symbol
_atom_site_fract_x
_atom_site_fract_y
_atom_site_fract_z
_atom_site_U_iso_or_equiv
_atom_site_adp_type
_atom_site_occupancy
_atom_site_site_symmetry_order
_atom_site_calc_flag
_atom_site_refinement_flags_posn
_atom_site_refinement_flags_adp
_atom_site_refinement_flags_occupancy
_atom_site_disorder_assembly
_atom_site_disorder_group
Cl1 Cl 0.20326(5) 0.38692(10) 0.65116(4) 0.0315(2) Uani 1 1 d . . . . .
Cl2 Cl 0.10511(5) 0.81070(10) 0.51424(4) 0.0350(3) Uani 1 1 d . . . . .
P1 P 0.26115(5) 0.67560(9) 0.60006(4) 0.0239(2) Uani 1 1 d . . . . .
N1 N 0.36930(15) 0.7081(3) 0.47373(12) 0.0202(4) Uani 1 1 d . . . . .
C1 C 0.30183(17) 0.5590(4) 0.49617(14) 0.0209(4) Uani 1 1 d . . . . .
C2 C 0.26590(18) 0.3485(4) 0.44590(16) 0.0231(5) Uani 1 1 d . . . . .
H2 H 0.2178 0.2502 0.4647 0.028 Uiso 1 1 calc R . . . .
C3 C 0.30469(18) 0.2954(4) 0.36850(16) 0.0230(5) Uani 1 1 d . . . . .
H3 H 0.2834 0.1581 0.3340 0.028 Uiso 1 1 calc R . . . .
C4 C 0.37683(16) 0.4479(3) 0.34080(14) 0.0200(4) Uani 1 1 d . . . . .
C5 C 0.41942(17) 0.4046(4) 0.26046(15) 0.0236(5) Uani 1 1 d . . . . .
H5 H 0.4014 0.2683 0.2246 0.028 Uiso 1 1 calc R . . . .
C6 C 0.48642(18) 0.5621(4) 0.23602(15) 0.0258(5) Uani 1 1 d . . . . .
H6 H 0.5136 0.5325 0.1833 0.031 Uiso 1 1 calc R . . . .
C7 C 0.51530(18) 0.7709(4) 0.28992(16) 0.0247(4) Uani 1 1 d . . . . .
H7 H 0.5603 0.8775 0.2717 0.030 Uiso 1 1 calc R . . . .
C8 C 0.47734(19) 0.8165(3) 0.36871(17) 0.0232(5) Uani 1 1 d . . . . .
H8 H 0.4981 0.9520 0.4048 0.028 Uiso 1 1 calc R . . . .
C9 C 0.40673(17) 0.6573(3) 0.39492(15) 0.0196(4) Uani 1 1 d . . . . .
loop_
_atom_site_aniso_label
_atom_site_aniso_U_11
_atom_site_aniso_U_22
_atom_site_aniso_U_33
_atom_site_aniso_U_23
_atom_site_aniso_U_13
_atom_site_aniso_U_12
Cl1 0.0339(4) 0.0361(4) 0.0274(4) 0.0105(2) 0.0143(3) 0.0062(2)
Cl2 0.0348(4) 0.0415(4) 0.0301(4) 0.0104(2) 0.0126(3) 0.0179(2)
P1 0.0254(4) 0.0290(4) 0.0169(3) -0.00088(18) 0.0065(2) 0.00190(18)
N1 0.0207(8) 0.0216(8) 0.0155(8) -0.0003(6) 0.0026(6) 0.0025(6)
C1 0.0196(9) 0.0249(9) 0.0156(9) 0.0016(7) 0.0026(7) 0.0041(7)
C2 0.0200(10) 0.0250(10) 0.0217(10) 0.0015(7) 0.0036(8) -0.0010(7)
C3 0.0225(10) 0.0223(9) 0.0191(9) -0.0033(8) 0.0003(8) 0.0001(7)
C4 0.0195(8) 0.0218(9) 0.0142(9) 0.0006(7) -0.0003(7) 0.0034(7)
C5 0.0232(10) 0.0262(10) 0.0179(9) -0.0023(7) 0.0024(8) 0.0047(8)
C6 0.0247(9) 0.0351(11) 0.0171(9) 0.0007(8) 0.0062(7) 0.0052(8)
C7 0.0207(9) 0.0287(10) 0.0224(10) 0.0036(8) 0.0043(8) 0.0009(8)
C8 0.0230(10) 0.0218(10) 0.0209(10) -0.0009(7) 0.0021(8) 0.0002(7)
C9 0.0186(9) 0.0213(9) 0.0148(9) 0.0003(7) 0.0002(7) 0.0023(7)
loop_
_atom_type_symbol
_atom_type_description
_atom_type_scat_dispersion_real
_atom_type_scat_dispersion_imag
_atom_type_scat_source
C C 0.0181 0.0091 'International Tables Vol C Tables 4.2.6.8 and 6.1.1.4'
H H 0.0000 0.0000 'International Tables Vol C Tables 4.2.6.8 and 6.1.1.4'
Cl Cl 0.3639 0.7018 'International Tables Vol C Tables 4.2.6.8 and 6.1.1.4'
N N 0.0311 0.0180 'International Tables Vol C Tables 4.2.6.8 and 6.1.1.4'
P P 0.2955 0.4335 'International Tables Vol C Tables 4.2.6.8 and 6.1.1.4'
loop_
_exptl_crystal_face_index_h
_exptl_crystal_face_index_k
_exptl_crystal_face_index_l
_exptl_crystal_face_perp_dist
-5 0 9 0.0724
-5 3 3 0.0895
1 2 -7 0.1273
0 -4 -3 0.0624
7 1 1 0.0458
-4 3 3 0.0925
-6 3 2 0.0888
-7 2 1 0.0898
-7 1 0 0.0923
-2 3 -4 0.1087
2 4 -3 0.1028
-4 -3 1 0.0794
5 3 -1 0.0771
-4 1 -6 0.0858
6 2 2 0.0585
6 -2 -6 0.0678
1 -3 -6 0.0505
-8 0 5 0.0689
-6 -3 5 0.0823
7 1 0 0.0481
3 2 -8 0.1306
5 -3 -2 0.0882
0 -2 7 0.1256
-4 -2 -5 0.0756
loop_
_geom_angle_atom_site_label_1
_geom_angle_atom_site_label_2
_geom_angle_atom_site_label_3
_geom_angle
_geom_angle_site_symmetry_1
_geom_angle_site_symmetry_3
_geom_angle_publ_flag
Cl1 P1 Cl2 98.56(3) . . ?
C1 P1 Cl1 101.39(7) . . ?
C1 P1 Cl2 97.52(7) . . ?
C1 N1 C9 117.82(17) . . ?
N1 C1 P1 108.30(15) . . ?
N1 C1 C2 124.97(19) . . ?
C2 C1 P1 126.71(17) . . ?
C1 C2 H2 121.3 . . ?
C3 C2 C1 117.4(2) . . ?
C3 C2 H2 121.3 . . ?
C2 C3 H3 119.8 . . ?
C2 C3 C4 120.31(19) . . ?
C4 C3 H3 119.8 . . ?
C3 C4 C5 123.26(19) . . ?
C3 C4 C9 118.10(19) . . ?
C9 C4 C5 118.6(2) . . ?
C4 C5 H5 119.9 . . ?
C6 C5 C4 120.20(19) . . ?
C6 C5 H5 119.9 . . ?
C5 C6 H6 119.6 . . ?
C5 C6 C7 120.8(2) . . ?
C7 C6 H6 119.6 . . ?
C6 C7 H7 119.8 . . ?
C8 C7 C6 120.5(2) . . ?
C8 C7 H7 119.8 . . ?
C7 C8 H8 120.1 . . ?
C7 C8 C9 119.83(19) . . ?
C9 C8 H8 120.1 . . ?
N1 C9 C4 121.38(19) . . ?
N1 C9 C8 118.61(18) . . ?
C8 C9 C4 120.00(19) . . ?
loop_
_geom_bond_atom_site_label_1
_geom_bond_atom_site_label_2
_geom_bond_distance
_geom_bond_site_symmetry_2
_geom_bond_publ_flag
Cl1 P1 2.0588(8) . ?
Cl2 P1 2.0674(8) . ?
P1 C1 1.835(2) . ?
N1 C1 1.320(3) . ?
N1 C9 1.374(3) . ?
C1 C2 1.416(3) . ?
C2 H2 0.9300 . ?
C2 C3 1.370(3) . ?
C3 H3 0.9300 . ?
C3 C4 1.410(3) . ?
C4 C5 1.426(3) . ?
C4 C9 1.425(3) . ?
C5 H5 0.9300 . ?
C5 C6 1.362(3) . ?
C6 H6 0.9300 . ?
C6 C7 1.419(3) . ?
C7 H7 0.9300 . ?
C7 C8 1.372(3) . ?
C8 H8 0.9300 . ?
C8 C9 1.412(3) . ?
loop_
_geom_torsion_atom_site_label_1
_geom_torsion_atom_site_label_2
_geom_torsion_atom_site_label_3
_geom_torsion_atom_site_label_4
_geom_torsion
_geom_torsion_site_symmetry_1
_geom_torsion_site_symmetry_2
_geom_torsion_site_symmetry_3
_geom_torsion_site_symmetry_4
_geom_torsion_publ_flag
Cl1 P1 C1 N1 -162.76(12) . . . . ?
Cl1 P1 C1 C2 18.67(18) . . . . ?
Cl2 P1 C1 N1 96.88(13) . . . . ?
Cl2 P1 C1 C2 -81.68(17) . . . . ?
P1 C1 C2 C3 178.71(15) . . . . ?
N1 C1 C2 C3 0.4(3) . . . . ?
C1 N1 C9 C4 -1.8(3) . . . . ?
C1 N1 C9 C8 178.92(18) . . . . ?
C1 C2 C3 C4 -0.5(3) . . . . ?
C2 C3 C4 C5 -179.38(18) . . . . ?
C2 C3 C4 C9 -0.5(3) . . . . ?
C3 C4 C5 C6 178.29(19) . . . . ?
C3 C4 C9 N1 1.7(3) . . . . ?
C3 C4 C9 C8 -179.04(18) . . . . ?
C4 C5 C6 C7 0.2(3) . . . . ?
C5 C4 C9 N1 -179.36(17) . . . . ?
C5 C4 C9 C8 -0.1(3) . . . . ?
C5 C6 C7 C8 0.9(3) . . . . ?
C6 C7 C8 C9 -1.5(3) . . . . ?
C7 C8 C9 N1 -179.56(18) . . . . ?
C7 C8 C9 C4 1.2(3) . . . . ?
C9 N1 C1 P1 -177.81(13) . . . . ?
C9 N1 C1 C2 0.8(3) . . . . ?
C9 C4 C5 C6 -0.6(3) . . . . ?
loop_
_exptl_oxdiff_crystal_face_indexfrac_h
_exptl_oxdiff_crystal_face_indexfrac_k
_exptl_oxdiff_crystal_face_indexfrac_l
_exptl_oxdiff_crystal_face_x
_exptl_oxdiff_crystal_face_y
_exptl_oxdiff_crystal_face_z
-4.9171 0.2611 8.6927 -0.3834 -0.8036 -0.4553
-5.1288 2.9045 2.9108 -0.0367 -0.0728 -0.9967
0.7947 2.3560 -7.0136 0.3929 0.8272 -0.4018
-0.4613 -3.5136 -3.0518 0.6321 -0.3023 0.7135
6.9401 0.8579 1.2901 -0.8541 0.4059 0.3253
-3.8330 3.3102 2.5344 -0.1582 0.0772 -0.9844
-5.5497 2.7587 1.9242 0.1096 -0.0502 -0.9927
-7.0125 1.7150 0.9119 0.4332 -0.2045 -0.8778
-7.4578 0.7978 0.0893 0.6315 -0.2992 -0.7153
-2.0019 2.9953 -4.0124 0.3183 0.5653 -0.7544
2.0055 3.9901 -3.0336 -0.2395 0.8523 -0.6719
-4.0084 -2.9906 1.0343 0.5352 -0.6920 0.3250
5.0092 2.9892 -1.0372 -0.6298 0.7460 -0.2511
-4.0119 0.9978 -5.9874 0.8663 0.3151 -0.4762
6.0132 1.9922 1.9634 -0.9264 0.4661 0.0173
5.9891 -2.0127 -5.9921 0.1729 0.4442 0.8876
0.9827 -3.0050 -5.9695 0.7299 0.0376 0.7266
-7.9972 0.0163 5.0156 0.2798 -0.7601 -0.6140
-6.0027 -2.9835 5.0341 0.3430 -1.0627 0.1588
7.0080 0.9896 -0.0284 -0.7461 0.5146 0.3088
2.9924 1.9852 -8.0127 0.3109 0.9611 -0.1583
4.9933 -3.0060 -1.9872 -0.0298 -0.0093 1.0037
0.0082 -1.9903 7.0055 -0.4993 -0.7335 0.3845
-4.0171 -1.9982 -4.9646 1.0233 -0.1611 0.1443
