#------------------------------------------------------------------------------
#$Date: 2020-07-09 07:18:10 +0300 (Thu, 09 Jul 2020) $
#$Revision: 254124 $
#$URL: file:///home/coder/svn-repositories/cod/cif/4/03/85/4038558.cif $
#------------------------------------------------------------------------------
#
# This file is available in the Crystallography Open Database (COD),
# http://www.crystallography.net/
#
# All data on this site have been placed in the public domain by the
# contributors.
#
data_4038558
loop_
_publ_author_name
'Honnanayakanavar, Jyoti M.'
'Harish, Battu'
'Nanubolu, Jagadeesh Babu'
'Suresh, Surisetti'
_publ_section_title
;
 Tandem Copper-Catalyzed Regioselective <i>N</i>-Arylation-Aza-Michael
 Addition: Synthesis of Tetracyclic
 5<i>H</i>-Benzothiazolo[3,2-<i>a</i>]quinazoline Derivatives.
;
_journal_name_full               'The Journal of organic chemistry'
_journal_paper_doi               10.1021/acs.joc.0c00275
_journal_year                    2020
_chemical_formula_moiety         'C18 H16 N2 O2 S'
_chemical_formula_sum            'C18 H16 N2 O2 S'
_chemical_formula_weight         324.39
_space_group_crystal_system      triclinic
_space_group_IT_number           2
_space_group_name_Hall           '-P 1'
_space_group_name_H-M_alt        'P -1'
_atom_sites_solution_hydrogens   mixed
_audit_creation_method           SHELXL-2018/3
_cell_angle_alpha                66.788(5)
_cell_angle_beta                 75.559(6)
_cell_angle_gamma                76.436(5)
_cell_formula_units_Z            2
_cell_length_a                   8.3698(18)
_cell_length_b                   10.5488(19)
_cell_length_c                   10.695(2)
_cell_measurement_reflns_used    1350
_cell_measurement_temperature    293(2)
_cell_measurement_theta_max      22.502
_cell_measurement_theta_min      2.388
_cell_volume                     830.5(3)
_computing_cell_refinement       '<i>SAINT</i> (Bruker, 2016)'
_computing_data_collection       '<i>APEX3</i> (Bruker, 2016)'
_computing_data_reduction        'Bruker SAINT'
_computing_structure_refinement  'SHELXL-2018/3 (Sheldrick, 2018)'
_computing_structure_solution    'SHELXT 2014/5 (Sheldrick, 2014)'
_diffrn_ambient_temperature      293(2)
_diffrn_measured_fraction_theta_full 0.996
_diffrn_measured_fraction_theta_max 0.996
_diffrn_measurement_device_type  'Bruker D8 QUEST PHOTON-100'
_diffrn_measurement_method       '\w and \f'
_diffrn_radiation_type           MoK\a
_diffrn_radiation_wavelength     0.71073
_diffrn_reflns_av_R_equivalents  0.1698
_diffrn_reflns_av_unetI/netI     0.1395
_diffrn_reflns_Laue_measured_fraction_full 0.996
_diffrn_reflns_Laue_measured_fraction_max 0.996
_diffrn_reflns_limit_h_max       9
_diffrn_reflns_limit_h_min       -9
_diffrn_reflns_limit_k_max       12
_diffrn_reflns_limit_k_min       -12
_diffrn_reflns_limit_l_max       12
_diffrn_reflns_limit_l_min       -12
_diffrn_reflns_number            11913
_diffrn_reflns_point_group_measured_fraction_full 0.996
_diffrn_reflns_point_group_measured_fraction_max 0.996
_diffrn_reflns_theta_full        24.997
_diffrn_reflns_theta_max         24.997
_diffrn_reflns_theta_min         2.126
_exptl_absorpt_coefficient_mu    0.205
_exptl_absorpt_correction_T_max  0.7459
_exptl_absorpt_correction_T_min  0.5178
_exptl_absorpt_correction_type   multi-scan
_exptl_absorpt_process_details   'SADABS 2014/5'
_exptl_crystal_density_diffrn    1.297
_exptl_crystal_description       block
_exptl_crystal_F_000             340
_exptl_crystal_size_max          0.320
_exptl_crystal_size_mid          0.290
_exptl_crystal_size_min          0.250
_refine_diff_density_max         0.179
_refine_diff_density_min         -0.261
_refine_diff_density_rms         0.052
_refine_ls_extinction_method     none
_refine_ls_goodness_of_fit_ref   0.962
_refine_ls_hydrogen_treatment    mixed
_refine_ls_matrix_type           full
_refine_ls_number_parameters     213
_refine_ls_number_reflns         2902
_refine_ls_number_restraints     9
_refine_ls_restrained_S_all      0.964
_refine_ls_R_factor_all          0.1898
_refine_ls_R_factor_gt           0.0739
_refine_ls_shift/su_max          0.000
_refine_ls_shift/su_mean         0.000
_refine_ls_structure_factor_coef Fsqd
_refine_ls_weighting_details
'w=1/[\s^2^(Fo^2^)+(0.1000P)^2^] where P=(Fo^2^+2Fc^2^)/3'
_refine_ls_weighting_scheme      calc
_refine_ls_wR_factor_gt          0.1554
_refine_ls_wR_factor_ref         0.2094
_reflns_Friedel_coverage         0.000
_reflns_number_gt                1322
_reflns_number_total             2902
_reflns_threshold_expression     'I > 2\s(I)'
_cod_data_source_file            jo0c00275_si_002.cif
_cod_data_source_block           KA522_0m
_cod_database_code               4038558
_shelx_shelxl_version_number     2018/3
_shelx_space_group_comment
;
The symmetry employed for this shelxl refinement is uniquely defined
by the following loop, which should always be used as a source of
symmetry information in preference to the above space-group names.
They are only intended as comments.
;
_shelx_estimated_absorpt_t_min   0.937
_shelx_estimated_absorpt_t_max   0.950
_shelx_res_file
;
TITL KA522_0m_a.res in P-1
    KA522_0m.res
    created by SHELXL-2018/3 at 10:39:48 on 21-Oct-2019
CELL 0.71073 8.3698   10.5488   10.6948    66.788    75.559    76.436
ZERR 2.00 0.0018    0.0019    0.0023     0.005     0.006     0.005
LATT 1
SFAC C H N O S
UNIT 36 32 4 4 2
LIST 6 ! automatically inserted. Change 6 to 4 for CHECKCIF!!
TEMP 20.000
ACTA
L.S. 40
FMAP 2
OMIT -3 50
PLAN -4 0 0.00
HTAB
BOND $H
DFIX C17 C18 1.5 0.02
DFIX N1 H1N 0.9 0.02
DELU C17 C18 0.02
SIMU C17 C18 0.02
CONF
SIZE 0.32 0.29 0.25
WGHT    0.100000
FVAR       0.80399
C1    1    0.406849    0.626050    0.852270    11.00000    0.05990    0.04849 =
         0.03827   -0.00909   -0.01010    0.00257
C2    1    0.243519    0.598448    0.893911    11.00000    0.07833    0.06156 =
         0.07132   -0.01556   -0.01937   -0.00975
AFIX  43
H2    2    0.212218    0.539114    0.862131    11.00000   -1.20000
AFIX   0
C3    1    0.127729    0.655209    0.979585    11.00000    0.06437    0.09420 =
         0.08238   -0.02489   -0.00373   -0.01243
AFIX  43
H3    2    0.018891    0.635870    1.005578    11.00000   -1.20000
AFIX   0
C4    1    0.176023    0.741736    1.026532    11.00000    0.05926    0.09314 =
         0.06277   -0.02563    0.01166    0.00392
AFIX  43
H4    2    0.097894    0.781524    1.084695    11.00000   -1.20000
AFIX   0
C5    1    0.338386    0.771782    0.989761    11.00000    0.06833    0.06235 =
         0.04382   -0.02448   -0.00195    0.00244
AFIX  43
H5    2    0.368644    0.829744    1.023822    11.00000   -1.20000
AFIX   0
C6    1    0.453591    0.714237    0.902049    11.00000    0.05059    0.04889 =
         0.03412   -0.00851   -0.00395   -0.00026
C7    1    0.676208    0.809473    0.918231    11.00000    0.05564    0.07068 =
         0.05179   -0.02222    0.00290   -0.01050
C8    1    0.535197    0.666278    0.576544    11.00000    0.05649    0.04664 =
         0.03764   -0.01463   -0.01027   -0.00914
C9    1    0.430559    0.793475    0.549843    11.00000    0.07424    0.05370 =
         0.05386   -0.01966   -0.01492    0.00956
AFIX  43
H9    2    0.366080    0.818644    0.623315    11.00000   -1.20000
AFIX   0
C10   1    0.420401    0.882490    0.417689    11.00000    0.09722    0.05522 =
         0.05643   -0.00975   -0.02423    0.01230
AFIX  43
H10   2    0.349474    0.967422    0.401905    11.00000   -1.20000
AFIX   0
C11   1    0.514705    0.846941    0.307890    11.00000    0.11709    0.06260 =
         0.04826   -0.00799   -0.02498    0.00039
AFIX  43
H11   2    0.506681    0.907330    0.217936    11.00000   -1.20000
AFIX   0
C12   1    0.619662    0.723538    0.330809    11.00000    0.09316    0.07253 =
         0.03759   -0.01720    0.00061   -0.01508
AFIX  43
H12   2    0.684307    0.700970    0.255904    11.00000   -1.20000
AFIX   0
C13   1    0.632213    0.630235    0.464398    11.00000    0.05505    0.04678 =
         0.05564   -0.02592   -0.00282   -0.01184
C14   1    0.748425    0.497554    0.488079    11.00000    0.05630    0.05803 =
         0.05629   -0.02912    0.00027   -0.01411
AFIX  43
H14   2    0.729672    0.427687    0.574334    11.00000   -1.20000
AFIX   0
C15   1    0.877073    0.469447    0.397088    11.00000    0.06400    0.07425 =
         0.06019   -0.02766    0.00074   -0.01364
AFIX  43
H15   2    0.898727    0.540368    0.312035    11.00000   -1.20000
AFIX   0
C16   1    0.988386    0.335258    0.419636    11.00000    0.04140    0.09394 =
         0.09094   -0.06022   -0.00489   -0.00457
C17   1    1.083084    0.117573    0.578606    11.00000    0.07611    0.07136 =
         0.14397   -0.06541   -0.00622    0.00648
AFIX  23
H17A  2    1.061074    0.067063    0.527588    11.00000   -1.20000
H17B  2    1.199410    0.130492    0.550113    11.00000   -1.20000
AFIX   0
C18   1    1.049189    0.040890    0.723306    11.00000    0.16648    0.07749 =
         0.14785   -0.01051    0.03405    0.01781
AFIX 137
H18A  2    0.933213    0.030782    0.750992    11.00000   -1.50000
H18B  2    1.075231    0.089958    0.772773    11.00000   -1.50000
H18C  2    1.116294   -0.049719    0.743611    11.00000   -1.50000
AFIX   0
N1    3    0.618387    0.741309    0.863010    11.00000    0.05613    0.07396 =
         0.04622   -0.03056    0.00731   -0.00697
H1N   2    0.697328    0.721212    0.800118    11.00000    0.06396
N2    3    0.721559    0.867116    0.969336    11.00000    0.08126    0.12383 =
         0.09542   -0.05792    0.00078   -0.02639
O1    4    0.976038    0.252153    0.550510    11.00000    0.06751    0.06613 =
         0.08718   -0.04386   -0.00026    0.00435
O2    4    1.083455    0.303290    0.328040    11.00000    0.07191    0.15184 =
         0.10414   -0.08881    0.01548    0.00430
S1    5    0.553254    0.545214    0.745450    11.00000    0.09198    0.04974 =
         0.04514   -0.01975   -0.01473    0.01269
HKLF 4 1 1 0 0 0 1 0 0 0 1




REM  KA522_0m_a.res in P-1
REM wR2 = 0.2094, GooF = S = 0.962, Restrained GooF = 0.964 for all data
REM R1 = 0.0739 for 1322 Fo > 4sig(Fo) and 0.1898 for all 2902 data
REM 213 parameters refined using 9 restraints

END

WGHT      0.0689      0.0000

REM Instructions for potential hydrogen bonds
EQIV $1 -x+2, -y+1, -z+1
HTAB N1 O2_$1

REM Highest difference peak  0.179,  deepest hole -0.261,  1-sigma level  0.052
Q1    1   0.7575  0.7195  0.3751  11.00000  0.05    0.18
Q2    1   1.0036  0.5320  0.3566  11.00000  0.05    0.18
Q3    1   0.0182  0.8298  0.6434  11.00000  0.05    0.18
Q4    1   0.8730  0.0459  0.7831  11.00000  0.05    0.17
;
_shelx_res_checksum              47332
_shelx_hkl_file
;
  -1   0   0 1095.70   37.33
  -1   0   0  900.66   37.41
   1   0   0 1062.95   37.39
   1   0   0 1023.00   37.27
  -2   0   0 1710.00   63.55
  -2   0   0 1677.05   63.77
   2   0   0 1640.48   63.44
   2   0   0 1720.33   63.81
   2   0   0 1918.78   66.09
  -3   0   0   76.17    8.82
  -3   0   0   86.44    7.33
   3   0   0   74.56   12.27
   3   0   0   84.99    7.70
   3   0   0   99.40    8.88
  -4   0   0   24.13    5.79
  -4   0   0   18.25    6.77
   4   0   0   16.72   12.28
   4   0   0   25.39    7.06
   4   0   0   22.98    6.45
  -5   0   0   -2.89    7.16
  -5   0   0    4.15    6.31
   5   0   0    9.87   15.57
   5   0   0    8.10    6.64
   5   0   0    8.54    7.57
  -6   0   0   23.71    9.60
   6   0   0   32.07   10.04
   6   0   0   22.47    8.46
   6   0   0   13.38   18.25
  -7   0   0   15.68   13.03
  -7   0   0   12.17    9.02
   7   0   0   35.67   12.53
   7   0   0   31.48   24.93
   7   0   0    6.69    8.81
  -8   0   0   18.28   16.63
  -8   0   0   -8.50   11.91
   8   0   0  -14.21   13.14
   8   0   0   12.55   21.54
   8   0   0  -25.44   26.14
  -9   0   0  -12.54   14.53
  -9   0   0   24.07   21.64
   9   0   0   -4.83   36.09
   9   0   0   -8.41   16.41
   9   0   0   -0.42   16.80
 -10   0   0    7.19   26.12
  10   0   0  -41.28   22.07
  10   0   0   29.12   47.34
  10  -1   0   -5.15   26.02
  10  -1   0   89.75   46.84
 -10   1   0  -48.03   26.02
   9  -1   0   26.96   18.01
   9  -1   0   13.64   38.23
   9  -1   0    5.06   16.79
  -9   1   0    2.22   14.33
  -9   1   0   16.03   20.68
   8  -1   0   24.42   13.88
   8  -1   0   71.21   32.33
   8  -1   0   28.55   14.40
  -8   1   0   45.65   13.13
  -8   1   0    8.70   16.10
   7  -1   0   46.46   11.68
   7  -1   0   55.66   28.32
   7  -1   0   30.32   12.34
  -7   1   0   29.29   10.44
  -7   1   0   45.50   13.18
   6  -1   0    3.92    6.85
   6  -1   0   13.89   20.32
   6  -1   0    5.63    9.43
  -6   1   0    0.71    8.98
  -6   1   0    4.42    8.22
   5  -1   0   27.88    6.96
   5  -1   0   39.90    8.48
   5  -1   0   32.57   17.64
  -5   1   0   28.24    8.29
  -5   1   0   40.53    7.71
   4  -1   0  113.65   10.16
   4  -1   0  125.18   10.19
   4  -1   0  122.17   16.22
  -4   1   0  117.83    8.99
  -4   1   0  118.10    9.96
   3  -1   0  216.31   11.81
   3  -1   0  251.26   12.62
  -3   1   0  220.73   12.00
  -3   1   0  233.83   11.99
   2  -1   0  245.41   10.85
   2  -1   0  230.69   11.30
  -2   1   0  247.23   10.96
  -2   1   0  229.57   11.38
   1  -1   0  469.16   17.87
   1  -1   0  478.18   18.26
  -1   1   0  471.11   18.22
  -1   1   0  486.16   17.95
   0  -1   0 1362.47   49.28
  -1  -1   0  144.29    7.32
  -1  -1   0  155.03    7.61
  -1  -1   0  164.45    7.32
   1   1   0  158.61    7.17
   1   1   0  146.15    7.22
  -2  -1   0  162.46    9.33
  -2  -1   0  163.60    8.72
   2   1   0  148.53   10.56
   2   1   0  158.82    9.03
   2   1   0  160.67    8.91
  -3  -1   0   96.99    9.09
  -3  -1   0   99.96    7.83
   3   1   0   94.08    8.44
   3   1   0   93.62    9.10
   3   1   0   83.62   11.71
  -4  -1   0  164.94   10.93
  -4  -1   0  162.59   12.09
   4   1   0  161.56   16.05
   4   1   0  165.23   11.45
   4   1   0  168.46   11.62
  -5  -1   0   -0.79    5.24
  -5  -1   0    8.88    8.31
   5   1   0    5.21    7.94
   5   1   0   11.09   14.64
   5   1   0    1.62    6.54
  -6  -1   0   17.32   10.23
  -6  -1   0   17.82    8.28
   6   1   0    4.70   17.81
   6   1   0   16.32    8.89
   6   1   0    1.48    7.27
  -7  -1   0   15.29   10.44
  -7  -1   0   -9.42   12.49
   7   1   0   -4.44   20.44
   7   1   0   23.56   11.71
   7   1   0  -12.81    9.89
  -8  -1   0   -8.39   14.16
  -8  -1   0  -20.37   10.58
   8   1   0  -24.04   11.79
   8   1   0   -2.23   12.31
   8   1   0  -21.94   23.82
  -9  -1   0   16.23   12.45
  -9  -1   0    3.86   20.96
   9   1   0   17.69   15.94
   9   1   0   25.16   35.82
   9   1   0   19.26   17.72
 -10  -1   0   26.18   25.04
  10   1   0   33.91   24.58
  10   1   0   18.65   42.78
 -11  -1   0   57.49   32.49
  11   1   0   80.47   39.39
   9  -2   0   19.96   41.12
   9  -2   0   10.80   31.04
   9  -2   0  -22.29   17.39
  -9   2   0    3.18   22.37
  -9   2   0  -15.69   19.72
   8  -2   0   29.52   13.95
   8  -2   0   27.26   32.53
   8  -2   0   18.23   13.37
  -8   2   0   20.28   16.65
  -8   2   0   -1.76   12.66
   7  -2   0   16.29   26.87
   7  -2   0   24.62   11.28
   7  -2   0   -1.08   10.08
  -7   2   0   -1.58   12.58
  -7   2   0    0.39   10.20
   6  -2   0   40.44    8.42
   6  -2   0   70.24   24.58
  -6   2   0   64.23   11.96
  -6   2   0   67.18   10.97
   5  -2   0   36.31   19.23
   5  -2   0   39.92    8.54
   5  -2   0   11.83    7.07
  -5   2   0   38.56    8.78
  -5   2   0   38.32    8.26
   4  -2   0  283.38   15.12
   4  -2   0  310.73   15.68
  -4   2   0  308.53   15.43
  -4   2   0  301.73   16.01
   3  -2   0  999.15   38.55
   3  -2   0 1006.02   39.24
  -3   2   0 1047.14   38.97
  -3   2   0  988.27   39.06
   2  -2   0  233.72   11.72
   2  -2   0  243.19   10.72
  -2   2   0  233.40   11.12
  -2   2   0  245.75   11.63
   1  -2   0  383.36   15.72
   1  -2   0  387.53   15.17
  -1   2   0  399.83   15.43
   0  -2   0 1246.87   46.15
   0  -2   0 1259.45   45.99
   0   2   0 1284.71   46.15
  -1  -2   0   42.31    4.55
  -1  -2   0   48.27    5.31
   1   2   0   42.93    4.76
   1   2   0   38.70    4.62
  -2  -2   0 1318.97   45.79
  -2  -2   0 1247.73   45.97
  -2  -2   0 1093.95   45.14
   2   2   0 1238.06   45.94
   2   2   0 1190.35   45.74
  -3  -2   0   -0.06    4.96
  -3  -2   0    4.51    6.64
   3   2   0    8.49    5.66
   3   2   0   -1.75    5.14
   3   2   0   17.48    8.63
  -4  -2   0    1.73    4.98
  -4  -2   0    0.27    7.55
   4   2   0    2.50    6.14
   4   2   0   -5.22   10.04
   4   2   0    0.00    6.90
  -5  -2   0   50.02   10.40
  -5  -2   0   46.66    8.20
   5   2   0   35.28    9.28
   5   2   0   28.64    7.97
   5   2   0   45.97   14.93
  -6  -2   0   39.62    8.52
  -6  -2   0   41.94   11.12
   6   2   0   33.85   10.46
   6   2   0   43.25   17.48
   6   2   0   36.41   10.00
  -7  -2   0   19.16   14.23
  -7  -2   0   11.18    9.82
   7   2   0    8.80   13.22
   7   2   0   16.57   20.90
  -8  -2   0   -9.93   10.86
  -8  -2   0   -4.30   15.79
   8   2   0    2.54   15.42
   8   2   0    9.34   24.51
   8   2   0   -6.07   12.20
  -9  -2   0   26.91   21.55
  -9  -2   0   13.18   13.83
   9   2   0   -6.47   15.60
   9   2   0   -9.89   17.80
 -10  -2   0   -0.52   23.99
  10   2   0   -4.11   22.20
  10   2   0  -30.66   36.95
   9  -3   0   13.12   18.69
   9  -3   0   -0.06   17.86
   9  -3   0   35.30   44.45
  -9   3   0   26.25   22.80
   8  -3   0    5.86   13.87
   8  -3   0   19.65   13.24
   8  -3   0   64.95   35.23
  -8   3   0   -6.67   13.54
  -8   3   0   -7.50   16.17
   7  -3   0   34.50   12.31
   7  -3   0   34.68   11.11
   7  -3   0   74.07   31.94
  -7   3   0   37.35   14.15
  -7   3   0   43.84   13.33
   6  -3   0    8.59    7.89
   6  -3   0    8.83    9.91
   6  -3   0   10.11   25.68
  -6   3   0   -7.05    9.50
  -6   3   0    6.03    9.60
   5  -3   0  134.03   12.12
   5  -3   0  155.47   11.93
   5  -3   0  190.56   26.82
  -5   3   0  144.27   12.46
  -5   3   0  138.06   13.00
   4  -3   0   55.36    7.75
   4  -3   0   68.17    7.92
  -4   3   0   58.83    8.28
  -4   3   0   63.78    8.02
   3  -3   0  226.43   12.19
   3  -3   0  210.73   11.07
  -3   3   0  217.80   12.06
  -3   3   0  218.35   11.70
   2  -3   0  186.62    9.29
   2  -3   0  183.88   10.49
  -2   3   0  188.34    9.82
  -2   3   0  190.38   10.87
   1  -3   0  505.26   19.44
   1  -3   0  499.54   19.97
  -1   3   0  492.92   19.78
   0  -3   0   49.02    4.96
   0  -3   0   37.96    4.97
   0   3   0   46.38    5.51
  -1  -3   0  395.46   17.27
  -1  -3   0  403.56   16.73
   1   3   0  392.15   16.97
   1   3   0  421.09   17.22
  -2  -3   0  112.64    9.62
  -2  -3   0   96.42    7.48
   2   3   0  106.74    8.92
   2   3   0  105.93    8.88
  -3  -3   0    5.57    5.17
  -3  -3   0   16.20    6.67
   3   3   0   10.37    6.02
   3   3   0    8.11    6.23
  -4  -3   0    7.79    6.11
  -4  -3   0    3.05    7.18
   4   3   0   10.52    7.00
   4   3   0   13.44    8.26
  -5  -3   0    4.07    9.72
  -5  -3   0   -0.05    5.80
   5   3   0   10.87    7.57
   5   3   0    4.56    8.56
   5   3   0    5.58   11.00
  -6  -3   0   17.78    8.08
  -6  -3   0   48.27   12.81
   6   3   0   63.34   10.53
   6   3   0   37.49   11.47
   6   3   0   43.93   15.94
  -7  -3   0   91.69   13.29
  -7  -3   0   85.28   16.27
   7   3   0   74.76   15.03
   7   3   0   81.27   21.87
   7   3   0   86.09   13.78
  -8  -3   0  -15.61   12.90
  -8  -3   0   -1.13   15.65
   8   3   0   24.09   14.01
   8   3   0   10.37   14.34
   8   3   0   16.14   23.38
  -9  -3   0  -37.28   13.14
  -9  -3   0   -1.23   19.25
   9   3   0  -46.31   26.69
   9   3   0   49.70   20.71
   9   3   0    0.13   17.26
 -10  -3   0   28.19   24.65
  10   3   0   61.63   24.18
   8  -4   0   -8.70   13.87
   8  -4   0   81.16   38.51
   8  -4   0  -35.52   13.63
  -8   4   0   -8.18   17.35
  -8   4   0   -4.37   15.91
   7  -4   0   33.98   32.65
   7  -4   0   -2.66   11.78
   7  -4   0   22.34   10.55
  -7   4   0   12.70   14.26
  -7   4   0   15.45   12.54
   6  -4   0   77.50   32.43
   6  -4   0   53.12   11.39
   6  -4   0   57.76   10.13
  -6   4   0   54.80   11.92
  -6   4   0   82.99   12.95
   5  -4   0   -3.13   23.21
   5  -4   0   -6.14    7.12
   5  -4   0   14.87    7.17
  -5   4   0    1.17    8.92
  -5   4   0    5.98    7.41
   4  -4   0   76.15    9.03
   4  -4   0   69.52    8.22
  -4   4   0   76.12    9.28
  -4   4   0   81.61    9.33
   3  -4   0    0.21    4.75
   3  -4   0    4.64    4.50
  -3   4   0    5.70    5.77
  -3   4   0   -5.82    4.50
   2  -4   0   91.54    6.71
   2  -4   0   88.35    8.38
  -2   4   0   88.61    7.34
   1  -4   0  101.01    7.27
   1  -4   0  101.02    6.80
  -1   4   0   96.64    7.89
   0  -4   0   80.73    6.24
   0   4   0   89.11    7.09
   0   4   0   80.08    7.64
  -1  -4   0    4.23    3.78
  -1  -4   0    2.14    5.45
   1   4   0   -2.57    5.16
   1   4   0   -4.68    4.43
  -2  -4   0   22.90    5.25
  -2  -4   0   21.78    7.07
   2   4   0   27.47    6.52
   2   4   0   20.13    5.65
  -3  -4   0    9.48    5.00
  -3  -4   0   14.78    5.80
  -3  -4   0    7.22    7.19
   3   4   0   12.22    7.17
   3   4   0   12.68    5.80
  -4  -4   0   85.87    9.76
  -4  -4   0   75.41   11.73
   4   4   0   89.60   11.61
   4   4   0   79.33   10.36
  -5  -4   0   32.73   11.49
  -5  -4   0   34.68    7.96
   5   4   0   51.86   11.50
   5   4   0   42.90    9.46
  -6  -4   0   27.76    9.03
  -6  -4   0  -10.67   13.34
   6   4   0   15.07    8.98
   6   4   0   38.13   12.95
  -7  -4   0   37.32   11.37
  -7  -4   0   22.50   15.60
   7   4   0   36.38   14.72
   7   4   0   37.19   14.10
  -8  -4   0   -8.67   16.72
  -8  -4   0   -9.13   12.81
   8   4   0  -19.05   15.98
   8   4   0   -0.14   16.39
  -9  -4   0    3.95   15.09
  -9  -4   0   -0.20   20.52
   9   4   0  -11.72   17.46
   9   4   0   16.66   18.45
 -10  -4   0   -1.52   28.64
  10   4   0    3.71   25.02
   8  -5   0   31.16   15.84
   8  -5   0   -6.27   14.36
  -8   5   0   14.84   20.36
  -8   5   0  -16.60   18.45
   7  -5   0   66.39   38.37
   7  -5   0    3.41   10.69
   7  -5   0   -9.06   11.45
  -7   5   0   19.41   14.03
  -7   5   0   25.67   15.30
   6  -5   0  -26.59   30.07
   6  -5   0   -3.06    9.78
   6  -5   0  -10.16    8.08
  -6   5   0    9.80   11.43
  -6   5   0    9.55   11.19
   5  -5   0   37.08   28.01
   5  -5   0   48.13    9.45
   5  -5   0   33.96    8.64
  -5   5   0   44.04   10.23
  -5   5   0   30.51    9.71
   4  -5   0   98.57   10.66
   4  -5   0   87.21    9.66
  -4   5   0   89.30   11.05
  -4   5   0   79.73   10.38
   3  -5   0  224.10   13.74
   3  -5   0  245.15   12.49
  -3   5   0  248.94   13.61
  -3   5   0  248.96   14.27
   2  -5   0  269.52   12.54
  -2   5   0  274.04   14.01
   1  -5   0   60.23    6.25
  -1   5   0   69.91    7.09
   0  -5   0  122.85    9.28
   0  -5   0  133.89    7.96
   0   5   0  122.50   10.58
   0   5   0  118.88    8.58
  -1  -5   0    7.86    3.93
  -1  -5   0    1.23    6.15
   1   5   0    4.46    6.08
   1   5   0    6.24    5.13
  -2  -5   0    0.82    6.71
  -2  -5   0    2.77    4.01
   2   5   0    6.56    5.77
   2   5   0    6.32    6.05
  -3  -5   0    3.81    8.30
  -3  -5   0   13.16    4.95
   3   5   0    3.92    7.25
   3   5   0    2.22    6.61
  -4  -5   0   27.57    7.25
  -4  -5   0   45.93   11.14
   4   5   0   36.76    9.11
   4   5   0   27.06    8.47
  -5  -5   0   15.22    7.27
  -5  -5   0   11.09   12.00
   5   5   0    3.57    9.68
  -6  -5   0    0.33   13.56
  -6  -5   0   -2.18    8.13
   6   5   0  -10.35   11.33
   6   5   0   -2.63   10.56
  -7  -5   0    7.24   14.71
  -7  -5   0  -17.57   11.52
   7   5   0    0.22   12.58
   7   5   0   15.12   16.22
  -8  -5   0    4.42   13.28
  -8  -5   0   49.09   19.74
   8   5   0    9.62   15.67
   8   5   0  -39.92   15.41
  -9  -5   0  -43.98   14.75
  -9  -5   0   -6.67   22.80
   9   5   0  -14.05   21.51
   9   5   0  -11.75   18.06
   8  -6   0   -5.56   15.26
   7  -6   0  -15.92   11.74
   7  -6   0   92.03   44.29
   7  -6   0   23.76   12.81
  -7   6   0   19.03   17.02
  -7   6   0  -21.20   16.00
   6  -6   0   18.70    9.30
   6  -6   0   27.79   35.53
   6  -6   0   -3.98   10.21
  -6   6   0   17.63   11.52
  -6   6   0    1.57   12.56
   5  -6   0   83.00   10.98
   5  -6   0  101.43   13.82
   5  -6   0  110.11   35.17
  -5   6   0   96.26   12.50
  -5   6   0  101.69   13.13
   4  -6   0   38.66    7.70
   4  -6   0   50.91    8.98
  -4   6   0   46.51   10.28
  -4   6   0   49.86    9.37
   3  -6   0  133.64    9.53
  -3   6   0  131.28   12.01
   2  -6   0   48.94    5.89
   2  -6   0   48.75    7.45
  -2   6   0   53.73    7.97
   1  -6   0   61.95    7.23
   1  -6   0   73.09    9.77
  -1   6   0   67.50    8.41
   0  -6   0    4.36    5.95
   0  -6   0    9.19    4.34
   0   6   0    5.91    7.38
   0   6   0    7.11    5.23
  -1  -6   0   46.92    5.99
  -1  -6   0   54.34    8.48
   1   6   0   34.09    6.95
   1   6   0   48.05    8.70
  -2  -6   0   24.36    9.18
  -2  -6   0   35.52    6.13
   2   6   0   33.53    8.64
   2   6   0   42.98    7.82
  -3  -6   0    0.88    5.06
  -3  -6   0   -1.35    8.89
   3   6   0    9.94    7.57
   3   6   0   12.92    8.41
  -4  -6   0   -3.62   10.68
  -4  -6   0    1.11    6.13
   4   6   0   10.05    8.79
   4   6   0    2.04    9.36
  -5  -6   0    2.41   11.36
  -5  -6   0  -14.67    7.01
   5   6   0    8.57    9.94
   5   6   0   -7.33   11.28
  -6  -6   0    3.03   13.07
  -6  -6   0    9.11    8.79
   6   6   0   18.82   13.34
   6   6   0    7.54   10.94
  -7  -6   0   -8.48   14.71
  -7  -6   0  -16.38   11.45
   7   6   0   -2.65   14.91
   7   6   0    0.34   13.51
  -8  -6   0   24.69   15.96
  -8  -6   0    0.28   18.27
   8   6   0  -33.38   18.57
   8   6   0  -20.43   13.88
  -9  -6   0   -6.32   23.57
  -9  -6   0  -12.52   16.62
   9   6   0  -20.91   21.38
   9   6   0   11.68   23.71
   8  -7   0   37.17   16.09
   7  -7   0   22.75   13.53
  -7   7   0  -45.39   17.92
   6  -7   0   -0.18   10.46
   6  -7   0   28.59   39.47
   6  -7   0   22.21   12.21
  -6   7   0   -1.96   14.85
  -6   7   0   11.42   13.16
   5  -7   0   24.79   13.02
   5  -7   0   -2.08   32.35
  -5   7   0   22.32   12.70
  -5   7   0   37.77   12.92
   4  -7   0   -3.62    8.57
   4  -7   0    2.48    6.70
  -4   7   0    4.68   11.36
   3  -7   0   -2.33    5.47
   3  -7   0   10.15    6.73
  -3   7   0   -2.63    8.15
   2  -7   0    6.67    4.99
   2  -7   0    4.23    5.19
  -2   7   0   10.73    6.88
   1  -7   0   -0.98    5.19
   1  -7   0    2.65    5.16
  -1   7   0   -3.64    5.65
   0  -7   0   15.46    4.68
   0  -7   0   13.66    6.56
   0   7   0    7.37    8.62
   0   7   0    4.59    5.91
  -1  -7   0   58.61    6.50
  -1  -7   0   41.80   10.13
   1   7   0   60.57    8.62
   1   7   0   58.66   10.39
  -2  -7   0   60.66   11.75
  -2  -7   0   61.35    7.30
   2   7   0   89.27   11.65
   2   7   0   57.53    9.04
  -3  -7   0   61.85   12.07
  -3  -7   0   43.96    7.08
   3   7   0   51.10   17.25
   3   7   0   42.41   11.22
  -4  -7   0   50.89    9.19
  -4  -7   0   58.46    8.53
  -4  -7   0   46.14   13.59
   4   7   0   51.43   12.63
   4   7   0   48.91   11.06
  -5  -7   0   67.15   16.12
  -5  -7   0   56.16   10.78
   5   7   0   36.80   12.18
   5   7   0   47.63   14.17
  -6  -7   0    6.30   13.80
  -6  -7   0   -6.63    9.65
   6   7   0   -1.35   13.09
   6   7   0   -2.77   15.15
  -7  -7   0   20.00   18.52
  -7  -7   0   -8.15   14.04
   7   7   0    1.65   20.00
   7   7   0   -0.50   15.13
  -8  -7   0   -5.42   16.05
  -8  -7   0   11.48   19.74
   8   7   0    9.54   22.99
   8   7   0   26.46   19.35
  -9  -7   0   12.19   20.66
   9   7   0  -53.10   22.73
   7  -8   0   17.98   13.21
  -7   8   0   -2.69   22.55
   6  -8   0   10.16   10.38
  -6   8   0   14.86   18.99
   5  -8   0    6.11   10.24
   5  -8   0   10.75   11.37
   5  -8   0   50.82   37.01
   4  -8   0    8.00    6.17
   4  -8   0  -10.06    7.09
   4  -8   0   10.67   30.17
  -4   8   0   19.36   12.09
  -4   8   0  -16.71   10.59
   3  -8   0    3.71    5.75
   3  -8   0    7.37    5.25
  -3   8   0    3.68    9.10
  -3   8   0   27.98    7.53
   2  -8   0    8.97    4.79
   2  -8   0    1.77    5.11
  -2   8   0    2.61    7.73
  -2   8   0    2.86    6.92
   1  -8   0   10.93    6.17
   1  -8   0   20.69    5.35
  -1   8   0   21.69    6.98
   0  -8   0    9.89    7.77
   0   8   0   23.37   11.09
   0   8   0   20.96    7.23
  -1  -8   0    1.93    4.60
   1   8   0   -5.88    9.29
   1   8   0    0.47    7.31
  -2  -8   0   27.93   12.36
  -2  -8   0   52.14    6.96
   2   8   0   25.11   11.87
   2   8   0   46.12   10.80
  -3  -8   0   19.58   12.99
  -3  -8   0   11.29    6.32
   3   8   0   29.68    9.94
   3   8   0   14.98   12.77
  -4  -8   0   20.90   14.35
  -4  -8   0   26.05    8.85
   4   8   0   31.54   12.54
   4   8   0   44.91   14.42
  -5  -8   0   38.31    9.92
  -5  -8   0   49.01   16.06
   5   8   0   67.43   14.46
   5   8   0   72.39   15.41
  -6  -8   0   15.17   16.49
  -6  -8   0  -14.17   11.77
   6   8   0   16.96   14.49
   6   8   0   32.95   16.74
  -7  -8   0  -24.91   13.09
  -7  -8   0  -32.25   16.30
   7   8   0   30.91   22.56
   7   8   0   16.43   16.07
  -8  -8   0    5.15   18.74
   8   8   0   -2.84   23.56
  -9  -8   0   44.10   25.87
   9   8   0  -23.62   30.16
  -6   9   0   39.51   22.35
  -5   9   0   12.97   17.61
   4  -9   0   53.53   36.70
  -4   9   0    0.90    7.57
  -4   9   0  -10.61   13.47
   3  -9   0   41.15   31.49
  -3   9   0    5.44    7.29
  -3   9   0   -0.77   10.00
   2  -9   0   -4.36    4.38
   2  -9   0   -4.00    4.09
  -2   9   0    2.11    7.51
   1  -9   0    8.72    4.75
   1  -9   0    5.11    5.68
  -1   9   0   10.64   10.28
  -1   9   0    7.84    9.40
   0  -9   0   -7.61    8.41
   0  -9   0   18.61    6.59
   0   9   0   13.50   15.65
   0   9   0   -0.10    9.13
  -1  -9   0   10.19   10.56
  -1  -9   0   20.99    5.52
   1   9   0   15.97   11.72
   1   9   0   -3.34    8.22
  -2  -9   0   54.76   15.01
  -2  -9   0   79.61    8.84
   2   9   0   85.00   15.96
   2   9   0   78.70   12.25
  -3  -9   0   13.71   14.29
  -3  -9   0   -3.79    6.69
   3   9   0   38.03   15.95
   3   9   0    8.02   11.00
  -4  -9   0    3.62    7.66
  -4  -9   0   20.79   16.22
  -4  -9   0   15.69   10.52
   4   9   0    5.02   12.74
   4   9   0   -9.92   16.11
  -5  -9   0   11.50   17.36
  -5  -9   0   21.78   10.78
   5   9   0   13.36   14.05
   5   9   0   -6.64   16.49
  -6  -9   0    4.73   18.87
   6   9   0   -0.70   16.98
  -7  -9   0  -37.96   17.49
  -7  -9   0   -5.51   22.07
   7   9   0  -49.07   23.88
  -8  -9   0  -28.18   21.67
   8   9   0  -23.05   26.53
  -9  -9   0   76.99   30.11
   9   9   0  -70.84   52.44
  -5  10   0   28.23   20.23
  -4  10   0  -13.39   13.64
   3 -10   0   57.56   34.13
   2 -10   0   28.95   32.36
  -2  10   0   14.45    9.83
  -2  10   0   11.70    7.84
   1 -10   0    0.51    5.24
   1 -10   0    3.66    5.24
  -1  10   0   14.91    9.29
  -1  10   0    1.40    8.95
   0 -10   0    9.15    6.44
   0 -10   0   28.20    9.51
   0  10   0   11.30    9.97
  -1 -10   0   -4.26    6.08
  -1 -10   0   15.10   11.95
   1  10   0   -2.43   12.53
   1  10   0  -10.36   10.14
  -2 -10   0   67.30    8.40
   2  10   0   61.87   12.97
   2  10   0   76.19   17.23
  -3 -10   0    4.92   17.03
  -3 -10   0   -1.42    7.28
  -3 -10   0  -20.77   15.12
   3  10   0    9.64   17.03
   3  10   0   -1.29   12.52
  -4 -10   0   21.79    9.11
  -4 -10   0   34.01   14.71
  -4 -10   0    4.26   17.71
   4  10   0   -9.35   13.95
   4  10   0   -8.13   19.30
  -5 -10   0    7.60   17.90
  -5 -10   0  -11.35   11.21
   5  10   0   26.11   15.81
   5  10   0   12.03   20.81
  -6 -10   0  -27.21   20.42
   6  10   0   47.71   24.08
  -7 -10   0   -1.42   20.48
   7  10   0   10.50   25.48
  -8 -10   0   12.12   33.62
   8  10   0  -21.17   33.36
  -3  11   0    6.48   12.15
   2 -11   0   59.51   35.52
  -2  11   0   30.90   11.51
   1 -11   0   53.89   34.06
  -1  11   0   37.70   11.45
  -1  11   0    4.05   11.32
   0 -11   0   15.74    7.04
   0 -11   0   54.36   34.74
   0  11   0    5.92   12.57
  -1 -11   0    5.17   11.09
  -1 -11   0   52.21   31.11
  -1 -11   0   -4.10   13.04
   1  11   0    6.56   12.55
   1  11   0   18.94   17.50
  -2 -11   0  -11.29    7.27
  -2 -11   0   25.98   26.92
  -2 -11   0  -21.70   15.21
   2  11   0    0.65   14.02
   2  11   0  -11.57   17.35
  -3 -11   0    2.81    8.55
  -3 -11   0    4.93   22.58
  -3 -11   0   19.79   17.99
   3  11   0  -14.88   20.60
   3  11   0    1.60   14.19
  -4 -11   0   29.90   18.45
  -4 -11   0    3.24   11.09
  -4 -11   0   -9.93   20.24
   4  11   0   36.24   24.97
   4  11   0   24.75   15.60
  -5 -11   0  -10.90   14.22
  -5 -11   0  -14.86   21.93
   5  11   0    5.29   27.54
   1 -12   0   60.41   42.81
  -1  12   0   19.37   13.56
   0 -12   0   70.68   42.36
   0  12   0   28.16   15.02
  -1 -12   0   29.83   14.76
  -1 -12   0   29.62   37.66
   1  12   0  -20.13   15.21
  -2 -12   0   22.32   35.98
  -2 -12   0   15.41   17.78
   2  12   0   -8.86   15.54
   3  12   0    2.87   18.19
  -4 -12   0   30.08   24.34
   0 -13   0  118.93   54.85
   1  13   0   -1.68   19.31
  -2 -13   0   -3.88   25.76
  -3 -13   0  -12.55   23.48
  -3 -12   1   -3.01   23.60
  -2 -12   1    3.91   20.73
   1  12  -1  -23.73   17.25
  -1 -12   1  -22.92   18.20
   0  12  -1    8.67   16.07
   0 -12   1  -12.71   14.46
  -1  12  -1   18.59   16.46
   1 -12   1   44.09   47.79
  -4 -11   1  -14.87   22.99
   3  11  -1   19.21   26.49
   3  11  -1   17.30   16.70
  -3 -11   1    0.38   11.41
  -3 -11   1   24.35   20.79
   2  11  -1    7.73   22.72
   2  11  -1   18.87   14.88
  -2 -11   1    3.93    9.09
  -2 -11   1    2.52   17.35
   1  11  -1   25.38   26.99
   1  11  -1   16.30   13.40
  -1 -11   1  -13.30   15.77
  -1 -11   1   15.67    8.57
   0  11  -1   -0.06   13.49
   0 -11   1   16.02   11.54
   0 -11   1    9.49   14.85
  -1  11  -1    1.01   14.38
   1 -11   1   -0.42   10.28
  -2  11  -1  -14.93   14.67
  -3  11  -1    5.75   16.11
   7  10  -1  -24.57   28.83
  -7 -10   1  -32.55   23.09
   6  10  -1   36.53   27.07
  -6 -10   1  -13.35   16.94
   5  10  -1   -8.15   18.64
   5  10  -1  -25.20   23.41
  -5 -10   1   28.59   21.29
   4  10  -1   32.28   16.57
   4  10  -1   37.55   23.62
  -4 -10   1   27.94   11.78
  -4 -10   1   16.66   19.87
   3  10  -1   -5.70   21.46
   3  10  -1   24.28   13.14
  -3 -10   1   -9.57    9.20
  -3 -10   1    4.43   17.52
   2  10  -1  -12.27   16.97
   2  10  -1    4.82   12.03
  -2 -10   1   16.88    7.72
   1  10  -1   22.52   15.02
   1  10  -1  -13.00   11.65
  -1 -10   1   -1.78   13.57
  -1 -10   1   -0.91    6.59
   0  10  -1   -9.49   11.48
   0  10  -1  -11.79   14.22
   0 -10   1   -3.31   12.54
   0 -10   1    2.50    6.87
  -1  10  -1   15.90   12.19
  -1  10  -1   13.87   19.20
   1 -10   1   10.50   10.44
   1 -10   1    3.97    8.57
  -2  10  -1   13.10   12.91
   2 -10   1   23.49    8.95
   2 -10   1   18.22    8.06
  -3  10  -1   11.55   15.49
   3 -10   1   13.70    7.86
  -4  10  -1   -1.51   18.03
  -5  10  -1   13.23   21.13
   8   9  -1  -41.99   29.76
  -8  -9   1  -26.51   25.55
   7   9  -1   13.86   26.83
  -7  -9   1    2.58   17.52
   6   9  -1   28.58   23.01
   6   9  -1   34.23   18.94
  -6  -9   1  -26.20   20.48
  -6  -9   1   26.81   15.84
   5   9  -1   18.36   21.98
  -5  -9   1  -19.77   17.65
  -5  -9   1  -14.34   12.56
   4   9  -1   39.82   18.31
   4   9  -1   22.06   12.87
  -4  -9   1   -4.45   17.13
  -4  -9   1   26.22    9.83
   3   9  -1   30.95   18.79
   3   9  -1   26.64   12.65
  -3  -9   1   22.25   17.46
  -3  -9   1   22.26    8.44
   2   9  -1   61.21   12.74
   2   9  -1   58.96   17.90
  -2  -9   1   58.37    8.93
  -2  -9   1   45.63   16.11
   1   9  -1    3.51   13.23
   1   9  -1   19.26   10.81
  -1  -9   1   18.40   13.08
  -1  -9   1   -9.30    5.76
   0   9  -1   26.60   12.70
   0   9  -1   31.85   10.51
   0  -9   1   -2.81   11.37
  -1   9  -1   14.40   10.97
  -1   9  -1   14.67   14.33
  -2   9  -1    2.45   11.29
  -2   9  -1    6.97   22.98
   2  -9   1   10.13    7.79
  -3   9  -1   34.44   14.17
   3  -9   1   21.01    8.71
  -4   9  -1   -8.81   15.69
   4  -9   1    7.64   10.26
   4  -9   1   18.20    8.04
  -5   9  -1   42.10   20.61
   5  -9   1   15.13    9.43
  -6   9  -1   -9.42   22.03
   6  -9   1   10.10   13.17
   8   8  -1  -13.68   30.52
  -8  -8   1  -25.85   22.14
   7   8  -1  -28.30   22.16
   7   8  -1   -6.36   20.72
  -7  -8   1   40.09   22.61
  -7  -8   1   42.40   16.51
   6   8  -1  -45.79   20.48
   6   8  -1   18.09   13.55
  -6  -8   1  -12.87   10.68
  -6  -8   1   17.80   18.44
   5   8  -1  -14.19   16.31
   5   8  -1    1.28   13.02
  -5  -8   1  -15.84   16.02
  -5  -8   1    9.27    6.59
  -5  -8   1   11.42   10.46
   4   8  -1   -1.64   12.33
   4   8  -1   -5.37   14.80
  -4  -8   1    6.21    8.00
  -4  -8   1   10.16   15.78
   3   8  -1    2.43   10.57
   3   8  -1   15.88   14.50
  -3  -8   1   19.87    7.40
  -3  -8   1   19.91   14.49
   2   8  -1    0.85   13.49
   2   8  -1   -0.37    9.26
  -2  -8   1   16.71   13.65
  -2  -8   1    7.20    6.37
   1   8  -1    4.32    8.72
   1   8  -1  -12.81   10.92
  -1  -8   1   12.40    5.72
   0   8  -1   69.63   11.03
   0   8  -1   81.52   14.05
   0  -8   1   75.49   12.45
   0  -8   1   63.86    8.03
  -1   8  -1   19.84   12.44
  -1   8  -1   19.22   10.21
   1  -8   1   24.75    6.55
   1  -8   1   11.93    8.90
  -2   8  -1   71.41   14.61
  -2   8  -1   62.41   11.37
   2  -8   1   54.60    9.31
  -3   8  -1   -3.70   13.30
  -3   8  -1   24.96   12.12
   3  -8   1   -4.55    9.85
   3  -8   1   10.78    7.70
  -4   8  -1   12.77   14.83
  -4   8  -1    3.80   14.56
   4  -8   1    2.38    8.16
   4  -8   1    5.51   10.80
  -5   8  -1    6.83   14.98
   5  -8   1   -2.65   15.84
   5  -8   1    3.28    9.46
  -6   8  -1   18.04   20.63
   6  -8   1   13.58   11.73
   7  -8   1  -21.37   13.41
   9   7  -1   20.14   51.57
  -9  -7   1  -89.03   35.77
   8   7  -1   36.99   24.93
   8   7  -1   34.79   34.13
  -8  -7   1   16.56   20.30
  -8  -7   1  -19.43   23.84
   7   7  -1   19.02   15.90
   7   7  -1   63.55   23.51
  -7  -7   1  -24.63   14.71
  -7  -7   1   37.15   17.67
   6   7  -1    0.40   17.62
   6   7  -1    5.79   12.95
  -6  -7   1   11.24   11.76
  -6  -7   1   -3.08   14.87
   5   7  -1    7.15   12.94
   5   7  -1    6.54   11.73
  -5  -7   1   10.25    9.10
  -5  -7   1   18.20    6.69
  -5  -7   1   14.15   15.52
   4   7  -1   -1.42   11.17
   4   7  -1    2.13   13.02
  -4  -7   1    2.38    7.99
  -4  -7   1   16.15   13.50
   3   7  -1  -11.23    9.84
   3   7  -1    3.50    9.25
  -3  -7   1   36.67   23.98
  -3  -7   1   -0.22    6.41
   2   7  -1   11.37   11.24
  -2  -7   1   29.67    6.76
  -2  -7   1    3.81   11.14
   1   7  -1   77.57   10.36
   1   7  -1   88.71   12.81
  -1  -7   1   84.89   13.15
  -1  -7   1   78.40    8.58
   0   7  -1  115.37   11.83
   0   7  -1  112.06   13.15
   0  -7   1  108.70    9.10
   0  -7   1  105.84   12.74
  -1   7  -1   35.77   11.11
  -1   7  -1   33.23    8.77
   1  -7   1   27.64    8.32
   1  -7   1   27.22    6.51
  -2   7  -1   64.69   11.18
  -2   7  -1   70.26   12.01
   2  -7   1   66.74    8.66
   2  -7   1   56.13    8.48
  -3   7  -1   97.10   13.58
   3  -7   1   96.37   10.81
   3  -7   1   98.13   11.70
  -4   7  -1   35.57   11.74
   4  -7   1   31.75    9.23
   4  -7   1   45.28   10.49
  -5   7  -1   19.44   13.97
  -5   7  -1   26.53   11.42
   5  -7   1    4.34    9.18
   5  -7   1   -1.97    8.85
  -6   7  -1  -21.13   16.85
  -6   7  -1    5.69   14.71
   6  -7   1   12.61   11.73
   6  -7   1   -9.46   10.40
   6  -7   1    2.84   38.94
  -7   7  -1  -11.34   19.38
   7  -7   1    1.77   13.10
   8  -7   1   18.07   17.29
   9   6  -1   48.82   28.89
  -9  -6   1  -16.59   21.88
   8   6  -1   10.44   20.37
   8   6  -1   -4.47   16.75
  -8  -6   1   18.28   20.09
  -8  -6   1    6.47   17.32
   7   6  -1  -27.05   13.06
   7   6  -1  -22.76   15.66
  -7  -6   1   -6.18   17.77
  -7  -6   1    9.41   13.54
   6   6  -1    1.65   16.20
   6   6  -1   -8.80   12.32
  -6  -6   1  -17.32   15.99
  -6  -6   1   16.89   10.03
   5   6  -1    1.45   10.53
   5   6  -1   -3.96   13.27
  -5  -6   1   10.42    9.29
  -5  -6   1    4.92    6.79
  -5  -6   1  -13.57   12.06
   4   6  -1   12.55    9.92
   4   6  -1   10.21   10.64
  -4  -6   1   17.24    9.52
  -4  -6   1    4.47    7.81
   3   6  -1   26.12    9.83
   3   6  -1   24.27    8.39
  -3  -6   1   12.97    5.93
  -3  -6   1   14.46   11.62
   2   6  -1   34.10   10.70
   2   6  -1   31.08    7.86
  -2  -6   1   27.48    6.44
  -2  -6   1   35.27   10.87
   1   6  -1  106.64   10.75
   1   6  -1  135.73   13.43
  -1  -6   1  111.77   13.39
  -1  -6   1  112.87    8.98
   0   6  -1  159.36   12.12
   0   6  -1  163.68   14.07
   0  -6   1  150.31   13.27
   0  -6   1  161.42   10.33
  -1   6  -1   35.92    8.26
  -1   6  -1   23.43    8.66
   1  -6   1   25.73    6.07
   1  -6   1   25.92    7.80
  -2   6  -1    8.31    8.41
  -2   6  -1    1.52    7.66
   2  -6   1    9.74    6.17
   2  -6   1   15.98    6.51
  -3   6  -1   95.91   11.98
   3  -6   1  100.43   10.81
   3  -6   1  100.50   10.34
  -4   6  -1   23.41   10.38
  -4   6  -1   31.06    9.70
   4  -6   1   40.06    8.58
   4  -6   1   30.90    8.24
  -5   6  -1   21.82   11.31
  -5   6  -1   -8.32    9.90
   5  -6   1   18.17    8.77
   5  -6   1   19.27    9.23
  -6   6  -1    3.31   12.85
  -6   6  -1    1.04   11.78
   6  -6   1    1.34   10.15
   6  -6   1   -1.10   11.05
  -7   6  -1   -2.52   16.21
  -7   6  -1  -11.10   16.59
   7  -6   1   20.41   13.21
   7  -6   1   -2.84   12.48
   7  -6   1   63.67   41.48
   8  -6   1  -19.95   14.87
   9   5  -1    1.71   19.43
  -9  -5   1  -40.16   16.90
  -9  -5   1   11.15   23.16
   8   5  -1   -1.98   17.70
   8   5  -1   21.24   16.42
  -8  -5   1    0.68   21.33
   7   5  -1   -0.89   15.31
   7   5  -1   11.31   13.10
  -7  -5   1    3.41   18.10
  -7  -5   1   -0.41   10.96
   6   5  -1   12.90   11.82
  -6  -5   1   27.78   10.48
  -6  -5   1   16.80   15.90
   5   5  -1   39.28   10.74
   5   5  -1   30.64   13.20
  -5  -5   1   31.95    8.60
  -5  -5   1   24.03    8.66
   4   5  -1    5.95   10.04
   4   5  -1   -0.83    7.44
  -4  -5   1   23.05   11.84
  -4  -5   1    5.40    7.06
  -4  -5   1   13.87    9.10
   3   5  -1  209.45   15.63
   3   5  -1  217.76   14.27
  -3  -5   1  212.18   15.88
  -3  -5   1  210.14   12.75
   2   5  -1   14.16    8.30
   2   5  -1    5.57    6.72
  -2  -5   1   12.47    5.68
  -2  -5   1   -1.86    7.64
   1   5  -1  206.62   12.99
   1   5  -1  209.61   14.50
  -1  -5   1  199.79   14.58
  -1  -5   1  214.76   11.83
   0   5  -1  336.19   16.91
   0   5  -1  322.23   17.72
   0  -5   1  351.29   16.33
   0  -5   1  357.79   17.71
  -1   5  -1   87.65   10.24
  -1   5  -1   85.09    9.30
   1  -5   1   90.03    8.84
   1  -5   1   70.70    7.94
  -2   5  -1    3.71    6.96
   2  -5   1   10.14    5.37
   2  -5   1    6.21    5.41
  -3   5  -1   16.94    7.73
  -3   5  -1   14.02    7.60
   3  -5   1   13.92    6.41
   3  -5   1   15.10    6.50
  -4   5  -1   -1.96    7.76
  -4   5  -1   -1.89    7.74
   4  -5   1   -1.98    7.01
   4  -5   1    2.12    6.85
  -5   5  -1   -1.18    9.27
  -5   5  -1    9.34    9.08
   5  -5   1   13.15    8.56
  -6   5  -1    1.05   12.55
  -6   5  -1   -8.68   11.04
   6  -5   1    1.15    9.63
   6  -5   1    1.62   10.44
  -7   5  -1    2.26   15.46
  -7   5  -1   12.17   14.44
   7  -5   1   11.77   11.96
   7  -5   1   60.71   39.64
   7  -5   1   13.08   12.32
  -8   5  -1    6.39   19.73
  -8   5  -1   13.81   20.56
   8  -5   1   10.05   16.91
   8  -5   1   -1.40   14.52
   9   4  -1   37.17   19.58
   9   4  -1   -0.97   19.19
  -9  -4   1   17.50   16.69
  -9  -4   1    6.24   21.77
   8   4  -1    6.26   15.08
   8   4  -1  -13.52   17.15
  -8  -4   1   -8.24   12.70
  -8  -4   1   51.00   20.34
   7   4  -1   28.77   13.72
   7   4  -1   -6.51   14.21
  -7  -4   1   24.65   11.57
  -7  -4   1  -10.63   14.40
   6   4  -1   -5.69   14.11
   6   4  -1   -4.68    9.45
  -6  -4   1    2.23   13.18
  -6  -4   1    4.64    8.79
   5   4  -1    0.04   10.03
   5   4  -1   22.01    8.41
  -5  -4   1   -1.19    7.55
  -5  -4   1   -7.62   10.37
  -5  -4   1  -20.21    7.30
   4   4  -1  102.98   13.00
   4   4  -1  110.07   11.46
  -4  -4   1  101.77   10.08
  -4  -4   1   91.33   11.32
  -4  -4   1  141.31   14.96
   3   4  -1  120.82   11.61
   3   4  -1  120.62   11.96
  -3  -4   1  131.74    9.86
  -3  -4   1  122.39   13.54
   2   4  -1    1.54    5.80
   2   4  -1    6.05    7.08
  -2  -4   1    0.12    4.46
  -2  -4   1    5.96    6.93
   1   4  -1   97.93   10.57
   1   4  -1   92.74    9.51
  -1  -4   1   95.16    8.35
  -1  -4   1  100.71   10.86
   0   4  -1  180.62   11.68
   0   4  -1  189.23   12.23
   0  -4   1  169.47   10.82
  -1   4  -1  222.21   14.07
  -1   4  -1  215.11   12.91
   1  -4   1  236.28   12.43
   1  -4   1  220.24   12.37
  -2   4  -1   31.91    6.96
  -2   4  -1   24.69    6.36
   2  -4   1   32.16    6.54
   2  -4   1   36.36    6.08
  -3   4  -1  182.73   12.75
  -3   4  -1  193.76   12.19
   3  -4   1  176.94   12.38
   3  -4   1  174.38   11.40
  -4   4  -1    4.01    7.00
  -4   4  -1    6.58    6.87
   4  -4   1    4.67    6.53
   4  -4   1    3.69    6.70
  -5   4  -1   23.87    9.40
  -5   4  -1   -0.70    9.68
   5  -4   1   31.53    9.06
   5  -4   1   20.84    8.78
  -6   4  -1   68.09   13.30
  -6   4  -1   66.07   13.29
   6  -4   1   66.62   12.00
   6  -4   1   62.50   10.87
  -7   4  -1   15.46   14.59
  -7   4  -1   30.79   15.47
   7  -4   1   45.23   33.18
   7  -4   1   38.92   11.69
   7  -4   1   35.80   12.61
  -8   4  -1    4.66   17.50
  -8   4  -1  -34.74   16.12
   8  -4   1   -6.79   14.09
   8  -4   1   10.03   38.71
   8  -4   1   12.73   14.66
  10   3  -1  -43.64   26.29
 -10  -3   1  -21.81   29.50
   9   3  -1    6.04   19.78
   9   3  -1    6.32   19.68
  -9  -3   1    3.53   16.44
  -9  -3   1   18.42   23.31
   8   3  -1   10.51   15.25
   8   3  -1   13.33   14.35
  -8  -3   1  -15.92   17.65
  -8  -3   1   34.67   13.57
   7   3  -1    2.05   13.34
   7   3  -1   15.94   10.80
  -7  -3   1    9.47   16.36
  -7  -3   1   -6.99   11.76
   6   3  -1    4.89   10.81
  -6  -3   1   18.64   13.60
  -6  -3   1   19.91    8.30
   5   3  -1   15.92   10.26
   5   3  -1    5.83    8.59
  -5  -3   1   16.04   10.29
  -5  -3   1   13.09    6.67
   4   3  -1   92.24   10.53
   4   3  -1   83.89   11.19
  -4  -3   1   75.98    9.39
  -4  -3   1   88.91   11.50
  -4  -3   1   77.45   10.36
   3   3  -1  393.51   18.74
   3   3  -1  351.10   18.23
  -3  -3   1  363.53   17.26
  -3  -3   1  362.51   19.47
  -3  -3   1  326.43   19.14
   2   3  -1  153.86   11.11
   2   3  -1  155.95   11.23
  -2  -3   1  156.77    9.87
  -2  -3   1  152.69   12.20
   1   3  -1  151.64   10.05
   1   3  -1  171.08   11.42
  -1  -3   1  173.74   11.72
  -1  -3   1  154.86    9.49
   0   3  -1   69.54    8.43
   0   3  -1   67.61    7.77
   0  -3   1   67.71    7.18
   0  -3   1   72.85    9.06
  -1   3  -1    0.80    6.05
   1  -3   1    3.84    4.93
   1  -3   1    4.60    4.57
  -2   3  -1  143.32    9.55
  -2   3  -1  148.74   10.86
   2  -3   1  155.66    9.32
   2  -3   1  154.50   10.84
  -3   3  -1  345.34   17.29
  -3   3  -1  337.92   16.92
   3  -3   1  365.73   16.36
   3  -3   1  354.10   17.61
  -4   3  -1   79.09    9.42
  -4   3  -1   80.31    9.81
   4  -3   1   82.65    9.20
   4  -3   1   75.92    9.13
  -5   3  -1   15.70    7.89
  -5   3  -1   26.09    8.87
   5  -3   1   17.98    8.34
   5  -3   1   15.26    7.14
  -6   3  -1  123.88   14.26
  -6   3  -1  143.86   16.26
   6  -3   1  121.73   14.72
   6  -3   1  124.65   13.47
  -7   3  -1   62.74   15.36
  -7   3  -1   71.18   14.73
   7  -3   1   83.92   12.56
   7  -3   1   89.98   34.69
   7  -3   1   85.12   14.34
  -8   3  -1  -18.44   14.17
  -8   3  -1   28.84   17.23
   8  -3   1   32.95   31.90
   8  -3   1  -23.89   13.69
   8  -3   1  -13.86   12.67
  -9   3  -1    5.21   21.99
   9  -3   1   44.34   47.28
   9  -3   1   14.94   19.46
   9  -3   1    0.38   16.82
  10   2  -1   18.92   23.94
 -10  -2   1   -6.38   29.50
   9   2  -1  -36.71   16.42
   9   2  -1  -32.75   32.60
   9   2  -1    8.55   17.02
  -9  -2   1    1.47   22.81
  -9  -2   1    3.02   16.77
   8   2  -1   -3.52   12.90
   8   2  -1   -8.28   26.33
   8   2  -1  -13.96   14.00
  -8  -2   1   -2.39   10.79
  -8  -2   1  -22.67   15.35
   7   2  -1   16.57   21.95
   7   2  -1    6.10   10.62
   7   2  -1   21.52   13.55
  -7  -2   1   23.83   10.82
   6   2  -1    2.17   10.71
   6   2  -1   11.01    8.35
   6   2  -1    2.00   16.85
  -6  -2   1    4.47   11.27
  -6  -2   1  -15.96    6.93
   5   2  -1   60.94   10.50
   5   2  -1   83.07   12.13
   5   2  -1   78.81   17.51
  -5  -2   1   60.38   11.38
  -5  -2   1   59.86    9.09
   4   2  -1    7.81    8.03
   4   2  -1    1.57    6.40
   4   2  -1   21.28   12.21
  -4  -2   1    9.12    8.01
  -4  -2   1    7.31    5.83
  -4  -2   1   -1.39    7.61
   3   2  -1  163.12   11.73
   3   2  -1  145.74   10.85
  -3  -2   1  163.71   10.47
  -3  -2   1  148.01   11.85
  -3  -2   1  152.52   13.28
   2   2  -1    9.47    6.10
   2   2  -1    5.96    5.36
  -2  -2   1   13.00    6.01
  -2  -2   1   12.99    4.93
   1   2  -1  259.92   13.33
   1   2  -1  263.45   13.09
  -1  -2   1  246.66   12.94
  -1  -2   1  270.97   12.64
   0   2  -1 3430.86  124.55
   0   2  -1 3463.05  124.53
   0  -2   1 3432.31  124.57
   0  -2   1 3423.17  124.36
  -1   2  -1 2237.46   81.75
  -1   2  -1 2271.73   81.42
   1  -2   1 2230.19   81.66
   1  -2   1 2169.65   81.23
  -2   2  -1   -1.91    5.20
  -2   2  -1   -2.17    4.44
   2  -2   1   -0.12    5.18
   2  -2   1    6.46    4.39
  -3   2  -1  255.23   12.93
  -3   2  -1  251.50   14.14
   3  -2   1  254.96   12.99
   3  -2   1  257.85   13.97
  -4   2  -1  152.03   11.08
  -4   2  -1  144.35   12.29
   4  -2   1  162.28   11.47
   4  -2   1  151.53   10.81
  -5   2  -1    3.15    6.90
  -5   2  -1    4.03    7.93
   5  -2   1   -2.01    5.86
   5  -2   1    2.05    7.10
  -6   2  -1    9.32    8.65
  -6   2  -1   16.32   10.85
   6  -2   1   39.11    9.61
  -7   2  -1    8.15   12.47
  -7   2  -1    4.66   12.44
   7  -2   1   32.87   27.38
   7  -2   1   20.64   11.13
   7  -2   1   22.07   11.73
  -8   2  -1   -3.02   13.47
  -8   2  -1  -22.15   15.94
   8  -2   1   38.33   31.43
   8  -2   1   15.11   13.57
   8  -2   1   -3.19   12.79
  -9   2  -1   43.74   19.55
  -9   2  -1   32.01   19.45
   9  -2   1   85.53   42.80
 -10   2  -1  -43.38   38.02
  10   1  -1    0.69   42.97
  10   1  -1   13.65   23.32
 -10  -1   1   12.64   30.12
   9   1  -1   -0.77   19.67
   9   1  -1   -5.97   37.64
   9   1  -1   29.61   18.79
  -9  -1   1   25.53   23.45
  -9  -1   1   -1.67   16.48
   8   1  -1  -19.52   12.59
   8   1  -1   -7.03   15.01
  -8  -1   1    8.32   12.29
  -8  -1   1    6.04   17.11
   7   1  -1   -4.73   21.82
   7   1  -1   -5.74   12.52
   7   1  -1  -11.80    8.82
  -7  -1   1    6.46   12.28
  -7  -1   1   16.50   10.75
   6   1  -1    2.03   10.80
   6   1  -1   18.81    8.73
   6   1  -1   -5.76   19.10
  -6  -1   1   -1.29   10.84
  -6  -1   1   -2.58    6.99
   5   1  -1  226.44   23.66
   5   1  -1  264.40   15.26
   5   1  -1  238.68   17.25
  -5  -1   1  258.36   17.00
  -5  -1   1  239.50   14.47
   4   1  -1   14.92   13.95
   4   1  -1   -6.53    5.09
   4   1  -1    1.66    6.59
  -4  -1   1   -0.03    5.31
  -4  -1   1   -4.20    7.37
   3   1  -1   12.55   11.61
   3   1  -1   19.61    6.34
   3   1  -1   17.09    6.13
  -3  -1   1   15.80    6.29
  -3  -1   1   14.93    5.68
  -3  -1   1    6.80    9.25
   2   1  -1   21.26    5.13
   2   1  -1   15.86    5.26
  -2  -1   1   21.83    5.07
  -2  -1   1   26.42   10.24
  -2  -1   1   22.53    5.64
   1   1  -1   89.49    7.18
   1   1  -1   93.80    7.07
  -1  -1   1   90.36    7.28
  -1  -1   1   94.64    6.65
   0   1  -1  866.15   32.38
   0   1  -1  873.77   32.37
   0  -1   1  856.27   32.26
   0  -1   1  837.66   32.35
  -1   1  -1  641.49   25.45
  -1   1  -1  636.04   25.23
   1  -1   1  674.18   25.24
   1  -1   1  666.42   25.66
  -2   1  -1  452.43   19.20
  -2   1  -1  444.55   18.64
   2  -1   1  452.22   18.43
   2  -1   1  443.56   19.18
  -3   1  -1  216.43   11.43
  -3   1  -1  188.06   11.38
   3  -1   1  184.21   11.79
   3  -1   1  193.66   11.10
  -4   1  -1   13.72    5.34
  -4   1  -1    5.32    6.18
   4  -1   1    6.22    6.07
   4  -1   1    1.85    5.57
  -5   1  -1   78.69    9.95
  -5   1  -1   96.63   11.73
   5  -1   1   77.44    9.60
   5  -1   1   81.22   10.07
  -6   1  -1   -1.62    8.48
  -6   1  -1    6.75    6.96
   6  -1   1    1.82   20.14
   6  -1   1    0.60    9.15
   6  -1   1   13.62    8.37
  -7   1  -1   34.06   13.20
  -7   1  -1   28.50   10.19
   7  -1   1   57.82   12.15
   7  -1   1   14.53   10.74
   7  -1   1    6.46   24.59
  -8   1  -1   17.28   12.68
  -8   1  -1   -1.65   13.77
   8  -1   1    9.89   13.58
   8  -1   1    8.04   12.90
   8  -1   1   13.88   26.53
  -9   1  -1   28.95   19.26
  -9   1  -1    2.22   16.88
   9  -1   1   53.84   37.66
   9  -1   1    0.83   15.86
   9  -1   1   31.07   18.62
 -10   1  -1   64.62   24.11
  10  -1   1  -12.26   22.45
  10  -1   1    5.37   44.09
  10   0  -1  -57.16   46.41
  10   0  -1   15.19   27.58
 -10   0   1  -28.78   26.46
   9   0  -1   -7.77   37.64
   9   0  -1    0.48   17.36
   9   0  -1    7.31   19.75
  -9   0   1   15.98   17.28
  -9   0   1    0.73   23.38
   8   0  -1   13.04   15.45
   8   0  -1    5.50   29.61
   8   0  -1   16.72   13.39
  -8   0   1   26.63   12.37
   7   0  -1   -2.04   11.41
   7   0  -1   33.07   11.33
   7   0  -1  -11.97   25.49
  -7   0   1   18.04   12.67
  -7   0   1   23.49    9.88
   6   0  -1  -18.39    8.46
   6   0  -1  -18.97    7.24
   6   0  -1    1.22   20.38
  -6   0   1   -8.50    6.45
  -6   0   1    1.64   10.41
   5   0  -1  -19.24   17.43
   5   0  -1    4.05    7.20
   5   0  -1    3.39    5.92
  -5   0   1   -0.65    8.41
  -5   0   1   -2.14    5.79
   4   0  -1   98.48    8.73
   4   0  -1  118.53   20.05
   4   0  -1  102.64   10.61
  -4   0   1   98.38    9.10
  -4   0   1   82.45    9.98
   3   0  -1    5.98   12.60
   3   0  -1   10.63    5.44
   3   0  -1   21.34    5.84
  -3   0   1   16.89    5.99
  -3   0   1   12.38   10.09
  -3   0   1   15.19    4.91
   2   0  -1 2738.87   97.51
   2   0  -1 2776.70   97.49
   2   0  -1 2339.61  100.05
  -2   0   1 2752.73   97.35
  -2   0   1 2757.26   97.56
  -2   0   1 2684.19  100.16
   1   0  -1  367.09   15.47
   1   0  -1  407.05   18.95
   1   0  -1  406.57   15.80
  -1   0   1  378.26   18.67
  -1   0   1  368.66   15.49
  -1   0  -1  222.76    9.93
  -1   0  -1  227.79    9.58
   1   0   1  220.56   10.12
   1   0   1  208.21    9.49
  -2   0  -1 1101.48   41.12
  -2   0  -1 1089.98   40.65
   2   0   1 1098.36   41.08
   2   0   1 1047.82   40.53
  -3   0  -1  115.14    9.37
  -3   0  -1  122.95    8.56
   3   0   1  120.03    9.09
   3   0   1  128.49    9.59
  -4   0  -1   10.89    6.65
  -4   0  -1   16.71    5.74
   4   0   1   26.81    7.26
   4   0   1   26.05    6.64
  -5   0  -1  102.63   12.47
  -5   0  -1   90.55   10.35
   5   0   1   79.55    9.72
   5   0   1   80.73   10.23
  -6   0  -1   64.71   11.83
   6   0   1   67.08   11.52
   6   0   1   70.93   11.23
   6   0   1   72.12   20.04
  -7   0  -1   22.57   12.04
  -7   0  -1    5.59    9.05
   7   0   1   11.27   11.55
   7   0   1   21.82   19.83
   7   0   1   27.06   10.68
  -8   0  -1  -10.36   10.85
  -8   0  -1   19.04   13.78
   8   0   1   13.10   26.54
   8   0   1  -19.15   14.34
   8   0   1    9.38   13.28
  -9   0  -1   25.22   21.51
  -9   0  -1   19.20   14.71
   9   0   1  -17.85   34.70
   9   0   1   36.86   15.75
   9   0   1    0.94   15.59
 -10   0  -1  -13.16   24.93
  10   0   1  -51.20   23.98
  10   0   1   45.55   42.44
 -11   0  -1   24.25   59.22
  10  -1  -1   21.47   52.14
  10  -1  -1   81.81   28.73
 -10   1   1  -40.12   27.16
   9  -1  -1   25.24   18.79
   9  -1  -1   19.00   19.75
   9  -1  -1   24.77   37.97
  -9   1   1   35.70   17.63
  -9   1   1   39.97   22.55
   8  -1  -1   64.26   13.99
   8  -1  -1   46.57   15.62
   8  -1  -1   81.95   34.51
  -8   1   1   53.40   14.06
  -8   1   1  100.81   20.33
   7  -1  -1    9.80   10.70
   7  -1  -1   30.59   13.05
   7  -1  -1   -3.73   26.50
  -7   1   1    4.60    9.76
  -7   1   1   26.83   12.93
   6  -1  -1   95.21   11.36
   6  -1  -1  102.33   26.54
  -6   1   1  110.72   12.80
  -6   1   1  118.32   13.87
   5  -1  -1   49.54   21.27
   5  -1  -1   42.65    9.10
   5  -1  -1   49.41    9.06
  -5   1   1   52.97    9.29
  -5   1   1   54.82    8.17
   4  -1  -1  266.48   23.80
   4  -1  -1  267.14   15.06
   4  -1  -1  284.53   14.90
  -4   1   1  287.87   15.59
  -4   1   1  279.10   14.54
   3  -1  -1  228.59   12.15
   3  -1  -1  191.45   19.61
   3  -1  -1  217.80   12.14
  -3   1   1  237.19   12.66
  -3   1   1  246.72   11.92
   2  -1  -1  642.59   24.66
   2  -1  -1  597.92   29.85
   2  -1  -1  610.16   24.73
  -2   1   1  618.93   24.49
  -2   1   1  701.96   29.30
  -2   1   1  622.46   24.83
   1  -1  -1   -3.82    9.07
   1  -1  -1    4.78    2.61
   1  -1  -1    5.53    2.70
  -1   1   1    5.79    2.54
  -1   1   1    3.53    3.04
  -1   1   1   -4.51    8.28
  -1  -1  -1  449.65   17.11
  -1  -1  -1  439.83   16.87
   1   1   1  426.19   16.85
   1   1   1  446.92   17.29
  -2  -1  -1   18.02    4.22
  -2  -1  -1   16.45    5.11
   2   1   1   17.89    5.13
   2   1   1   18.36    4.20
  -3  -1  -1 1053.87   40.32
  -3  -1  -1 1060.02   40.10
   3   1   1 1008.65   40.33
   3   1   1 1008.27   39.65
  -4  -1  -1   49.64    7.32
  -4  -1  -1   36.00    8.00
   4   1   1   36.42    7.61
   4   1   1   38.94    7.32
  -5  -1  -1    1.84    5.57
  -5  -1  -1  -11.80    7.06
   5   1   1   -4.53    6.84
   5   1   1   -7.37    7.24
   5   1   1  -10.28   11.40
  -6  -1  -1   -9.68    6.39
  -6  -1  -1  -13.87   10.00
   6   1   1   -5.34    8.04
   6   1   1  -16.85   13.36
   6   1   1    7.77    8.91
  -7  -1  -1    7.68    8.57
  -7  -1  -1   -6.67   10.89
   7   1   1   25.17   19.54
   7   1   1   12.34   11.95
   7   1   1    9.52    9.93
  -8  -1  -1    3.95   12.24
  -8  -1  -1   -4.60   13.64
   8   1   1   31.53   24.13
   8   1   1   30.47   12.11
   8   1   1   11.99   11.91
  -9  -1  -1  -24.24   19.18
  -9  -1  -1    0.69   13.05
   9   1   1  -19.29   32.53
   9   1   1    9.04   16.45
   9   1   1   -3.05   16.25
 -10  -1  -1  -35.75   24.78
  10   1   1   46.34   39.61
  10   1   1   -5.85   23.94
 -11  -1  -1   -7.36   28.57
  11   1   1   79.78   36.55
   9  -2  -1   18.65   18.82
   9  -2  -1   66.30   43.61
  -9   2   1    2.92   22.82
   8  -2  -1    0.55   13.21
   8  -2  -1   23.26   36.39
   8  -2  -1  -25.82   12.82
  -8   2   1    8.13   16.76
  -8   2   1   13.16   12.94
   7  -2  -1   38.91   29.41
   7  -2  -1   18.85   10.37
   7  -2  -1   10.00   11.54
  -7   2   1    9.73   10.67
  -7   2   1   -2.21   13.39
   6  -2  -1  136.94   13.25
   6  -2  -1  134.64   16.44
   6  -2  -1  195.82   40.08
  -6   2   1  149.31   16.09
  -6   2   1  143.39   13.91
   5  -2  -1   94.43   11.44
   5  -2  -1  109.75   10.43
   5  -2  -1  163.57   28.82
  -5   2   1  110.21   11.05
  -5   2   1  136.97   12.67
   4  -2  -1  110.45   21.50
   4  -2  -1   72.88    8.26
   4  -2  -1   82.01    8.80
  -4   2   1   90.18    9.47
  -4   2   1   84.58    8.43
   3  -2  -1    8.99    4.93
   3  -2  -1   13.25    4.87
   3  -2  -1   -0.29   13.66
  -3   2   1    8.54    5.10
  -3   2   1   10.96    4.50
   2  -2  -1   36.41    4.37
   2  -2  -1   34.84    4.86
   2  -2  -1   37.54   14.26
  -2   2   1   42.48    5.11
  -2   2   1   37.74    4.42
   1  -2  -1  452.98   17.86
   1  -2  -1  498.13   23.55
  -1   2   1  491.86   17.94
   0  -2  -1  837.44   35.42
   0   2   1  945.14   35.54
  -1  -2  -1  587.54   22.90
  -1  -2  -1  609.01   22.26
  -1  -2  -1  593.37   22.06
   1   2   1  510.58   22.39
   1   2   1  614.08   22.18
   1   2   1  589.31   22.25
  -2  -2  -1 9691.56  352.57
   2   2   1 9999.00  352.64
  -3  -2  -1  249.41   12.77
  -3  -2  -1  256.71   14.20
   3   2   1  249.06   13.06
   3   2   1  246.99   13.31
  -4  -2  -1 1462.94   56.14
  -4  -2  -1 1425.13   55.33
   4   2   1 1429.38   56.01
   4   2   1 1483.70   55.73
   4   2   1 1407.17   56.31
  -5  -2  -1   19.38    8.80
  -5  -2  -1   20.43    6.53
   5   2   1   15.29    7.61
   5   2   1   11.84    6.83
   5   2   1   -0.20   11.11
  -6  -2  -1    2.10   10.64
  -6  -2  -1   12.02    7.74
   6   2   1   21.84    9.25
   6   2   1    8.27   13.72
   6   2   1    9.45    7.80
  -7  -2  -1   -8.45    9.58
  -7  -2  -1    8.31   12.31
   7   2   1   10.80   18.47
   7   2   1  -11.27   10.30
   7   2   1   -8.37   10.91
  -8  -2  -1    9.57   11.29
  -8  -2  -1   12.07   13.61
   8   2   1    1.13   12.26
   8   2   1  -16.47   12.42
   8   2   1   -7.73   21.94
  -9  -2  -1   29.99   20.09
  -9  -2  -1   -7.57   12.89
   9   2   1  -13.15   14.46
   9   2   1   27.73   17.97
   9   2   1   26.37   31.66
 -10  -2  -1   58.31   26.76
  10   2   1   12.15   37.58
  10   2   1   12.81   23.64
  11   2   1  -69.11   46.16
   9  -3  -1    2.07   20.67
   9  -3  -1  103.95   52.64
   9  -3  -1   43.85   19.46
  -9   3   1   14.59   22.95
   8  -3  -1  -21.83   32.69
   8  -3  -1   28.17   14.68
   8  -3  -1   -9.23   12.76
  -8   3   1   23.85   14.41
  -8   3   1   -1.97   17.24
   7  -3  -1   12.32    9.41
   7  -3  -1   21.96   29.65
   7  -3  -1    4.51   12.13
  -7   3   1   -6.36   10.34
  -7   3   1   -0.87   12.98
   6  -3  -1   56.45   27.23
   6  -3  -1   71.55   10.46
   6  -3  -1   86.75   12.29
  -6   3   1   66.34   10.73
  -6   3   1   61.05   11.86
   5  -3  -1   73.09    9.87
   5  -3  -1  118.35   26.99
   5  -3  -1   72.04    9.28
  -5   3   1   84.70    9.97
  -5   3   1   73.29   10.80
   4  -3  -1   18.99    5.50
   4  -3  -1   21.14    6.27
   4  -3  -1    9.53   18.02
  -4   3   1    9.99    6.27
  -4   3   1    9.53    5.49
   3  -3  -1  401.36   17.24
   3  -3  -1  389.58   26.95
   3  -3  -1  386.09   16.79
  -3   3   1  387.49   16.93
  -3   3   1  380.42   17.36
   2  -3  -1  382.29   16.21
   2  -3  -1  380.96   15.61
   2  -3  -1  417.23   25.04
  -2   3   1  387.32   15.75
   1  -3  -1   48.67   13.42
   1  -3  -1   32.17    2.57
   1  -3  -1   42.42    3.78
  -1   3   1   37.56    3.30
  -1   3   1   42.41    3.48
   0  -3  -1    1.09    1.31
   0  -3  -1   -8.67    7.48
   0   3   1    0.47    1.73
   0   3   1    2.58    1.94
  -1  -3  -1  255.14   10.82
  -1  -3  -1  237.85   11.13
  -1  -3  -1  265.90   12.98
   1   3   1  263.20   11.13
   1   3   1  260.32   11.00
  -2  -3  -1  343.87   15.19
  -2  -3  -1  322.03   14.64
   2   3   1  348.46   15.06
   2   3   1  347.90   15.50
  -3  -3  -1   19.13    5.27
  -3  -3  -1   29.87    7.31
   3   3   1   20.59    6.10
   3   3   1   23.81    5.98
  -4  -3  -1  122.23    9.65
  -4  -3  -1  128.70   11.58
   4   3   1  120.46   10.94
   4   3   1  135.32   11.38
   4   3   1  105.94   10.18
  -5  -3  -1   19.02    9.10
  -5  -3  -1    9.32    6.18
   5   3   1   15.52   10.43
   5   3   1   -0.62    6.55
   5   3   1   13.59    7.87
  -6  -3  -1    1.06   10.07
  -6  -3  -1   -6.12    7.19
   6   3   1   14.81    9.43
   6   3   1    0.99   12.30
   6   3   1    6.57    8.56
  -7  -3  -1   19.97    9.89
  -7  -3  -1    2.93   13.88
   7   3   1    4.22    9.93
   7   3   1    5.32   16.88
   7   3   1   -4.38   10.67
  -8  -3  -1  -18.83   11.61
  -8  -3  -1    1.42   14.43
   8   3   1   -8.84   14.21
   8   3   1   -1.21   21.97
   8   3   1   17.55   13.40
  -9  -3  -1   10.64   18.43
  -9  -3  -1   -6.35   14.34
   9   3   1  -11.94   26.81
   9   3   1  -13.58   15.93
   9   3   1    7.81   15.41
 -10  -3  -1   41.12   22.54
  10   3   1  -39.77   69.27
  10   3   1  -24.34   21.41
   8  -4  -1  -16.01   13.52
   8  -4  -1   26.47   38.86
   8  -4  -1   -3.02   13.50
  -8   4   1   14.63   15.85
  -8   4   1  -13.76   17.10
   7  -4  -1   22.88    9.85
   7  -4  -1   60.96   36.70
   7  -4  -1   -5.58   12.06
  -7   4   1  -16.81   11.62
  -7   4   1    8.45   14.39
   6  -4  -1   68.55   31.98
   6  -4  -1   48.54    9.49
   6  -4  -1   31.87   10.96
  -6   4   1   56.88   11.45
  -6   4   1   60.05   12.32
   5  -4  -1   12.82    7.76
   5  -4  -1   41.80   26.61
   5  -4  -1   14.92    6.89
  -5   4   1    9.01    7.97
  -5   4   1   12.80    7.47
   4  -4  -1   65.90    8.00
   4  -4  -1   74.38   24.99
   4  -4  -1   47.61    7.61
  -4   4   1   69.52    8.10
  -4   4   1   60.90    8.44
   3  -4  -1   33.52    5.13
   3  -4  -1   38.10   17.40
   3  -4  -1   26.46    5.72
  -3   4   1   33.81    6.48
  -3   4   1   36.69    5.44
   2  -4  -1    4.91    2.90
   2  -4  -1   11.81    4.47
   2  -4  -1    3.46   14.96
  -2   4   1    5.78    3.34
   1  -4  -1  846.71   30.22
   1  -4  -1  815.38   30.05
  -1   4   1  838.50   30.76
   0  -4  -1  233.53    9.04
   0   4   1  218.54    9.49
   0   4   1  217.74    9.78
  -1  -4  -1  530.64   21.41
  -1  -4  -1  537.36   20.74
   1   4   1  538.62   21.23
   1   4   1  523.70   21.04
  -2  -4  -1  128.42    9.33
  -2  -4  -1  150.52    8.50
  -2  -4  -1  121.71    8.42
   2   4   1  140.04    9.15
   2   4   1  145.37    9.09
  -3  -4  -1   14.28    5.13
  -3  -4  -1   10.03    6.87
   3   4   1   13.28    5.70
   3   4   1   13.46    6.35
  -4  -4  -1  122.42   12.08
  -4  -4  -1  129.13    9.92
   4   4   1  119.44   11.27
   4   4   1  125.22   11.56
  -5  -4  -1   14.67    6.44
  -5  -4  -1   10.75    8.93
   5   4   1    8.18    9.19
   5   4   1   17.00    7.36
  -6  -4  -1   12.04    8.79
  -6  -4  -1   20.74   11.49
   6   4   1    5.39   10.77
   6   4   1   26.48   10.70
  -7  -4  -1   10.13   14.40
  -7  -4  -1    8.87   10.92
   7   4   1   22.45   11.30
   7   4   1    8.68   14.85
   7   4   1  -14.33   11.29
  -8  -4  -1   43.18   14.17
  -8  -4  -1   27.56   15.93
   8   4   1    1.00   19.51
   8   4   1   11.94   14.47
   8   4   1   19.68   15.01
  -9  -4  -1   30.74   16.21
  -9  -4  -1  -15.13   18.36
   9   4   1   10.22   16.22
   9   4   1   -6.34   23.47
   9   4   1   23.99   18.20
 -10  -4  -1   -4.17   23.47
  10   4   1   21.02   22.83
   8  -5  -1   34.81   15.01
   8  -5  -1   55.40   80.40
   8  -5  -1   10.34   15.94
  -8   5   1   -4.99   25.60
  -8   5   1   -7.18   18.11
   7  -5  -1   -3.72   10.56
   7  -5  -1   10.53   12.70
   7  -5  -1   16.09   38.50
  -7   5   1   21.21   14.28
  -7   5   1   -2.32   13.51
   6  -5  -1    7.61   10.02
   6  -5  -1   47.27   34.38
   6  -5  -1    6.72    8.01
  -6   5   1    2.55   10.46
  -6   5   1   -6.32   10.41
   5  -5  -1   15.43    6.89
   5  -5  -1  -19.07   28.02
   5  -5  -1   11.47    7.99
  -5   5   1   -7.10    8.79
  -5   5   1   13.97    9.72
   4  -5  -1   18.55   27.40
   4  -5  -1   10.60    5.80
   4  -5  -1    9.51    6.42
  -4   5   1   29.32    6.83
  -4   5   1    8.39    7.55
   3  -5  -1  294.86   13.51
   3  -5  -1  299.41   15.77
   3  -5  -1  329.75   28.81
  -3   5   1  297.68   14.61
   2  -5  -1   33.64    3.54
   2  -5  -1   33.66   17.87
   2  -5  -1   28.07    4.65
  -2   5   1   31.48    4.39
  -2   5   1   43.37    4.90
   1  -5  -1  561.49   20.49
   1  -5  -1  555.08   20.55
  -1   5   1  572.50   21.59
  -1   5   1  555.24   21.54
   0  -5  -1   24.47    3.87
   0  -5  -1   23.24    3.18
   0   5   1   16.93    4.08
   0   5   1   17.70    3.76
  -1  -5  -1  694.41   27.75
  -1  -5  -1  688.38   26.79
   1   5   1  697.88   27.26
   1   5   1  703.20   27.80
  -2  -5  -1  157.26   10.82
  -2  -5  -1  172.75    9.26
  -2  -5  -1  149.64   11.34
   2   5   1  154.59   10.11
   2   5   1  156.54   10.31
  -3  -5  -1   13.85    6.69
  -3  -5  -1   24.08    5.55
   3   5   1   13.48    6.61
   3   5   1   27.23    6.81
  -4  -5  -1   -8.57    6.95
  -4  -5  -1   -1.23    4.81
   4   5   1   -2.20    7.46
   4   5   1   13.55    6.48
  -5  -5  -1   14.02    6.90
  -5  -5  -1  -10.89    9.78
   5   5   1   12.91    9.82
   5   5   1    8.95    7.54
  -6  -5  -1   -3.91   11.25
  -6  -5  -1    6.33    7.84
   6   5   1  -18.29    9.42
   6   5   1  -19.96    9.79
  -7  -5  -1   17.03   14.95
   7   5   1  -18.94   11.59
   7   5   1   11.52   12.45
  -8  -5  -1   18.60   17.59
  -8  -5  -1   16.94   13.48
   8   5   1   29.31   13.82
   8   5   1  -24.85   14.02
  -9  -5  -1   11.76   16.08
  -9  -5  -1   20.80   19.91
   9   5   1    4.70   17.91
   9   5   1   15.18   19.41
   8  -6  -1   -4.66   15.99
  -8   6   1   45.18   26.54
   7  -6  -1  -14.03   12.51
   7  -6  -1    7.82   11.47
   7  -6  -1   79.68   42.82
  -7   6   1   30.35   16.34
  -7   6   1   18.07   16.41
   6  -6  -1   15.84   10.37
   6  -6  -1    8.61    9.13
   6  -6  -1   48.54   35.01
  -6   6   1  -10.08   12.53
  -6   6   1    5.31   11.10
   5  -6  -1   -3.98    7.86
   5  -6  -1   -8.12    7.75
   5  -6  -1   28.28   31.73
  -5   6   1    3.42    9.17
  -5   6   1    5.75   10.19
   4  -6  -1    2.31    5.89
   4  -6  -1   -6.60   27.25
   4  -6  -1    1.31    7.99
  -4   6   1   -0.58    6.49
   3  -6  -1   -4.62    5.00
   3  -6  -1   16.76   26.34
   3  -6  -1   -0.83    3.74
  -3   6   1    4.41    5.42
  -3   6   1    6.73    4.72
   2  -6  -1  228.15   10.00
   2  -6  -1  268.96   26.15
   2  -6  -1  227.04    9.48
  -2   6   1  234.84   12.05
  -2   6   1  234.06   11.02
  -1   6   1    5.14    3.41
  -1   6   1    1.80    3.63
   0  -6  -1    1.04    3.51
   0  -6  -1   -0.41    2.87
   0   6   1   -2.26    3.48
   0   6   1   -1.94    4.26
  -1  -6  -1  109.67    7.26
  -1  -6  -1  123.42    9.76
   1   6   1  108.97   10.69
   1   6   1  114.95    8.27
  -2  -6  -1   45.09    5.78
  -2  -6  -1   38.24    7.86
   2   6   1   44.19    7.03
   2   6   1   37.34    7.29
  -3  -6  -1   -5.49    5.70
  -3  -6  -1   -6.49    7.27
  -3  -6  -1   -0.97    4.12
   3   6   1   -1.08    6.43
   3   6   1   -0.25    6.36
  -4  -6  -1   -5.10    4.48
  -4  -6  -1    2.02    8.20
   4   6   1  -13.70    7.87
   4   6   1   -0.82    7.09
  -5  -6  -1   42.92    8.80
  -5  -6  -1   43.85   14.41
   5   6   1   45.55   12.01
   5   6   1   32.61    9.55
  -6  -6  -1   12.35    8.41
  -6  -6  -1  -22.69   11.87
   6   6   1    5.62   10.12
   6   6   1    7.22   11.22
  -7  -6  -1   -7.98   10.07
  -7  -6  -1  -19.76   13.70
   7   6   1    2.69   15.23
   7   6   1  -15.43   11.52
  -8  -6  -1   14.60   18.06
  -8  -6  -1   -3.38   13.59
   8   6   1   28.08   19.28
   8   6   1    7.43   14.26
  -9  -6  -1   41.87   23.08
  -9  -6  -1   10.93   15.94
   9   6   1   -5.50   18.32
   9   6   1  -24.06   18.63
   8  -7  -1    8.75   16.60
   7  -7  -1  -15.97   13.37
  -7   7   1   27.58   18.76
   6  -7  -1    0.50    9.74
   6  -7  -1  -24.54   38.07
   6  -7  -1    5.95   14.19
  -6   7   1   11.85   15.13
  -6   7   1   19.41   14.33
   5  -7  -1    9.13    7.58
   5  -7  -1   47.76   35.57
   5  -7  -1   -8.47    8.54
  -5   7   1  -19.14   10.07
   4  -7  -1    3.31    6.22
   4  -7  -1   13.70   30.40
   4  -7  -1   -2.77    5.17
  -4   7   1    5.43    6.73
  -4   7   1    2.59    8.57
   3  -7  -1   19.38    4.24
   3  -7  -1   14.27    3.54
   3  -7  -1    5.50   24.39
  -3   7   1   24.78    5.76
   2  -7  -1   72.39   24.60
  -2   7   1   67.49    6.85
  -2   7   1   61.40    6.41
  -1   7   1   48.96    6.07
  -1   7   1   56.36    5.91
   0  -7  -1   39.51    5.46
   0  -7  -1   27.03    4.27
   0   7   1   36.88    6.36
   0   7   1   34.95    5.35
  -1  -7  -1   30.73    5.01
  -1  -7  -1   36.60    7.36
   1   7   1   36.84    8.55
   1   7   1   31.70    6.13
  -2  -7  -1   53.48    6.56
  -2  -7  -1   53.37    9.98
  -2  -7  -1   74.27   13.76
   2   7   1   63.11    8.63
   2   7   1   61.25    9.63
  -3  -7  -1   -1.98    8.75
  -3  -7  -1    6.68    4.74
  -3  -7  -1   -1.15    8.53
   3   7   1    3.05    7.56
   3   7   1   -2.12    6.93
  -4  -7  -1   10.81   10.32
  -4  -7  -1   11.15    6.21
   4   7   1   13.63    9.02
   4   7   1   13.92   10.05
  -5  -7  -1   27.12    8.38
  -5  -7  -1   17.49   13.18
   5   7   1   31.07   10.52
   5   7   1   44.94   11.93
  -6  -7  -1   18.89   14.70
  -6  -7  -1   14.40   10.35
   6   7   1   17.19   12.43
   6   7   1    7.43   13.82
  -7  -7  -1   19.71   13.18
  -7  -7  -1    3.44   16.44
   7   7   1   -5.21   12.86
   7   7   1    9.15   16.34
  -8  -7  -1   23.92   20.03
  -8  -7  -1  -10.11   15.86
   8   7   1    2.98   18.20
   8   7   1   31.97   17.54
  -9  -7  -1   11.04   20.70
   9   7   1  -16.74   22.80
   7  -8  -1   15.70   13.69
  -7   8   1   13.18   20.23
   6  -8  -1    6.16   11.11
   6  -8  -1   -1.17    9.86
  -6   8   1  -13.06   16.50
   5  -8  -1   35.18   39.71
   5  -8  -1    2.83    6.36
   5  -8  -1    9.49    7.95
  -5   8   1   -0.29    7.83
  -5   8   1    9.28   12.56
   4  -8  -1   55.73   31.92
  -4   8   1   21.03    6.54
   3  -8  -1   57.93   32.00
  -3   8   1   61.97    8.59
  -3   8   1   64.16    7.10
   2  -8  -1   61.97   27.69
  -2   8   1   62.22    6.40
  -2   8   1   58.16    6.19
   1  -8  -1  157.40   30.70
  -1   8   1   87.88    8.27
  -1   8   1   80.57    7.64
   0  -8  -1   43.07    4.65
   0  -8  -1   41.62    5.82
   0   8   1   38.15    7.49
   0   8   1   28.45    6.05
  -1  -8  -1    6.63    6.75
   1   8   1   14.66    9.63
   1   8   1   13.64    6.35
  -2  -8  -1   18.07   14.23
  -2  -8  -1   15.61    4.79
  -2  -8  -1   14.94    9.56
   2   8   1   10.05    9.81
   2   8   1   17.10    7.77
  -3  -8  -1    9.67   10.92
  -3  -8  -1   13.83    5.62
  -3  -8  -1    1.05   10.69
   3   8   1    3.24    8.15
   3   8   1   13.62   10.04
  -4  -8  -1   18.92    6.96
  -4  -8  -1    9.41   12.68
   4   8   1   25.77   12.21
   4   8   1   30.56   10.49
  -5  -8  -1   14.26    7.88
  -5  -8  -1    5.43   13.79
   5   8   1    0.47   12.21
   5   8   1   -2.91   12.26
  -6  -8  -1  -18.35   15.16
  -6  -8  -1   -0.19   10.50
   6   8   1   -8.49   12.96
   6   8   1  -24.74   14.05
  -7  -8  -1   20.76   16.91
  -7  -8  -1  -19.76   12.89
   7   8   1    5.97   19.70
   7   8   1    0.33   14.91
  -8  -8  -1   21.05   18.25
  -8  -8  -1   16.57   21.62
   8   8   1   33.39   19.33
   8   8   1   -8.70   23.76
  -9  -8  -1   -6.44   21.96
   9   8   1  -36.79   26.38
  -5   9   1   -0.34   15.19
  -5   9   1   36.62   13.81
   4  -9  -1   50.35   36.84
   3  -9  -1   46.82   32.17
  -3   9   1   51.62    6.48
  -3   9   1   51.16    7.23
   2  -9  -1  105.90   32.67
  -2   9   1   56.58    7.27
  -2   9   1   56.73    7.34
   1  -9  -1   88.00   28.99
  -1   9   1   43.99    6.71
  -1   9   1   49.88    6.47
   0  -9  -1   15.98    5.07
   0  -9  -1   11.17   21.17
   0  -9  -1   16.09    4.02
   0   9   1   10.52    7.27
   0   9   1   12.43    6.48
  -1  -9  -1   12.93    8.49
  -1  -9  -1    9.41   19.53
  -1  -9  -1   16.57    6.61
   1   9   1   13.44    7.48
  -2  -9  -1   12.86   17.07
  -2  -9  -1   13.45   10.65
  -2  -9  -1    4.67    5.19
   2   9   1   12.76   11.53
   2   9   1   29.35    8.88
  -3  -9  -1    2.99   13.54
  -3  -9  -1    7.67    5.66
  -3  -9  -1   -2.44   12.64
   3   9   1    2.05   12.50
   3   9   1   16.87   10.83
  -4  -9  -1   -0.83    7.28
  -4  -9  -1   16.79    7.68
  -4  -9  -1   13.03   14.67
   4   9   1    7.95   14.38
   4   9   1   24.30   12.73
  -5  -9  -1   42.81   15.81
  -5  -9  -1   19.37    8.74
   5   9   1   63.18   14.78
   5   9   1   52.97   16.72
  -6  -9  -1   17.06   16.33
  -6  -9  -1   21.52   12.23
   6   9   1   20.31   15.14
   6   9   1  -11.17   17.78
  -7  -9  -1   37.67   15.06
  -7  -9  -1   16.46   19.03
   7   9   1   13.40   18.66
   7   9   1   44.94   21.02
  -8  -9  -1   64.03   22.15
   8   9   1   15.23   26.17
  -9  -9  -1  -68.33   26.52
   9   9   1   11.25   27.37
   3 -10  -1   18.94   35.01
   2 -10  -1   55.03   34.49
   1 -10  -1   17.53   32.03
  -1  10   1   22.94    6.51
  -1  10   1   15.50    6.51
   0 -10  -1    8.65   25.77
   0  10   1   13.27    7.87
   0  10   1    3.22    8.52
  -1 -10  -1   -0.79    8.59
  -1 -10  -1    1.08   22.97
  -1 -10  -1   -9.32    5.58
   1  10   1   -4.45    8.47
  -2 -10  -1   -8.68   19.86
  -2 -10  -1   10.23   12.01
  -2 -10  -1    7.09    5.78
   2  10   1    6.83    9.70
   2  10   1   28.29   13.41
  -3 -10  -1   12.46    6.58
  -3 -10  -1   21.70   14.14
  -3 -10  -1   -4.67   16.82
   3  10   1    8.21   11.86
   3  10   1   15.97   15.43
  -4 -10  -1   11.87   11.34
  -4 -10  -1    4.12   16.32
  -4 -10  -1  -14.62    7.78
   4  10   1   13.36   13.67
   4  10   1  -23.13   16.16
  -5 -10  -1  -25.05    9.76
  -5 -10  -1  -13.36   16.91
   5  10   1   -5.84   14.20
   5  10   1  -26.52   17.43
  -6 -10  -1   10.23   18.16
  -6 -10  -1   -8.85   12.69
   6  10   1    9.68   21.87
   6  10   1   -0.97   15.00
  -7 -10  -1   29.30   16.89
   7  10   1  -51.26   25.54
  -8 -10  -1   49.13   25.46
   8  10   1   -7.54   29.55
   2 -11  -1   60.42   41.12
   1 -11  -1   21.56   36.25
  -1  11   1    9.67    8.53
  -1  11   1   11.02    6.38
   0 -11  -1    8.82   30.56
   0  11   1   11.51    9.28
   0  11   1  -14.57    9.11
  -1 -11  -1    4.36    9.74
  -1 -11  -1   -2.11    6.06
  -1 -11  -1   23.85   28.95
   1  11   1    1.95   10.95
   1  11   1   16.31   12.45
  -2 -11  -1   37.99   25.27
  -2 -11  -1   -8.96   12.89
   2  11   1    5.92   12.71
   2  11   1   -2.43   14.52
  -3 -11  -1   15.97   21.48
  -3 -11  -1    3.79    7.19
  -3 -11  -1   15.93   16.42
   3  11   1   -9.94   14.00
   3  11   1   -1.49   17.37
  -4 -11  -1   22.60   18.44
  -4 -11  -1    5.60   14.92
  -4 -11  -1   -2.66    8.87
   4  11   1   -4.49   14.81
   4  11   1   -4.69   19.36
  -5 -11  -1  -11.11   11.99
  -5 -11  -1  -13.71   18.66
   5  11   1   -9.67   21.51
   5  11   1  -21.48   16.68
  -6 -11  -1  -15.13   25.63
  -6 -11  -1    0.35   14.75
   6  11   1   21.48   27.47
   1 -12  -1   47.63   44.13
   0 -12  -1   70.21   40.79
   0  12   1   -3.68   10.98
  -1 -12  -1   68.92   35.61
  -1 -12  -1   -1.03    5.34
   1  12   1   -0.37   14.03
  -2 -12  -1   17.38   34.78
  -2 -12  -1    6.11   14.92
   2  12   1   -7.68   15.85
  -3 -12  -1   54.65   28.93
   3  12   1    1.72   15.64
  -4 -12  -1    9.73   20.57
   4  12   1   29.63   19.22
  -5 -12  -1  -13.30   24.70
   0 -13  -1  110.11   52.66
  -1 -13  -1   38.39   47.36
   1  13   1   14.33   16.06
   2  13   1   14.27   17.35
  -3 -13  -1   -8.86   19.97
   3  13   1    3.29   21.50
  -4 -13  -1   36.54   24.29
  -1 -12   2   21.44   23.38
   0 -12   2  -21.62   19.77
   2  11  -2    8.06   19.60
  -2 -11   2   -9.22   19.91
   1  11  -2  -13.51   16.12
  -1 -11   2    1.65   18.41
   0  11  -2  -17.47   15.65
   0 -11   2   -3.77   18.36
  -1  11  -2    1.47   16.64
   1 -11   2  -21.05   14.66
  -2  11  -2  -15.18   18.15
   2 -11   2    6.92   12.45
  -3  11  -2  -11.69   20.29
   6  10  -2   32.03   29.33
  -6 -10   2   -0.32   22.62
   5  10  -2  -18.98   27.32
  -5 -10   2  -27.57   15.37
   4  10  -2  -10.46   27.17
   4  10  -2  -11.94   20.24
  -4 -10   2  -24.92   13.12
  -4 -10   2   18.94   22.78
   3  10  -2   10.21   15.91
   3  10  -2   15.34   24.29
  -3 -10   2    5.51   10.83
  -3 -10   2  -22.70   21.03
   2  10  -2   -8.54   13.90
   2  10  -2   13.38   22.64
  -2 -10   2   29.22   17.94
  -2 -10   2   -1.91    9.59
   1  10  -2   -6.89   13.60
   1  10  -2    0.72   18.75
  -1 -10   2  -15.57   15.84
  -1 -10   2  -12.07    7.95
   0  10  -2   16.55   14.21
   0  10  -2    9.60   16.96
   0 -10   2   -0.90    8.07
   0 -10   2    1.25   15.30
  -1  10  -2   10.15   18.42
  -1  10  -2    8.95   14.94
   1 -10   2    1.39   14.38
   1 -10   2    6.54    8.42
  -2  10  -2   -8.75   16.04
   2 -10   2   12.16   12.63
  -3  10  -2    6.39   18.66
   3 -10   2   -1.14   11.07
  -4  10  -2    4.55   20.79
   4 -10   2  -12.43   10.80
  -5  10  -2  -12.68   28.75
  -8  -9   2  -43.73   31.40
   7   9  -2   34.74   28.91
  -7  -9   2    4.19   22.38
   6   9  -2   27.10   25.53
  -6  -9   2    0.34   16.58
   5   9  -2  -18.10   15.31
   5   9  -2   26.25   22.59
  -5  -9   2   15.80   21.15
  -5  -9   2  -17.00   12.96
  -5  -9   2    8.05   12.84
   4   9  -2    0.17   21.14
   4   9  -2   36.96   15.04
  -4  -9   2   -1.95   12.03
  -4  -9   2   26.07   19.87
   3   9  -2   34.92   13.35
   3   9  -2  -15.43   21.42
  -3  -9   2   26.87   18.20
  -3  -9   2   23.72   10.73
   2   9  -2   22.04   13.21
   2   9  -2   20.02   20.14
  -2  -9   2   19.32   15.93
  -2  -9   2   15.48    8.65
   1   9  -2    1.68   11.52
   1   9  -2  -30.31   15.26
  -1  -9   2   -2.68    7.62
  -1  -9   2    7.37   13.87
   0   9  -2   16.86   14.15
   0   9  -2    0.42   11.93
   0  -9   2   -4.70    7.11
   0  -9   2    6.11   13.65
  -1   9  -2   10.53   12.84
  -1   9  -2    4.07   14.09
   1  -9   2    7.58    7.39
   1  -9   2   -6.55   11.90
  -2   9  -2  -20.22   15.13
  -2   9  -2  -11.99   14.14
   2  -9   2   28.03   11.37
   2  -9   2  -10.21    7.69
  -3   9  -2   33.81   16.51
  -3   9  -2    2.69   16.57
   3  -9   2    2.02   10.58
  -4   9  -2   14.00   18.53
   4  -9   2   13.19   11.41
  -5   9  -2   -1.59   21.02
   5  -9   2    2.49   11.27
   6  -9   2   -1.95   13.40
   8   8  -2  -98.01   32.47
  -8  -8   2   -3.36   23.95
   7   8  -2   14.31   29.88
  -7  -8   2   16.06   20.67
   6   8  -2   12.58   16.47
   6   8  -2   -0.60   23.19
  -6  -8   2   -3.99   16.90
  -6  -8   2   29.57   21.40
   5   8  -2   16.06   13.27
  -5  -8   2  -11.36   12.54
  -5  -8   2  -11.32   16.21
  -5  -8   2    2.78   12.64
   4   8  -2   12.81   18.22
   4   8  -2    1.31   13.43
  -4  -8   2   16.71   18.16
  -4  -8   2   44.42   10.69
   3   8  -2   13.13   17.31
   3   8  -2   11.30   11.69
  -3  -8   2   10.38   15.78
  -3  -8   2   -5.72    8.63
   2   8  -2   18.43   11.41
   2   8  -2   24.80   17.51
  -2  -8   2   34.74    8.28
  -2  -8   2   13.13   15.00
   1   8  -2   55.46   16.61
   1   8  -2   23.91   11.98
  -1  -8   2   46.47    7.88
  -1  -8   2   27.52   14.02
   0   8  -2  159.52   17.61
   0   8  -2  169.34   18.55
   0  -8   2  149.38   18.38
   0  -8   2  148.22   12.03
  -1   8  -2   16.93   13.10
  -1   8  -2   22.69   11.53
   1  -8   2    3.88   11.07
   1  -8   2   -9.09    6.27
  -2   8  -2   13.49   12.96
  -2   8  -2    8.96   12.92
   2  -8   2   -4.65    9.93
   2  -8   2   -5.45    7.05
  -3   8  -2    9.19   13.24
  -3   8  -2   18.62   14.16
   3  -8   2    4.60    9.60
   3  -8   2  -14.51    7.81
  -4   8  -2  -12.26   13.61
   4  -8   2    8.33   10.22
   4  -8   2   -5.49    8.69
  -5   8  -2  -26.06   16.84
  -5   8  -2   11.26   18.17
   5  -8   2   18.97   11.25
   5  -8   2  -13.55   11.10
   6  -8   2   11.84   12.93
   7  -8   2   32.75   15.18
   8   7  -2   -0.51   30.04
  -8  -7   2  -11.93   18.48
   7   7  -2  -12.00   23.38
   7   7  -2    5.21   17.87
  -7  -7   2  -22.06   21.37
  -7  -7   2   10.22   16.13
   6   7  -2  -21.74   20.84
   6   7  -2   11.61   14.36
  -6  -7   2   -8.83   14.60
  -6  -7   2    6.34    9.05
  -6  -7   2   20.70   19.38
   5   7  -2   20.36   16.29
   5   7  -2    9.83   13.03
  -5  -7   2  -28.92   16.11
  -5  -7   2  -29.69   15.59
  -5  -7   2   -0.85   11.96
   4   7  -2    4.05   15.54
   4   7  -2   16.01   12.20
  -4  -7   2   -1.54    7.80
  -4  -7   2  -10.22   13.35
   3   7  -2  -10.36   11.30
   3   7  -2   -0.30   13.03
  -3  -7   2   -7.08   12.94
  -3  -7   2   17.80    8.64
   2   7  -2   46.13   14.96
   2   7  -2   16.04   10.75
  -2  -7   2   51.34    8.68
  -2  -7   2   37.56   14.03
   1   7  -2   57.07   14.33
   1   7  -2   44.69   11.02
  -1  -7   2   72.26    9.17
   0   7  -2  264.37   17.65
   0   7  -2  251.76   21.44
   0  -7   2  256.26   19.58
   0  -7   2  262.09   15.70
  -1   7  -2   23.77   11.40
  -1   7  -2   12.68   10.55
   1  -7   2   26.12   11.33
   1  -7   2   38.00    8.06
  -2   7  -2   -0.44   11.64
  -2   7  -2   26.44   11.09
   2  -7   2   10.80    9.03
   2  -7   2   -4.55    6.81
  -3   7  -2   25.95   12.08
  -3   7  -2   27.63   12.61
   3  -7   2   -2.10    7.11
  -4   7  -2   14.03   13.39
  -4   7  -2   18.75   12.29
   4  -7   2   17.00    9.88
   4  -7   2    6.32    8.57
  -5   7  -2   27.67   14.08
  -5   7  -2    4.84   16.41
   5  -7   2   14.39   10.53
   5  -7   2   20.72    9.94
  -6   7  -2   29.13   19.55
  -6   7  -2   -0.19   16.48
   6  -7   2   -9.09   11.65
   6  -7   2    8.35   12.11
  -7   7  -2  -15.12   24.98
   7  -7   2    8.17   14.06
   8   6  -2  -48.88   24.66
   8   6  -2   17.30   18.84
  -8  -6   2  -13.31   25.22
  -8  -6   2   37.36   17.44
   7   6  -2  -28.02   19.08
   7   6  -2  -10.60   16.05
  -7  -6   2    6.26   18.70
  -7  -6   2   10.56   13.11
   6   6  -2  -12.98   16.63
   6   6  -2   -0.36   14.09
  -6  -6   2    9.65   10.21
  -6  -6   2  -18.88   11.63
  -6  -6   2  -15.22   16.71
   5   6  -2   -1.20   11.36
   5   6  -2  -14.58   14.72
  -5  -6   2   10.78    9.38
  -5  -6   2  -17.10   13.89
  -5  -6   2  -10.97   10.35
   4   6  -2    8.87   13.41
   4   6  -2   35.98   11.01
  -4  -6   2   49.52   13.45
  -4  -6   2   16.39    8.84
  -4  -6   2    6.70   13.95
   3   6  -2  108.20   15.85
   3   6  -2   61.01   11.17
  -3  -6   2   90.01   11.08
   2   6  -2   12.72   10.60
   2   6  -2   -0.41   10.25
  -2  -6   2    8.83    6.13
  -2  -6   2    6.00   12.04
   1   6  -2   -3.55   10.04
   1   6  -2    4.62    8.33
  -1  -6   2   -7.12   10.28
  -1  -6   2    6.48    5.45
   0   6  -2   -8.04    7.61
   0   6  -2    6.66    9.89
   0  -6   2   10.44    9.85
   0  -6   2    1.69    5.52
  -1   6  -2    1.95    9.27
  -1   6  -2   10.31    8.57
   1  -6   2   12.87    8.63
   1  -6   2   34.41    7.05
  -2   6  -2  175.75   16.79
  -2   6  -2  147.38   15.74
   2  -6   2  166.07   14.06
   2  -6   2  180.66   12.91
  -3   6  -2   86.53   14.76
  -3   6  -2  102.35   13.27
   3  -6   2   93.57   11.43
   3  -6   2  109.35   11.74
  -4   6  -2  107.05   15.54
  -4   6  -2  114.92   14.51
   4  -6   2  120.37   12.38
   4  -6   2   93.39   13.54
  -5   6  -2   -3.37   11.22
  -5   6  -2    3.72   13.01
   5  -6   2  -12.03    9.10
   5  -6   2   -0.39    8.77
  -6   6  -2    5.27   15.08
  -6   6  -2   14.90   13.66
   6  -6   2   15.66   11.46
   6  -6   2   16.71   11.84
  -7   6  -2  -24.97   17.16
  -7   6  -2  -28.86   16.75
   7  -6   2   16.21   14.36
   7  -6   2   11.86   13.36
   8  -6   2   14.25   15.93
   8   5  -2   41.50   21.65
   8   5  -2  -20.31   15.85
  -8  -5   2   -5.62   15.66
  -8  -5   2   17.14   20.53
   7   5  -2   20.29   15.14
   7   5  -2   39.52   19.08
  -7  -5   2   19.03   12.98
  -7  -5   2   38.99   20.40
   6   5  -2    4.42   11.83
   6   5  -2   -9.99   14.37
  -6  -5   2  -19.60   14.45
  -6  -5   2    1.24   10.58
  -6  -5   2   -0.62    9.84
   5   5  -2   66.35   12.52
   5   5  -2   88.69   15.69
  -5  -5   2   48.54   10.29
  -5  -5   2   38.73   14.42
  -5  -5   2   72.37   14.42
   4   5  -2   21.94    9.26
   4   5  -2   29.42   12.06
  -4  -5   2   40.14   12.73
  -4  -5   2   10.57    7.82
  -4  -5   2   23.42   12.43
   3   5  -2  341.77   21.38
   3   5  -2  373.95   20.53
  -3  -5   2  344.93   19.06
  -3  -5   2  337.20   22.87
   2   5  -2   60.14   11.57
   2   5  -2   65.06    9.78
  -2  -5   2   76.96   13.06
  -2  -5   2   79.55    9.62
   1   5  -2   20.10    9.71
   1   5  -2   22.44    7.90
  -1  -5   2   28.42    6.93
  -1  -5   2   19.02    9.65
   0   5  -2   10.91    8.64
   0   5  -2    0.10    7.03
   0  -5   2   11.97    5.68
   0  -5   2   10.30    8.29
  -1   5  -2  139.25   13.11
  -1   5  -2  153.03   14.81
   1  -5   2  136.97   11.37
   1  -5   2  133.33   12.27
  -2   5  -2  226.99   16.39
  -2   5  -2  232.56   16.05
   2  -5   2  216.96   13.87
   2  -5   2  226.51   15.00
  -3   5  -2   20.48    8.98
  -3   5  -2   54.78   10.31
   3  -5   2   20.52    7.84
   3  -5   2   26.46    7.88
  -4   5  -2   38.03   10.65
  -4   5  -2   45.86   11.46
   4  -5   2   47.10    9.80
   4  -5   2   48.85   10.07
  -5   5  -2    3.93   11.27
  -5   5  -2   29.05   11.81
   5  -5   2   18.86    9.53
   5  -5   2   26.11    9.82
  -6   5  -2   47.75   14.64
  -6   5  -2   31.55   14.47
   6  -5   2   55.32   12.23
   6  -5   2   15.97   11.24
  -7   5  -2   37.34   16.35
  -7   5  -2   47.11   16.48
   7  -5   2   31.51   14.43
   7  -5   2   27.19   12.12
  -8   5  -2  -21.51   24.38
  -8   5  -2  -22.77   33.38
   8  -5   2  -11.65   14.81
   8  -5   2   49.25   20.50
   9   4  -2   59.04   19.82
   9   4  -2   55.58   43.23
  -9  -4   2   -3.68   23.88
   8   4  -2   54.76   16.70
   8   4  -2   22.07   20.11
  -8  -4   2   17.23   14.39
  -8  -4   2  -21.07   19.51
   7   4  -2   35.93   14.48
   7   4  -2    0.81   17.90
  -7  -4   2    4.90   16.70
  -7  -4   2    9.35   12.11
   6   4  -2  -18.77   13.66
   6   4  -2   20.23   11.59
  -6  -4   2    8.08   11.13
  -6  -4   2    4.37   10.96
  -6  -4   2   -0.56   15.00
   5   4  -2   25.67   12.17
   5   4  -2   -5.46    8.60
  -5  -4   2    4.28   10.77
  -5  -4   2    7.37   14.17
  -5  -4   2    1.58    7.57
   4   4  -2    6.05    8.26
   4   4  -2    4.70   10.37
  -4  -4   2    7.06    6.41
  -4  -4   2   20.16   12.30
  -4  -4   2   -8.50   10.95
   3   4  -2   19.75    8.36
   3   4  -2   17.28    9.42
  -3  -4   2   16.21    6.39
  -3  -4   2   17.48    9.90
   2   4  -2    4.15    8.35
   2   4  -2    6.64    6.04
  -2  -4   2    3.04    4.87
  -2  -4   2    2.56    8.15
   1   4  -2   79.89    9.71
   1   4  -2   82.58   11.48
  -1  -4   2   94.26   11.96
  -1  -4   2   74.14    8.84
   0   4  -2   25.03    7.38
   0   4  -2   43.50    9.44
   0  -4   2   40.54    6.98
  -1   4  -2   24.02    7.35
  -1   4  -2   24.94    8.49
   1  -4   2   18.51    6.54
   1  -4   2   33.61    7.80
  -2   4  -2    9.38    7.54
   2  -4   2   12.94    6.17
   2  -4   2   15.81    6.71
  -3   4  -2    5.98    6.91
  -3   4  -2   -0.27    7.36
   3  -4   2    0.55    6.65
   3  -4   2   10.15    7.04
  -4   4  -2   19.57    8.33
  -4   4  -2   28.89    9.72
   4  -4   2   26.24    8.34
   4  -4   2   37.29    8.99
  -5   4  -2  111.94   13.52
  -5   4  -2  102.38   13.23
   5  -4   2   76.38   11.72
   5  -4   2   95.82   19.70
  -6   4  -2   -0.09   12.45
  -6   4  -2   18.68   12.49
   6  -4   2   16.48   10.53
   6  -4   2    6.62    9.31
  -7   4  -2   16.27   14.46
  -7   4  -2   50.53   16.28
   7  -4   2   35.00   13.31
   7  -4   2   35.17   12.76
  -8   4  -2  -38.44   17.60
  -8   4  -2   47.68   19.31
   8  -4   2   39.67   39.58
   8  -4   2  -24.55   15.38
   8  -4   2   -6.43   14.43
   9   3  -2   -7.55   23.77
   9   3  -2  -13.15   18.31
  -9  -3   2   53.88   25.91
   8   3  -2   32.08   14.82
   8   3  -2   31.58   19.18
  -8  -3   2   24.22   21.69
  -8  -3   2    9.42   14.75
   7   3  -2   19.89   12.94
   7   3  -2   15.01   15.42
  -7  -3   2   -9.54   16.16
  -7  -3   2  -10.72   10.68
   6   3  -2    8.08   12.62
   6   3  -2   -2.33    9.24
  -6  -3   2   10.79    9.52
  -6  -3   2   10.57   15.85
   5   3  -2    7.64    8.52
   5   3  -2   -2.41   10.76
  -5  -3   2    9.78   10.62
  -5  -3   2   -7.68    6.81
  -5  -3   2   10.40   12.02
   4   3  -2   14.99    7.40
   4   3  -2    7.51    9.05
  -4  -3   2    6.79    6.64
  -4  -3   2    0.77    9.46
  -4  -3   2   -1.99   11.10
   3   3  -2  456.44   21.62
   3   3  -2  435.13   22.07
  -3  -3   2  400.44   21.97
  -3  -3   2  432.15   20.18
  -3  -3   2  400.44   22.85
   2   3  -2   68.92    8.87
   2   3  -2   80.72   10.35
  -2  -3   2   74.42    8.29
  -2  -3   2   99.24   11.03
   1   3  -2  747.81   31.34
   1   3  -2  708.39   30.18
  -1  -3   2  718.80   31.33
  -1  -3   2  732.99   29.85
   0   3  -2   22.06    7.68
   0   3  -2   19.95    6.42
   0  -3   2   12.77    7.62
   0  -3   2    2.84    5.21
  -1   3  -2  141.85   12.66
  -1   3  -2  135.65   10.65
   1  -3   2  144.70   11.10
   1  -3   2  156.42   11.00
  -2   3  -2  162.50   12.70
  -2   3  -2  180.42   11.99
   2  -3   2  170.82   11.69
   2  -3   2  170.64   12.19
  -3   3  -2  130.28   11.70
  -3   3  -2  107.94   10.26
   3  -3   2   92.42   10.06
   3  -3   2  112.25   11.35
  -4   3  -2   98.64   11.56
  -4   3  -2  114.23   11.06
   4  -3   2   93.08   10.91
   4  -3   2   94.17   11.38
  -5   3  -2   -2.33    8.25
   5  -3   2    1.70    7.72
   5  -3   2   13.26    8.37
  -6   3  -2  -15.48   10.32
  -6   3  -2   -6.50   10.08
   6  -3   2   -3.71    9.90
   6  -3   2    5.68    8.74
  -7   3  -2   -6.62   12.11
  -7   3  -2   13.22   12.78
   7  -3   2   -3.72   11.70
   7  -3   2   20.17   11.16
  -8   3  -2    9.24   15.73
  -8   3  -2   30.88   16.50
   8  -3   2   31.16   14.65
   8  -3   2   17.79   14.57
   8  -3   2   78.99   33.62
   9  -3   2   49.49   43.65
   9  -3   2  -18.46   18.21
   9  -3   2  -28.06   18.84
  10   2  -2   19.21   28.39
 -10  -2   2   53.89   32.91
   9   2  -2    6.30   18.68
   9   2  -2  -18.77   18.64
  -9  -2   2  -12.29   22.49
  -9  -2   2   -4.12   35.48
   8   2  -2   35.61   16.79
   8   2  -2  -34.59   16.72
   8   2  -2  -43.90   28.48
  -8  -2   2    6.13   18.20
  -8  -2   2   -3.22   13.15
   7   2  -2   -8.02   13.59
   7   2  -2  -14.81   23.11
   7   2  -2    6.46   12.58
  -7  -2   2   23.66   16.09
  -7  -2   2  -14.44   11.37
   6   2  -2    5.87   13.18
   6   2  -2   12.97    9.05
  -6  -2   2   16.02    9.65
  -6  -2   2    7.68   14.17
   5   2  -2   48.64   11.53
   5   2  -2   73.64   10.64
  -5  -2   2   64.37   14.59
  -5  -2   2   40.73   13.34
  -5  -2   2   58.59    9.65
   4   2  -2  -10.15    5.98
   4   2  -2    9.34    8.44
  -4  -2   2  -11.40    9.54
  -4  -2   2   -7.53    5.26
  -4  -2   2    5.46    8.67
   3   2  -2   54.52    8.95
   3   2  -2   62.11    9.45
  -3  -2   2   72.49   15.51
  -3  -2   2   43.94   10.12
  -3  -2   2   56.33    7.73
   2   2  -2    5.30    7.82
   2   2  -2   -0.73    5.55
  -2  -2   2    2.22    5.09
  -2  -2   2   -2.39    6.77
   1   2  -2   17.15    7.36
   1   2  -2   15.26    6.36
  -1  -2   2   20.97    7.08
  -1  -2   2   10.23    5.52
   0   2  -2  573.50   24.62
   0   2  -2  601.56   25.45
   0  -2   2  574.22   24.85
   0  -2   2  591.11   24.44
  -1   2  -2 1150.33   44.98
   1  -2   2 1132.95   43.99
   1  -2   2 1154.36   44.61
  -2   2  -2  307.27   16.18
  -2   2  -2  303.00   15.07
   2  -2   2  291.74   15.06
   2  -2   2  281.51   15.24
  -3   2  -2   24.54    7.01
  -3   2  -2   12.39    6.34
   3  -2   2   15.74    6.37
   3  -2   2   19.37    7.27
  -4   2  -2    6.30    7.30
  -4   2  -2    1.02    5.97
   4  -2   2   -2.74    6.53
   4  -2   2    4.23    6.55
  -5   2  -2  104.78   12.34
  -5   2  -2  109.79   14.07
   5  -2   2   96.45   12.25
   5  -2   2  106.68   11.99
  -6   2  -2   10.64    9.95
  -6   2  -2   -3.09    9.27
   6  -2   2    3.66    8.72
   6  -2   2    1.35    8.49
  -7   2  -2   21.26   12.00
  -7   2  -2   21.24   13.37
   7  -2   2   22.68   11.60
   7  -2   2   13.64   11.34
  -8   2  -2    8.77   12.45
  -8   2  -2   23.09   15.51
   8  -2   2   36.52   14.60
   8  -2   2    6.27   28.32
   8  -2   2    8.28   13.11
  -9   2  -2  -13.24   18.51
  -9   2  -2   15.37   23.90
   9  -2   2    5.41   19.52
   9  -2   2   17.30   37.74
   9  -2   2    1.31   15.46
 -10   2  -2   25.94   29.81
  10   1  -2  -17.69   27.12
 -10  -1   2   -2.09   29.24
   9   1  -2   53.93   19.91
   9   1  -2  -22.11   20.69
   9   1  -2  -28.28   35.78
  -9  -1   2  -34.36   24.03
   8   1  -2   10.77   14.77
   8   1  -2   -6.97   30.23
   8   1  -2   19.98   14.58
  -8  -1   2   16.46   18.05
  -8  -1   2   14.49   13.20
   7   1  -2    8.96   24.41
   7   1  -2   10.95   13.25
  -7  -1   2   -2.09    9.54
  -7  -1   2  -29.20   13.19
   6   1  -2   17.04   12.58
   6   1  -2   -9.46   19.79
   6   1  -2    3.22    9.36
  -6  -1   2   29.85   13.87
  -6  -1   2    9.51    8.11
   5   1  -2  137.97   22.80
   5   1  -2  118.54   13.96
   5   1  -2  114.22   12.91
  -5  -1   2  123.42   11.67
  -5  -1   2  119.47   14.17
  -5  -1   2  126.03   16.38
   4   1  -2   92.51   11.15
   4   1  -2  120.30   19.33
   4   1  -2  112.91   13.15
  -4  -1   2  103.80   14.85
  -4  -1   2  104.36    9.64
  -4  -1   2  108.32   12.27
   3   1  -2  521.93   24.16
   3   1  -2  567.47   24.88
  -3  -1   2  566.40   23.92
  -3  -1   2  554.42   25.11
  -3  -1   2  548.94   29.35
   2   1  -2   33.76    7.30
   2   1  -2   36.16    6.71
  -2  -1   2   45.72    6.94
  -2  -1   2   37.94    7.45
  -2  -1   2   66.54   14.11
   1   1  -2  509.70   21.35
   1   1  -2  491.62   21.59
  -1  -1   2  479.91   21.77
  -1  -1   2  521.46   21.16
   0   1  -2 1367.25   52.72
   0   1  -2 1427.34   52.86
   0  -1   2 1377.05   52.54
   0  -1   2 1417.59   52.77
  -1   1  -2 5121.20  186.01
  -1   1  -2 5182.18  186.45
   1  -1   2 5139.88  185.93
   1  -1   2 5173.11  186.34
  -2   1  -2   20.35    5.36
  -2   1  -2   15.11    6.13
   2  -1   2   19.75    5.50
   2  -1   2   15.50    6.29
  -3   1  -2   74.55    9.05
  -3   1  -2   73.97    8.78
   3  -1   2   68.42    7.91
   3  -1   2   86.08    9.77
  -4   1  -2    3.52    5.63
  -4   1  -2    4.85    6.80
   4  -1   2   -3.40    6.08
   4  -1   2   -8.15    5.79
  -5   1  -2    8.20    9.46
  -5   1  -2    9.23    7.02
   5  -1   2   13.89    7.99
   5  -1   2   25.81    7.65
  -6   1  -2    1.85    9.07
  -6   1  -2   27.80   11.41
   6  -1   2   13.64   10.39
   6  -1   2   25.51    9.66
  -7   1  -2   14.07   11.20
  -7   1  -2   -3.38   12.05
   7  -1   2   -0.79   11.95
   7  -1   2  -12.25   10.24
  -8   1  -2   19.83   12.70
  -8   1  -2   27.72   16.93
   8  -1   2   14.55   12.68
   8  -1   2  -10.84   13.23
   8  -1   2   27.40   27.10
  -9   1  -2  -23.42   18.87
  -9   1  -2    6.50   15.02
   9  -1   2   19.04   18.46
   9  -1   2   14.28   16.06
   9  -1   2   -5.77   31.57
 -10   1  -2    1.08   26.06
  10  -1   2  105.11   45.30
  10  -1   2   42.08   23.18
  10   0  -2  -71.91   45.53
  10   0  -2   26.13   28.80
 -10   0   2  -69.80   28.23
   9   0  -2    0.40   20.76
   9   0  -2   -4.66   21.06
   9   0  -2  -64.51   37.38
  -9   0   2   16.01   25.41
   8   0  -2    0.10   16.02
   8   0  -2   10.81   32.00
   8   0  -2   11.98   14.24
  -8   0   2    5.95   12.63
  -8   0   2   16.72   17.06
   7   0  -2   12.23   33.46
   7   0  -2   -5.15   10.80
   7   0  -2   -2.89   14.12
  -7   0   2   -8.47    9.21
  -7   0   2   -6.88   12.49
   6   0  -2   73.81   25.33
   6   0  -2   55.49   13.47
   6   0  -2   73.73   11.67
  -6   0   2   49.83    9.27
  -6   0   2   66.72   13.21
   5   0  -2   99.44   13.00
   5   0  -2   77.13   10.30
   5   0  -2  111.38   24.82
  -5   0   2   95.98   10.99
  -5   0   2   76.88   11.82
   4   0  -2   98.43   20.25
   4   0  -2   90.83    9.01
   4   0  -2   78.06    9.85
  -4   0   2   86.34   14.51
  -4   0   2   73.12    8.26
  -4   0   2   72.70   10.74
   3   0  -2  147.16   11.01
   3   0  -2  140.04   18.57
   3   0  -2  146.34   10.99
  -3   0   2  133.37   16.17
  -3   0   2  145.72    9.73
  -3   0   2  150.41   11.21
   2   0  -2  812.87   33.15
   2   0  -2  862.44   33.23
   2   0  -2  902.88   38.48
  -2   0   2  791.09   38.64
  -2   0   2  825.40   32.67
  -2   0   2  823.84   33.37
   1   0  -2  805.58   31.37
   1   0  -2  813.44   31.20
  -1   0   2  765.79   31.20
  -1   0   2  747.89   30.69
  -1   0   2  826.74   33.73
   0   0  -2 1299.13   49.85
   0   0  -2 1388.43   49.90
   0   0   2 1342.61   49.89
   0   0   2 1298.49   49.81
  -1   0  -2   46.48    6.73
  -1   0  -2   47.77    6.13
   1   0   2   63.78    7.00
   1   0   2   50.36    6.22
  -2   0  -2  572.29   23.65
  -2   0  -2  598.09   24.21
   2   0   2  584.51   23.60
   2   0   2  569.13   24.18
  -3   0  -2  217.23   12.15
  -3   0  -2  242.95   13.49
   3   0   2  215.50   12.10
   3   0   2  217.50   12.91
  -4   0  -2   83.70   10.45
  -4   0  -2   67.81    8.52
   4   0   2   72.83    8.78
   4   0   2   84.70    9.94
  -5   0  -2  190.70   16.00
  -5   0  -2  217.31   14.41
   5   0   2  206.96   14.63
   5   0   2  193.58   14.12
  -6   0  -2    9.32   10.30
   6   0   2   -0.13    8.28
   6   0   2    6.27    8.55
  -7   0  -2    5.87   11.51
  -7   0  -2   11.96   13.17
   7   0   2   -5.61   10.00
   7   0   2   17.01    9.09
  -8   0  -2    0.71   16.72
  -8   0  -2   24.74   13.49
   8   0   2  -33.30   22.02
   8   0   2    7.07   12.70
  -9   0  -2   -0.61   19.90
  -9   0  -2   27.98   15.33
   9   0   2  -15.93   17.06
   9   0   2   28.99   15.95
   9   0   2   24.56   33.96
 -10   0  -2  -22.42   21.83
  10   0   2  -32.69   23.49
  10   0   2   47.95   42.48
 -11   0  -2   27.68   29.85
  11   0   2  115.71   62.54
  10  -1  -2   19.01   54.79
 -10   1   2   44.88   47.40
   9  -1  -2   -9.16   19.03
   9  -1  -2  -47.54   43.38
   9  -1  -2   12.72   20.51
  -9   1   2   54.07   24.42
   8  -1  -2   27.30   14.55
   8  -1  -2  -11.31   33.68
   8  -1  -2   46.72   14.77
  -8   1   2   56.68   20.79
  -8   1   2   54.52   14.24
   7  -1  -2  -17.60   12.57
   7  -1  -2   -6.88   28.10
   7  -1  -2    2.23    9.88
  -7   1   2   13.35   12.82
  -7   1   2   -7.24    9.13
   6  -1  -2   14.45   23.76
   6  -1  -2   10.44   11.13
   6  -1  -2   12.90    8.35
  -6   1   2   -4.41    8.03
  -6   1   2    7.33   10.96
   5  -1  -2    2.97    6.40
   5  -1  -2   -7.00    7.04
   5  -1  -2   24.22   21.84
  -5   1   2    0.55    5.81
  -5   1   2   -9.56    8.07
   4  -1  -2   42.08    8.47
   4  -1  -2   53.75   20.70
   4  -1  -2   54.24    7.82
  -4   1   2   50.83    7.07
  -4   1   2   56.29    8.68
   3  -1  -2  841.07   45.77
   3  -1  -2 1052.29   39.10
   3  -1  -2 1010.75   39.26
  -3   1   2 1033.03   39.50
  -3   1   2 1040.37   44.86
  -3   1   2  972.90   38.63
   2  -1  -2   35.38    5.32
   2  -1  -2   41.31   14.76
   2  -1  -2   42.88    6.48
  -2   1   2   40.53    6.58
  -2   1   2   34.04   14.13
  -2   1   2   37.72    5.47
   1  -1  -2   70.85    6.62
   1  -1  -2   71.21    6.92
   1  -1  -2   84.04   13.38
  -1   1   2   75.85    7.52
  -1   1   2  111.26   17.42
  -1   1   2   74.50    6.51
   0  -1  -2 1093.82   40.91
   0  -1  -2 1047.33   40.96
   0   1   2 1096.35   40.96
   0   1   2 1148.44   43.28
  -1  -1  -2  117.98    7.76
  -1  -1  -2  126.97    8.38
   1   1   2  123.70    7.99
   1   1   2  124.32    7.45
  -2  -1  -2  371.35   16.36
  -2  -1  -2  354.27   16.62
   2   1   2  385.52   16.09
   2   1   2  371.98   16.78
  -3  -1  -2   39.89    6.14
  -3  -1  -2   40.91    7.45
   3   1   2   39.91    7.07
   3   1   2   49.45    7.37
  -4  -1  -2    2.13    5.27
  -4  -1  -2    0.33    6.96
   4   1   2   -4.27    5.40
   4   1   2    5.96    6.54
  -5  -1  -2   93.88   11.64
  -5  -1  -2   90.30    9.85
   5   1   2   84.01   10.84
   5   1   2   87.57   10.07
  -6  -1  -2   -0.93    9.08
  -6  -1  -2    0.94    7.56
   6   1   2   -4.17    9.00
   6   1   2  -13.39    8.62
  -7  -1  -2   16.40    9.80
  -7  -1  -2   42.88   13.91
   7   1   2   23.87   10.65
   7   1   2   17.08   11.19
   7   1   2   30.41   18.96
  -8  -1  -2   22.20   12.45
  -8  -1  -2   30.44   16.25
   8   1   2   15.75   14.08
   8   1   2    1.98   22.02
   8   1   2   20.83   14.28
  -9  -1  -2   28.06   20.61
  -9  -1  -2  -20.17   13.84
   9   1   2    6.70   30.10
   9   1   2  -17.95   15.73
   9   1   2   16.57   16.96
 -10  -1  -2   43.28   26.38
  10   1   2   37.19   25.12
  10   1   2   47.00   40.18
 -11  -1  -2  -44.21   27.16
  11   1   2   -1.59   29.12
   9  -2  -2   41.76   43.96
   9  -2  -2   32.90   20.11
   9  -2  -2   24.61   24.97
  -9   2   2  -27.30   23.74
   8  -2  -2   24.47   37.38
   8  -2  -2   18.91   14.97
   8  -2  -2   -1.28   13.70
  -8   2   2  -17.94   13.25
  -8   2   2  -18.10   18.32
   7  -2  -2  -11.34   11.75
   7  -2  -2   19.02    9.92
   7  -2  -2    6.53   30.31
  -7   2   2    7.79   14.00
  -7   2   2   17.88   11.62
   6  -2  -2  183.22   17.84
   6  -2  -2  217.45   15.87
   6  -2  -2  285.86   41.93
  -6   2   2  205.28   16.27
  -6   2   2  202.56   18.16
   5  -2  -2  108.81   10.31
   5  -2  -2  114.13   27.83
   5  -2  -2  121.26   13.03
  -5   2   2  115.74   12.87
  -5   2   2  102.34   10.88
   4  -2  -2    2.58    4.92
   4  -2  -2    0.96    6.36
   4  -2  -2  -13.23   17.36
  -4   2   2   -1.11    6.25
  -4   2   2   -1.87    5.12
   3  -2  -2   45.91   18.68
   3  -2  -2   39.58    5.80
   3  -2  -2   31.51    6.33
  -3   2   2   34.10    5.76
  -3   2   2   27.92    6.40
   2  -2  -2    8.26    4.49
   2  -2  -2    3.95    3.85
   2  -2  -2   -5.13   14.90
  -2   2   2    3.53    4.77
  -2   2   2    4.13    3.54
  -2   2   2   -3.19   11.21
   1  -2  -2    4.12    3.34
   1  -2  -2   -8.03   11.66
   1  -2  -2    1.45    2.88
  -1   2   2   -1.60   10.39
  -1   2   2    0.23    2.84
  -1   2   2    5.47    3.05
   0  -2  -2 2961.04  108.18
   0  -2  -2 3124.49  108.25
   0  -2  -2 2991.31  112.08
   0   2   2 2943.97  112.23
   0   2   2 3009.48  108.27
  -1  -2  -2  129.92    7.50
  -1  -2  -2  125.51    7.11
   1   2   2  126.33    7.67
   1   2   2  117.63    7.13
  -2  -2  -2 6404.61  232.71
  -2  -2  -2 6501.89  232.50
   2   2   2 6342.72  232.85
   2   2   2 6639.51  232.46
  -3  -2  -2    0.67    4.55
  -3  -2  -2   -7.37    5.57
   3   2   2    3.63    5.00
   3   2   2    0.48    5.41
  -4  -2  -2  229.37   13.02
  -4  -2  -2  210.85   14.72
   4   2   2  206.88   12.98
   4   2   2  232.55   14.74
  -5  -2  -2   50.40   10.08
  -5  -2  -2   61.18    9.03
   5   2   2   64.13    9.95
   5   2   2   66.12    9.72
  -6  -2  -2   -3.98    9.69
  -6  -2  -2    5.32    7.28
   6   2   2    6.00    8.63
   6   2   2   -0.08    7.83
  -7  -2  -2   49.29   13.25
  -7  -2  -2   42.55   12.02
   7   2   2   23.76   11.59
   7   2   2   26.42   10.88
   7   2   2   37.34   18.24
  -8  -2  -2   45.01   13.27
  -8  -2  -2    7.88   15.54
   8   2   2   18.26   14.42
   8   2   2   52.37   22.47
   8   2   2   34.96   14.08
  -9  -2  -2   18.07   13.20
  -9  -2  -2   10.93   17.11
   9   2   2   12.53   14.36
   9   2   2   34.60   36.06
   9   2   2   30.79   19.20
 -10  -2  -2   13.56   23.73
  10   2   2  -43.23   19.27
  10   2   2   -8.39   35.96
 -11  -2  -2  -19.32   34.74
  11   2   2  -59.22   34.00
   9  -3  -2   54.36   55.06
   9  -3  -2   -8.01   32.17
  -9   3   2    0.40   28.04
   8  -3  -2   12.43   15.92
   8  -3  -2   14.36   13.59
   8  -3  -2   33.69   39.64
  -8   3   2   13.89   14.85
  -8   3   2   -9.17   17.33
   7  -3  -2   19.95   10.35
   7  -3  -2  -12.15   12.59
   7  -3  -2   26.22   33.02
  -7   3   2   23.30   14.85
  -7   3   2  -10.94   10.12
   6  -3  -2  301.75   20.04
   6  -3  -2  298.77   38.82
   6  -3  -2  300.91   17.74
  -6   3   2  299.41   19.19
  -6   3   2  311.85   20.90
   5  -3  -2   33.19   26.33
   5  -3  -2   16.40    8.11
   5  -3  -2    8.33    5.82
  -5   3   2   20.95    7.28
  -5   3   2   19.35    8.82
   4  -3  -2   55.24    7.31
   4  -3  -2   74.49    8.73
   4  -3  -2   70.42   22.99
  -4   3   2   60.30    7.47
  -4   3   2   63.58    8.53
   3  -3  -2  173.71   21.60
   3  -3  -2  186.80   10.84
   3  -3  -2  184.16   10.34
  -3   3   2  180.62   10.15
  -3   3   2  192.89   11.16
   2  -3  -2  405.23   16.70
   2  -3  -2  367.17   26.95
   2  -3  -2  411.36   16.63
  -2   3   2  418.04   16.39
   1  -3  -2  436.64   16.09
   1  -3  -2  412.16   16.28
   1  -3  -2  381.18   25.30
  -1   3   2  437.28   23.28
  -1   3   2  447.31   16.56
  -1   3   2  420.11   16.05
   0  -3  -2  109.85   14.91
   0  -3  -2   68.04    3.52
   0  -3  -2   71.33    4.10
   0   3   2   71.28    4.51
   0   3   2   72.18    3.94
  -1  -3  -2  281.11   11.57
  -1  -3  -2  300.15   16.33
  -1  -3  -2  282.21   11.69
   1   3   2  279.15   15.45
   1   3   2  281.64   11.96
   1   3   2  235.61   11.36
  -2  -3  -2 1226.78   44.50
  -2  -3  -2 1187.60   44.20
   2   3   2 1101.08   44.48
   2   3   2 1196.69   44.60
   2   3   2 1175.83   44.21
  -3  -3  -2    8.56    4.45
  -3  -3  -2   12.90    6.56
   3   3   2   10.04    5.11
   3   3   2    5.37    5.18
  -4  -3  -2  128.60    9.79
  -4  -3  -2  122.34   11.23
   4   3   2  128.85   11.21
   4   3   2  112.75   10.66
  -5  -3  -2  209.85   14.00
  -5  -3  -2  209.62   15.08
   5   3   2  201.49   14.36
   5   3   2  196.56   14.30
   5   3   2  202.70   14.12
  -6  -3  -2    1.85   10.31
  -6  -3  -2   -7.92    5.93
   6   3   2   -5.43   11.58
   6   3   2   12.46    9.82
   6   3   2   11.09    8.67
  -7  -3  -2    6.75   10.07
   7   3   2   31.19   16.03
   7   3   2  -15.66   10.20
   7   3   2    4.20   11.07
  -8  -3  -2   -1.19   16.00
  -8  -3  -2   18.11   12.68
   8   3   2   17.11   20.90
   8   3   2   18.52   13.77
   8   3   2    5.65   12.82
  -9  -3  -2   -7.16   19.01
  -9  -3  -2   19.31   15.14
   9   3   2   37.37   16.46
   9   3   2   -7.85   15.97
   9   3   2   24.03   25.66
 -10  -3  -2  -43.65   23.70
  10   3   2  -23.70   24.34
  10   3   2   -6.17   21.17
   8  -4  -2  -26.16   13.31
   8  -4  -2   36.49   41.34
   8  -4  -2   17.57   16.71
  -8   4   2   -6.61   15.00
  -8   4   2  -10.81   18.34
   7  -4  -2   36.64   11.37
   7  -4  -2   19.25   34.18
   7  -4  -2   27.73   13.65
  -7   4   2    1.98   14.81
  -7   4   2   19.18   12.50
   6  -4  -2    4.35    7.46
   6  -4  -2   28.49   32.36
   6  -4  -2  -13.71    9.87
  -6   4   2   -1.36    9.16
  -6   4   2    1.67   10.84
   5  -4  -2    4.99    5.80
   5  -4  -2   -1.11    7.74
   5  -4  -2    0.92   24.50
  -5   4   2   11.45    8.47
   4  -4  -2   66.56   24.38
   4  -4  -2   77.63    8.38
   4  -4  -2   70.91    7.94
  -4   4   2   66.28    8.10
  -4   4   2   79.83    8.91
   3  -4  -2  168.76   26.40
   3  -4  -2  129.50    8.79
   3  -4  -2  136.43    8.83
  -3   4   2  115.35    9.68
  -3   4   2  137.51    8.35
   2  -4  -2  828.76   30.42
   2  -4  -2  769.78   41.21
   2  -4  -2  807.49   30.17
  -2   4   2  778.56   30.33
  -2   4   2  837.55   30.27
   1  -4  -2  494.99   28.89
  -1   4   2  543.89   19.14
   0  -4  -2   17.12   12.23
   0   4   2   22.60    2.12
   0   4   2   21.13    2.04
  -1  -4  -2  -11.17    8.70
  -1  -4  -2   -0.70    2.55
  -1  -4  -2   -0.58    3.07
   1   4   2   -2.98    3.22
  -2  -4  -2  375.10   17.74
  -2  -4  -2  414.16   17.16
   2   4   2  422.40   17.78
   2   4   2  422.60   17.60
  -3  -4  -2  135.19    9.02
  -3  -4  -2  133.19   10.95
   3   4   2  139.96    9.76
   3   4   2  148.12   10.02
  -4  -4  -2 1275.27   49.51
  -4  -4  -2 1224.18   49.79
   4   4   2 1258.39   49.83
   4   4   2 1302.57   49.68
  -5  -4  -2   16.38   10.22
  -5  -4  -2   32.11    7.82
   5   4   2   27.11    8.27
   5   4   2    8.98    7.13
   5   4   2   12.27    8.21
  -6  -4  -2   70.96   13.64
  -6  -4  -2   71.59   10.74
   6   4   2   60.66   11.42
   6   4   2   70.71   12.71
   6   4   2   74.53   12.65
  -7  -4  -2   19.32   14.19
  -7  -4  -2    8.36    8.99
   7   4   2   -6.64   12.46
   7   4   2   13.32   14.94
   7   4   2   13.14   12.09
  -8  -4  -2   18.65   14.78
  -8  -4  -2    3.19   11.94
   8   4   2   -2.16   18.44
   8   4   2   15.18   13.30
   8   4   2   14.90   13.56
  -9  -4  -2  -10.11   17.86
  -9  -4  -2   33.57   16.16
   9   4   2    0.39   16.43
   9   4   2  -22.40   16.93
   9   4   2  -20.17   22.18
 -10  -4  -2  -11.94   21.40
  10   4   2    4.89   45.33
  10   4   2   36.64   21.67
  10   4   2   19.99   23.89
   8  -5  -2    1.23   16.90
  -8   5   2   33.76   18.69
   7  -5  -2   18.25   13.66
   7  -5  -2   42.33   38.35
   7  -5  -2  -14.14   10.24
  -7   5   2   13.85   14.92
  -7   5   2    8.44   12.38
   6  -5  -2    5.15   11.16
   6  -5  -2    6.32    8.00
   6  -5  -2   11.61   31.97
  -6   5   2    0.91    9.56
  -6   5   2    6.91   11.28
   5  -5  -2   83.70   34.88
   5  -5  -2   47.56    8.41
   5  -5  -2   54.49    9.74
  -5   5   2   34.37    8.80
  -5   5   2   64.49   10.88
   4  -5  -2   18.39   26.42
   4  -5  -2   21.52    6.61
   4  -5  -2   32.33    6.95
  -4   5   2   20.00    8.30
  -4   5   2   20.05    6.34
   3  -5  -2   73.80    6.90
   3  -5  -2   73.79    8.35
   3  -5  -2   87.66   24.01
  -3   5   2   66.76    6.99
   2  -5  -2   14.81   16.97
  -2   5   2   13.20    3.04
  -2   5   2   12.61    3.08
   1  -5  -2  677.52   35.40
   0  -5  -2    0.90   12.52
   0   5   2   -0.12    1.64
   0   5   2    2.00    1.99
  -1  -5  -2  114.76   13.70
  -1  -5  -2  128.33    7.57
   1   5   2  121.38    7.18
  -2  -5  -2  177.44   13.55
  -2  -5  -2  217.58   10.42
  -2  -5  -2  215.88   11.56
   2   5   2  209.72   11.28
   2   5   2  210.27   10.98
  -3  -5  -2    5.71    6.22
  -3  -5  -2   -3.38    4.27
   3   5   2   -4.57    4.92
   3   5   2   -2.35    5.43
  -4  -5  -2  192.70   13.21
  -4  -5  -2  170.33   11.10
   4   5   2  186.10   13.11
   4   5   2  172.84   13.74
  -5  -5  -2   -2.80    8.21
  -5  -5  -2    7.56    6.14
   5   5   2    7.92    7.21
   5   5   2    4.01    8.90
  -6  -5  -2   -5.36    7.40
   6   5   2   -8.61    9.42
   6   5   2   -4.21    8.39
  -7  -5  -2   11.20   13.67
  -7  -5  -2    7.89    9.27
   7   5   2   -0.38   10.59
  -8  -5  -2  -11.48   16.72
  -8  -5  -2   19.69   12.45
   8   5   2    1.43   13.85
   8   5   2  -29.72   14.13
  -9  -5  -2    2.26   19.47
  -9  -5  -2   -7.02   13.45
   9   5   2  -22.08   15.66
   9   5   2   -1.91   17.93
 -10  -5  -2    8.40   23.44
  10   5   2    0.79   21.61
  10   5   2  -39.53   36.61
   8  -6  -2  -25.30   16.59
  -8   6   2   -6.45   25.22
   7  -6  -2  106.35   48.65
   7  -6  -2   13.18   13.94
   7  -6  -2    6.34   11.44
  -7   6   2    6.77   16.51
  -7   6   2   36.43   15.92
   6  -6  -2   18.28   11.23
   6  -6  -2   10.55    9.13
   6  -6  -2   73.12   35.27
  -6   6   2   40.27   12.36
  -6   6   2   31.01   12.80
   5  -6  -2   23.08    8.62
   5  -6  -2   25.32   32.48
  -5   6   2   30.82    9.42
  -5   6   2   31.81   11.51
   4  -6  -2   39.69   30.72
   4  -6  -2   22.59    7.14
   4  -6  -2   19.15    6.38
  -4   6   2   18.03    6.94
   3  -6  -2    6.43   26.33
   3  -6  -2   -1.73    3.29
   3  -6  -2    0.56    3.91
  -3   6   2    3.66    4.11
  -3   6   2    8.42    4.77
   2  -6  -2   43.16   21.26
  -2   6   2   24.36    2.99
   1  -6  -2   36.37   19.03
   0  -6  -2    6.41   14.00
   0   6   2   14.98    2.37
   0   6   2   12.87    3.10
  -1  -6  -2  239.70   19.45
  -1  -6  -2  283.15   12.81
  -1  -6  -2  281.07   11.98
   1   6   2  274.25   12.20
  -2  -6  -2   72.60    8.83
  -2  -6  -2   78.64    6.55
  -2  -6  -2  104.51   13.75
   2   6   2   86.03    8.35
   2   6   2   84.07    7.79
  -3  -6  -2   64.14    9.18
  -3  -6  -2   76.51    7.44
   3   6   2   67.28    8.40
   3   6   2   56.15    8.04
  -4  -6  -2   56.14    7.93
  -4  -6  -2   49.31   10.08
   4   6   2   51.39    9.26
   4   6   2   58.94    9.83
  -5  -6  -2   16.78    9.74
  -5  -6  -2    7.24    6.73
   5   6   2   12.53    8.75
  -6  -6  -2    9.43   11.04
  -6  -6  -2    1.40    9.29
   6   6   2   -4.35   10.99
   6   6   2    5.64   10.41
  -7  -6  -2   12.62   14.60
  -7  -6  -2  -14.07   10.07
   7   6   2   -2.58   11.87
  -8  -6  -2  -20.24   12.19
  -8  -6  -2  -14.63   16.01
   8   6   2   15.76   15.07
   8   6   2   22.25   17.14
  -9  -6  -2   42.26   19.61
  -9  -6  -2   42.34   18.14
   9   6   2  -41.50   18.59
   9   6   2    7.89   18.61
 -10  -6  -2    2.33   38.68
  10   6   2    6.52   28.85
   8  -7  -2  -36.21   17.85
   7  -7  -2   -8.80   14.09
  -7   7   2   16.25   18.38
   6  -7  -2   14.60   11.74
   6  -7  -2   -5.02   10.54
   6  -7  -2   -0.46   42.34
  -6   7   2    2.04   17.21
  -6   7   2   19.56   14.51
   5  -7  -2   14.34   34.11
   5  -7  -2   24.45    7.91
   5  -7  -2   19.82    7.70
  -5   7   2   32.03   10.25
   4  -7  -2    4.70    4.70
   4  -7  -2   10.88    5.03
   4  -7  -2   -1.15   30.75
  -4   7   2    5.49    7.10
  -4   7   2   21.55    6.23
   3  -7  -2   31.41   27.55
  -3   7   2   42.14    6.30
   2  -7  -2   30.65   25.38
   1  -7  -2    1.35   17.89
   0  -7  -2   27.51   16.92
   0   7   2    9.98    2.86
   0   7   2   11.54    3.66
  -1  -7  -2  106.25   19.62
  -1  -7  -2   90.81    8.31
  -1  -7  -2   84.78    6.67
   1   7   2   84.52   10.10
   1   7   2   80.74    7.26
  -2  -7  -2    9.72    6.95
  -2  -7  -2    5.04    3.96
  -2  -7  -2   -3.40   10.93
   2   7   2    5.82    6.28
   2   7   2   11.39    5.28
  -3  -7  -2   60.70    6.90
  -3  -7  -2   57.13    9.96
  -3  -7  -2   64.01   11.00
   3   7   2   46.42    8.38
   3   7   2   61.30    8.63
  -4  -7  -2    2.59    9.24
  -4  -7  -2    4.08    5.24
   4   7   2    8.39    7.84
   4   7   2    9.78    8.16
  -5  -7  -2   68.65    9.37
  -5  -7  -2   42.87   12.57
   5   7   2   62.20   11.46
   5   7   2   50.35   11.24
  -6  -7  -2   34.04   13.85
  -6  -7  -2   51.00   10.42
   6   7   2   34.69   13.75
   6   7   2   41.68   12.01
  -7  -7  -2  -15.37   10.19
  -7  -7  -2  -18.71   14.84
   7   7   2   -0.20   13.36
  -8  -7  -2   -3.17   13.60
  -8  -7  -2    8.31   16.06
   8   7   2   -4.55   15.46
   8   7   2  -13.18   16.88
  -9  -7  -2   -7.50   19.64
  -9  -7  -2    1.33   19.18
   9   7   2   21.89   22.53
   9   7   2   34.59   22.70
   7  -8  -2   10.07   15.18
  -7   8   2   44.23   19.87
   6  -8  -2   11.63    9.97
  -6   8   2    7.57   15.67
   5  -8  -2   40.53   43.06
  -5   8   2  -23.12   10.79
  -5   8   2    6.39    7.58
   4  -8  -2   44.93   36.64
  -4   8   2   18.52    5.93
   3  -8  -2   21.36   27.53
   2  -8  -2   -3.23   23.03
   1  -8  -2   57.64   25.73
   0  -8  -2   14.70   18.45
   0   8   2   14.33    4.21
   0   8   2   15.16    3.65
  -1  -8  -2  -14.23   14.88
  -1  -8  -2    5.74    3.72
   1   8   2    1.26    5.55
   1   8   2    1.64    4.94
  -2  -8  -2    3.69    4.49
  -2  -8  -2   10.11    7.82
  -2  -8  -2    7.48   13.87
   2   8   2    0.22    5.84
   2   8   2    0.08    8.78
  -3  -8  -2    8.74    9.15
  -3  -8  -2    2.66    4.83
  -3  -8  -2    0.36   10.96
   3   8   2   -2.62    7.97
   3   8   2  -15.76    6.89
  -4  -8  -2   -1.66    5.63
   4   8   2    9.87    8.50
   4   8   2  -11.13    8.95
  -5  -8  -2   -0.66    6.98
  -5  -8  -2   13.09   12.50
   5   8   2    5.85   10.62
   5   8   2    2.18    9.73
  -6  -8  -2  -10.03    9.07
  -6  -8  -2    1.21   13.51
   6   8   2  -10.06   13.71
   6   8   2   15.17   11.73
  -7  -8  -2   -0.95   15.60
  -7  -8  -2    9.71   12.19
   7   8   2   26.87   13.79
   7   8   2    7.47   18.94
  -8  -8  -2   -8.56   15.39
  -8  -8  -2  -27.71   16.84
   8   8   2  -26.32   17.71
   8   8   2  -28.85   18.21
  -9  -8  -2   23.05   21.47
   9   8   2  -13.75   23.47
  -5   9   2   -6.20    7.84
   4  -9  -2   23.73   38.28
   3  -9  -2    5.08   31.71
   2  -9  -2    0.40   29.78
   1  -9  -2   33.16   26.75
   0  -9  -2   22.96   23.77
   0   9   2   11.92    5.08
   0   9   2   20.26    4.50
  -1  -9  -2   33.80    4.89
  -1  -9  -2   38.27    6.32
  -1  -9  -2   52.42   23.01
   1   9   2   38.01    6.83
   1   9   2   29.96    7.09
  -2  -9  -2   20.43    9.12
  -2  -9  -2   26.15   18.37
  -2  -9  -2   17.26    5.95
   2   9   2   28.45    7.96
   2   9   2   21.26   11.91
  -3  -9  -2   13.12    5.35
  -3  -9  -2    6.83   14.55
  -3  -9  -2    3.80   11.30
   3   9   2   16.67    9.09
   3   9   2   -4.72   10.15
  -4  -9  -2    7.10   12.59
  -4  -9  -2    7.93    6.23
   4   9   2    2.00   11.63
   4   9   2    1.97   10.25
  -5  -9  -2    4.06    8.02
  -5  -9  -2   22.25   13.63
   5   9   2   13.27   12.26
   5   9   2   20.42   13.65
  -6  -9  -2   -7.60   14.33
  -6  -9  -2    2.94   10.25
   6   9   2  -22.72   14.18
   6   9   2    8.58   13.69
  -7  -9  -2   -7.32   12.54
  -7  -9  -2    5.49   17.99
   7   9   2   38.14   17.27
   7   9   2    5.05   19.36
  -8  -9  -2  -31.25   17.55
  -8  -9  -2   17.68   22.40
   8   9   2    6.80   23.48
  -9  -9  -2  -13.45   23.93
   9   9   2    4.61   28.85
   4 -10  -2   15.55   48.87
   3 -10  -2   18.62   37.85
   2 -10  -2   48.35   32.00
   1 -10  -2  109.17   33.15
   0 -10  -2   33.24   26.70
   0  10   2   60.49    6.89
   0  10   2   59.76    7.59
  -1 -10  -2  108.54   27.53
  -1 -10  -2   71.51    6.78
  -1 -10  -2   73.97    5.77
   1  10   2   74.38    9.21
   1  10   2   67.20    9.10
  -2 -10  -2    1.85    9.78
  -2 -10  -2   19.91   20.40
  -2 -10  -2   -0.72    7.25
   2  10   2   19.67    9.14
   2  10   2    0.49   14.16
  -3 -10  -2    5.17   17.54
  -3 -10  -2    9.32    5.99
  -3 -10  -2   -2.82   12.37
   3  10   2    5.37   12.83
   3  10   2   -0.40   10.28
  -4 -10  -2   11.21    7.38
  -4 -10  -2   13.11   14.42
   4  10   2   -1.67   11.93
   4  10   2   15.87   14.55
  -5 -10  -2   15.55   15.82
  -5 -10  -2   35.52    9.72
   5  10   2    5.48   15.60
   5  10   2  -11.81   13.67
  -6 -10  -2    7.65   11.73
  -6 -10  -2   18.68   17.52
   6  10   2   -6.71   14.80
   6  10   2   11.01   18.74
  -7 -10  -2  -12.68   14.95
  -7 -10  -2   50.33   19.92
   7  10   2   27.18   21.42
  -8 -10  -2   29.60   22.41
   8  10   2    1.61   26.78
   9  10   2  -34.11   32.95
   3 -11  -2    8.81   46.56
   2 -11  -2   31.92   40.51
   1 -11  -2   54.18   35.98
   0 -11  -2   58.00   32.67
  -1 -11  -2   33.24   29.88
   1  11   2   -2.52    9.40
   1  11   2   18.29    8.34
  -2 -11  -2    7.07   23.78
  -2 -11  -2    1.44    7.09
  -2 -11  -2   -7.63   17.57
   2  11   2   11.84   11.18
  -3 -11  -2   14.32   21.80
  -3 -11  -2  -15.51   13.26
  -3 -11  -2   -6.85    6.82
   3  11   2    6.76   15.65
   3  11   2   -3.10   12.71
  -4 -11  -2   29.78   16.76
  -4 -11  -2   16.91    8.16
   4  11   2   13.83   17.56
   4  11   2   36.52   14.72
  -5 -11  -2   14.63   18.40
  -5 -11  -2   33.18   10.33
   5  11   2   21.46   16.03
   5  11   2  -36.81   17.95
  -6 -11  -2   -3.99   13.23
  -6 -11  -2   14.97   19.20
   6  11   2   24.52   22.44
   6  11   2   35.61   22.46
   7  11   2  -17.81   28.85
   2 -12  -2   13.39   49.52
   1 -12  -2   42.26   42.55
   0 -12  -2   38.16   37.79
  -1 -12  -2   -2.30   34.85
   1  12   2   -0.20   11.06
   1  12   2    0.97   10.03
  -2 -12  -2    1.47   33.57
  -2 -12  -2   -2.72    6.90
   2  12   2   -0.64   14.34
   2  12   2   -1.08   10.30
  -3 -12  -2   17.99   26.87
   3  12   2   10.29   15.69
  -4 -12  -2    6.88   18.81
   4  12   2   33.87   17.29
  -5 -12  -2   37.93   21.67
   5  12   2    7.76   23.91
   1 -13  -2  121.15   91.49
   0 -13  -2   62.63   49.11
  -1 -13  -2   -1.34   44.35
   2  13   2   33.85   16.91
  -3 -13  -2    1.80   16.26
   3  13   2   25.79   18.60
  -4 -13  -2   -1.70   20.71
   4  13   2  -29.49   40.56
  -1 -11   3   -2.27   21.55
   0 -11   3   29.13   21.41
   1 -11   3   31.70   19.43
   2 -11   3   11.48   18.03
   5  10  -3  -65.65   40.79
   4  10  -3    3.90   33.48
  -4 -10   3   -0.41   17.00
   3  10  -3  -27.08   29.50
  -3 -10   3   43.27   24.69
  -3 -10   3   -5.48   14.13
   2  10  -3   33.48   28.77
   2  10  -3   10.86   19.11
  -2 -10   3    0.10   13.00
  -2 -10   3   -2.17   19.86
   1  10  -3   14.73   16.80
   1  10  -3  -25.53   23.96
  -1 -10   3   -2.68   11.57
  -1 -10   3   29.93   19.07
   0  10  -3  -26.64   15.67
   0  10  -3   -2.46   25.06
   0 -10   3    5.56   10.45
   0 -10   3  -13.67   17.03
  -1  10  -3    5.07   17.92
   1 -10   3    8.43   16.78
  -2  10  -3  -20.71   18.91
   2 -10   3   15.90   15.84
  -3  10  -3  -37.91   21.06
   3 -10   3   23.79   15.48
   4 -10   3   15.42   15.57
   7   9  -3  -65.60   33.62
  -7  -9   3   -3.03   26.08
   6   9  -3  -29.34   26.21
  -6  -9   3  -11.57   21.75
   5   9  -3   21.85   29.52
  -5  -9   3   41.90   17.19
  -5  -9   3  -14.19   21.36
   4   9  -3  -26.89   27.32
   4   9  -3   -0.65   18.62
  -4  -9   3   -7.21   20.64
  -4  -9   3   10.05   26.57
   3   9  -3   27.57   23.63
   3   9  -3    6.67   15.32
  -3  -9   3  -15.99   20.58
  -3  -9   3    3.71   11.30
   2   9  -3   33.94   23.57
   2   9  -3   31.54   15.09
  -2  -9   3    2.23   10.62
   1   9  -3   12.29   20.65
   1   9  -3   29.46   15.42
  -1  -9   3   -9.68    8.99
  -1  -9   3  -10.15   16.42
   0   9  -3   24.17   14.86
   0   9  -3   -2.32   17.51
   0  -9   3   -5.15    9.15
   0  -9   3  -10.26   14.39
  -1   9  -3   36.54   17.64
  -1   9  -3  -29.54   13.68
   1  -9   3    2.41    8.81
   1  -9   3   -2.87   14.93
  -2   9  -3  -21.03   16.57
  -2   9  -3   -0.64   18.40
   2  -9   3   18.00    9.71
   2  -9   3   -1.33   13.72
  -3   9  -3   38.11   20.40
  -3   9  -3   59.11   27.33
   3  -9   3   13.31   13.68
   3  -9   3   29.45   10.76
  -4   9  -3   19.06   20.98
   4  -9   3   18.22   14.08
   5  -9   3   25.31   14.57
   6  -9   3    8.86   16.23
   7   8  -3   50.74   33.13
  -7  -8   3   14.46   21.11
   6   8  -3   27.85   27.68
  -6  -8   3   13.03   15.39
  -6  -8   3  -34.40   38.06
  -6  -8   3   -3.27   19.38
   5   8  -3    5.71   14.25
   5   8  -3   38.53   23.76
  -5  -8   3  -13.72   14.32
  -5  -8   3  -20.73   17.64
  -5  -8   3   28.54   19.47
   4   8  -3    7.15   23.48
   4   8  -3   26.52   14.27
  -4  -8   3   -9.73   19.29
  -4  -8   3    1.32   13.38
   3   8  -3  -10.51   18.69
   3   8  -3    3.84   12.86
  -3  -8   3   24.60   10.88
  -3  -8   3    4.16   16.40
   2   8  -3   -2.17   12.17
   2   8  -3  -22.68   19.44
  -2  -8   3   14.84    8.90
  -2  -8   3  -11.16   15.94
   1   8  -3   16.82   17.97
   1   8  -3   14.53   13.93
  -1  -8   3    3.14    8.61
  -1  -8   3   39.74   15.98
   0   8  -3    1.34   12.82
   0   8  -3    6.39   16.45
   0  -8   3    9.32    7.98
   0  -8   3  -12.19   13.28
  -1   8  -3   -4.68   15.18
  -1   8  -3  -18.29   13.77
   1  -8   3   -7.48    8.38
   1  -8   3   11.99   13.46
  -2   8  -3   32.69   16.41
  -2   8  -3  -10.76   14.76
   2  -8   3   31.14   12.52
   2  -8   3   28.81    9.18
  -3   8  -3   49.46   16.97
  -3   8  -3   25.42   16.25
   3  -8   3   28.45    9.73
   3  -8   3   16.98   12.64
  -4   8  -3   21.68   18.82
  -4   8  -3   38.26   18.79
   4  -8   3   23.16   12.42
   4  -8   3   27.63   10.27
  -5   8  -3  -36.68   20.41
   5  -8   3   -4.37   13.10
   6  -8   3  -29.30   13.54
   7   7  -3    3.31   28.61
  -7  -7   3  -24.07   17.05
   6   7  -3  -12.76   15.71
   6   7  -3   34.26   23.32
  -6  -7   3  -14.05   18.14
  -6  -7   3   29.12   17.46
  -6  -7   3   56.29   15.61
   5   7  -3  -12.69   21.03
  -5  -7   3   40.73   13.76
  -5  -7   3   -1.12   16.71
  -5  -7   3    2.63   16.65
   4   7  -3    8.53   17.67
   4   7  -3    1.76   12.93
  -4  -7   3   15.69   16.09
  -4  -7   3  -22.25   10.11
   3   7  -3   12.22   16.39
   3   7  -3   -0.49   11.79
  -3  -7   3    1.63   16.42
  -3  -7   3    3.75    8.43
   2   7  -3   22.93   15.18
   2   7  -3    0.28   11.83
  -2  -7   3    3.93    7.82
  -2  -7   3    3.25   15.67
   1   7  -3   19.13   16.11
   1   7  -3    2.63   11.01
  -1  -7   3    2.98    7.69
   0   7  -3   31.64   14.95
   0   7  -3   10.11   11.28
   0  -7   3   21.92   12.60
   0  -7   3   35.85    7.88
  -1   7  -3   -6.54   12.91
  -1   7  -3    6.51   12.49
   1  -7   3   -0.71    7.71
   1  -7   3    6.61   11.91
  -2   7  -3   11.69   14.24
  -2   7  -3    7.60   12.19
   2  -7   3   12.69    8.01
   2  -7   3    2.10   11.35
  -3   7  -3   12.97   14.54
  -3   7  -3   -1.41   13.70
   3  -7   3    5.66   10.79
   3  -7   3   12.24    8.96
  -4   7  -3    9.61   15.60
  -4   7  -3  -24.44   14.21
   4  -7   3   -2.43    9.14
   4  -7   3   23.38   11.18
  -5   7  -3    6.92   16.69
   5  -7   3   -5.20   11.71
  -6   7  -3   20.72   20.92
   6  -7   3    3.78   13.17
   6  -7   3   17.06   20.78
   7  -7   3   -5.85   15.32
   8   6  -3  -29.44   27.75
  -8  -6   3   46.72   21.16
   7   6  -3   -3.81   16.81
   7   6  -3   -0.74   24.73
  -7  -6   3    4.68   22.49
  -7  -6   3    1.98   16.82
   6   6  -3   12.04   19.73
   6   6  -3   15.99   15.01
  -6  -6   3    5.14   12.97
  -6  -6   3    4.25   17.75
  -6  -6   3   17.86   15.38
   5   6  -3   15.41   13.62
   5   6  -3    6.84   17.70
  -5  -6   3    4.11   15.95
  -5  -6   3   15.96   11.75
  -5  -6   3    7.17   15.71
   4   6  -3    4.26   15.64
   4   6  -3  -13.88   11.58
  -4  -6   3   -9.14    8.94
  -4  -6   3   -8.58   15.27
  -4  -6   3  -26.04   13.93
   3   6  -3    1.11    9.94
   3   6  -3   -2.51   14.50
  -3  -6   3   -5.69   15.57
  -3  -6   3   28.17    8.25
   2   6  -3    9.60   13.81
   2   6  -3   23.80   11.20
  -2  -6   3   17.88    7.44
  -2  -6   3   -0.16   13.10
   1   6  -3   20.88   12.72
   1   6  -3    5.83    9.71
  -1  -6   3   16.85   15.05
  -1  -6   3   13.40    7.55
   0   6  -3  154.72   18.87
   0   6  -3  125.17   14.56
   0  -6   3  147.15   16.11
   0  -6   3  131.84   12.07
  -1   6  -3   43.00   12.53
  -1   6  -3   64.41   13.90
   1  -6   3   75.64   13.06
   1  -6   3   71.49   10.39
  -2   6  -3  133.35   16.67
  -2   6  -3  156.38   19.11
   2  -6   3  162.49   15.98
   2  -6   3  159.51   13.92
  -3   6  -3   21.61   13.07
  -3   6  -3   14.03   12.25
   3  -6   3   -1.31    9.32
   3  -6   3   -2.91    7.89
  -4   6  -3  -16.07   11.85
   4  -6   3   -7.17    9.76
   4  -6   3  -19.27    8.62
  -5   6  -3   22.77   15.92
  -5   6  -3   20.53   15.09
   5  -6   3    0.87   10.61
   5  -6   3   36.50   11.33
  -6   6  -3  -17.86   16.79
  -6   6  -3  -18.54   16.94
   6  -6   3   21.64   12.61
   6  -6   3   -3.08   12.30
  -7   6  -3  -23.83   22.78
   7  -6   3   19.71   13.25
   7  -6   3  -22.09   20.72
   8   5  -3   23.61   19.68
   8   5  -3  -34.42   24.87
  -8  -5   3   17.61   17.71
  -8  -5   3   64.33   27.57
   7   5  -3    4.26   19.75
  -7  -5   3  -18.53   15.52
  -7  -5   3   -2.46   18.71
   6   5  -3   11.41   17.93
   6   5  -3   16.63   14.74
  -6  -5   3   21.18   17.07
  -6  -5   3   10.75   14.38
  -6  -5   3    4.75   12.86
   5   5  -3   25.73   13.21
   5   5  -3   -1.32   15.03
  -5  -5   3    2.15   14.71
  -5  -5   3   11.34   15.30
  -5  -5   3   11.48    8.99
   4   5  -3   -7.58   13.68
   4   5  -3    9.72   10.15
  -4  -5   3   -3.43    8.03
  -4  -5   3   10.46   13.68
  -4  -5   3  -10.34   13.57
   3   5  -3    8.78   12.13
   3   5  -3   14.35    8.85
  -3  -5   3    3.97    7.74
  -3  -5   3  -14.33   14.15
   2   5  -3   45.26   11.37
   2   5  -3   60.05   13.46
  -2  -5   3   63.22    9.21
  -2  -5   3   54.62   13.34
   1   5  -3   64.64   12.83
   1   5  -3   63.78   11.04
  -1  -5   3   72.53   13.81
  -1  -5   3   66.11    9.24
   0   5  -3  131.91   14.46
   0   5  -3  150.90   16.80
   0  -5   3  144.38   15.82
   0  -5   3  145.21   12.31
  -1   5  -3   44.68   11.76
  -1   5  -3   39.33   11.04
   1  -5   3   53.85   11.17
   1  -5   3   62.70    9.34
  -2   5  -3  106.69   14.47
  -2   5  -3  137.00   15.56
   2  -5   3  114.82   12.16
   2  -5   3  123.24   13.75
  -3   5  -3   23.75   10.87
   3  -5   3   20.29    8.65
   3  -5   3   32.78   10.13
  -4   5  -3   15.16   12.41
  -4   5  -3   20.38   12.42
   4  -5   3   46.24   10.40
   4  -5   3   25.39   10.24
  -5   5  -3   -3.65   13.29
  -5   5  -3    3.97   13.49
   5  -5   3    4.16   10.08
   5  -5   3    3.79    9.76
  -6   5  -3   -6.85   14.91
  -6   5  -3    7.89   14.10
   6  -5   3   23.27   12.21
   6  -5   3    3.41   11.11
  -7   5  -3   24.85   18.55
  -7   5  -3  -12.12   16.76
   7  -5   3   28.98   12.98
   7  -5   3   13.40   16.00
   8  -5   3   17.87   16.11
   8   4  -3   -3.26   15.91
   8   4  -3   26.95   21.22
  -8  -4   3   -5.20   14.81
  -8  -4   3    9.10   21.11
   7   4  -3   17.31   20.99
   7   4  -3   11.10   14.76
  -7  -4   3    9.73   18.63
  -7  -4   3   14.72   12.98
   6   4  -3   27.99   13.93
   6   4  -3   14.77   16.00
  -6  -4   3   60.58   16.59
  -6  -4   3   33.93   11.96
  -6  -4   3   27.86   19.13
   5   4  -3  -13.96    9.31
  -5  -4   3  -14.85   13.19
  -5  -4   3    3.97   14.45
  -5  -4   3   -4.34    8.07
   4   4  -3    8.11    9.00
   4   4  -3   13.92   12.14
  -4  -4   3   11.98   13.99
  -4  -4   3    1.49    7.87
  -4  -4   3  -15.92   11.46
   3   4  -3   64.29   11.45
   3   4  -3   56.47   12.64
  -3  -4   3   66.90   15.01
  -3  -4   3   46.41    8.99
   2   4  -3  275.81   19.10
   2   4  -3  271.91   17.71
  -2  -4   3  268.49   19.13
  -2  -4   3  270.76   15.79
   1   4  -3   70.77   12.41
   1   4  -3   74.13   10.33
  -1  -4   3   76.77   11.96
  -1  -4   3   76.43    9.55
   0   4  -3   99.68   11.72
   0   4  -3   76.61   11.81
   0  -4   3   91.48   10.18
   0  -4   3   79.66   11.18
  -1   4  -3  113.65   13.59
  -1   4  -3  135.96   13.19
   1  -4   3  131.27   13.16
   1  -4   3  120.80   11.51
  -2   4  -3   26.10   11.03
  -2   4  -3   27.27    9.38
   2  -4   3   25.21    7.85
   2  -4   3   42.16    9.86
  -3   4  -3  -15.29    8.57
  -3   4  -3  -12.24    9.04
   3  -4   3    6.35    7.85
   3  -4   3   13.40    7.35
  -4   4  -3   44.16   11.73
  -4   4  -3   54.62   12.79
   4  -4   3   47.57   10.24
   4  -4   3   32.92    9.97
  -5   4  -3   23.10   12.13
  -5   4  -3   44.66   12.39
   5  -4   3   33.91   10.68
   5  -4   3   28.54   10.72
  -6   4  -3   45.74   14.20
  -6   4  -3   29.25   13.53
   6  -4   3   23.55   11.52
   6  -4   3   15.67   11.34
  -7   4  -3   25.51   14.68
  -7   4  -3    5.51   16.53
   7  -4   3   12.13   11.92
   7  -4   3   15.75   14.59
  -8   4  -3    2.86   21.13
  -8   4  -3   17.83   19.19
   8  -4   3   14.41   13.93
   8  -4   3   37.71   17.89
  -9  -3   3   67.14   25.65
   8   3  -3   28.32   19.93
   8   3  -3  -36.32   16.74
  -8  -3   3  -15.95   13.32
  -8  -3   3  -17.15   22.55
   7   3  -3   53.10   18.24
   7   3  -3   -1.16   14.33
  -7  -3   3    1.75   12.43
  -7  -3   3  -18.03   19.04
   6   3  -3   53.20   12.46
   6   3  -3   -6.13   14.65
  -6  -3   3    0.21   10.84
  -6  -3   3    7.97   17.09
  -6  -3   3   24.80   16.22
   5   3  -3   22.36   15.01
   5   3  -3   11.89   11.01
  -5  -3   3   -0.77   15.10
  -5  -3   3   15.18   14.66
  -5  -3   3   33.87   10.12
   4   3  -3   -3.89    7.94
   4   3  -3   -1.22   11.94
  -4  -3   3   -5.28   10.23
  -4  -3   3   -1.87    7.60
  -4  -3   3   -9.20   13.25
   3   3  -3   84.22   12.92
   3   3  -3   90.95   11.35
  -3  -3   3   98.75   13.80
  -3  -3   3  103.50   14.48
  -3  -3   3   96.56   10.18
   2   3  -3   21.13    9.74
   2   3  -3   21.32    7.57
  -2  -3   3   21.04   11.10
  -2  -3   3   23.07    7.31
   1   3  -3  791.73   34.55
   1   3  -3  796.24   33.48
  -1  -3   3  820.18   33.43
  -1  -3   3  744.54   34.21
   0   3  -3  162.34   14.91
   0   3  -3  161.08   12.33
   0  -3   3  161.57   11.59
  -1   3  -3 1692.51   65.42
  -1   3  -3 1639.70   64.72
   1  -3   3 1668.46   64.63
   1  -3   3 1700.36   64.80
  -2   3  -3  280.54   16.03
  -2   3  -3  290.63   18.71
   2  -3   3  289.27   16.73
   2  -3   3  278.66   16.67
  -3   3  -3   80.41   11.96
  -3   3  -3   81.38   10.81
   3  -3   3   76.92   10.28
   3  -3   3   99.66   11.87
  -4   3  -3   60.77   10.26
  -4   3  -3   71.91   12.04
   4  -3   3   67.08   11.38
   4  -3   3   66.21   10.75
  -5   3  -3   69.32   13.10
  -5   3  -3   41.20   11.34
   5  -3   3   36.14    9.30
   5  -3   3   48.72   13.31
  -6   3  -3   28.92   11.94
  -6   3  -3   34.90   11.69
   6  -3   3   14.57   11.38
   6  -3   3   37.08   11.11
  -7   3  -3  -10.58   15.21
  -7   3  -3  -27.69   13.59
   7  -3   3    3.81   11.98
   7  -3   3    2.45   12.27
  -8   3  -3   -6.19   15.45
  -8   3  -3  -33.63   16.01
   8  -3   3   34.35   15.65
   8  -3   3   67.90   16.15
  -9   3  -3   29.35   24.08
   9  -3   3  -27.22   24.41
  10   2  -3   55.93   47.04
   9   2  -3   25.39   24.04
  -9  -2   3  -38.01   25.07
   8   2  -3   -6.43   19.04
   8   2  -3   26.84   17.81
  -8  -2   3    2.76   15.30
  -8  -2   3   -4.42   20.98
   7   2  -3   -3.96   16.30
   7   2  -3   -2.08   13.23
  -7  -2   3  -30.49   11.31
  -7  -2   3  -13.00   15.82
   6   2  -3   28.41   14.52
   6   2  -3   43.36   12.60
  -6  -2   3   20.13   10.14
  -6  -2   3   61.58   18.18
   5   2  -3    4.23   11.37
   5   2  -3   -0.34    8.54
  -5  -2   3    5.76   10.45
  -5  -2   3   10.31   15.21
  -5  -2   3   21.08   12.47
   4   2  -3   12.56    7.63
   4   2  -3    2.53    9.68
  -4  -2   3    6.66   10.39
  -4  -2   3   12.19    6.77
  -4  -2   3    8.83   15.19
   3   2  -3   19.64    7.35
   3   2  -3   24.80    9.70
  -3  -2   3   33.52   13.69
  -3  -2   3   28.37    7.23
  -3  -2   3   21.68    9.89
   2   2  -3  105.65   12.24
   2   2  -3  108.53   10.45
  -2  -2   3  108.53   12.12
  -2  -2   3   91.34    9.50
   1   2  -3  524.42   24.47
   1   2  -3  506.79   23.52
  -1  -2   3  494.91   24.41
  -1  -2   3  528.96   23.27
   0   2  -3  127.52   10.97
   0   2  -3  142.85   12.49
   0  -2   3  132.27   12.13
   0  -2   3  122.81   10.60
  -1   2  -3    4.15    8.62
  -1   2  -3    7.47    7.48
   1  -2   3    6.50    7.33
   1  -2   3   -0.31    6.74
  -2   2  -3   75.72    9.51
  -2   2  -3   86.55   11.56
   2  -2   3   87.83   10.66
   2  -2   3   89.28   10.51
  -3   2  -3   67.06   10.30
  -3   2  -3   56.70    8.20
   3  -2   3   61.04   10.13
   3  -2   3   57.19    9.23
  -4   2  -3   15.21    6.87
  -4   2  -3   10.77    9.03
   4  -2   3   13.25    8.07
   4  -2   3   12.63    7.19
  -5   2  -3    6.31    9.93
  -5   2  -3   -4.95    8.76
   5  -2   3    1.13    7.64
   5  -2   3   10.23    8.69
  -6   2  -3    3.85   10.59
  -6   2  -3    9.53   11.99
   6  -2   3    9.16   10.52
   6  -2   3   12.38    9.74
  -7   2  -3   11.86   12.91
  -7   2  -3   20.83   13.54
   7  -2   3    9.08   11.83
   7  -2   3    5.30   12.05
  -8   2  -3   11.33   16.62
  -8   2  -3   28.56   16.30
   8  -2   3    2.23   13.62
   8  -2   3    5.21   14.47
  -9   2  -3   13.91   22.30
   9  -2   3   26.08   18.67
   9  -2   3   33.65   39.38
   9  -2   3   23.19   17.48
 -10   2  -3   38.27   36.21
  10   1  -3  -12.50   27.81
 -10  -1   3    2.50   33.13
   9   1  -3  -30.48   21.35
  -9  -1   3   18.28   25.60
   8   1  -3  -50.26   33.80
   8   1  -3  -17.58   17.99
   8   1  -3  -35.71   15.23
  -8  -1   3   22.46   14.66
  -8  -1   3   22.05   20.22
   7   1  -3  -17.23   15.18
   7   1  -3   11.42   11.19
   7   1  -3   -7.87   27.36
  -7  -1   3    6.34   15.36
  -7  -1   3   -9.35   11.13
   6   1  -3   12.66   10.81
   6   1  -3  -11.24   12.22
   6   1  -3   17.18   23.93
  -6  -1   3   18.99   15.54
  -6  -1   3   11.32    9.39
  -6  -1   3   -4.53   12.98
   5   1  -3   23.89   11.52
   5   1  -3   17.91    8.74
  -5  -1   3   38.97   18.03
  -5  -1   3   21.44   12.25
   4   1  -3   -0.88    6.45
   4   1  -3    8.12   10.44
  -4  -1   3   -2.22    9.47
  -4  -1   3   15.16   15.43
  -4  -1   3   -4.78    5.43
   3   1  -3  109.56   12.60
   3   1  -3  114.77   10.36
  -3  -1   3  118.95   12.83
  -3  -1   3  106.14   17.26
  -3  -1   3  124.16   10.03
   2   1  -3  297.24   16.78
   2   1  -3  268.86   15.35
  -2  -1   3  271.57   16.77
  -2  -1   3  257.70   14.74
  -2  -1   3  304.36   20.15
   1   1  -3   34.31    7.66
   1   1  -3   33.83    8.71
  -1  -1   3   34.50    9.03
  -1  -1   3   39.51    6.99
   0   1  -3  916.58   36.81
   0   1  -3  893.27   37.03
   0  -1   3  926.66   36.65
   0  -1   3  912.68   37.06
  -1   1  -3 2655.40   98.79
   1  -1   3 2629.01   98.15
   1  -1   3 2675.08   98.48
  -2   1  -3    7.21    5.82
  -2   1  -3   17.48    7.60
   2  -1   3   12.72    7.27
   2  -1   3    4.95    5.98
  -3   1  -3   -0.11    6.89
  -3   1  -3    8.31    6.84
   3  -1   3   -1.56    6.34
   3  -1   3   11.10    6.90
  -4   1  -3  289.43   18.02
  -4   1  -3  262.50   15.53
   4  -1   3  273.17   16.32
   4  -1   3  278.66   17.05
  -5   1  -3    8.83    8.34
  -5   1  -3   13.94    9.27
   5  -1   3   10.76    7.95
   5  -1   3    4.50    7.43
  -6   1  -3   -1.23    8.54
  -6   1  -3   10.03   10.44
   6  -1   3    9.58    9.35
   6  -1   3   -5.49   14.20
  -7   1  -3   -2.86   12.96
  -7   1  -3  -24.38   11.87
   7  -1   3    8.46   11.81
   7  -1   3   -1.81   11.56
  -8   1  -3   19.13   14.82
  -8   1  -3   43.67   17.40
   8  -1   3   15.23   13.90
   8  -1   3  -13.81   13.03
  -9   1  -3  -16.01   21.95
  -9   1  -3  -33.94   16.87
   9  -1   3   -1.10   17.44
   9  -1   3   55.93   21.32
   9  -1   3   61.98   35.07
 -10   1  -3  -13.10   25.19
  10  -1   3  113.31   50.32
  10  -1   3   -4.32   23.54
 -10   0   3   35.92   34.96
   9   0  -3   44.70   23.43
  -9   0   3   38.60   28.50
   8   0  -3  -33.74   16.11
   8   0  -3   -0.29   15.32
   8   0  -3  -54.93   33.91
  -8   0   3  -20.16   20.93
  -8   0   3   13.94   13.15
   7   0  -3   22.97   11.90
   7   0  -3    4.61   28.96
   7   0  -3   -8.71   14.81
  -7   0   3   -3.06   14.07
  -7   0   3    2.11    9.99
   6   0  -3   85.42   27.69
   6   0  -3   76.43   11.71
   6   0  -3   61.87   14.85
  -6   0   3   59.98   12.02
  -6   0   3   67.16   14.48
   5   0  -3  196.28   27.66
   5   0  -3  222.61   19.02
   5   0  -3  216.10   16.17
  -5   0   3  232.03   17.86
  -5   0   3  273.99   24.05
   4   0  -3   28.85    7.37
   4   0  -3   65.91   20.71
   4   0  -3   27.46    9.99
  -4   0   3   27.74   16.11
  -4   0   3   22.95    7.44
  -4   0   3   31.19    9.50
   3   0  -3  282.24   16.29
   3   0  -3  308.26   17.46
   3   0  -3  361.73   25.03
  -3   0   3  308.21   15.69
  -3   0   3  286.98   24.62
  -3   0   3  300.46   17.37
   2   0  -3    4.46    5.63
   2   0  -3    1.69    6.77
  -2   0   3    3.22    7.08
  -2   0   3    1.66    5.31
  -2   0   3   12.76   13.88
   1   0  -3   80.35    9.57
   1   0  -3   74.23    8.46
  -1   0   3   64.04    8.06
  -1   0   3   85.72    9.22
   0   0  -3  150.95   10.94
   0   0  -3  141.07   10.37
   0   0   3  148.64   11.76
   0   0   3  138.11   10.12
  -1   0  -3  422.39   18.99
  -1   0  -3  425.09   19.80
   1   0   3  425.82   18.91
   1   0   3  403.61   19.23
  -2   0  -3    0.27    6.59
  -2   0  -3    2.88    5.56
   2   0   3   -0.83    6.30
   2   0   3    1.71    5.89
  -3   0  -3   34.37    7.62
  -3   0  -3   32.21    7.97
   3   0   3   35.15    8.00
   3   0   3   38.01    7.56
  -4   0  -3  370.08   19.36
  -4   0  -3  346.24   18.22
   4   0   3  339.23   18.60
   4   0   3  334.62   17.73
  -5   0  -3    6.92   10.08
  -5   0  -3    8.66    7.80
   5   0   3   12.39    8.44
   5   0   3   13.79    8.79
  -6   0  -3  -18.01    8.63
  -6   0  -3   -1.97    9.35
   6   0   3   -1.65    8.39
   6   0   3   15.59    9.86
  -7   0  -3   13.36   12.25
  -7   0  -3    5.83   11.36
   7   0   3   13.74    9.78
   7   0   3    6.49   10.59
  -8   0  -3    4.00   12.38
   8   0   3   36.78   13.99
   8   0   3   13.31   14.07
  -9   0  -3   31.13   17.09
  -9   0  -3    1.26   18.39
   9   0   3  -36.82   15.10
   9   0   3   -7.18   16.19
   9   0   3   41.10   33.98
 -10   0  -3   23.41   25.73
  10   0   3   60.82   40.70
  10   0   3    8.97   26.14
 -11   0  -3   25.64   29.98
  11   0   3  -42.55   52.57
   9  -1  -3   27.67   22.30
   9  -1  -3   -6.36   47.38
  -9   1   3   -0.20   26.62
   8  -1  -3  -52.13   36.48
   8  -1  -3   14.55   16.97
  -8   1   3    9.84   14.79
  -8   1   3   -2.20   23.90
   7  -1  -3   -5.10   10.39
   7  -1  -3   12.22   14.34
   7  -1  -3    4.48   33.33
  -7   1   3   18.55   12.64
  -7   1   3   17.41   15.48
   6  -1  -3   50.12   51.18
   6  -1  -3   45.43   14.37
   6  -1  -3   60.60   10.83
  -6   1   3   51.23   13.22
  -6   1   3   36.28   10.23
   5  -1  -3  415.09   21.20
   5  -1  -3  384.53   35.64
   5  -1  -3  392.55   23.04
  -5   1   3  378.52   23.34
  -5   1   3  422.08   29.63
   4  -1  -3    2.44    8.47
   4  -1  -3    5.86    5.53
   4  -1  -3    9.83   19.75
  -4   1   3    7.92   14.39
  -4   1   3    5.32    8.39
  -4   1   3    0.01    5.51
   3  -1  -3  450.71   20.24
   3  -1  -3  445.44   21.57
   3  -1  -3  429.75   29.68
  -3   1   3  435.35   19.99
  -3   1   3  437.00   28.93
  -3   1   3  430.23   21.02
   2  -1  -3  250.84   13.81
   2  -1  -3  298.39   23.79
   2  -1  -3  253.72   14.24
  -2   1   3  228.40   21.45
  -2   1   3  253.23   13.49
  -2   1   3  266.81   14.93
   1  -1  -3  769.89   30.36
   1  -1  -3  744.98   30.90
  -1   1   3  770.10   30.51
  -1   1   3  748.52   36.31
  -1   1   3  789.05   31.24
   0  -1  -3   35.95    6.32
   0  -1  -3   38.94    7.27
   0   1   3   31.72    5.89
  -1  -1  -3  243.70   13.97
  -1  -1  -3  264.33   12.89
   1   1   3  250.50   13.21
   1   1   3  257.39   13.60
  -2  -1  -3    9.95    6.33
  -2  -1  -3    4.86    5.06
   2   1   3    3.09    6.02
   2   1   3    4.99    5.22
  -3  -1  -3  118.15   10.81
  -3  -1  -3  124.50   10.31
   3   1   3  112.81   10.33
   3   1   3  122.87   10.57
  -4  -1  -3  136.41   12.34
  -4  -1  -3  139.93   10.62
   4   1   3  132.21   10.88
   4   1   3  120.83   11.63
  -5  -1  -3  176.97   13.51
  -5  -1  -3  213.69   15.66
   5   1   3  184.95   14.73
   5   1   3  203.42   13.98
  -6  -1  -3    2.58   10.34
  -6  -1  -3    7.80    9.22
   6   1   3   16.32    9.18
   6   1   3   13.72    9.20
  -7  -1  -3    6.55   10.65
  -7  -1  -3   15.93   13.37
   7   1   3    8.35   10.31
   7   1   3   -9.92    9.80
  -8  -1  -3   -2.92   15.25
  -8  -1  -3   16.24   12.89
   8   1   3  -12.94   11.94
   8   1   3   -3.32   13.50
  -9  -1  -3   -4.29   14.02
  -9  -1  -3   46.07   19.10
   9   1   3   12.96   19.23
   9   1   3   19.94   14.72
   9   1   3   20.95   30.62
 -10  -1  -3   20.91   25.32
  10   1   3   31.63   24.97
  10   1   3   23.09   38.99
 -11  -1  -3    7.65   30.89
  11   1   3   -5.99   32.76
   9  -2  -3    4.46   20.32
   9  -2  -3   56.45   51.82
  -9   2   3  -52.63   23.87
   8  -2  -3   10.20   17.12
   8  -2  -3   30.56   15.12
   8  -2  -3  -31.74   35.01
  -8   2   3   18.65   15.23
  -8   2   3    3.13   21.04
   7  -2  -3   -5.67   13.88
   7  -2  -3   18.99   31.72
   7  -2  -3    4.11   10.04
  -7   2   3    8.84   15.40
  -7   2   3  -13.04   11.44
   6  -2  -3  -11.16   29.63
   6  -2  -3   -6.56    7.51
   6  -2  -3  -13.46   10.68
  -6   2   3    6.34   12.41
  -6   2   3    9.72    9.77
   5  -2  -3   19.72   10.07
   5  -2  -3   -1.02    5.84
   5  -2  -3    7.08   24.45
  -5   2   3   14.99    9.46
   4  -2  -3   35.46    9.17
   4  -2  -3   35.97    6.67
   4  -2  -3   23.19   21.81
  -4   2   3   29.16    7.13
  -4   2   3   38.45    9.14
  -4   2   3   12.11   15.75
   3  -2  -3  143.92   25.79
   3  -2  -3   78.56    8.17
   3  -2  -3  102.51   10.43
  -3   2   3   93.31   10.52
  -3   2   3   89.65    8.23
  -3   2   3  106.28   16.49
   2  -2  -3  488.19   21.61
   2  -2  -3  491.46   20.90
   2  -2  -3  469.87   29.49
  -2   2   3  515.38   21.88
  -2   2   3  476.91   29.12
  -2   2   3  505.69   20.78
   1  -2  -3    6.46    4.63
   1  -2  -3    1.10    5.23
   1  -2  -3    6.51   15.11
  -1   2   3    3.70    5.52
  -1   2   3   -0.83   15.87
  -1   2   3    2.89    4.20
   0  -2  -3   57.68    6.75
   0  -2  -3   63.61    7.37
   0   2   3   57.95    7.15
   0   2   3   83.04   14.25
   0   2   3   53.80    6.74
  -1  -2  -3  703.05   27.77
  -1  -2  -3  733.21   28.38
   1   2   3  719.34   28.48
   1   2   3  682.89   27.69
  -2  -2  -3  394.75   17.77
  -2  -2  -3  417.86   18.87
   2   2   3  399.25   17.71
   2   2   3  406.20   18.76
  -3  -2  -3   94.03    9.96
  -3  -2  -3   98.43    8.39
   3   2   3   98.63    9.69
   3   2   3   93.13    8.67
  -4  -2  -3    1.65    8.22
  -4  -2  -3    1.99    5.55
   4   2   3   19.80    7.97
   4   2   3   -0.97    6.02
  -5  -2  -3  160.59   14.14
  -5  -2  -3  166.63   12.18
   5   2   3  177.05   14.80
   5   2   3  142.64   12.62
  -6  -2  -3   -7.52    9.30
  -6  -2  -3   15.61    9.00
   6   2   3   10.19    8.10
   6   2   3   -2.13    7.90
  -7  -2  -3   24.58   12.52
  -7  -2  -3   23.92   11.61
   7   2   3   33.17   22.47
   7   2   3    5.24   10.78
  -8  -2  -3   -1.41   13.74
  -8  -2  -3  -14.75   12.73
   8   2   3  -29.01   13.79
   8   2   3    9.18   19.88
   8   2   3   -0.77   12.53
  -9  -2  -3   15.36   15.76
  -9  -2  -3   -3.07   16.82
   9   2   3    9.31   31.36
   9   2   3   13.95   16.46
   9   2   3  -14.44   16.29
 -10  -2  -3   -9.67   21.03
  10   2   3   -1.10   23.18
  10   2   3   44.50   36.03
 -11  -2  -3   33.83   33.48
  11   2   3  -21.20   30.86
   8  -3  -3    5.97   17.21
   8  -3  -3   19.88   39.76
   8  -3  -3    7.97   14.19
  -8   3   3    9.26   15.52
  -8   3   3   17.97   20.64
   7  -3  -3   -4.86   13.69
   7  -3  -3   24.49   34.61
   7  -3  -3    8.91    9.86
  -7   3   3   -9.92   11.53
  -7   3   3    6.36   16.49
   6  -3  -3   84.12   13.88
   6  -3  -3   87.27   11.20
   6  -3  -3   71.45   33.10
  -6   3   3   71.32   12.11
  -6   3   3   74.08   14.94
   5  -3  -3   -2.14    6.11
   5  -3  -3   -2.80    9.18
   5  -3  -3   39.58   33.31
  -5   3   3    1.26    9.08
  -5   3   3   -4.44    8.17
   4  -3  -3  197.61   29.45
   4  -3  -3  239.46   13.17
   4  -3  -3  217.49   15.29
  -4   3   3  231.86   14.78
  -4   3   3  232.12   13.17
   3  -3  -3   15.20    6.66
   3  -3  -3   37.97   21.89
   3  -3  -3   15.76    5.02
  -3   3   3   23.28    5.31
  -3   3   3   23.59   15.91
  -3   3   3   26.33    6.88
   2  -3  -3   16.63    5.50
   2  -3  -3   18.41    4.46
   2  -3  -3   19.77   19.11
  -2   3   3   21.44    4.46
  -2   3   3   17.51   15.44
  -2   3   3   22.44    6.54
   1  -3  -3   34.26    5.40
   1  -3  -3   28.04    4.50
   1  -3  -3   27.12   15.97
  -1   3   3   25.06    4.31
  -1   3   3   30.19   14.99
   0  -3  -3  149.90    8.55
   0  -3  -3  150.72    8.53
   0  -3  -3  167.28   18.10
   0   3   3  146.48    8.75
   0   3   3  128.78   17.38
  -1  -3  -3  536.65   22.35
  -1  -3  -3  559.25   22.11
   1   3   3  549.64   27.03
   1   3   3  572.56   22.09
   1   3   3  551.46   22.51
  -2  -3  -3  230.60   11.82
  -2  -3  -3  233.75   11.93
   2   3   3  213.95   11.53
   2   3   3  218.96   12.00
  -3  -3  -3   70.64    8.86
  -3  -3  -3   70.58    8.21
   3   3   3   76.68    7.86
   3   3   3   60.34    8.21
  -4  -3  -3   14.85    8.26
  -4  -3  -3   11.12    5.56
   4   3   3   13.45    6.39
   4   3   3    7.38    6.87
  -5  -3  -3   25.29    6.63
  -5  -3  -3    8.26    8.79
   5   3   3   17.27    8.51
   5   3   3   15.12    8.68
  -6  -3  -3    3.62    7.40
  -6  -3  -3    5.70   10.07
   6   3   3    0.46    9.00
   6   3   3   12.28   10.18
  -7  -3  -3    9.54    8.95
   7   3   3  -20.90   10.59
   7   3   3   -1.57   10.37
  -8  -3  -3   -1.76   14.38
  -8  -3  -3    6.17   12.51
   8   3   3    2.24   13.06
   8   3   3   12.76   12.58
   8   3   3   21.16   19.42
  -9  -3  -3    1.58   13.05
   9   3   3  -12.09   16.88
   9   3   3    9.78   25.01
   9   3   3   10.62   16.05
 -10  -3  -3   32.23   23.89
  10   3   3   18.64   22.74
  10   3   3  -44.60   33.78
  10   3   3   -3.88   21.26
   8  -4  -3   -8.00   16.96
   8  -4  -3   19.46   15.24
   8  -4  -3   41.85   45.93
  -8   4   3   60.33   18.54
  -8   4   3   -1.61   22.26
   7  -4  -3   56.10   34.31
   7  -4  -3   -3.37   10.15
   7  -4  -3   26.67   14.03
  -7   4   3   -4.04   15.39
  -7   4   3    5.97   12.63
   6  -4  -3   99.19   11.68
   6  -4  -3  114.95   15.01
   6  -4  -3  111.32   37.01
  -6   4   3  107.96   15.18
  -6   4   3   81.80   12.84
   5  -4  -3   31.08   10.16
   5  -4  -3   19.13   29.09
   5  -4  -3   29.37    6.89
  -5   4   3   15.18    8.16
  -5   4   3   21.59    9.79
   4  -4  -3   26.49   25.68
   4  -4  -3  -11.24    6.85
   4  -4  -3    5.79    4.95
  -4   4   3    1.98    5.59
  -4   4   3   15.64    7.17
   3  -4  -3   75.22    8.88
   3  -4  -3  113.36   27.63
   3  -4  -3   74.51    7.30
  -3   4   3   86.07    9.31
  -3   4   3   72.51    7.08
   2  -4  -3   75.97   22.53
   2  -4  -3   55.39    6.68
  -2   4   3   59.90    5.32
  -2   4   3   89.34   18.22
   1  -4  -3   90.30    6.09
   1  -4  -3  105.37    5.56
   1  -4  -3  128.99   21.52
  -1   4   3  100.45    6.70
  -1   4   3  102.30    5.79
  -1   4   3  119.79   16.74
   0  -4  -3  118.70   16.77
   0  -4  -3  126.41    6.66
   0  -4  -3  125.20    6.10
   0   4   3  128.88   15.54
   0   4   3  126.29    6.45
   0   4   3  135.81    7.12
  -1  -4  -3   17.30    4.08
  -1  -4  -3   40.13   13.16
  -1  -4  -3   14.93    4.03
   1   4   3   13.38    4.31
   1   4   3   32.20   11.83
  -2  -4  -3 1180.90   42.34
  -2  -4  -3 1094.57   42.29
   2   4   3 1097.11   42.19
   2   4   3 1041.45   45.01
   2   4   3 1151.47   42.82
  -3  -4  -3   17.87    6.69
  -3  -4  -3   15.83    4.88
   3   4   3    8.36    5.78
   3   4   3   19.47    6.07
  -4  -4  -3 1152.25   46.40
  -4  -4  -3 1196.88   46.16
   4   4   3 1151.05   46.65
   4   4   3 1175.85   46.18
  -5  -4  -3   52.04   11.05
  -5  -4  -3   62.75    8.80
   5   4   3   54.47    9.79
   5   4   3   44.69    9.16
  -6  -4  -3  101.44   12.45
  -6  -4  -3  106.73   15.25
   6   4   3  121.63   15.26
   6   4   3  104.56   13.94
  -7  -4  -3    0.69    8.80
  -7  -4  -3   26.69   12.61
   7   4   3   17.10   14.19
   7   4   3   -1.96   10.46
  -8  -4  -3  -20.40   13.46
  -8  -4  -3    6.37   11.61
   8   4   3  -10.15   11.76
   8   4   3   12.53   18.48
   8   4   3   25.48   14.40
  -9  -4  -3  -19.18   15.67
  -9  -4  -3   11.15   14.82
   9   4   3   -5.43   17.74
   9   4   3   -1.72   15.00
   9   4   3   11.69   22.58
 -10  -4  -3    8.55   23.49
 -10  -4  -3  -11.86   20.20
  10   4   3   -4.99   19.55
  10   4   3  -16.17   21.17
  10   4   3    9.56   29.47
   8  -5  -3  -35.28   16.82
  -8   5   3    2.07   20.69
   7  -5  -3   52.73   40.83
   7  -5  -3   27.50   10.63
   7  -5  -3   23.36   15.04
  -7   5   3    1.02   16.97
  -7   5   3  -14.07   13.13
   6  -5  -3   20.56   11.78
   6  -5  -3   -4.08   33.65
   6  -5  -3    4.72    8.02
  -6   5   3  -11.45   12.09
  -6   5   3   12.68   10.24
   5  -5  -3   16.97    9.05
   5  -5  -3   46.51   33.62
   5  -5  -3   14.26    6.62
  -5   5   3    7.38   10.31
  -5   5   3   17.31    7.82
   4  -5  -3  365.65   37.46
   4  -5  -3  306.26   16.95
   4  -5  -3  314.19   16.29
  -4   5   3  323.24   16.08
  -4   5   3  333.61   18.98
   3  -5  -3    5.72    5.26
   3  -5  -3    7.28    5.26
   3  -5  -3    7.72   23.53
  -3   5   3    3.75    4.00
   2  -5  -3  307.06   12.55
   2  -5  -3  300.89   27.32
   2  -5  -3  314.55   12.39
  -2   5   3  314.66   12.81
  -2   5   3  308.47   13.45
   1  -5  -3  129.84   21.41
   0  -5  -3   97.65   19.67
   0   5   3  117.94   17.59
   0   5   3   69.27    4.42
   0   5   3   74.50    3.75
  -1  -5  -3    5.17    3.19
  -1  -5  -3    6.29   12.36
   1   5   3    4.76    3.70
   1   5   3    9.11   10.46
  -2  -5  -3   15.64    5.08
  -2  -5  -3   41.69   11.44
  -2  -5  -3   12.94    4.28
   2   5   3   10.67    8.45
   2   5   3   18.34    4.86
   2   5   3   22.78    5.39
  -3  -5  -3   67.25    8.08
  -3  -5  -3   56.92    6.72
   3   5   3   52.32    6.97
   3   5   3   46.93    7.51
   3   5   3   62.00    7.66
  -4  -5  -3  175.37   12.56
  -4  -5  -3  165.31   11.29
   4   5   3  165.37   12.79
   4   5   3  168.13   11.97
  -5  -5  -3  -12.52    7.49
  -5  -5  -3    2.49    6.62
   5   5   3   -3.42    7.49
   5   5   3    1.90    8.44
  -6  -5  -3   55.80   11.08
   6   5   3   43.84   11.02
   6   5   3   42.16   10.79
   6   5   3   47.39    8.66
  -7  -5  -3   19.08   13.21
  -7  -5  -3    5.39   10.47
   7   5   3  -10.30   11.03
   7   5   3    2.84   11.23
   7   5   3   -3.57   12.75
  -8  -5  -3   -3.63   15.76
  -8  -5  -3   -3.58   12.17
   8   5   3   -1.89   14.59
   8   5   3   -9.40   12.54
   8   5   3  -12.03   12.92
  -9  -5  -3   25.28   18.01
  -9  -5  -3    0.98   13.82
   9   5   3    8.73   15.86
   9   5   3   -1.03   18.42
   9   5   3  -21.31   15.63
 -10  -5  -3   10.03   19.66
 -10  -5  -3   33.31   22.30
  10   5   3   11.55   25.62
  10   5   3  -14.49   18.90
   8  -6  -3   10.06   18.13
   7  -6  -3    4.96   15.05
   7  -6  -3   66.07   46.93
   7  -6  -3    6.27   11.60
  -7   6   3    8.89   20.09
  -7   6   3   18.78   15.72
   6  -6  -3   -4.09    8.86
   6  -6  -3   18.42   11.63
   6  -6  -3   30.03   33.56
  -6   6   3    4.59   13.33
  -6   6   3   -3.72   11.94
   5  -6  -3   -8.02    8.57
   5  -6  -3   38.44   31.25
  -5   6   3   -5.47   12.06
  -5   6   3  -16.79    7.85
   4  -6  -3   46.14    7.60
   4  -6  -3   39.22    7.67
   4  -6  -3   63.46   32.44
  -4   6   3   34.98    7.19
   3  -6  -3    3.70    3.44
   3  -6  -3    8.82   33.47
   3  -6  -3    3.32    3.74
  -3   6   3    4.22    4.68
  -3   6   3    3.93    4.35
   2  -6  -3   29.50   23.19
   1  -6  -3   31.11   20.76
   0  -6  -3  127.60   19.35
  -1  -6  -3  239.54   10.71
  -1  -6  -3  233.00   20.79
  -1  -6  -3  251.71   10.96
   1   6   3  254.12   10.81
   1   6   3  242.42   11.34
  -2  -6  -3    8.03    5.09
  -2  -6  -3    6.25    3.83
  -2  -6  -3    1.98   11.23
   2   6   3    2.56    4.65
   2   6   3    1.90    4.78
  -3  -6  -3   21.23    5.32
  -3  -6  -3   25.47    6.81
   3   6   3   31.43    6.78
   3   6   3   23.22    6.42
  -4  -6  -3   14.74    5.80
  -4  -6  -3   18.29    8.28
   4   6   3   11.41    7.43
   4   6   3   22.78    7.66
  -5  -6  -3   38.56   11.41
  -5  -6  -3   54.18    8.85
   5   6   3   16.67   15.03
   5   6   3   32.34    9.58
  -6  -6  -3   68.47   13.90
  -6  -6  -3   62.33    9.79
   6   6   3   55.06   12.80
   6   6   3   69.36   12.23
  -7  -6  -3   -9.59   12.14
   7   6   3   -3.99   11.91
   7   6   3    1.30   12.29
  -8  -6  -3  -12.01   16.14
  -8  -6  -3   45.11   14.75
   8   6   3   12.78   16.23
   8   6   3   32.87   13.85
  -9  -6  -3  -34.05   18.52
  -9  -6  -3    6.31   17.18
   9   6   3  -11.64   16.54
   9   6   3    2.49   17.41
 -10  -6  -3    4.63   22.63
  10   6   3  -12.32   23.54
   8  -7  -3   20.13   20.02
   7  -7  -3    0.15   15.35
  -7   7   3   30.51   18.40
   6  -7  -3   19.15   12.40
   6  -7  -3  -16.31   38.43
   6  -7  -3   35.88   12.16
  -6   7   3   10.73   14.27
  -6   7   3  -49.41   28.00
   5  -7  -3    8.99    7.40
   5  -7  -3   12.93    7.82
   5  -7  -3   15.94   36.35
  -5   7   3   19.43    9.93
  -5   7   3   -5.88    9.07
   4  -7  -3  -14.22   29.79
  -4   7   3   14.81    6.58
  -4   7   3    5.56    6.80
   3  -7  -3   11.63   28.74
  -3   7   3   29.15    4.37
  -3   7   3   30.75    4.60
   2  -7  -3  -17.43   24.43
   1  -7  -3  158.23   26.88
   0  -7  -3   -3.22   17.02
  -1  -7  -3  333.49   26.54
  -1  -7  -3  378.55   14.99
  -1  -7  -3  380.10   15.34
   1   7   3  414.06   16.26
   1   7   3  381.31   16.09
  -2  -7  -3   -1.02    5.64
  -2  -7  -3    0.46    3.71
  -2  -7  -3    9.21   12.78
   2   7   3   -3.46    5.81
   2   7   3    5.08    5.03
  -3  -7  -3   12.81    4.80
  -3  -7  -3   20.76    7.33
   3   7   3   12.21    6.58
   3   7   3   12.48    6.45
  -4  -7  -3    2.93    5.06
  -4  -7  -3    5.98    7.92
   4   7   3   -3.60    7.60
   4   7   3    5.46    6.86
  -5  -7  -3   39.30    8.42
   5   7   3   32.92   10.81
   5   7   3   68.73   11.85
  -6  -7  -3  108.82   12.34
  -6  -7  -3  109.98   16.29
   6   7   3   85.08   15.07
   6   7   3   98.04   14.91
  -7  -7  -3   11.64   17.73
  -7  -7  -3   23.23   13.37
   7   7   3   18.09   13.54
   7   7   3    9.59   13.77
  -8  -7  -3    5.57   15.60
  -8  -7  -3   18.70   15.18
   8   7   3   26.76   16.36
   8   7   3  -41.90   14.55
  -9  -7  -3   16.61   20.46
  -9  -7  -3  -35.38   17.86
   9   7   3  -14.36   17.93
   9   7   3   29.16   19.70
 -10  -7  -3  -59.81   24.31
  10   7   3  -13.68   25.99
  -7   8   3   20.72   19.43
  -6   8   3   -8.96   15.21
   5  -8  -3   94.81   40.13
  -5   8   3    5.48    7.60
   4  -8  -3   19.70   35.16
  -4   8   3   19.88    6.36
  -4   8   3   16.99    5.25
   3  -8  -3   23.73   33.36
   2  -8  -3   68.02   28.25
   1  -8  -3  100.67   28.20
   0  -8  -3  126.16   25.25
  -1  -8  -3   20.42   19.13
   1   8   3   15.60    4.52
   1   8   3   14.03    4.69
  -2  -8  -3    0.68   15.80
  -2  -8  -3    0.96    6.25
   2   8   3    0.37    8.37
   2   8   3   -8.63    5.25
  -3  -8  -3   47.27   13.42
  -3  -8  -3   33.97    9.31
  -3  -8  -3   46.19    6.70
   3   8   3   30.61    8.57
   3   8   3   44.93    8.37
  -4  -8  -3    1.25    9.61
  -4  -8  -3   12.10    6.20
   4   8   3   -3.32    7.93
   4   8   3   16.02    9.06
  -5  -8  -3   11.42    7.03
  -5  -8  -3   30.38   11.75
   5   8   3   10.75   10.97
   5   8   3   24.59   10.47
  -6  -8  -3   45.67   14.74
  -6  -8  -3   23.16   10.25
   6   8   3   31.64   13.51
   6   8   3   45.53   13.61
  -7  -8  -3    5.23   14.30
  -7  -8  -3   22.92   13.34
   7   8   3  -30.21   14.46
   7   8   3  -26.64   13.36
  -8  -8  -3  -10.75   14.47
  -8  -8  -3   19.25   18.01
   8   8   3  -21.94   18.56
   8   8   3   13.59   16.96
  -9  -8  -3  -40.47   18.08
   9   8   3    5.46   21.07
 -10  -8  -3   -0.95   26.21
  10   8   3   14.50   30.41
  -6   9   3    4.34   15.67
   4  -9  -3   -0.41   39.34
   3  -9  -3   -6.00   33.10
   2  -9  -3    3.17   28.64
   1  -9  -3   71.50   30.77
   0  -9  -3  107.60   30.16
  -1  -9  -3   19.51   21.47
   1   9   3    7.27    5.07
   1   9   3    2.82    4.44
  -2  -9  -3    1.94    7.44
  -2  -9  -3    0.51    5.55
  -2  -9  -3   -5.76   18.04
   2   9   3    7.02    7.07
  -3  -9  -3   51.33   16.73
  -3  -9  -3   59.04    7.63
  -3  -9  -3   65.21   11.42
   3   9   3   58.64   11.08
  -4  -9  -3   11.70    6.22
  -4  -9  -3   -1.12   10.97
   4   9   3   -1.80    9.48
   4   9   3   13.71   10.29
  -5  -9  -3   10.58    7.16
  -5  -9  -3   -0.69   12.48
   5   9   3   -1.09   11.77
   5   9   3    5.08   11.84
  -6  -9  -3   -0.29    9.55
  -6  -9  -3    2.94   13.09
   6   9   3  -10.06   12.87
   6   9   3   18.47   15.62
  -7  -9  -3   30.97   13.64
  -7  -9  -3    0.25   16.52
   7   9   3   -9.68   13.85
   7   9   3  -23.72   16.58
  -8  -9  -3   39.77   17.27
  -8  -9  -3   47.27   20.80
   8   9   3   29.13   34.09
   8   9   3   -6.89   22.33
  -9  -9  -3   17.16   22.52
   9   9   3  -14.33   27.94
 -10  -9  -3   45.21   50.39
   4 -10  -3   49.68   50.41
   3 -10  -3    5.60   35.51
   2 -10  -3   57.18   36.44
   1 -10  -3   16.98   27.87
   0 -10  -3   10.96   26.77
  -1 -10  -3  -19.31   22.88
   1  10   3   -2.96    5.19
   1  10   3    8.36    5.67
  -2 -10  -3    5.56    7.61
  -2 -10  -3    2.31    5.13
  -2 -10  -3   12.18   21.63
   2  10   3    5.13    8.39
   2  10   3   -2.24    8.12
  -3 -10  -3   39.06   18.25
  -3 -10  -3  -13.71    6.03
  -3 -10  -3   -4.88   12.07
   3  10   3  -13.25    9.62
   3  10   3  -10.31   11.71
  -4 -10  -3    2.88   12.53
  -4 -10  -3    4.26    6.58
   4  10   3    9.16   11.41
   4  10   3    9.26   12.28
  -5 -10  -3    8.18    8.41
  -5 -10  -3   13.38   14.97
   5  10   3   -0.83   13.64
   5  10   3    1.00   13.32
  -6 -10  -3   -3.79   15.87
  -6 -10  -3   32.00   11.54
   6  10   3  -34.41   14.50
   6  10   3   -7.38   15.41
  -7 -10  -3   11.54   13.57
  -7 -10  -3   -2.44   18.20
   7  10   3  -10.23   21.78
   7  10   3    0.73   17.87
  -8 -10  -3   58.36   20.80
   8  10   3    6.16   22.86
  -9 -10  -3  -56.95   23.05
   9  10   3   47.82   30.34
   3 -11  -3   -5.71   45.64
   2 -11  -3   44.07   40.10
   1 -11  -3   29.51   34.36
   0 -11  -3   11.49   31.86
  -1 -11  -3   20.00   34.02
   1  11   3   -1.85    5.76
   1  11   3    0.59    5.73
  -2 -11  -3    5.17    5.02
  -2 -11  -3   -2.86    6.37
  -2 -11  -3  -23.23   23.86
   2  11   3    5.79    9.90
   2  11   3    4.86    7.62
  -3 -11  -3    2.39   21.63
  -3 -11  -3   -1.79   12.33
   3  11   3   19.11   15.38
   3  11   3    6.82   12.34
  -4 -11  -3    9.49    7.48
  -4 -11  -3    7.03   14.85
   4  11   3  -17.48   14.01
   4  11   3    5.33   14.94
  -5 -11  -3   15.64    9.62
  -5 -11  -3   -8.92   16.13
   5  11   3   16.57   16.27
   5  11   3  -12.34   15.75
  -6 -11  -3   26.83   17.10
  -6 -11  -3  -12.54   12.55
   6  11   3   13.83   20.14
   6  11   3  -20.88   18.74
  -7 -11  -3   38.57   16.47
   2 -12  -3   97.12   48.24
   1 -12  -3   20.09   41.95
   0 -12  -3   42.70   39.38
  -1 -12  -3   -0.79   34.53
  -2 -12  -3   75.95   33.69
   2  12   3    7.82   12.28
   2  12   3   20.12    8.39
  -3 -12  -3   26.33    9.37
  -3 -12  -3   33.87   26.68
   3  12   3   30.20   15.31
  -4 -12  -3    5.45   16.68
  -4 -12  -3   13.88    8.90
   4  12   3   -7.39   16.41
   4  12   3   -4.47   28.90
  -5 -12  -3   11.98   19.36
   5  12   3   28.43   18.79
  -6 -12  -3   69.66   22.92
   1 -13  -3  108.94   54.49
   0 -13  -3   64.85   47.67
  -1 -13  -3   61.35   45.20
  -2 -13  -3   83.00   40.76
   2  13   3    4.22   13.60
  -3 -13  -3   -8.63   11.81
   3  13   3   -3.03   17.48
  -4 -13  -3   11.41   18.31
   4  13   3    6.55   19.48
  -5 -13  -3    5.21   21.96
  -1 -10   4   43.74   25.72
   0 -10   4   -0.32   20.30
   1 -10   4   -3.15   19.70
   2 -10   4   -9.05   18.99
   3 -10   4  -29.66   19.18
   6   9  -4  -28.66   35.87
  -6  -9   4  -20.90   25.87
   5   9  -4  -36.71   32.21
  -5  -9   4  -25.17   21.63
   4   9  -4   12.93   30.77
  -4  -9   4  -42.70   17.13
   3   9  -4   25.38   28.53
  -3  -9   4  -13.02   23.29
  -3  -9   4   -6.71   17.13
   2   9  -4  -14.81   26.85
   2   9  -4   -9.90   17.51
  -2  -9   4   34.90   21.44
  -2  -9   4   -1.39   12.62
   1   9  -4   16.52   18.26
   1   9  -4   19.33   24.50
  -1  -9   4    1.44   18.20
  -1  -9   4   -0.29   12.09
   0   9  -4    8.07   17.58
   0   9  -4  -14.04   21.45
   0  -9   4   20.43   17.13
   0  -9   4    3.75   11.94
  -1   9  -4   20.02   21.60
  -1   9  -4   -7.90   17.81
   1  -9   4   38.89   17.29
   1  -9   4    7.93   12.13
  -2   9  -4    3.56   19.70
  -2   9  -4   14.06   26.00
   2  -9   4   13.72   16.03
   2  -9   4   14.93   12.72
  -3   9  -4  -20.98   21.46
   3  -9   4   20.39   15.93
   4  -9   4   15.58   16.17
   7   8  -4  -52.49   69.50
  -7  -8   4   16.49   29.33
   6   8  -4   33.72   29.75
  -6  -8   4   -9.07   21.81
   5   8  -4  -39.28   25.44
  -5  -8   4   32.44   42.85
  -5  -8   4   48.76   19.71
   4   8  -4  -56.47   28.32
   4   8  -4   26.43   17.89
  -4  -8   4   46.80   16.71
  -4  -8   4  -18.24   22.19
   3   8  -4  -22.89   35.43
   3   8  -4   -1.60   14.96
  -3  -8   4  -38.32   18.90
  -3  -8   4   12.87   13.41
   2   8  -4   49.98   24.87
   2   8  -4    3.28   14.79
  -2  -8   4    8.82   12.52
   1   8  -4  -20.39   13.03
   1   8  -4  -16.20   21.99
  -1  -8   4   -3.01   15.82
  -1  -8   4    9.61   10.35
   0   8  -4   23.02   19.61
   0   8  -4   -8.63   14.77
   0  -8   4   13.94   16.10
   0  -8   4    7.30   10.49
  -1   8  -4   16.54   18.66
  -1   8  -4   12.49   16.59
   1  -8   4   23.29   11.14
   1  -8   4    8.74   15.15
  -2   8  -4   30.53   20.01
  -2   8  -4    7.32   17.47
   2  -8   4    4.31   14.46
   2  -8   4   -2.88   10.15
  -3   8  -4   10.71   18.12
  -3   8  -4   41.14   20.30
   3  -8   4  -18.19   10.83
   3  -8   4  -16.03   13.24
  -4   8  -4   36.93   21.69
  -4   8  -4   -4.65   24.45
   4  -8   4   46.49   15.20
   4  -8   4   -6.17   12.80
   5  -8   4   35.10   15.05
   7   7  -4  -41.91   33.63
  -7  -7   4    8.13   21.80
   6   7  -4  -29.97   24.88
  -6  -7   4   41.21   17.98
  -6  -7   4   68.29   23.17
  -6  -7   4    5.02   24.86
   5   7  -4  -16.26   24.68
   5   7  -4    3.53   14.19
  -5  -7   4   -1.59   23.08
  -5  -7   4  -32.93   13.97
  -5  -7   4   -0.35   19.36
   4   7  -4   23.43   22.28
   4   7  -4   23.92   15.48
  -4  -7   4   -0.33   11.94
  -4  -7   4   -8.12   17.63
   3   7  -4   28.60   13.85
   3   7  -4   27.81   20.14
  -3  -7   4   22.13   17.77
  -3  -7   4   60.41   12.45
   2   7  -4   13.59   14.18
   2   7  -4   18.78   18.16
  -2  -7   4   -9.86    9.42
  -2  -7   4   39.78   18.65
   1   7  -4   22.52   13.54
   1   7  -4    3.23   18.61
  -1  -7   4    4.75    9.47
  -1  -7   4    6.07   15.16
   0   7  -4   24.03   14.33
   0   7  -4   11.08   17.77
   0  -7   4   25.29   10.45
   0  -7   4   37.96   14.68
  -1   7  -4    4.53   15.18
  -1   7  -4   19.65   15.20
   1  -7   4   -1.17   13.57
   1  -7   4   12.66    9.71
  -2   7  -4   21.09   16.30
  -2   7  -4   23.08   18.20
   2  -7   4   46.71   11.02
   2  -7   4   29.83   14.13
  -3   7  -4   16.96   17.12
  -3   7  -4   -3.94   16.88
   3  -7   4    8.16   10.55
   3  -7   4   15.93   13.47
  -4   7  -4   31.23   17.89
  -4   7  -4   16.80   18.87
   4  -7   4   37.04   11.94
   4  -7   4   12.76   13.22
  -5   7  -4  -25.31   19.15
  -5   7  -4   28.13   20.26
   5  -7   4    5.06   13.64
   5  -7   4  -18.66   12.89
   6  -7   4   -2.70   14.85
   7   6  -4    7.16   25.59
  -7  -6   4   61.80   48.98
  -7  -6   4   37.89   21.73
  -7  -6   4   32.42   19.47
   6   6  -4   21.59   15.83
   6   6  -4   -9.39   21.97
  -6  -6   4   -7.35   22.62
  -6  -6   4   54.78   21.35
  -6  -6   4    8.44   15.48
   5   6  -4    1.42   20.26
   5   6  -4    9.42   13.26
  -5  -6   4   46.69   20.30
  -5  -6   4    6.45   19.97
  -5  -6   4   11.85   12.55
   4   6  -4  -18.41   11.36
   4   6  -4   18.70   18.17
  -4  -6   4    4.49   11.51
  -4  -6   4  -16.45   18.24
  -4  -6   4  -14.74   15.27
   3   6  -4   30.86   17.27
   3   6  -4   17.54   13.48
  -3  -6   4    3.91   10.27
  -3  -6   4   18.78   18.02
   2   6  -4   67.65   17.68
   2   6  -4  108.05   16.18
  -2  -6   4   70.03   12.02
  -2  -6   4   78.63   18.41
   1   6  -4   21.81   11.68
   1   6  -4   47.32   18.17
  -1  -6   4   27.95    9.74
   0   6  -4    2.92   10.52
   0   6  -4    7.28   14.90
   0  -6   4   -0.43   11.18
   0  -6   4  -10.72    8.45
  -1   6  -4    6.16   12.25
  -1   6  -4   22.26   13.88
   1  -6   4   20.99    8.81
   1  -6   4   -1.50   12.10
  -2   6  -4  -24.44   12.26
  -2   6  -4   16.22   15.37
   2  -6   4    5.37   11.95
   2  -6   4   -7.43    8.15
  -3   6  -4   25.07   14.58
  -3   6  -4   12.84   14.27
   3  -6   4   12.86   12.22
   3  -6   4   11.61    9.61
  -4   6  -4    6.96   16.64
  -4   6  -4   24.47   15.58
   4  -6   4   11.22   10.30
   4  -6   4   -2.28   11.96
  -5   6  -4   24.98   17.22
   5  -6   4   15.82   13.11
   5  -6   4    0.49   12.55
  -6   6  -4   41.17   19.55
  -6   6  -4   74.38   20.75
   6  -6   4   50.11   16.15
   6  -6   4    5.97   14.06
   7  -6   4   24.51   15.83
   7   5  -4   54.27   19.53
   7   5  -4    7.13   25.28
  -7  -5   4    1.37   15.12
  -7  -5   4   49.48   21.61
  -7  -5   4   54.06   25.42
   6   5  -4   43.74   15.42
   6   5  -4   27.19   19.37
  -6  -5   4   75.63   22.39
  -6  -5   4   56.44   13.74
  -6  -5   4   13.87   21.01
   5   5  -4   10.49   12.41
   5   5  -4   13.32   17.34
  -5  -5   4   23.03   18.04
  -5  -5   4    3.60   20.33
  -5  -5   4   16.43   12.06
   4   5  -4   -1.91   11.75
  -4  -5   4   -7.05   14.55
  -4  -5   4  -16.12   18.39
  -4  -5   4    8.31    9.25
   3   5  -4   -9.19   10.66
   3   5  -4  -13.08   13.28
  -3  -5   4  -25.14    8.34
  -3  -5   4  -17.76   14.03
   2   5  -4    4.55    8.99
   2   5  -4    6.76   13.95
  -2  -5   4  -18.53    8.56
  -2  -5   4  -17.55   13.92
   1   5  -4   -0.18   12.62
   1   5  -4   -5.38    9.18
  -1  -5   4    2.89   14.18
  -1  -5   4  -15.88    7.43
   0   5  -4   18.68   11.03
   0   5  -4   20.27   13.27
   0  -5   4   -1.40    7.29
   0  -5   4   -4.95   10.26
  -1   5  -4   47.42   14.91
  -1   5  -4   26.20   11.45
   1  -5   4   43.68   10.13
   1  -5   4   48.20   12.74
  -2   5  -4  321.23   22.58
  -2   5  -4  341.47   25.17
   2  -5   4  354.35   20.66
  -3   5  -4    3.92   13.56
  -3   5  -4    2.20   11.68
   3  -5   4   -0.66    8.50
   3  -5   4    5.98   11.04
  -4   5  -4    2.15   13.85
   4  -5   4    8.16    9.84
   4  -5   4    8.25   11.80
  -5   5  -4   35.54   16.13
  -5   5  -4   23.70   16.31
   5  -5   4   27.88   13.19
   5  -5   4   16.09   12.74
  -6   5  -4  -25.56   16.95
  -6   5  -4   26.22   16.92
   6  -5   4   24.45   13.54
   6  -5   4   49.81   15.65
  -7   5  -4   -1.40   22.72
  -7   5  -4  -15.07   18.29
   7  -5   4   35.59   18.06
   7  -5   4   14.17   14.31
   8   4  -4   21.21   32.63
   8   4  -4   19.33   22.39
  -8  -4   4   49.64   26.94
   7   4  -4   23.29   16.18
   7   4  -4   -4.53   20.88
  -7  -4   4  -19.63   21.25
  -7  -4   4   -1.21   14.26
  -7  -4   4   -4.74   20.28
   6   4  -4   43.75   20.86
   6   4  -4   45.33   15.91
  -6  -4   4   73.00   16.62
  -6  -4   4   83.32   20.95
  -6  -4   4   39.78   21.27
   5   4  -4    0.75   11.95
   5   4  -4    8.97   17.35
  -5  -4   4  -12.81   15.01
  -5  -4   4   13.21   19.02
  -5  -4   4   13.41   10.54
   4   4  -4   29.63   10.97
   4   4  -4   12.29   16.29
  -4  -4   4   21.51   15.99
  -4  -4   4   41.97   18.89
   3   4  -4   18.52   13.45
   3   4  -4    7.20    9.09
  -3  -4   4    7.25   16.24
  -3  -4   4   23.12    8.31
   2   4  -4   52.21   15.10
   2   4  -4   54.00   11.72
  -2  -4   4   47.61   15.25
  -2  -4   4   46.83    9.88
   1   4  -4   -5.60   11.74
   1   4  -4    4.11    8.19
  -1  -4   4    2.32   10.75
  -1  -4   4    1.04    7.62
   0   4  -4   32.70   13.16
   0   4  -4   39.85   10.48
   0  -4   4   36.42    8.78
   0  -4   4   23.57   11.23
  -1   4  -4   22.71   11.10
  -1   4  -4   27.24   10.54
   1  -4   4   10.02    8.01
   1  -4   4   15.87   10.13
  -2   4  -4   -0.25   11.57
  -2   4  -4    3.53    9.67
   2  -4   4   14.24    9.74
   2  -4   4    1.08    6.75
  -3   4  -4   75.12   14.83
   3  -4   4   76.96   12.89
   3  -4   4   60.40   12.33
  -4   4  -4  145.36   18.14
  -4   4  -4  181.06   20.50
   4  -4   4  184.41   17.45
   4  -4   4  165.19   16.32
  -5   4  -4    1.42   13.65
  -5   4  -4   33.40   13.39
   5  -4   4    2.66   10.39
   5  -4   4   44.93   12.18
  -6   4  -4   10.68   15.69
  -6   4  -4   -1.04   13.38
   6  -4   4   -8.66   11.64
   6  -4   4  -23.93   12.69
  -7   4  -4   -1.92   16.96
  -7   4  -4   20.30   15.70
   7  -4   4   16.54   14.16
   7  -4   4   -9.29   15.98
  -8   4  -4    8.75   21.72
   8  -4   4  -20.34   19.54
   8  -4   4  -19.88   15.00
   9   3  -4   25.26   42.62
  -9  -3   4  -20.47   58.99
   8   3  -4   14.96   20.41
   8   3  -4   47.10   24.49
  -8  -3   4   41.67   25.23
  -8  -3   4   35.85   19.19
   7   3  -4   32.53   19.28
   7   3  -4    8.11   15.11
  -7  -3   4  -10.05   12.67
  -7  -3   4   24.00   21.83
  -7  -3   4   59.02   21.66
   6   3  -4   14.36   17.69
   6   3  -4   -6.65   13.67
  -6  -3   4   26.48   16.08
  -6  -3   4   26.22   20.90
   5   3  -4   17.73   10.80
   5   3  -4   26.44   15.96
  -5  -3   4   22.63   18.40
  -5  -3   4   -3.30    9.09
  -5  -3   4    6.71   15.14
   4   3  -4   41.53   14.59
  -4  -3   4   50.82   18.34
  -4  -3   4   32.02    9.71
  -4  -3   4   40.29   16.03
   3   3  -4   37.53   10.59
   3   3  -4   54.15   13.54
  -3  -3   4   53.82    9.55
  -3  -3   4   62.38   15.11
  -3  -3   4  101.52   19.23
   2   3  -4    8.05    8.45
   2   3  -4    0.66   10.71
  -2  -3   4   20.98   11.39
  -2  -3   4   -0.92    6.36
   1   3  -4  214.88   15.09
   1   3  -4  216.40   17.55
  -1  -3   4  220.88   14.56
  -1  -3   4  197.95   18.85
   0   3  -4   36.08    8.85
   0   3  -4   47.93   12.14
   0  -3   4   37.45    8.19
  -1   3  -4  671.15   33.65
  -1   3  -4  736.21   32.44
   1  -3   4  701.55   32.09
   1  -3   4  700.82   31.69
  -2   3  -4  416.99   22.34
  -2   3  -4  394.93   24.30
   2  -3   4  385.58   21.24
   2  -3   4  395.00   21.31
  -3   3  -4   85.42   13.54
  -3   3  -4  102.57   13.06
   3  -3   4  109.15   13.16
   3  -3   4  116.13   13.25
  -4   3  -4  225.37   20.19
  -4   3  -4  216.54   19.53
   4  -3   4  222.43   17.48
   4  -3   4  225.47   17.74
  -5   3  -4   18.74   11.06
  -5   3  -4   15.66   12.98
   5  -3   4   16.45   11.18
   5  -3   4   25.35   11.41
  -6   3  -4   11.76   12.77
  -6   3  -4   -5.60   12.18
   6  -3   4   11.07   11.57
   6  -3   4   -6.02   10.72
  -7   3  -4  -11.03   16.46
  -7   3  -4  -18.63   13.48
   7  -3   4   -6.55   13.80
   7  -3   4    3.48   12.22
  -8   3  -4  -12.93   18.21
  -8   3  -4    9.99   21.18
   8  -3   4   36.54   18.54
   8  -3   4   23.99   14.72
  -9   3  -4  -19.19   23.90
   9  -3   4  -11.66   21.75
   9   2  -4  -32.45   24.60
  -9  -2   4   21.08   30.29
   8   2  -4   10.55   20.03
   8   2  -4    9.82   22.23
  -8  -2   4  -19.21   17.66
  -8  -2   4   -4.31   22.50
   7   2  -4    4.55   19.13
   7   2  -4   18.13   14.27
  -7  -2   4   22.46   18.23
  -7  -2   4   -8.11   11.87
   6   2  -4   25.79   16.66
   6   2  -4    5.80   11.83
  -6  -2   4    7.63   10.93
  -6  -2   4   31.84   16.83
  -6  -2   4   42.91   20.99
   5   2  -4   23.91   14.21
  -5  -2   4   38.93   18.43
  -5  -2   4   15.20   10.31
  -5  -2   4   22.73   14.57
   4   2  -4    8.44   12.15
   4   2  -4  -11.99    7.68
  -4  -2   4    3.54   13.46
  -4  -2   4   -1.87   18.50
  -4  -2   4    1.34    7.65
   3   2  -4  106.88   14.61
   3   2  -4  108.53   12.36
  -3  -2   4  113.01   20.59
  -3  -2   4  113.06   16.05
  -3  -2   4   87.30   10.83
   2   2  -4   11.11    6.96
   2   2  -4    8.94    9.71
  -2  -2   4   -0.22    6.55
  -2  -2   4   18.76    9.66
   1   2  -4   98.44   13.25
   1   2  -4   89.53   10.88
  -1  -2   4  107.48   11.76
  -1  -2   4   98.46   12.95
   0   2  -4  317.22   19.21
   0   2  -4  327.12   18.17
   0  -2   4  308.04   18.07
  -1   2  -4  424.52   22.83
  -1   2  -4  412.88   21.30
   1  -2   4  405.24   20.83
   1  -2   4  407.21   21.17
  -2   2  -4  606.23   28.89
  -2   2  -4  563.43   26.35
   2  -2   4  534.82   26.20
   2  -2   4  586.87   27.41
  -3   2  -4   20.18   10.64
  -3   2  -4   25.23    8.55
   3  -2   4   28.20    8.81
   3  -2   4   32.77    9.27
  -4   2  -4   80.39   13.03
  -4   2  -4   90.61   12.75
   4  -2   4  108.94   13.55
   4  -2   4   93.04   11.57
  -5   2  -4  -10.39    9.85
  -5   2  -4    0.86    8.33
   5  -2   4    8.29   11.10
   5  -2   4    9.07    8.96
  -6   2  -4   15.96   10.22
  -6   2  -4   10.81   12.89
   6  -2   4   -1.12   12.03
   6  -2   4   14.00   11.92
  -7   2  -4    9.30   13.53
  -7   2  -4   -2.49   13.13
   7  -2   4    1.65   11.95
   7  -2   4  -13.03   11.78
  -8   2  -4  -17.15   16.08
   8  -2   4    7.91   14.74
   8  -2   4  -38.53   27.40
  -9   2  -4   33.06   23.33
   9  -2   4   -7.62   23.14
   9   1  -4   -8.44   21.54
  -9  -1   4  -27.11   30.59
   8   1  -4    3.63   20.99
   8   1  -4    5.09   16.65
  -8  -1   4  -30.96   15.04
  -8  -1   4  -12.57   22.69
   7   1  -4    8.00   15.84
   7   1  -4   22.31   15.39
  -7  -1   4   10.09   18.34
  -7  -1   4    6.59   12.68
   6   1  -4   22.28   15.03
  -6  -1   4   -7.89   11.54
  -6  -1   4   13.65   16.32
  -6  -1   4    2.33   20.19
   5   1  -4  128.59   15.48
   5   1  -4  132.55   19.12
  -5  -1   4  100.06   16.52
  -5  -1   4  155.02   23.05
  -5  -1   4  120.14   13.31
   4   1  -4   13.08   12.18
   4   1  -4   14.69    8.74
  -4  -1   4   26.01   11.78
  -4  -1   4   12.48    7.64
  -4  -1   4  -25.08   16.39
   3   1  -4   56.05   10.08
   3   1  -4   68.91   12.46
  -3  -1   4   57.32   12.59
  -3  -1   4   72.09   10.21
  -3  -1   4   95.34   20.41
   2   1  -4   34.39    8.65
   2   1  -4   14.20    9.41
  -2  -1   4   24.01    9.69
  -2  -1   4   34.55    7.55
  -2  -1   4   42.09   13.77
   1   1  -4  825.67   37.35
   1   1  -4  854.16   36.04
  -1  -1   4  853.25   35.74
  -1  -1   4  905.52   37.64
   0   1  -4   -0.58    7.56
   0   1  -4    5.61    8.41
   0  -1   4    0.39    6.45
  -1   1  -4  591.39   27.07
  -1   1  -4  555.74   25.83
   1  -1   4  569.53   25.71
   1  -1   4  531.24   25.70
  -2   1  -4  269.22   15.75
  -2   1  -4  267.68   17.43
   2  -1   4  272.72   16.49
   2  -1   4  254.52   16.28
  -3   1  -4  234.44   16.31
  -3   1  -4  225.16   14.41
   3  -1   4  248.29   15.89
   3  -1   4  205.36   14.70
  -4   1  -4   84.62   11.55
  -4   1  -4   74.10   12.96
   4  -1   4  101.17   12.84
   4  -1   4   92.81   11.58
  -5   1  -4   10.28   10.52
  -5   1  -4   11.29    8.52
   5  -1   4   13.57    9.87
   5  -1   4   20.81   10.73
  -6   1  -4   -3.19   10.79
  -6   1  -4    2.02   11.97
   6  -1   4    4.03    9.10
   6  -1   4  -13.38   10.10
  -7   1  -4   11.87   13.05
  -7   1  -4   11.46   14.41
   7  -1   4   23.47   12.28
   7  -1   4    1.16   11.77
  -8   1  -4   16.19   18.74
  -8   1  -4    6.19   14.75
   8  -1   4   43.45   15.48
   8  -1   4    8.19   14.68
  -9   1  -4   34.74   23.86
  -9   1  -4  -25.17   22.31
   9  -1   4   -9.16   20.65
   9  -1   4   -4.62   17.13
 -10   1  -4   26.60   25.87
  10  -1   4   65.55   50.64
  10  -1   4  -32.34   24.52
   9   0  -4  -59.43   21.59
  -9   0   4    9.65   27.95
   8   0  -4  -15.71   20.27
   8   0  -4  -17.17   15.70
   8   0  -4  -49.72   38.49
  -8   0   4    5.65   25.45
  -8   0   4    9.30   17.39
   7   0  -4  -17.72   14.61
   7   0  -4  -49.61   32.43
   7   0  -4   24.21   13.28
  -7   0   4   12.65   21.93
  -7   0   4    5.78   10.92
   6   0  -4   -4.85   14.26
   6   0  -4   -2.30    8.89
  -6   0   4    7.09   13.77
  -6   0   4   11.15   28.92
  -6   0   4    7.89   10.10
   5   0  -4   32.59   12.41
   5   0  -4   23.63    9.84
  -5   0   4   23.09   20.18
  -5   0   4    9.82   11.74
  -5   0   4   32.20    8.80
   4   0  -4  109.29   12.49
   4   0  -4   95.40   13.79
  -4   0   4  113.22   14.36
  -4   0   4  169.00   26.09
  -4   0   4   93.28   10.88
   3   0  -4   13.83    6.78
   3   0  -4   23.31    9.54
  -3   0   4   18.56    6.87
  -3   0   4   32.21   18.13
  -3   0   4   25.55   10.23
   2   0  -4   33.25    7.60
   2   0  -4   30.75    9.35
  -2   0   4   41.08   14.66
  -2   0   4   35.33    7.33
  -2   0   4   42.11    9.85
   1   0  -4   56.18    8.76
   1   0  -4   62.34   10.85
  -1   0   4   61.85    9.35
  -1   0   4   48.99    9.97
   0   0  -4  117.17   12.06
   0   0  -4  152.72   12.83
   0   0   4  133.69   11.14
  -1   0  -4  106.09   12.34
   1   0   4  107.95   10.97
   1   0   4  130.50   10.92
  -2   0  -4   59.21    9.50
  -2   0  -4   69.75   11.00
   2   0   4   68.60    9.04
   2   0   4   46.63    9.24
  -3   0  -4    7.94    6.32
  -3   0  -4   11.65    8.07
   3   0   4    2.06    7.51
   3   0   4   13.82    6.96
  -4   0  -4    5.29    8.48
  -4   0  -4    2.09    6.95
   4   0   4    0.66    8.02
   4   0   4   -1.73    7.03
  -5   0  -4    0.19    9.44
  -5   0  -4    9.53    8.90
   5   0   4   -3.21    7.69
   5   0   4    2.15    8.01
  -6   0  -4    9.47    9.76
  -6   0  -4    5.24   11.47
   6   0   4   15.51   10.71
  -7   0  -4    0.25   11.94
  -7   0  -4   22.92   15.11
   7   0   4   24.53   10.59
   7   0   4   -7.63   12.70
  -8   0  -4    9.96   13.44
  -8   0  -4   31.36   17.18
   8   0   4   -1.68   14.20
   8   0   4    5.25   13.84
  -9   0  -4   -3.37   19.62
  -9   0  -4   10.58   18.16
   9   0   4   19.33   21.44
   9   0   4  -12.48   13.60
 -10   0  -4  -47.53   21.46
  10   0   4   54.90   42.46
  10   0   4   10.44   26.96
 -11   0  -4   16.27   34.68
  11   0   4  102.52   58.31
   9  -1  -4  -17.41   25.65
  -9   1   4   60.61   31.37
   8  -1  -4   -5.53   39.28
   8  -1  -4   -5.08   17.43
   8  -1  -4  -22.00   15.94
  -8   1   4   -8.49   23.29
  -8   1   4  -12.38   16.84
   7  -1  -4   13.51   11.28
   7  -1  -4   -3.71   15.51
   7  -1  -4  -19.81   32.02
  -7   1   4    1.45   10.88
  -7   1   4  -17.65   17.02
   6  -1  -4   -1.69   12.52
   6  -1  -4    2.42    8.87
   6  -1  -4   -6.99   29.94
  -6   1   4   11.89   10.22
  -6   1   4    4.73   14.19
   5  -1  -4  198.42   33.47
   5  -1  -4  162.36   14.23
   5  -1  -4  172.37   18.24
  -5   1   4  123.28   12.99
  -5   1   4  138.29   16.44
  -5   1   4  199.07   25.56
   4  -1  -4   14.08   10.71
   4  -1  -4   12.21    7.29
   4  -1  -4   37.95   23.27
  -4   1   4   21.41   19.93
  -4   1   4   14.61    6.97
  -4   1   4    9.99    9.13
   3  -1  -4  183.48   22.32
   3  -1  -4  162.50   14.96
   3  -1  -4  174.76   11.97
  -3   1   4  149.16   20.36
  -3   1   4  156.82   13.96
  -3   1   4  154.67   11.29
   2  -1  -4   17.40    6.15
   2  -1  -4   16.80    7.71
  -2   1   4   13.77    6.55
  -2   1   4   21.58    7.93
  -2   1   4   22.61   17.37
   1  -1  -4   44.26    8.53
   1  -1  -4   38.34    7.10
  -1   1   4   73.86   16.49
  -1   1   4   46.97    8.56
  -1   1   4   35.80    7.12
   0  -1  -4  127.66   10.56
   0  -1  -4  120.90   12.38
   0   1   4  124.08   10.48
  -1  -1  -4   28.84    6.90
  -1  -1  -4   25.75    8.16
   1   1   4   25.21    6.99
   1   1   4   25.67    8.06
  -2  -1  -4    6.41    5.82
  -2  -1  -4    4.64    7.13
   2   1   4    2.43    6.09
   2   1   4    1.66    6.58
  -3  -1  -4   23.08    7.02
  -3  -1  -4   26.69    8.77
   3   1   4   17.76    7.00
   3   1   4   16.55    8.57
  -4  -1  -4   15.97    6.71
  -4  -1  -4    5.64    9.03
   4   1   4   12.18    7.12
   4   1   4    6.13    8.23
  -5  -1  -4   20.94    9.83
  -5  -1  -4   37.99    9.09
   5   1   4   33.78    9.91
   5   1   4   18.48    8.84
  -6  -1  -4   63.08   13.22
   6   1   4   54.22   12.28
   6   1   4   73.65   12.26
  -7  -1  -4   -0.27   11.47
  -7  -1  -4  -12.30   12.45
   7   1   4   13.02   11.70
   7   1   4   -2.71   12.22
  -8  -1  -4   20.98   15.41
  -8  -1  -4   -5.90   12.35
   8   1   4   16.61   14.34
   8   1   4  -15.33   12.44
  -9  -1  -4   -9.40   16.21
  -9  -1  -4  -15.79   17.16
   9   1   4   11.14   16.88
   9   1   4   25.13   19.91
 -10  -1  -4   28.40   25.44
  10   1   4   54.68   38.06
  10   1   4   52.32   27.05
 -11  -1  -4  -18.95   29.22
  11   1   4   49.47   58.20
  11   1   4   -2.21   31.53
   9  -2  -4  -63.66  108.28
   8  -2  -4  -35.86   17.68
   8  -2  -4  -17.79   14.87
   8  -2  -4   17.79   45.08
  -8   2   4   25.14   18.01
  -8   2   4   34.35   40.81
   7  -2  -4   -7.41   15.55
   7  -2  -4  -31.72   33.43
   7  -2  -4    5.31   11.55
  -7   2   4   27.77   14.02
  -7   2   4   -3.99   17.73
   6  -2  -4   41.13    9.90
   6  -2  -4   18.92   33.77
   6  -2  -4   32.08   13.68
  -6   2   4   21.18   14.76
  -6   2   4   39.96   12.06
   5  -2  -4   12.84    7.59
   5  -2  -4   -7.94   12.47
  -5   2   4   -9.33   20.67
  -5   2   4    1.02   11.39
  -5   2   4   -2.74    8.11
   4  -2  -4   12.55    6.48
   4  -2  -4   19.42   22.70
   4  -2  -4   18.65    9.85
  -4   2   4   28.91   20.56
  -4   2   4    1.08    6.02
  -4   2   4    7.39   10.11
   3  -2  -4   74.96    8.64
   3  -2  -4   90.33   24.39
   3  -2  -4   96.57   11.28
  -3   2   4   83.74   11.44
  -3   2   4   71.05    9.17
  -3   2   4  103.82   22.80
   2  -2  -4  326.89   16.36
   2  -2  -4  368.24   28.65
   2  -2  -4  328.77   17.88
  -2   2   4  317.45   17.95
  -2   2   4  325.94   27.29
  -2   2   4  351.37   16.60
   1  -2  -4  575.87   24.02
   1  -2  -4  583.29   25.17
  -1   2   4  559.30   25.22
  -1   2   4  557.38   31.72
  -1   2   4  580.09   24.12
   0  -2  -4  110.67   11.08
   0  -2  -4  100.64    9.03
   0   2   4  142.71   15.72
   0   2   4  116.02   10.02
   0   2   4  118.83    9.52
  -1  -2  -4  217.32   12.61
  -1  -2  -4  194.28   12.56
   1   2   4  193.29   11.73
   1   2   4  199.91   12.55
  -2  -2  -4  102.61   10.20
  -2  -2  -4  107.08    9.17
   2   2   4  110.66   10.12
   2   2   4  101.90   10.20
  -3  -2  -4   45.89    8.24
  -3  -2  -4   45.32    9.59
   3   2   4   41.31    7.75
   3   2   4   40.08    8.40
  -4  -2  -4   -3.45    5.81
  -4  -2  -4   -3.22    7.87
   4   2   4   -4.84    6.19
   4   2   4   -2.32    6.96
  -5  -2  -4    4.47    6.74
  -5  -2  -4    1.18   10.08
   5   2   4  -10.33    8.30
   5   2   4   -6.64    7.45
  -6  -2  -4   18.89    8.85
  -6  -2  -4   32.28   11.83
   6   2   4    8.56    9.84
   6   2   4   25.35   10.09
  -7  -2  -4   32.54   15.80
  -7  -2  -4    1.98   10.07
   7   2   4    3.39   12.24
   7   2   4    5.06   11.72
  -8  -2  -4   10.84   13.13
  -8  -2  -4   -2.65   15.60
   8   2   4   17.59   15.67
   8   2   4  -10.21   13.75
  -9  -2  -4   16.21   18.02
  -9  -2  -4   15.37   16.17
   9   2   4   32.95   27.55
   9   2   4   41.11   19.58
   9   2   4   -1.01   14.92
 -10  -2  -4  -28.15   23.04
  10   2   4   -5.66   24.50
  10   2   4   50.42   37.58
   8  -3  -4    9.64   18.42
   8  -3  -4   28.63   15.87
   8  -3  -4  -55.26   41.68
  -8   3   4  -14.50   21.16
  -8   3   4   57.07   24.70
   7  -3  -4   12.16   39.07
   7  -3  -4   25.41   16.03
   7  -3  -4   16.25   11.77
  -7   3   4   11.26   17.91
  -7   3   4   -5.80   12.60
   6  -3  -4  103.61   16.76
   6  -3  -4  109.95   13.36
   6  -3  -4  138.15   39.23
  -6   3   4   98.86   17.54
  -6   3   4  125.29   15.41
   5  -3  -4   21.56   13.21
   5  -3  -4   12.52   31.03
   5  -3  -4   15.90    6.77
  -5   3   4    9.38    8.33
  -5   3   4   15.68   10.46
   4  -3  -4   29.63    9.94
   4  -3  -4   23.90   26.52
   4  -3  -4   30.30    7.06
  -4   3   4   62.59   22.75
  -4   3   4   14.11    7.44
  -4   3   4   15.74    9.24
   3  -3  -4  257.17   14.07
   3  -3  -4  258.11   16.39
   3  -3  -4  224.92   28.59
  -3   3   4  255.92   15.95
  -3   3   4  275.36   25.95
  -3   3   4  283.10   14.22
   2  -3  -4   47.63    8.06
   2  -3  -4   42.13   20.13
   2  -3  -4   43.08    6.23
  -2   3   4   76.92   20.63
  -2   3   4   55.56    8.47
  -2   3   4   51.11    6.78
   1  -3  -4 2219.25   93.63
   1  -3  -4 2452.60   85.85
   1  -3  -4 2324.71   86.34
  -1   3   4 2290.38   85.78
  -1   3   4 2293.96   94.67
  -1   3   4 2394.54   86.39
   0  -3  -4  620.78   25.81
   0  -3  -4  620.89   26.26
   0   3   4  639.21   26.04
   0   3   4  613.10   33.28
   0   3   4  647.05   25.99
  -1  -3  -4  352.43   16.76
  -1  -3  -4  358.02   16.35
   1   3   4  350.65   21.16
   1   3   4  350.07   17.04
   1   3   4  359.15   16.30
  -2  -3  -4  296.81   16.73
  -2  -3  -4  343.76   16.13
   2   3   4  332.53   15.77
   2   3   4  316.06   16.84
  -3  -3  -4  126.15   10.17
  -3  -3  -4   88.75   10.53
   3   3   4  112.46   10.45
   3   3   4  107.78    9.44
  -4  -3  -4    9.86    7.99
  -4  -3  -4   -2.55    5.45
   4   3   4   13.39    7.26
   4   3   4   12.39    6.75
  -5  -3  -4   39.92   10.12
  -5  -3  -4   22.73    7.73
   5   3   4   24.49    8.27
   5   3   4   23.06    8.51
  -6  -3  -4    3.12    7.55
  -6  -3  -4   -0.27   10.01
   6   3   4   -4.45    8.81
   6   3   4    7.97    9.00
  -7  -3  -4   -5.49   11.12
  -7  -3  -4   -0.67   12.28
   7   3   4   13.51   12.80
   7   3   4   -2.35   10.52
  -8  -3  -4  -19.42   11.57
  -8  -3  -4   -5.44   15.22
   8   3   4    2.05   13.85
   8   3   4   31.10   13.55
  -9  -3  -4   -8.78   15.53
  -9  -3  -4   17.71   19.12
   9   3   4   -8.33   15.07
   9   3   4   17.03   24.43
   9   3   4    0.42   17.07
 -10  -3  -4   20.84   23.74
  10   3   4   20.56   31.97
  10   3   4   -1.24   22.49
  10   3   4    3.02   23.79
   8  -4  -4  104.22  109.73
   7  -4  -4  -23.32   41.78
   7  -4  -4  -14.38   11.14
   7  -4  -4   20.18   14.72
  -7   4   4   14.10   18.48
  -7   4   4   -0.13   13.83
   6  -4  -4   -3.93   13.00
   6  -4  -4    4.83    8.29
   6  -4  -4   -8.36   33.48
  -6   4   4   19.43   14.98
  -6   4   4    0.13   10.90
   5  -4  -4   -8.23    6.30
   5  -4  -4    3.36   29.89
   5  -4  -4   -7.88   14.72
  -5   4   4   -3.59    8.37
  -5   4   4   -5.02   11.05
   4  -4  -4   90.72   11.66
   4  -4  -4   80.65    8.83
   4  -4  -4  143.29   34.31
  -4   4   4   72.38   11.32
  -4   4   4   75.83    9.54
   3  -4  -4   34.82    8.24
   3  -4  -4   61.41   27.87
   3  -4  -4   32.40    5.64
  -3   4   4   50.59    8.80
  -3   4   4   39.86    6.50
  -3   4   4   44.03   20.52
   2  -4  -4   16.97   20.26
   2  -4  -4   -2.80    5.80
   2  -4  -4    3.83    3.93
  -2   4   4   -1.56   14.51
  -2   4   4    3.49    4.22
  -2   4   4   -4.82    6.57
   1  -4  -4  227.27   12.31
   1  -4  -4  228.35   11.10
   1  -4  -4  217.27   24.02
  -1   4   4  233.18   11.41
  -1   4   4  217.21   22.36
   0  -4  -4   68.45    7.01
   0  -4  -4  106.37   19.74
   0  -4  -4   68.85    7.29
   0   4   4   71.36    7.09
   0   4   4   95.42   19.96
  -1  -4  -4   52.85    6.71
  -1  -4  -4   68.93    7.31
   1   4   4   66.33    7.48
   1   4   4   84.24   17.51
   1   4   4   63.56    6.84
  -2  -4  -4   76.39    8.84
  -2  -4  -4   84.34    7.87
   2   4   4   83.94   12.89
   2   4   4   84.97    9.13
   2   4   4   72.64    7.73
  -3  -4  -4  345.66   17.81
  -3  -4  -4  376.41   19.05
   3   4   4  402.31   18.14
   3   4   4  398.14   19.30
  -4  -4  -4  223.90   13.61
  -4  -4  -4  247.35   16.01
   4   4   4  257.33   14.48
   4   4   4  243.74   15.86
  -5  -4  -4  106.09   13.02
  -5  -4  -4   96.77   11.42
   5   4   4   87.62   11.21
   5   4   4   85.31   11.60
  -6  -4  -4   12.89    8.39
  -6  -4  -4   22.23   11.10
   6   4   4    7.89    9.00
  -7  -4  -4   -2.46    8.85
  -7  -4  -4    9.89   12.79
   7   4   4   -7.94   10.63
  -8  -4  -4   -1.46   12.13
  -8  -4  -4   -7.95   13.98
   8   4   4   17.28   13.17
   8   4   4   16.82   13.90
   8   4   4   16.98   17.07
  -9  -4  -4   -0.15   18.33
  -9  -4  -4    4.40   15.69
   9   4   4   22.07   21.71
   9   4   4    5.31   17.96
   9   4   4  -26.59   17.88
 -10  -4  -4   18.64   22.32
 -10  -4  -4  -11.86   20.58
  10   4   4   -0.55   29.99
  10   4   4   43.70   23.51
  10   4   4  -10.83   21.39
   8  -5  -4    2.11   20.09
   7  -5  -4   20.10   41.90
   7  -5  -4    3.36   15.45
   7  -5  -4    4.24   11.42
  -7   5   4  -14.44   13.53
  -7   5   4   10.15   19.75
   6  -5  -4   86.11   10.86
   6  -5  -4   92.50   41.28
   6  -5  -4   72.46   14.82
  -6   5   4   79.92   13.70
  -6   5   4   73.41   16.94
   5  -5  -4    6.91    6.50
   5  -5  -4  -12.96   32.38
  -5   5   4   12.37   11.66
  -5   5   4    2.68    8.42
   4  -5  -4  543.76   24.05
   4  -5  -4  565.07   25.36
   4  -5  -4  486.32   43.47
  -4   5   4  565.59   26.71
  -4   5   4  541.87   24.15
   3  -5  -4   96.15   10.30
   3  -5  -4   88.05   29.57
  -3   5   4   79.61    7.78
   2  -5  -4  146.24    8.71
   2  -5  -4  198.55   30.84
   2  -5  -4  156.30   10.11
  -2   5   4  163.13    8.80
  -2   5   4  183.54   21.55
  -2   5   4  153.18    9.99
   1  -5  -4    5.17   17.64
   1  -5  -4    3.66    2.74
   1  -5  -4    3.36    3.12
  -1   5   4   -3.37    3.06
  -1   5   4   -7.72   15.39
  -1   5   4    5.65    3.76
   0  -5  -4   -0.90    2.80
   0  -5  -4    3.48    3.45
   0  -5  -4    1.00   14.87
   0   5   4    1.06    3.13
   0   5   4    3.27    3.53
   0   5   4   -0.94   13.85
  -1  -5  -4   17.48    4.50
  -1  -5  -4   11.84    4.09
  -1  -5  -4   36.68   15.02
   1   5   4   14.75   13.50
   1   5   4   14.56    5.08
  -2  -5  -4   35.16    5.73
  -2  -5  -4   51.99    6.61
   2   5   4   52.74    6.29
   2   5   4   49.01    7.02
   2   5   4   59.88   14.40
  -3  -5  -4  178.37   10.55
  -3  -5  -4  161.10   11.51
   3   5   4  175.43   11.13
   3   5   4  163.93   12.22
   3   5   4  148.61   14.27
  -4  -5  -4   27.47    6.46
  -4  -5  -4   29.86    8.72
   4   5   4   51.72   10.02
   4   5   4   25.89    7.00
   4   5   4   30.95    8.25
  -5  -5  -4   39.71    8.14
  -5  -5  -4   41.65   10.05
   5   5   4   28.84    9.72
   5   5   4   40.77    9.30
  -6  -5  -4   76.12   11.48
   6   5   4   56.08   12.13
   6   5   4   61.47   12.67
  -7  -5  -4   33.60   12.89
  -7  -5  -4   51.89   15.42
   7   5   4   40.77   14.07
   7   5   4   30.03   13.80
   7   5   4   53.56   13.02
  -8  -5  -4    7.11   15.00
  -8  -5  -4    4.15   12.02
   8   5   4   10.13   13.90
   8   5   4   22.67   16.13
   8   5   4    3.85   13.24
  -9  -5  -4   11.59   16.51
  -9  -5  -4  -26.72   13.40
   9   5   4    8.13   18.28
   9   5   4    3.53   20.48
   9   5   4  -20.40   16.61
 -10  -5  -4   14.83   22.03
 -10  -5  -4   44.89   22.43
  10   5   4    0.41   20.61
  10   5   4  -21.98   25.14
   8  -6  -4  -13.50   20.39
   7  -6  -4    5.93   16.35
  -7   6   4    4.27   14.85
   6  -6  -4   -6.39    8.81
   6  -6  -4    5.75   13.37
   6  -6  -4   99.16   39.73
  -6   6   4    5.01   15.09
  -6   6   4    1.54   12.18
   5  -6  -4  -33.73   32.27
   5  -6  -4    0.82   11.62
  -5   6   4   18.65    9.19
  -5   6   4    4.54   13.31
   4  -6  -4  110.76   12.71
   4  -6  -4  123.24   11.58
   4  -6  -4  189.94   41.71
  -4   6   4  125.09   10.86
   3  -6  -4   25.07   30.80
   3  -6  -4   27.19    5.14
   3  -6  -4   21.52    5.91
  -3   6   4   31.21    5.13
  -3   6   4   17.99    6.10
   2  -6  -4   34.23   25.33
  -2   6   4   50.22    5.52
  -2   6   4   37.00    4.45
   1  -6  -4    1.46   20.14
   0  -6  -4   80.53   20.55
   0   6   4   81.97   17.73
   0   6   4   49.08    3.65
   0   6   4   57.21    4.33
  -1  -6  -4   21.88   16.00
  -1  -6  -4   10.58    3.50
  -1  -6  -4   10.64    4.38
   1   6   4   17.31    4.73
   1   6   4   14.47    3.44
   1   6   4   17.67   13.45
  -2  -6  -4    5.19    4.04
  -2  -6  -4    2.75    4.67
   2   6   4    2.38    5.16
   2   6   4  -10.39    9.63
   2   6   4    4.31    4.90
  -3  -6  -4    0.65    5.79
  -3  -6  -4   -6.69    3.95
   3   6   4    3.60    5.44
   3   6   4    8.01    9.08
   3   6   4   -5.16    5.91
  -4  -6  -4   75.85    8.69
  -4  -6  -4   80.09   10.38
   4   6   4   80.51   10.09
   4   6   4   52.29    8.87
   4   6   4   73.03    9.86
  -5  -6  -4   25.86    9.36
  -5  -6  -4   22.06    6.51
   5   6   4   27.40    9.24
  -6  -6  -4  392.73   23.68
  -6  -6  -4  426.29   21.96
   6   6   4  450.20   24.64
   6   6   4  376.69   23.57
  -7  -6  -4   51.84   15.62
   7   6   4   21.05   13.88
   7   6   4   29.23   12.99
  -8  -6  -4    3.67   13.88
  -8  -6  -4   -9.70   14.01
   8   6   4   -7.88   13.03
   8   6   4  -27.46   14.15
  -9  -6  -4   -3.16   18.41
  -9  -6  -4  -37.11   18.85
   9   6   4  -35.67   17.54
   9   6   4   54.92   19.82
 -10  -6  -4   28.00   19.93
  10   6   4   -9.27   21.32
   8  -7  -4  -11.81   21.13
   7  -7  -4   18.98   17.21
  -7   7   4   22.24   17.41
   6  -7  -4  -19.84   12.69
   6  -7  -4   44.13   44.59
   6  -7  -4   -2.38   12.26
  -6   7   4  -20.80   23.46
  -6   7   4   17.17   13.68
   5  -7  -4   12.33    7.91
   5  -7  -4   39.17   35.89
   5  -7  -4   23.30    9.74
  -5   7   4   13.82   11.94
  -5   7   4   15.86    9.84
   4  -7  -4   49.00   34.12
  -4   7   4   18.00    7.18
  -4   7   4   27.99    7.18
   3  -7  -4   29.12   29.11
  -3   7   4   22.35    4.76
  -3   7   4   26.39    5.15
   2  -7  -4  160.25   38.79
   1  -7  -4    6.16   23.32
   0  -7  -4   33.63   21.63
  -1  -7  -4   10.26    3.05
  -1  -7  -4   10.17   17.16
   1   7   4   10.84    4.67
  -2  -7  -4   12.33    4.72
  -2  -7  -4   23.52   15.69
  -2  -7  -4   14.73    5.50
   2   7   4   17.63    5.95
   2   7   4    5.50    5.79
  -3  -7  -4   29.18    7.43
  -3  -7  -4   21.77    5.63
   3   7   4   23.55    6.79
   3   7   4   33.04    7.62
  -4  -7  -4   56.41    8.26
  -4  -7  -4   68.22   10.67
   4   7   4   58.22   10.22
   4   7   4   66.46    9.57
  -5  -7  -4   -3.81    6.01
   5   7   4   18.94    9.04
   5   7   4   -0.09    8.47
  -6  -7  -4   28.88   10.05
  -6  -7  -4   13.72   12.09
   6   7   4   21.97   11.76
   6   7   4   34.93   10.87
  -7  -7  -4    2.40   10.73
  -7  -7  -4    3.22   13.90
   7   7   4    4.47   11.95
   7   7   4    1.86   12.38
  -8  -7  -4   -5.51   14.96
  -8  -7  -4   12.59   12.72
   8   7   4   20.02   15.11
   8   7   4    0.83   15.95
  -9  -7  -4  -14.20   17.57
  -9  -7  -4  -14.50   19.92
   9   7   4   -4.93   19.47
   9   7   4   37.62   18.91
 -10  -7  -4  -48.73   20.86
  10   7   4   70.95   26.54
  -7   8   4   52.55   20.16
  -6   8   4    2.19   15.72
   5  -8  -4   76.27   47.40
  -5   8   4    4.77   10.35
  -5   8   4   21.83    8.56
   4  -8  -4  -10.46   33.44
  -4   8   4    9.69    5.13
  -4   8   4    0.44    5.68
   3  -8  -4   22.48   30.71
   2  -8  -4   18.64   28.14
   1  -8  -4   -4.65   24.15
   0  -8  -4   32.82   22.52
  -1  -8  -4   16.22   19.99
   1   8   4   16.60    4.61
   1   8   4   10.99    4.08
  -2  -8  -4  168.12   24.29
  -2  -8  -4  114.17   10.12
  -2  -8  -4  119.46    9.43
   2   8   4  103.13   10.34
  -3  -8  -4  126.39   12.15
  -3  -8  -4  128.76    9.78
   3   8   4  124.31   11.98
   3   8   4  124.87   11.37
  -4  -8  -4    8.52    9.20
  -4  -8  -4   11.81    6.12
   4   8   4    8.99    8.93
   4   8   4    7.13    7.43
  -5  -8  -4   10.18   10.71
  -5  -8  -4    7.95    6.94
   5   8   4  -12.28    8.61
   5   8   4   -1.58    9.62
  -6  -8  -4   24.13    8.90
  -6  -8  -4   16.97   12.66
   6   8   4    3.09   12.06
   6   8   4   -9.68   11.58
  -7  -8  -4   24.27   13.31
  -7  -8  -4   -8.26    9.13
   7   8   4   15.47   15.04
   7   8   4    4.05   13.12
  -8  -8  -4   -0.52   15.45
  -8  -8  -4   -8.42   13.82
   8   8   4  -10.53   15.33
   8   8   4   20.55   18.65
  -9  -8  -4   62.39   20.57
   9   8   4   14.52   23.46
 -10  -8  -4   -4.39   25.53
  10   8   4    3.64   27.13
   4  -9  -4   78.65   38.62
   3  -9  -4   32.46   35.85
   2  -9  -4   -8.33   30.86
   1  -9  -4   40.34   31.20
   0  -9  -4   40.84   27.75
  -1  -9  -4  116.26   28.29
   1   9   4   77.31    6.60
   1   9   4   79.46    5.82
  -2  -9  -4    6.65    4.87
  -2  -9  -4   18.58   19.95
  -2  -9  -4   13.61    6.45
   2   9   4   16.36    6.32
   2   9   4    1.19    6.55
  -3  -9  -4   90.89   18.92
  -3  -9  -4   55.54    7.80
  -3  -9  -4   61.55   10.21
   3   9   4   52.50   10.09
   3   9   4   59.63    9.84
  -4  -9  -4   -1.83    6.01
  -4  -9  -4   -2.08   11.26
   4   9   4   -1.17   10.20
   4   9   4   -3.18    9.13
  -5  -9  -4    6.11    7.30
  -5  -9  -4    9.11   11.65
   5   9   4    9.45   10.90
   5   9   4    7.66   11.75
  -6  -9  -4   18.30   13.17
  -6  -9  -4  -23.21    8.47
   6   9   4    4.90   13.74
   6   9   4   25.19   13.46
  -7  -9  -4    2.42   14.47
  -7  -9  -4   -9.80   12.39
   7   9   4   -6.88   13.42
   7   9   4   -5.00   14.95
  -8  -9  -4   -1.81   17.23
  -8  -9  -4   -6.86   17.26
   8   9   4   -1.82   19.29
   8   9   4    5.21   19.18
  -9  -9  -4   11.64   22.84
   9   9   4   23.83   25.04
 -10  -9  -4  -23.02   26.72
   3 -10  -4   38.84   40.74
   2 -10  -4   48.48   37.88
   1 -10  -4   19.35   31.03
   0 -10  -4   34.99   29.51
  -1 -10  -4   33.72   27.30
  -2 -10  -4   15.03   23.11
  -2 -10  -4   10.75    4.17
  -2 -10  -4   11.23    5.30
   2  10   4   21.25    7.23
   2  10   4   -0.96    7.65
  -3 -10  -4   31.12   10.23
  -3 -10  -4   15.50   17.97
   3  10   4   33.16   10.39
   3  10   4    1.00   11.61
  -4 -10  -4   -6.96   12.44
  -4 -10  -4  -15.09    6.28
   4  10   4    3.51   10.96
   4  10   4   13.78   10.73
  -5 -10  -4   -9.26   12.71
  -5 -10  -4   18.72    8.12
   5  10   4   -0.62   12.57
   5  10   4    3.15   13.73
  -6 -10  -4    8.95   14.69
  -6 -10  -4  -17.64   10.09
   6  10   4   17.96   15.65
   6  10   4  -18.86   15.50
  -7 -10  -4   23.41   17.45
  -7 -10  -4  -25.77   12.58
   7  10   4  -11.52   17.43
   7  10   4    8.77   19.04
  -8 -10  -4  -23.69   18.37
   8  10   4  -13.20   22.72
  -9 -10  -4   39.34   26.45
   9  10   4   27.89   27.75
   3 -11  -4   43.82   47.26
   2 -11  -4   38.27   38.56
   1 -11  -4   38.86   36.54
   0 -11  -4   60.94   35.36
  -1 -11  -4   67.90   32.98
  -2 -11  -4   29.51   27.29
   2  11   4   18.01    6.84
   2  11   4   20.48    9.62
  -3 -11  -4    5.84   20.87
  -3 -11  -4    2.46    7.15
  -3 -11  -4   20.32   14.50
   3  11   4   11.33   12.12
  -4 -11  -4    0.21   13.73
  -4 -11  -4   -8.31    7.21
   4  11   4    8.54   13.86
   4  11   4   13.96   13.24
  -5 -11  -4    6.51   15.84
  -5 -11  -4   14.48    8.97
   5  11   4   27.85   15.37
   5  11   4  -11.63   14.80
  -6 -11  -4  -15.81   16.41
  -6 -11  -4  -17.01   11.00
   6  11   4   29.05   17.61
   6  11   4   -4.45   16.44
  -7 -11  -4   22.96   15.07
  -7 -11  -4    2.85   18.92
   7  11   4   12.66   21.16
   2 -12  -4   57.54   45.12
   1 -12  -4   37.83   42.33
   0 -12  -4  -21.14   38.73
  -1 -12  -4   17.64   36.61
  -2 -12  -4    7.22   33.65
   2  12   4    0.09    7.18
  -3 -12  -4    1.34    7.22
  -3 -12  -4  -31.85   25.12
   3  12   4   -0.04   14.34
   3  12   4    4.32   10.25
  -4 -12  -4   -4.36   14.63
   4  12   4  -11.08   16.97
   4  12   4    0.22   16.64
  -5 -12  -4    4.89   17.88
   5  12   4   21.39   18.58
  -6 -12  -4   33.49   19.92
   1 -13  -4   76.99   52.99
   0 -13  -4   87.71   48.38
  -1 -13  -4   43.97   45.74
  -2 -13  -4  -67.64   39.29
   3  13   4    5.03   16.56
  -4 -13  -4   27.24   16.14
   4  13   4   24.04   19.79
  -5 -13  -4   39.59   20.10
   5  13   4  -13.15   26.78
   0 -14  -4   27.89   98.21
   4  14   4   27.40   23.83
   5   9  -5  -10.74   41.87
   4   9  -5  -20.45   36.13
  -4  -9   5    3.64   24.70
   3   9  -5   37.95   38.80
  -3  -9   5  -15.65   20.44
   2   9  -5  -22.55   32.80
  -2  -9   5   55.33   18.41
   1   9  -5  -35.95   34.36
  -1  -9   5  -21.80   16.54
  -1  -9   5  -24.87   24.15
   0   9  -5   37.66   28.75
   0  -9   5   33.84   15.62
   0  -9   5   20.88   20.56
   1  -9   5    2.83   20.90
   2  -9   5  -13.24   18.36
   6   8  -5    7.94   34.05
  -6  -8   5   14.11   27.22
   5   8  -5    9.88   33.53
  -5  -8   5    5.49   20.44
   4   8  -5   10.39   29.39
  -4  -8   5   -7.26   19.94
   3   8  -5  -23.92   30.10
  -3  -8   5  -11.47   25.85
  -3  -8   5   -5.58   17.05
   2   8  -5  -47.58   28.56
   2   8  -5  -15.29   18.69
  -2  -8   5  -27.51   16.93
   1   8  -5   -8.78   17.59
   1   8  -5  -10.03   26.55
  -1  -8   5   -7.51   18.94
  -1  -8   5  -15.75   12.99
   0   8  -5   12.37   24.66
   0   8  -5   28.67   18.46
   0  -8   5  -14.23   13.41
   0  -8   5  -27.03   18.05
  -1   8  -5   -4.85   18.84
  -1   8  -5   28.82   22.27
   1  -8   5   12.74   17.32
   1  -8   5   21.17   13.08
  -2   8  -5    2.68   21.92
  -2   8  -5   38.91   21.24
   2  -8   5   19.97   17.42
   2  -8   5   19.78   13.87
  -3   8  -5  -18.17   23.12
  -3   8  -5  -10.62   22.01
   3  -8   5  -11.59   15.04
   3  -8   5   11.08   16.82
   4  -8   5   32.94   17.30
   6   7  -5   13.14   31.17
  -6  -7   5    4.27   21.37
   5   7  -5  -38.09   29.49
  -5  -7   5  -18.10   39.82
  -5  -7   5    8.80   29.44
  -5  -7   5  -22.84   18.97
   4   7  -5    9.77   16.55
   4   7  -5   -9.30   24.01
  -4  -7   5   11.99   20.25
  -4  -7   5   44.93   17.70
   3   7  -5   -8.31   25.88
   3   7  -5    9.71   14.28
  -3  -7   5   -1.97   19.10
  -3  -7   5    4.29   12.47
   2   7  -5   39.43   30.36
   2   7  -5   -8.69   13.28
  -2  -7   5  -26.91   16.07
  -2  -7   5   -2.27   18.22
   1   7  -5  -18.14   15.27
   1   7  -5  -27.89   22.16
  -1  -7   5   -4.23   11.59
  -1  -7   5  -11.17   15.74
   0   7  -5   29.51   22.19
   0   7  -5   56.04   16.02
   0  -7   5   38.65   12.71
   0  -7   5   15.78   16.37
  -1   7  -5   37.06   22.12
  -1   7  -5   48.16   17.01
   1  -7   5   37.84   11.96
   1  -7   5   36.31   17.04
  -2   7  -5   -6.97   16.32
  -2   7  -5  -20.34   19.56
   2  -7   5    8.57   14.55
   2  -7   5   41.49   12.87
  -3   7  -5   -4.67   19.71
  -3   7  -5  -17.11   17.50
   3  -7   5  -11.58   14.16
   3  -7   5   -2.11   12.55
  -4   7  -5    5.06   18.96
  -4   7  -5   59.51   23.10
   4  -7   5   21.34   15.12
   4  -7   5    3.69   13.73
   5  -7   5  -15.42   15.84
   5  -7   5  -13.26   25.81
   6   6  -5   24.20   29.47
  -6  -6   5   40.17   27.13
  -6  -6   5   56.67   19.43
  -6  -6   5    3.41   29.80
   5   6  -5   22.28   17.13
   5   6  -5    4.63   21.96
  -5  -6   5   -3.89   26.77
  -5  -6   5   15.92   21.01
  -5  -6   5  -17.73   15.02
   4   6  -5  -17.91   20.93
   4   6  -5   -8.16   14.88
  -4  -6   5  -20.95   13.77
  -4  -6   5    4.77   18.32
   3   6  -5   15.31   21.94
   3   6  -5   -1.78   13.72
  -3  -6   5  -14.29   18.45
  -3  -6   5  -14.68   11.52
   2   6  -5   18.77   19.27
   2   6  -5   27.80   14.16
  -2  -6   5   -1.92   16.15
  -2  -6   5   19.89   11.94
   1   6  -5   30.06   14.21
   1   6  -5   41.23   18.29
  -1  -6   5   52.98   16.10
  -1  -6   5   14.69   10.64
   0   6  -5   31.41   19.83
   0   6  -5   -5.45   13.31
   0  -6   5   38.34   11.91
   0  -6   5   49.86   16.60
  -1   6  -5   40.91   19.68
  -1   6  -5   53.81   15.85
   1  -6   5   40.52   15.87
   1  -6   5   69.66   12.53
  -2   6  -5    8.75   17.46
  -2   6  -5    8.20   13.67
   2  -6   5   11.54   10.95
   2  -6   5    6.28   14.24
  -3   6  -5  -12.97   15.25
  -3   6  -5   21.81   18.39
   3  -6   5   29.48   14.26
  -4   6  -5   13.54   20.12
  -4   6  -5    8.13   16.91
   4  -6   5  -31.05   12.77
   4  -6   5   29.20   14.14
  -5   6  -5  -19.94   18.73
  -5   6  -5   -3.25   21.08
   5  -6   5   25.93   15.37
   5  -6   5   10.05   14.50
  -6   6  -5  -18.15   23.65
   6  -6   5   17.99   18.78
   6  -6   5    9.62   15.83
   7   5  -5  -49.10   30.36
  -7  -5   5   42.17   19.91
  -7  -5   5   30.96   43.13
   6   5  -5   -3.83   21.64
   6   5  -5   10.27   16.45
  -6  -5   5   -5.53   25.01
  -6  -5   5   -7.02   16.13
  -6  -5   5   31.98   24.14
   5   5  -5  -15.17   13.53
   5   5  -5   26.24   20.93
  -5  -5   5   -2.32   25.41
  -5  -5   5   20.44   19.17
  -5  -5   5   -9.57   12.48
   4   5  -5    9.62   12.75
   4   5  -5   -6.54   19.94
  -4  -5   5    9.78   11.27
  -4  -5   5    9.18   17.25
  -4  -5   5    5.61   22.65
   3   5  -5   13.47   12.53
  -3  -5   5   -5.79   18.17
  -3  -5   5   -1.67    9.57
   2   5  -5   -6.65   17.85
   2   5  -5   40.60   12.24
  -2  -5   5   12.00    9.96
  -2  -5   5   36.88   17.02
   1   5  -5   35.51   18.53
   1   5  -5   63.10   13.62
  -1  -5   5   67.85   12.29
   0   5  -5    3.73   11.63
   0   5  -5   22.67   16.50
   0  -5   5   17.50   13.18
   0  -5   5    7.75    9.59
  -1   5  -5  126.89   19.59
  -1   5  -5  126.55   17.26
   1  -5   5  127.30   15.71
   1  -5   5  139.50   18.53
  -2   5  -5  -10.67   12.96
  -2   5  -5  -28.92   12.07
   2  -5   5   -7.78   11.12
   2  -5   5    5.19    9.96
  -3   5  -5   24.48   14.06
   3  -5   5   -1.35   10.39
   3  -5   5    0.95   12.74
  -4   5  -5    0.56   14.96
  -4   5  -5   20.13   17.71
   4  -5   5   20.51   11.99
   4  -5   5    2.72   13.48
  -5   5  -5  -15.77   17.08
  -5   5  -5    2.27   18.27
   5  -5   5    4.87   13.45
   5  -5   5  -16.65   13.13
  -6   5  -5  -19.78   19.69
  -6   5  -5  -10.50   20.50
   6  -5   5   14.62   14.62
   6  -5   5   34.13   17.00
  -7   5  -5  -16.47   23.55
   7  -5   5  -16.92   20.78
   7  -5   5   12.99   16.59
   7   4  -5  -14.94   17.47
   7   4  -5   -4.09   25.98
  -7  -4   5    8.82   24.18
  -7  -4   5    5.67   15.55
   6   4  -5   42.52   16.83
   6   4  -5  -13.22   19.52
  -6  -4   5   94.10   26.70
  -6  -4   5    2.22   13.69
  -6  -4   5   29.72   20.38
   5   4  -5    4.35   12.95
   5   4  -5   -5.76   18.63
  -5  -4   5   18.06   19.76
  -5  -4   5  -10.40   12.75
  -5  -4   5   16.78   23.78
   4   4  -5  -16.84   15.95
   4   4  -5   10.51   12.28
  -4  -4   5   -7.26   10.62
  -4  -4   5   18.70   21.16
  -4  -4   5   23.24   17.60
   3   4  -5   -9.33   16.71
   3   4  -5   -3.21   10.96
  -3  -4   5    9.60   15.24
   2   4  -5    4.79   10.35
   2   4  -5   20.82   14.55
  -2  -4   5    2.57   14.33
  -2  -4   5   -6.54    8.56
   1   4  -5   33.73   10.80
   1   4  -5   20.14   16.09
  -1  -4   5   38.42    9.78
   0   4  -5  120.46   15.05
   0   4  -5  143.43   18.40
   0  -4   5  142.21   15.26
   0  -4   5  144.05   18.39
  -1   4  -5   78.25   15.94
  -1   4  -5   75.38   13.58
   1  -4   5  117.96   16.56
   1  -4   5   98.60   12.58
  -2   4  -5  211.22   19.26
  -2   4  -5  208.64   22.94
   2  -4   5  201.42   29.62
   2  -4   5  217.56   16.92
  -3   4  -5   22.71   14.86
  -3   4  -5    3.64   11.88
   3  -4   5   26.35   11.24
   3  -4   5   13.49   12.37
  -4   4  -5    0.63   15.13
  -4   4  -5    4.15   14.76
   4  -4   5   -1.76   12.24
   4  -4   5   -1.01   10.61
  -5   4  -5  -17.12   14.65
  -5   4  -5  -41.00   13.93
   5  -4   5   -1.46   11.52
   5  -4   5    3.55   12.70
  -6   4  -5  -19.21   16.47
  -6   4  -5   11.75   18.80
   6  -4   5   -4.63   12.61
   6  -4   5   -8.74   14.99
  -7   4  -5    7.57   22.03
  -7   4  -5   25.22   20.00
   7  -4   5   34.64   17.50
   7  -4   5   15.35   15.20
  -8   4  -5    5.53   24.41
   8  -4   5   35.09   29.01
   8   3  -5   19.26   24.38
  -8  -3   5   69.42   30.19
   7   3  -5   13.01   21.59
   7   3  -5   12.93   16.60
  -7  -3   5    1.28   15.47
  -7  -3   5  -18.10   22.91
  -7  -3   5   33.21   26.89
   6   3  -5   -2.83   13.81
   6   3  -5  -13.48   18.30
  -6  -3   5    2.95   21.42
  -6  -3   5   32.04   29.06
  -6  -3   5    6.60   13.51
   5   3  -5   15.88   13.79
   5   3  -5   33.53   18.19
  -5  -3   5   10.20   16.49
  -5  -3   5   28.45   23.04
  -5  -3   5   31.35   12.63
   4   3  -5   11.80   10.77
   4   3  -5   38.92   17.83
  -4  -3   5    3.20   15.30
  -4  -3   5   22.78   10.80
  -4  -3   5   14.13   19.14
   3   3  -5    2.72   15.65
   3   3  -5   -8.03   10.06
  -3  -3   5    5.41    8.88
  -3  -3   5   24.12   17.60
  -3  -3   5    8.54   15.92
   2   3  -5   35.56   10.68
   2   3  -5   41.40   15.23
  -2  -3   5   26.99    9.22
  -2  -3   5   30.56   13.77
   1   3  -5   44.36   14.15
   1   3  -5   53.89   11.22
  -1  -3   5   62.76   15.19
  -1  -3   5   56.32   10.42
   0   3  -5   31.50   12.98
   0   3  -5   42.67   10.15
   0  -3   5   29.80   11.42
   0  -3   5   25.01    9.30
  -1   3  -5   13.27   12.26
  -1   3  -5   47.65   11.88
   1  -3   5   62.45   12.50
   1  -3   5   51.67   10.35
  -2   3  -5   23.10   10.08
  -2   3  -5   11.99   12.02
   2  -3   5   11.51    8.85
   2  -3   5   21.97   10.03
  -3   3  -5   42.45   13.65
   3  -3   5   51.93   11.78
   3  -3   5   36.03   10.45
  -4   3  -5  150.86   18.11
  -4   3  -5  115.51   17.77
   4  -3   5  142.16   16.24
   4  -3   5  141.45   16.64
  -5   3  -5   38.58   16.14
  -5   3  -5   15.41   14.23
   5  -3   5   17.38   11.83
   5  -3   5   18.22   12.66
  -6   3  -5   -2.79   15.73
  -6   3  -5   15.88   13.83
   6  -3   5   17.47   13.86
   6  -3   5   36.33   13.80
  -7   3  -5   23.35   14.60
  -7   3  -5    7.83   17.39
   7  -3   5  -15.24   14.08
   7  -3   5  -22.66   15.93
  -8   3  -5   15.47   20.13
   8  -3   5   -6.63   16.14
   8  -3   5    0.51   19.17
  -9   3  -5  -13.95   27.80
   9  -3   5  -18.77   43.03
   9   2  -5  -33.13   50.61
   8   2  -5    4.72   19.96
  -8  -2   5  -46.44   28.52
   7   2  -5  -11.34   20.87
   7   2  -5  -20.72   15.22
  -7  -2   5   -6.08   13.49
  -7  -2   5    8.97   21.17
  -7  -2   5   36.26   27.74
   6   2  -5    7.25   13.44
   6   2  -5   27.54   20.72
  -6  -2   5   33.34   12.97
  -6  -2   5   53.39   29.81
  -6  -2   5   46.18   20.03
   5   2  -5   33.39   13.37
   5   2  -5   16.50   16.08
  -5  -2   5    2.98   11.00
  -5  -2   5   19.68   18.08
  -5  -2   5    3.75   22.55
   4   2  -5  207.15   22.93
  -4  -2   5  179.33   16.60
  -4  -2   5  178.22   25.28
  -4  -2   5  189.90   21.97
   3   2  -5   75.75   15.87
   3   2  -5  120.07   13.86
  -3  -2   5  149.03   24.27
  -3  -2   5  108.17   16.66
  -3  -2   5  108.44   13.28
   2   2  -5  200.21   20.28
   2   2  -5  248.47   17.40
  -2  -2   5  204.07   14.97
  -2  -2   5  210.56   19.86
   1   2  -5    2.80   10.98
   1   2  -5    0.97    8.46
  -1  -2   5   -3.66    6.79
  -1  -2   5    5.98   12.00
   0   2  -5   -7.50    8.65
   0   2  -5   -5.16   11.33
   0  -2   5   -5.72    9.87
   0  -2   5   -0.56    7.07
  -1   2  -5   60.83   10.57
  -1   2  -5   40.23   12.41
   1  -2   5   56.46   10.78
   1  -2   5   53.68   10.99
  -2   2  -5  136.22   14.93
  -2   2  -5  140.30   16.24
   2  -2   5  124.50   15.52
   2  -2   5  127.38   14.84
  -3   2  -5   16.19   10.37
  -3   2  -5   21.68   11.24
   3  -2   5    6.69    9.02
   3  -2   5   12.35    9.35
  -4   2  -5   26.74   11.27
  -4   2  -5   12.64   12.75
   4  -2   5   24.97   10.15
   4  -2   5    5.59    9.41
  -5   2  -5   55.31   14.07
  -5   2  -5   58.21   12.40
   5  -2   5   69.62   14.23
   5  -2   5   82.24   15.47
  -6   2  -5   11.00   14.54
  -6   2  -5   17.23   13.53
   6  -2   5   18.91   13.59
   6  -2   5   26.49   13.51
  -7   2  -5    7.52   13.27
  -7   2  -5   13.61   16.12
   7  -2   5    0.70   12.81
   7  -2   5   -3.99   12.73
  -8   2  -5   31.10   22.33
  -8   2  -5   51.03   19.21
   8  -2   5   51.13   17.05
   8  -2   5   -7.25   19.14
  -9   2  -5   -5.57   22.85
   9  -2   5   59.61   26.56
   9   1  -5  -66.26   27.85
  -9  -1   5   14.51   30.58
   8   1  -5   -3.93   20.39
  -8  -1   5  -22.30   24.82
   7   1  -5    1.28   14.52
   7   1  -5  -22.82   16.89
  -7  -1   5  -27.73   13.94
  -7  -1   5   39.69   29.42
  -7  -1   5   22.52   21.35
   6   1  -5   -9.44   11.34
   6   1  -5   19.03   16.20
  -6  -1   5   12.89   18.79
  -6  -1   5    1.07   10.99
  -6  -1   5   48.52   25.16
   5   1  -5  140.25   20.47
   5   1  -5  135.12   25.17
  -5  -1   5  145.20   16.96
  -5  -1   5  243.26   36.04
  -5  -1   5  183.93   23.12
   4   1  -5  217.54   33.63
   4   1  -5  216.61   16.75
  -4  -1   5  192.39   20.80
  -4  -1   5  195.65   26.42
  -4  -1   5  245.00   16.18
   3   1  -5   26.56   13.50
   3   1  -5   10.11    8.82
  -3  -1   5   23.94   16.69
  -3  -1   5   37.89   13.89
  -3  -1   5   24.47    9.23
   2   1  -5   19.80    8.80
   2   1  -5   22.75   11.46
  -2  -1   5   12.01   10.90
  -2  -1   5   10.93    7.50
  -2  -1   5   48.06   15.53
   1   1  -5   94.62   11.88
   1   1  -5   69.45   12.72
  -1  -1   5   72.25   10.37
  -1  -1   5   81.70   13.08
   0   1  -5  -18.05    7.40
   0   1  -5   21.68   10.86
   0  -1   5    4.63    8.47
   0  -1   5    7.98    6.97
  -1   1  -5  532.27   25.68
  -1   1  -5  525.42   27.15
   1  -1   5  531.30   25.39
   1  -1   5  486.79   25.17
  -2   1  -5   56.20   10.44
  -2   1  -5   78.07   12.69
   2  -1   5   69.98   11.65
   2  -1   5   66.79   10.86
  -3   1  -5   -2.05    7.28
  -3   1  -5   16.12   10.44
   3  -1   5   -3.72    8.25
   3  -1   5    6.17    8.37
  -4   1  -5   36.84   12.31
  -4   1  -5   55.76   10.69
   4  -1   5   61.22   11.00
   4  -1   5   41.68   10.99
  -5   1  -5  157.22   19.57
  -5   1  -5  153.20   16.72
   5  -1   5  138.24   16.64
  -6   1  -5  107.34   15.38
  -6   1  -5   90.08   16.14
   6  -1   5   96.23   14.91
   6  -1   5  100.81   14.64
  -7   1  -5   15.34   16.50
  -7   1  -5   39.01   12.75
   7  -1   5   24.30   15.66
   7  -1   5   17.52   16.68
  -8   1  -5   17.38   17.56
  -8   1  -5   -9.71   15.31
   8  -1   5   -5.97   14.83
   8  -1   5  -10.95   17.04
  -9   1  -5   -7.09   21.32
   9  -1   5  -35.44   19.47
   9  -1   5   23.71   24.08
 -10   1  -5   -2.65   28.09
  10  -1   5    2.47   30.40
   9   0  -5   -3.34   25.39
  -9   0   5  -24.46   28.39
   8   0  -5    3.14   20.96
  -8   0   5   54.19   29.50
   7   0  -5   19.59   20.03
   7   0  -5   51.82   17.36
  -7   0   5  103.03   22.94
  -7   0   5   18.76   14.54
   6   0  -5    9.84   16.98
  -6   0   5  -17.84   25.44
  -6   0   5    1.93   10.33
  -6   0   5   -4.30   15.83
   5   0  -5   15.25   14.34
   5   0  -5   15.55    9.94
  -5   0   5   31.64   10.85
  -5   0   5   14.12   13.92
  -5   0   5   21.25   25.76
   4   0  -5  114.53   13.82
   4   0  -5  147.95   21.05
  -4   0   5  158.28   29.10
  -4   0   5  119.26   17.02
  -4   0   5  129.20   12.66
   3   0  -5   -3.47   10.91
   3   0  -5   -4.61    7.07
  -3   0   5    6.44   10.98
  -3   0   5   13.07    7.71
  -3   0   5   -4.02   17.02
   2   0  -5  100.32   11.76
   2   0  -5   88.41   14.21
  -2   0   5  139.71   22.49
  -2   0   5  109.82   14.41
  -2   0   5   96.41   10.95
   1   0  -5  206.36   17.64
   1   0  -5  184.28   13.70
  -1   0   5  192.60   16.25
  -1   0   5  212.32   13.97
   0   0  -5   10.86    7.36
   0   0  -5    8.26   10.18
   0   0   5   20.43    7.82
  -1   0  -5   30.65    8.69
  -1   0  -5   22.58   10.14
   1   0   5   27.10    8.44
   1   0   5   33.33    8.68
  -2   0  -5  118.73   14.20
  -2   0  -5  129.16   12.08
   2   0   5  138.59   12.91
   2   0   5  127.24   12.46
  -3   0  -5   14.80    7.68
  -3   0  -5   24.30   10.88
   3   0   5   10.63    7.96
   3   0   5   17.44    8.62
  -4   0  -5   27.02   10.93
  -4   0  -5   33.07    8.93
   4   0   5   38.40   11.14
   4   0   5   32.66    9.37
  -5   0  -5   91.73   12.82
  -5   0  -5   87.87   14.41
   5   0   5  118.81   14.38
   5   0   5   66.35   12.52
  -6   0  -5   72.87   14.78
  -6   0  -5   53.01   11.90
   6   0   5   79.69   13.82
   6   0   5   72.54   14.99
  -7   0  -5   12.38   15.29
  -7   0  -5   -1.42   12.39
   7   0   5   16.58   12.63
  -8   0  -5    4.35   17.51
  -8   0  -5    9.95   15.16
   8   0   5   -9.43   16.94
   8   0   5   11.22   15.22
  -9   0  -5  -10.05   20.22
  -9   0  -5   17.90   18.59
   9   0   5   -1.57   17.62
   9   0   5   10.51   19.30
 -10   0  -5  -41.71   27.12
  10   0   5    0.19   29.64
 -11   0  -5  -16.66   55.92
   8  -1  -5   42.89   18.82
  -8   1   5  -17.60   26.47
   7  -1  -5  -51.18   38.59
   7  -1  -5   35.29   16.73
  -7   1   5   19.04   12.06
   6  -1  -5   -3.04   15.51
   6  -1  -5  -20.67   33.66
   6  -1  -5   45.81   12.13
  -6   1   5   31.02   17.37
  -6   1   5   25.35   26.40
  -6   1   5    9.74   11.90
   5  -1  -5   28.30   10.45
   5  -1  -5   22.86   14.45
  -5   1   5    9.36   14.59
  -5   1   5   51.01   12.25
  -5   1   5   37.27   24.39
   4  -1  -5    6.42   12.81
   4  -1  -5    3.41    8.10
  -4   1   5  -10.57   18.99
  -4   1   5    8.60   12.44
  -4   1   5    4.95    8.12
   3  -1  -5   65.38   13.19
   3  -1  -5   98.77   11.51
  -3   1   5   88.62   11.00
  -3   1   5  103.89   15.38
  -3   1   5   87.35   22.97
   2  -1  -5    1.95    8.75
   2  -1  -5   -6.67    5.70
  -2   1   5   12.28   15.47
  -2   1   5    8.67    6.84
  -2   1   5   15.44    9.39
   1  -1  -5   43.33   10.80
   1  -1  -5   50.35    8.94
  -1   1   5   42.64   10.21
  -1   1   5   59.57   15.88
  -1   1   5   34.89    7.96
   0  -1  -5  104.01   12.65
   0  -1  -5  123.60   11.86
   0   1   5  118.50   12.36
   0   1   5  113.33   13.13
  -1  -1  -5  313.89   19.13
  -1  -1  -5  338.63   18.76
   1   1   5  306.54   17.59
   1   1   5  350.49   18.41
  -2  -1  -5  271.96   18.72
  -2  -1  -5  277.19   16.24
   2   1   5  271.54   17.15
   2   1   5  290.56   17.13
  -3  -1  -5  863.24   35.02
  -3  -1  -5  792.25   35.83
   3   1   5  761.16   35.23
   3   1   5  794.20   34.34
  -4  -1  -5   87.11   13.00
  -4  -1  -5   99.17   11.84
   4   1   5   74.72   11.33
   4   1   5   84.21   12.16
  -5  -1  -5   42.40   10.05
  -5  -1  -5   44.58   13.29
   5   1   5   40.74   10.28
   5   1   5   49.70   11.02
  -6  -1  -5   39.04   13.26
  -6  -1  -5   58.79   11.64
   6   1   5   47.01   13.98
  -7  -1  -5   -6.80   12.19
   7   1   5    8.03   12.23
   7   1   5   17.06   11.86
  -8  -1  -5   27.24   17.56
  -8  -1  -5    2.38   14.66
   8   1   5    3.56   13.93
   8   1   5    3.34   14.36
  -9  -1  -5   47.52   20.11
  -9  -1  -5   52.12   19.61
   9   1   5   10.89   17.72
   9   1   5    1.18   17.89
 -10  -1  -5  -15.74   24.27
  10   1   5   -3.55   27.91
  11   1   5  185.74   76.34
  11   1   5   17.38   56.45
   8  -2  -5  -23.99   17.44
  -8   2   5  -44.25   24.16
   7  -2  -5  -17.48   39.92
   7  -2  -5   19.81   13.27
   7  -2  -5   27.99   17.35
  -7   2   5  -23.87   13.85
  -7   2   5   -3.53   18.54
   6  -2  -5   -4.06   34.13
   6  -2  -5   14.68    9.29
   6  -2  -5    9.37   13.31
  -6   2   5   20.50   16.98
  -6   2   5   -2.22   11.05
  -6   2   5  -22.18   26.96
   5  -2  -5    6.91   31.40
   5  -2  -5   16.92    8.20
   5  -2  -5   12.69   13.15
  -5   2   5   30.21   23.18
  -5   2   5  -10.83   13.29
  -5   2   5  -18.43   10.06
   4  -2  -5   11.46    7.40
   4  -2  -5  -11.71   23.65
   4  -2  -5   -3.28   11.11
  -4   2   5   18.78    8.92
  -4   2   5    5.29   12.27
  -4   2   5   25.54   22.81
   3  -2  -5   59.79   12.18
   3  -2  -5   41.26    7.76
   3  -2  -5   27.24   24.27
  -3   2   5   36.62    8.56
  -3   2   5   33.34   10.95
  -3   2   5   38.22   23.63
   2  -2  -5  292.89   15.65
   2  -2  -5  269.88   18.34
  -2   2   5  210.27   23.60
  -2   2   5  296.65   17.41
  -2   2   5  284.32   15.23
   1  -2  -5    1.87    5.84
   1  -2  -5    3.77    8.25
  -1   2   5    6.39    6.99
  -1   2   5    0.50   15.01
  -1   2   5   -5.84    5.79
   0  -2  -5   -6.55    5.82
   0  -2  -5    2.50    8.45
   0   2   5   21.79   13.09
   0   2   5   -1.53    6.29
   0   2   5    0.49    7.34
  -1  -2  -5   53.93    9.59
   1   2   5   50.89    8.96
   1   2   5   46.26    8.24
  -2  -2  -5  366.30   18.58
  -2  -2  -5  348.33   19.10
   2   2   5  351.50   18.10
   2   2   5  339.58   18.96
  -3  -2  -5  637.42   28.45
  -3  -2  -5  679.42   30.30
   3   2   5  633.65   28.36
   3   2   5  634.66   29.50
  -4  -2  -5    3.43    6.74
  -4  -2  -5    0.92    8.53
   4   2   5   -8.45    7.79
   4   2   5   -8.75    7.23
  -5  -2  -5    3.48    7.48
  -5  -2  -5   14.86   11.01
   5   2   5   -2.77    8.36
   5   2   5    4.40    9.88
  -6  -2  -5   16.50   13.00
   6   2   5    9.23   10.42
   6   2   5    2.28   10.11
  -7  -2  -5   26.89   12.09
  -7  -2  -5   11.44   14.28
   7   2   5    8.73   11.93
   7   2   5   13.63   13.71
  -8  -2  -5  -11.10   13.02
  -8  -2  -5   12.21   15.12
   8   2   5   -1.77   15.35
   8   2   5   19.87   14.51
  -9  -2  -5   -9.84   18.13
  -9  -2  -5   11.94   16.74
   9   2   5    4.46   17.96
   9   2   5   -9.96   16.35
 -10  -2  -5   51.61   23.78
  10   2   5  -19.51   22.56
  10   2   5   50.95   34.66
   8  -3  -5  -22.34   50.30
   8  -3  -5   -7.41   18.27
  -8   3   5   10.60   25.48
   7  -3  -5   -5.51   12.38
   7  -3  -5   11.39   41.90
   7  -3  -5   24.60   18.13
  -7   3   5   -3.75   14.92
  -7   3   5    8.57   20.18
   6  -3  -5   29.25   10.71
   6  -3  -5   34.51   15.43
   6  -3  -5   25.73   35.48
  -6   3   5   23.56   12.01
  -6   3   5   50.54   18.14
   5  -3  -5   18.65    8.15
   5  -3  -5   36.42   13.86
   5  -3  -5    5.23   30.00
  -5   3   5   22.52   14.01
  -5   3   5    8.19   25.68
  -5   3   5   17.31   10.46
   4  -3  -5   11.65    6.73
   4  -3  -5   -7.98   28.16
   4  -3  -5    2.68   10.88
  -4   3   5   16.91    8.38
  -4   3   5   14.95   11.48
  -4   3   5   27.83   31.86
   3  -3  -5   99.43   30.05
   3  -3  -5   66.21    8.45
   3  -3  -5   64.25   11.27
  -3   3   5   78.64   24.08
  -3   3   5   74.00   11.78
  -3   3   5   73.51    9.42
   2  -3  -5   44.00    9.40
   2  -3  -5   79.07   23.64
   2  -3  -5   52.87    7.34
  -2   3   5   31.50    9.03
  -2   3   5   45.05   21.82
  -2   3   5   47.65    7.67
   1  -3  -5   42.77    9.10
   1  -3  -5   43.83    6.74
  -1   3   5   45.10    7.53
  -1   3   5   50.94    9.26
  -1   3   5   41.51   18.86
   0  -3  -5   89.85    9.20
   0  -3  -5   99.10   11.70
   0   3   5  103.21   10.41
   0   3   5  127.04   19.58
   0   3   5  105.29   10.30
  -1  -3  -5   76.76   10.20
   1   3   5  106.44   14.91
   1   3   5   83.42   10.09
   1   3   5   79.28    9.52
  -2  -3  -5   13.67    6.09
  -2  -3  -5   26.24    7.77
   2   3   5   23.63    8.45
   2   3   5   35.88    7.67
  -3  -3  -5  132.90   12.67
  -3  -3  -5  132.40   10.61
   3   3   5  137.37   12.23
   3   3   5  137.19   13.15
  -4  -3  -5    0.80    5.89
  -4  -3  -5  -10.63    7.75
   4   3   5    4.46    7.64
   4   3   5   -2.80    7.71
  -5  -3  -5   -8.78    6.63
  -5  -3  -5   -3.36    9.36
   5   3   5    6.84    8.32
   5   3   5    6.88    8.36
  -6  -3  -5   11.66   13.05
  -6  -3  -5    1.85    8.95
   6   3   5   11.36   10.30
  -7  -3  -5   -1.34   12.72
  -7  -3  -5   16.17   11.60
   7   3   5    4.48   11.65
   7   3   5  -27.47   12.44
  -8  -3  -5  -29.75   13.73
  -8  -3  -5   -4.04   13.40
   8   3   5   13.08   13.17
   8   3   5    5.39   15.49
  -9  -3  -5    8.89   19.37
  -9  -3  -5  -16.53   15.40
   9   3   5   39.55   19.59
   9   3   5    9.89   15.23
 -10  -3  -5  -37.57   19.88
  10   3   5    2.55   31.14
  10   3   5   58.10   24.69
  10   3   5  -12.29   22.87
   7  -4  -5  -33.24   44.73
   7  -4  -5    5.60   12.44
   7  -4  -5   12.23   16.52
  -7   4   5   12.54   15.44
  -7   4   5   14.81   20.66
   6  -4  -5   -8.08    9.25
   6  -4  -5  -14.89   38.37
   6  -4  -5   -0.47   14.39
  -6   4   5   36.29   17.50
  -6   4   5   -5.91   11.76
   5  -4  -5    3.02    6.47
   5  -4  -5   -4.44   11.36
   5  -4  -5   21.81   34.79
  -5   4   5   12.31   10.24
  -5   4   5    3.19   13.22
   4  -4  -5   54.22    8.34
   4  -4  -5   40.55   11.90
   4  -4  -5    7.98   30.88
  -4   4   5   27.52    8.98
  -4   4   5   28.17   11.18
  -4   4   5   48.93   26.48
   3  -4  -5   -1.64   26.35
   3  -4  -5   -8.79    4.93
   3  -4  -5   -8.11    8.54
  -3   4   5   -2.10    5.77
  -3   4   5    5.43    8.21
  -3   4   5  -32.10   17.45
   2  -4  -5    8.49    4.91
   2  -4  -5   10.47    7.95
   2  -4  -5    8.90   22.03
  -2   4   5   11.37    5.87
  -2   4   5    6.95   18.87
  -2   4   5    8.69    7.61
   1  -4  -5  146.92   26.53
   1  -4  -5   70.40    7.57
   1  -4  -5   75.44    9.79
  -1   4   5   76.92    8.41
  -1   4   5   89.67   22.94
   0  -4  -5   60.12    7.73
   0  -4  -5   61.32    8.54
   0   4   5   64.83   19.01
   0   4   5   62.11    7.96
   0   4   5   64.26    8.07
  -1  -4  -5   65.46    8.84
   1   4   5  101.52   17.89
   1   4   5   69.14    8.24
   1   4   5   77.52    9.19
  -2  -4  -5   -8.02    6.37
  -2  -4  -5    5.68    5.20
   2   4   5   18.70   11.12
   2   4   5   -1.34    6.36
   2   4   5   -2.44    5.14
  -3  -4  -5   90.69   10.91
  -3  -4  -5   97.94    9.58
   3   4   5   94.75   10.21
   3   4   5  103.66   10.27
  -4  -4  -5   -0.95    8.43
  -4  -4  -5    4.64    6.07
   4   4   5   -1.38    6.98
   4   4   5    0.75    6.70
  -5  -4  -5    6.05    9.55
  -5  -4  -5   -4.79    6.54
   5   4   5    0.28    8.30
   5   4   5   -5.34    7.86
  -6  -4  -5   26.09   13.30
  -6  -4  -5    9.54    8.15
   6   4   5    5.72    9.55
   6   4   5   19.76    9.95
  -7  -4  -5   58.33   11.79
  -7  -4  -5   50.83   14.67
   7   4   5   51.08   13.18
   7   4   5   53.39   14.18
  -8  -4  -5  -19.85   15.71
  -8  -4  -5   36.16   15.00
   8   4   5    3.46   14.87
   8   4   5  -23.05   11.47
  -9  -4  -5   27.26   19.23
  -9  -4  -5   -7.20   15.33
   9   4   5   11.56   17.91
   9   4   5   52.38   21.31
 -10  -4  -5    4.52   25.92
 -10  -4  -5   -9.28   23.50
  10   4   5   28.80   24.57
  10   4   5   33.73   31.51
  10   4   5   10.13   19.06
   7  -5  -5    3.34   17.28
   7  -5  -5  -66.56   44.06
   7  -5  -5   24.81   12.70
  -7   5   5   19.21   16.39
  -7   5   5   36.73   22.87
   6  -5  -5   14.56    9.01
   6  -5  -5   24.97   14.96
   6  -5  -5   34.38   41.60
  -6   5   5   12.46   12.71
  -6   5   5   14.69   16.54
   5  -5  -5  -30.07   34.55
   5  -5  -5    0.22   12.05
   5  -5  -5  -14.23    6.66
  -5   5   5   20.40   13.43
  -5   5   5    2.07    9.44
   4  -5  -5   68.35   12.20
   4  -5  -5  111.49   36.49
   4  -5  -5   65.27    8.60
  -4   5   5   80.92   13.27
  -4   5   5   57.49    9.78
   3  -5  -5    6.11    8.54
   3  -5  -5   13.62   28.02
   3  -5  -5    2.07    5.56
  -3   5   5   10.81   19.78
  -3   5   5    2.21    6.12
  -3   5   5   12.25    9.42
   2  -5  -5   -2.82   24.34
   2  -5  -5   14.51    7.27
   2  -5  -5   11.21    4.98
  -2   5   5   27.94   20.79
  -2   5   5   22.68    5.75
  -2   5   5    4.81    7.86
   1  -5  -5  148.28   27.09
   1  -5  -5  119.29   10.02
  -1   5   5  109.38    8.82
  -1   5   5  135.80   25.15
   0  -5  -5   15.59    4.99
   0  -5  -5   24.52   19.84
   0  -5  -5   25.47    5.70
   0   5   5   18.90    5.67
   0   5   5   27.75   17.56
  -1  -5  -5  446.62   19.93
   1   5   5  430.99   20.30
   1   5   5  450.33   28.70
   1   5   5  453.28   19.67
  -2  -5  -5  125.11    9.53
  -2  -5  -5  132.68   11.07
   2   5   5  130.14   16.02
   2   5   5  130.58   11.43
   2   5   5  117.44    9.68
  -3  -5  -5   55.45    7.76
  -3  -5  -5   65.11    9.42
   3   5   5   67.92    9.49
   3   5   5   56.26    7.89
   3   5   5   80.55   14.33
  -4  -5  -5   -1.75    5.19
  -4  -5  -5    1.58    7.41
   4   5   5    4.71    7.23
   4   5   5    7.88    7.69
  -5  -5  -5   -3.59    6.87
  -5  -5  -5   -0.32    8.63
   5   5   5   17.53    8.67
   5   5   5    3.83    8.63
  -6  -5  -5  -15.69   10.98
  -6  -5  -5   -1.48    7.49
   6   5   5   -9.60    9.11
   6   5   5    5.00   10.34
  -7  -5  -5   -6.00   12.94
  -7  -5  -5   16.38   10.61
   7   5   5   -3.81   12.73
  -8  -5  -5   -4.08   12.39
  -8  -5  -5   -9.21   14.59
   8   5   5    3.02   13.44
   8   5   5   30.94   15.13
  -9  -5  -5   54.37   16.47
  -9  -5  -5  -11.15   15.89
   9   5   5   -4.53   19.29
   9   5   5  -15.86   16.33
   9   5   5    3.30   15.63
 -10  -5  -5   -0.92   24.37
 -10  -5  -5   14.57   22.66
  10   5   5   -2.57   20.93
  10   5   5    5.90   26.16
   7  -6  -5  -39.17   17.23
  -7   6   5  -21.02   15.49
   6  -6  -5   13.89    9.88
   6  -6  -5  -32.60   42.22
   6  -6  -5   -7.80   14.96
  -6   6   5    7.04   17.45
  -6   6   5    3.18   13.32
   5  -6  -5    3.28    7.84
   5  -6  -5    8.15   37.69
   5  -6  -5   15.16   12.20
  -5   6   5   -3.68    9.84
  -5   6   5   11.60   13.30
   4  -6  -5   -8.46   35.31
   4  -6  -5    3.50   11.31
   4  -6  -5    1.95    9.59
  -4   6   5    0.02    8.48
  -4   6   5   25.45   12.90
   3  -6  -5    3.51    7.65
   3  -6  -5    3.17    5.69
   3  -6  -5    1.56   29.92
  -3   6   5   -0.43    5.32
   2  -6  -5   14.04   28.66
   2  -6  -5   32.02    4.34
   2  -6  -5   30.58    5.76
  -2   6   5   23.52   21.57
  -2   6   5   28.24    5.15
   1  -6  -5  163.45   25.98
   1  -6  -5  178.65    8.18
   1  -6  -5  174.59    8.39
  -1   6   5  214.38   23.56
  -1   6   5  173.10    9.62
  -1   6   5  173.48    9.52
   0  -6  -5  113.44   25.40
   0  -6  -5   69.41    6.09
   0  -6  -5   61.69    5.69
   0   6   5   58.10    6.92
   0   6   5   91.84   22.58
   0   6   5   69.22    5.96
  -1  -6  -5   72.09    7.40
   1   6   5   69.29    8.88
   1   6   5  125.60   22.31
  -2  -6  -5  108.12    8.27
  -2  -6  -5  114.48    9.36
   2   6   5   92.08    8.65
   2   6   5   99.55   10.03
   2   6   5  111.18   17.31
  -3  -6  -5    4.40    5.27
  -3  -6  -5   12.71    7.13
   3   6   5    6.95   12.23
   3   6   5    1.63    6.62
   3   6   5   11.54    5.69
  -4  -6  -5   29.97    9.10
  -4  -6  -5   40.95    7.46
   4   6   5   25.31    8.73
   4   6   5   41.43   13.06
   4   6   5   36.32    8.43
  -5  -6  -5   39.57    8.12
  -5  -6  -5   49.26   11.11
   5   6   5   35.68    9.72
   5   6   5   41.38   11.66
   5   6   5   36.47   10.77
  -6  -6  -5   -2.91    7.22
  -6  -6  -5   -6.67   10.31
   6   6   5    2.28   10.21
   6   6   5    6.28   10.17
  -7  -6  -5   19.24   13.53
   7   6   5   33.96   14.90
   7   6   5   24.15   12.25
  -8  -6  -5  -13.21   14.60
  -8  -6  -5    4.29   14.82
   8   6   5   21.14   13.21
   8   6   5   25.63   14.01
  -9  -6  -5   -0.17   18.84
  -9  -6  -5   10.50   16.56
   9   6   5   -9.73   15.94
   9   6   5   -1.83   16.90
   9   6   5    5.40   16.79
 -10  -6  -5   53.25   21.37
  10   6   5   20.44   20.47
   7  -7  -5   18.38   19.09
  -7   7   5   -7.62   17.80
   6  -7  -5   25.56   15.35
   6  -7  -5   34.88   13.53
  -6   7   5    5.14   14.45
   5  -7  -5   20.99    8.89
   5  -7  -5   63.83   39.30
  -5   7   5   18.82   10.32
   4  -7  -5   48.95   39.47
   4  -7  -5   56.96    7.21
   4  -7  -5   26.31    7.56
  -4   7   5   36.87    8.40
   3  -7  -5    2.00   32.37
  -3   7   5   -1.44    5.98
  -3   7   5    3.56    4.96
   2  -7  -5  501.45   45.34
  -2   7   5  530.30   20.18
  -2   7   5  526.77   20.57
   1  -7  -5  222.90   36.53
   0  -7  -5  474.21   36.20
   0   7   5  573.59   33.58
   0   7   5  474.00   18.84
   0   7   5  485.77   19.22
  -1  -7  -5   97.23   23.49
  -1  -7  -5   66.87    7.22
  -1  -7  -5   70.04    6.13
   1   7   5   81.23    8.67
   1   7   5   74.52    6.22
   1   7   5  129.24   22.37
  -2  -7  -5   63.55    7.53
  -2  -7  -5   53.22    7.10
   2   7   5   64.46   17.61
   2   7   5   60.89    7.96
   2   7   5   57.02    7.94
  -3  -7  -5    8.50    5.52
  -3  -7  -5    0.38    6.46
   3   7   5    8.46   11.98
   3   7   5    1.39    6.71
   3   7   5    5.93    5.95
  -4  -7  -5   35.67    9.27
  -4  -7  -5   23.20    6.77
   4   7   5   41.66   11.87
   4   7   5   18.80    8.06
   4   7   5   15.86    8.66
  -5  -7  -5    8.29    6.86
  -5  -7  -5   19.79   11.73
   5   7   5   17.65    8.61
   5   7   5   25.12   10.92
   5   7   5   11.22    8.97
  -6  -7  -5   15.11   10.98
  -6  -7  -5   29.16    9.52
   6   7   5   36.33   12.02
   6   7   5   11.68    9.86
  -7  -7  -5    2.83   11.01
  -7  -7  -5   -2.54   13.71
   7   7   5  -16.54   12.90
   7   7   5   -2.49   11.48
  -8  -7  -5    0.51   13.06
  -8  -7  -5   -8.64   15.56
   8   7   5   -2.17   15.86
   8   7   5  -17.94   13.38
  -9  -7  -5   30.34   18.78
  -9  -7  -5   -4.97   19.10
   9   7   5   29.90   20.08
   9   7   5   21.11   19.59
 -10  -7  -5  -14.72   22.53
  10   7   5  -23.68   20.63
  -7   8   5   34.15   21.12
  -6   8   5   23.97   16.01
   5  -8  -5   57.79   42.81
  -5   8   5   19.65   11.49
  -5   8   5   -3.19    8.55
   4  -8  -5   31.50   36.39
  -4   8   5    5.15    6.71
  -4   8   5   12.54    7.19
   3  -8  -5    9.41   33.34
   2  -8  -5  128.54   35.56
   1  -8  -5   -8.38   28.77
   0  -8  -5  188.41   32.84
  -1  -8  -5   23.04   20.90
   1   8   5   17.46    5.39
   1   8   5   21.25    3.63
  -2  -8  -5    8.96   18.34
  -2  -8  -5    2.75    5.78
  -2  -8  -5   11.04    5.38
   2   8   5    0.34    6.22
  -3  -8  -5   -7.13    6.99
  -3  -8  -5    6.08    5.38
   3   8   5   21.46    7.15
   3   8   5   -8.77    7.67
  -4  -8  -5    2.43    5.92
  -4  -8  -5   16.10    8.97
   4   8   5    6.80    9.20
   4   8   5   13.24    8.48
  -5  -8  -5    8.85   10.70
  -5  -8  -5   22.65    7.61
   5   8   5    5.68    9.78
   5   8   5    9.00   10.68
  -6  -8  -5   33.42   10.24
  -6  -8  -5   -6.67   12.20
   6   8   5  -12.32   13.01
   6   8   5  -13.89   10.98
  -7  -8  -5   -4.38   10.97
  -7  -8  -5    3.29   12.56
   7   8   5  -12.56   14.22
   7   8   5   12.62   14.17
  -8  -8  -5   52.58   16.23
  -8  -8  -5   22.34   17.23
   8   8   5   50.47   17.82
   8   8   5   21.92   16.02
  -9  -8  -5   -8.37   33.45
  -9  -8  -5   -0.43   18.95
   9   8   5   16.43   22.59
 -10  -8  -5   57.62   23.65
  10   8   5  -24.67   23.17
   4  -9  -5   39.79   41.85
   3  -9  -5   39.59   38.91
   2  -9  -5    4.36   31.68
   1  -9  -5  -22.63   27.95
  -1  -9  -5    3.46   24.38
  -2  -9  -5   26.02    5.36
  -2  -9  -5   20.44   22.04
  -2  -9  -5   31.68    6.29
   2   9   5   22.08    7.22
   2   9   5   26.22    5.91
  -3  -9  -5   25.33    8.35
  -3  -9  -5   26.00    7.08
   3   9   5   38.85    9.84
   3   9   5   19.62    8.77
  -4  -9  -5    7.02    6.47
  -4  -9  -5   -7.00   10.69
   4   9   5    6.14   10.38
   4   9   5   -0.05    7.95
  -5  -9  -5  -18.17    6.81
  -5  -9  -5   14.67   11.31
   5   9   5  -10.22   11.23
   5   9   5   12.57   10.53
  -6  -9  -5   16.29   10.16
  -6  -9  -5   21.45   13.12
   6   9   5   -1.53   13.48
   6   9   5   -3.59   13.61
  -7  -9  -5   43.82   15.00
  -7  -9  -5   30.40   13.22
   7   9   5    2.05   15.23
   7   9   5    5.45   14.12
  -8  -9  -5   25.85   16.30
  -8  -9  -5   13.17   17.87
   8   9   5    8.89   20.55
   8   9   5    1.49   19.23
  -9  -9  -5  -11.68   22.21
   9   9   5  -15.17   23.21
 -10  -9  -5  -19.09   29.14
  10   9   5   -4.38   28.09
   3 -10  -5    8.69   39.59
   2 -10  -5   34.52   37.48
   1 -10  -5  -23.97   32.98
   0 -10  -5   19.46   30.11
  -1 -10  -5   10.20   27.35
  -2 -10  -5   10.85   23.70
   2  10   5    2.43    5.85
   2  10   5    0.09    7.29
  -3 -10  -5   12.66    9.00
  -3 -10  -5    3.51    7.73
   3  10   5   -2.80   11.92
   3  10   5    5.78    9.74
  -4 -10  -5    7.97    6.81
  -4 -10  -5   15.66   11.71
   4  10   5   12.77    9.91
   4  10   5    6.28   11.85
  -5 -10  -5   20.46   12.80
  -5 -10  -5   12.12    8.12
   5  10   5   24.29   12.71
   5  10   5  -12.04   12.43
  -6 -10  -5    5.51   14.33
  -6 -10  -5   21.75   10.68
   6  10   5   -9.30   14.35
   6  10   5   -7.36   13.59
  -7 -10  -5   -5.29   13.12
  -7 -10  -5  -16.14   15.19
   7  10   5   17.14   16.30
   7  10   5   18.53   17.63
  -8 -10  -5    5.76   18.08
   8  10   5   10.00   21.88
  -9 -10  -5  -28.06   25.45
   9  10   5  -13.76   27.04
   2 -11  -5   36.02   42.78
   1 -11  -5   65.72   38.64
   0 -11  -5  -18.13   34.10
  -1 -11  -5   32.18   32.73
  -2 -11  -5   -8.82   28.02
   2  11   5    7.78    8.04
   2  11   5    7.36    5.51
  -3 -11  -5   12.41    8.87
  -3 -11  -5   29.70    6.98
   3  11   5   13.94   11.46
  -4 -11  -5    3.26    7.51
  -4 -11  -5   -2.40   12.65
   4  11   5   -6.46   13.91
   4  11   5    9.54   11.55
  -5 -11  -5   31.02   15.39
  -5 -11  -5   17.77    9.38
   5  11   5    3.80   13.72
   5  11   5   19.32   15.46
  -6 -11  -5  -14.81   15.36
  -6 -11  -5   11.57   11.83
   6  11   5   -9.12   15.86
   6  11   5   -1.44   16.77
  -7 -11  -5    7.37   19.09
  -7 -11  -5   11.13   15.43
   7  11   5   -2.88   20.80
   2 -12  -5   37.23   91.02
   1 -12  -5   31.85   40.22
   0 -12  -5   -2.72   37.95
  -1 -12  -5   -5.19   38.56
   3  12   5   16.24    8.54
   3  12   5   -7.59   13.28
  -4 -12  -5    5.55   11.45
  -4 -12  -5   28.13   14.22
   4  12   5  -13.37   15.89
   4  12   5   -5.93   16.52
  -5 -12  -5    3.75   11.26
  -5 -12  -5   43.91   17.28
   5  12   5    2.35   19.20
  -6 -12  -5   -7.74   18.68
   6  12   5    1.19   22.27
   1 -13  -5   51.73   59.90
   0 -13  -5   66.29   47.87
  -1 -13  -5   14.30   44.85
  -2 -13  -5  -86.56   38.68
   3  13   5    6.66   15.27
  -4 -13  -5   -7.55   13.49
   4  13   5    8.29   18.95
  -5 -13  -5    6.82   18.59
   5  13   5   18.08   22.47
  -6 -13  -5   -2.57   23.38
   0 -14  -5   27.57   63.53
   4  14   5   16.02   30.49
   5   8  -6  -56.40   39.70
  -5  -8   6  -60.41   25.58
   4   8  -6    1.86   34.11
  -4  -8   6  -66.23   50.05
  -4  -8   6   -1.52   23.84
   3   8  -6   13.81   34.55
  -3  -8   6    9.85   21.93
   2   8  -6   34.38   33.70
  -2  -8   6   15.18   21.78
   1   8  -6   59.69   31.28
  -1  -8   6    0.48   18.64
   0   8  -6   68.82   32.65
   0  -8   6   12.68   22.16
  -1   8  -6   15.35   27.09
   1  -8   6  -22.68   20.23
   1  -8   6  -15.09   17.50
  -2   8  -6   36.62   27.08
   2  -8   6  -12.21   24.11
   2  -8   6  -10.90   16.49
   5   7  -6   12.28   31.73
  -5  -7   6  -67.84   41.18
  -5  -7   6  -19.14   22.48
   4   7  -6    7.85   30.19
  -4  -7   6   14.94   20.99
   3   7  -6   16.12   32.34
  -3  -7   6   17.22   23.24
  -3  -7   6  -16.20   17.70
   2   7  -6    7.61   29.44
   2   7  -6   35.47   20.31
  -2  -7   6    3.88   18.27
   1   7  -6   15.90   29.17
   1   7  -6   11.39   18.15
  -1  -7   6   -1.47   14.30
  -1  -7   6  -36.98   19.83
   0   7  -6   26.49   30.36
   0   7  -6   38.67   19.13
   0  -7   6   -3.86   17.89
   0  -7   6   -5.73   15.60
  -1   7  -6   21.28   25.09
  -1   7  -6  -19.38   18.00
   1  -7   6    6.25   14.69
   1  -7   6   29.67   18.02
  -2   7  -6   -4.91   18.68
  -2   7  -6   14.50   22.82
   2  -7   6  -10.64   17.85
   2  -7   6    6.38   14.68
  -3   7  -6   31.91   23.41
  -3   7  -6   28.12   23.84
   3  -7   6    7.57   16.60
   3  -7   6   10.42   15.96
  -4   7  -6   34.44   26.14
   4  -7   6    6.76   17.79
   4  -7   6    1.07   17.22
   6   6  -6  -19.34   37.37
  -6  -6   6   60.52   41.68
  -6  -6   6   -7.93   32.06
   5   6  -6  -31.72   31.02
  -5  -6   6   -5.76   17.06
  -5  -6   6   58.17   37.63
   4   6  -6   21.74   19.54
   4   6  -6    9.48   28.96
  -4  -6   6   49.79   23.14
  -4  -6   6   16.65   18.15
   3   6  -6  -14.97   22.09
   3   6  -6   -2.84   16.52
  -3  -6   6    4.83   16.17
  -3  -6   6   -5.10   19.12
   2   6  -6  -26.28   15.11
   2   6  -6   22.15   22.87
  -2  -6   6   26.08   13.28
   1   6  -6   22.40   14.35
  -1  -6   6  -15.28   15.58
  -1  -6   6   28.55   18.28
   0   6  -6  -12.96   15.58
   0   6  -6  -18.74   19.54
   0  -6   6    1.56   15.05
   0  -6   6   18.58   12.98
  -1   6  -6   -8.94   21.50
  -1   6  -6   -3.62   16.93
   1  -6   6    1.98   12.92
   1  -6   6    1.10   15.01
  -2   6  -6   17.12   19.85
  -2   6  -6  -28.01   16.42
   2  -6   6   -0.19   14.52
   2  -6   6    4.31   14.09
  -3   6  -6   -1.06   18.25
  -3   6  -6   47.93   22.25
   3  -6   6   12.97   15.59
   3  -6   6   -7.98   13.94
  -4   6  -6  -13.27   22.59
  -4   6  -6  -15.06   17.45
   4  -6   6    2.31   15.51
   4  -6   6   14.58   15.46
  -5   6  -6   12.26   23.63
   5  -6   6    4.38   17.38
   5  -6   6   19.33   17.71
   6   5  -6   35.85   28.12
  -6  -5   6   83.81   37.09
  -6  -5   6  -28.42   42.92
  -6  -5   6  -21.34   17.40
   5   5  -6  -59.30   22.39
   5   5  -6   24.55   17.67
  -5  -5   6  -26.18   31.44
  -5  -5   6   29.40   16.95
  -5  -5   6  -26.01   21.16
   4   5  -6   -5.46   15.65
   4   5  -6   -6.41   22.65
  -4  -5   6  -33.38   26.60
  -4  -5   6   10.75   13.41
  -4  -5   6    8.83   21.81
   3   5  -6  -17.34   20.94
   3   5  -6   -0.14   13.19
  -3  -5   6   21.36   12.36
  -3  -5   6   26.36   19.43
   2   5  -6   19.22   15.48
   2   5  -6   -9.15   21.05
  -2  -5   6    8.09   12.16
  -2  -5   6  -11.97   18.86
   1   5  -6  -10.97   17.51
   1   5  -6    5.46   14.56
  -1  -5   6   -4.67   14.95
  -1  -5   6    9.36   11.70
   0   5  -6   13.83   17.81
   0   5  -6    6.86   12.86
   0  -5   6    9.46   11.17
   0  -5   6   15.36   15.22
  -1   5  -6    4.31   12.76
  -1   5  -6  -16.31   16.31
   1  -5   6   16.09   13.80
   1  -5   6   -2.85   10.78
  -2   5  -6   44.61   15.14
  -2   5  -6   75.40   20.31
   2  -5   6   69.61   16.20
   2  -5   6   52.18   14.63
  -3   5  -6   -8.48   15.80
  -3   5  -6   25.95   20.90
   3  -5   6    4.33   15.18
   3  -5   6    2.94   13.16
  -4   5  -6  -11.03   20.54
  -4   5  -6   20.08   15.69
   4  -5   6   25.13   14.26
   4  -5   6    0.31   14.30
  -5   5  -6    3.71   21.23
  -5   5  -6   -4.86   17.69
   5  -5   6   59.17   17.02
   5  -5   6   50.22   17.90
  -6   5  -6   32.02   24.34
   6  -5   6   -5.73   15.55
   6  -5   6    6.53   20.47
  -7  -4   6   87.79   37.39
   6   4  -6   39.59   18.82
   6   4  -6   -1.99   23.46
  -6  -4   6   98.75   36.03
  -6  -4   6  -11.90   16.47
  -6  -4   6   11.59   23.99
   5   4  -6   -6.32   16.59
   5   4  -6   -3.92   20.91
  -5  -4   6   42.92   22.30
  -5  -4   6   13.83   13.66
  -5  -4   6  -11.96   27.65
   4   4  -6  -15.89   13.04
   4   4  -6   -3.86   19.25
  -4  -4   6   -4.96   11.68
  -4  -4   6  -10.81   17.78
  -4  -4   6   14.53   24.37
   3   4  -6   -9.23   19.48
   3   4  -6   12.06   13.19
  -3  -4   6  -12.70   17.36
  -3  -4   6   -6.92   11.14
   2   4  -6   27.28   13.45
  -2  -4   6   29.50   17.56
  -2  -4   6    9.80   10.51
   1   4  -6   35.57   17.59
   1   4  -6   36.57   12.78
  -1  -4   6    4.31   10.08
   0   4  -6   -3.54   12.33
   0   4  -6    2.20   15.97
   0  -4   6   -1.04   10.55
   0  -4   6    0.61   15.00
  -1   4  -6   62.40   15.53
  -1   4  -6   38.58   16.78
   1  -4   6   71.00   12.47
   1  -4   6   64.26   15.80
  -2   4  -6  199.66   23.60
  -2   4  -6  179.28   19.65
   2  -4   6  174.34   17.17
   2  -4   6  171.58   21.34
  -3   4  -6   72.79   15.09
  -3   4  -6   80.28   18.93
   3  -4   6  112.60   17.70
   3  -4   6  102.27   16.60
  -4   4  -6   14.42   14.01
  -4   4  -6   -6.61   16.19
   4  -4   6    2.55   13.66
   4  -4   6   16.21   14.08
  -5   4  -6   23.06   18.18
  -5   4  -6    3.41   15.90
   5  -4   6   35.96   16.08
   5  -4   6   29.45   15.55
  -6   4  -6   -0.79   21.05
  -6   4  -6   -1.12   19.74
   6  -4   6  -11.17   13.46
   6  -4   6   11.68   18.59
  -7   4  -6   25.98   24.57
   7  -4   6    5.16   17.12
   7  -4   6   -0.70   21.45
  -8  -3   6   42.68   43.96
   7   3  -6   28.34   20.01
  -7  -3   6   75.99   37.28
  -7  -3   6   36.56   27.04
   6   3  -6   18.57   16.54
   6   3  -6   15.36   21.23
  -6  -3   6    3.02   21.27
  -6  -3   6   49.95   31.56
  -6  -3   6   26.93   15.13
   5   3  -6   33.30   16.47
   5   3  -6    6.10   21.16
  -5  -3   6   -0.72   26.31
  -5  -3   6   17.73   14.31
  -5  -3   6  -18.04   19.10
   4   3  -6  118.36   23.97
   4   3  -6  166.07   18.90
  -4  -3   6  129.77   24.14
  -4  -3   6  132.82   16.69
   3   3  -6   40.03   14.47
   3   3  -6   75.90   21.14
  -3  -3   6   48.32   18.76
  -3  -3   6   44.88   21.56
  -3  -3   6   47.14   12.52
   2   3  -6   14.73   12.37
   2   3  -6  -14.38   14.17
  -2  -3   6   14.72   16.27
   1   3  -6    8.14   16.47
   1   3  -6   12.05   10.98
  -1  -3   6   -5.33   16.87
  -1  -3   6   31.64   11.45
   0   3  -6   70.95   13.06
   0   3  -6   66.50   17.00
   0  -3   6   43.89   11.26
  -1   3  -6   14.49   10.66
  -1   3  -6   19.19   14.63
   1  -3   6   32.83   10.75
  -2   3  -6   59.75   13.13
  -2   3  -6   66.14   17.74
   2  -3   6   41.01   12.66
   2  -3   6   58.36   13.49
  -3   3  -6  144.09   20.03
  -3   3  -6  181.03   19.94
   3  -3   6  178.59   18.22
   3  -3   6  162.99   19.10
  -4   3  -6    4.39   14.03
  -4   3  -6    3.55   15.76
   4  -3   6   19.21   12.03
   4  -3   6   10.17   12.85
  -5   3  -6   13.67   17.05
  -5   3  -6   22.96   14.62
   5  -3   6   -7.81   13.03
   5  -3   6   14.48   14.78
  -6   3  -6   32.10   17.38
  -6   3  -6    1.99   20.42
   6  -3   6   22.73   15.77
   6  -3   6    1.29   14.57
  -7   3  -6   -8.67   20.54
  -7   3  -6    1.45   17.90
   7  -3   6    7.89   15.87
   7  -3   6  -25.63   18.25
  -8   3  -6   -6.19   24.57
   8  -3   6   19.65   24.02
   8   2  -6  -12.56   24.55
  -8  -2   6   69.99   35.39
   7   2  -6   18.35   27.32
   7   2  -6   27.00   20.05
  -7  -2   6   47.15   36.50
  -7  -2   6  -44.43   27.10
   6   2  -6   10.92   15.59
   6   2  -6   12.46   19.93
  -6  -2   6   11.29   12.63
  -6  -2   6   14.17   21.46
  -6  -2   6   11.25   30.27
   5   2  -6   13.79   19.09
   5   2  -6   -5.67   12.64
  -5  -2   6   12.33   24.06
  -5  -2   6  -12.77   12.32
  -5  -2   6    7.64   18.37
   4   2  -6  255.93   26.56
   4   2  -6  281.63   21.64
  -4  -2   6  296.47   36.08
  -4  -2   6  251.68   29.02
  -4  -2   6  282.09   21.60
   3   2  -6   22.38   16.36
   3   2  -6    9.56   10.36
  -3  -2   6    1.73    9.51
  -3  -2   6   24.94   20.46
   2   2  -6  -19.68   12.95
   2   2  -6   13.30   11.62
  -2  -2   6    5.94    9.88
  -2  -2   6   -8.38   13.66
   1   2  -6   10.51   13.40
   1   2  -6    6.18    9.53
  -1  -2   6    6.17    8.88
  -1  -2   6   16.78   13.51
   0   2  -6   29.09   13.78
   0   2  -6   24.91   11.17
   0  -2   6   33.99    9.58
   0  -2   6   27.32   13.44
  -1   2  -6  -16.77    8.50
  -1   2  -6    3.42   13.23
   1  -2   6   18.28   10.77
   1  -2   6   15.71    9.05
  -2   2  -6   50.11   14.70
  -2   2  -6   62.39   14.51
   2  -2   6   61.48   11.97
   2  -2   6   62.68   13.44
  -3   2  -6   56.32   15.34
   3  -2   6   85.35   17.05
   3  -2   6   87.77   14.40
  -4   2  -6   14.12   13.60
  -4   2  -6   47.76   15.62
   4  -2   6   25.87   11.61
   4  -2   6   10.18   12.51
  -5   2  -6   -2.00   12.79
  -5   2  -6   28.90   15.37
   5  -2   6   31.11   14.58
   5  -2   6  -15.51   13.75
  -6   2  -6   26.02   13.94
  -6   2  -6   36.61   17.45
   6  -2   6   35.13   15.62
   6  -2   6   26.29   13.59
  -7   2  -6  -13.08   13.62
  -7   2  -6   -3.75   20.39
   7  -2   6  -10.69   16.48
   7  -2   6   28.35   16.79
  -8   2  -6  -16.07   24.21
  -8   2  -6   31.47   24.08
   8  -2   6   28.82   19.30
   8  -2   6   -5.14   23.78
  -9   2  -6    7.33   23.65
   9  -2   6   -4.13   30.03
   8   1  -6  -18.04   25.32
  -8  -1   6  -53.31   30.54
   7   1  -6   15.95   24.67
   7   1  -6   -8.30   19.03
  -7  -1   6    1.92   24.30
  -7  -1   6   35.60   18.40
  -7  -1   6   63.85   36.25
   6   1  -6   22.60   18.62
   6   1  -6   18.15   15.96
  -6  -1   6   24.32   19.95
  -6  -1   6   22.61   12.10
  -6  -1   6   61.60   30.97
   5   1  -6   13.51   16.79
   5   1  -6   21.58   13.79
  -5  -1   6   29.49   12.24
  -5  -1   6   49.32   27.14
  -5  -1   6    5.19   18.99
   4   1  -6   29.37   16.85
  -4  -1   6   52.08   16.76
  -4  -1   6   24.85   11.78
  -4  -1   6   54.65   31.16
   3   1  -6   16.43    9.56
   3   1  -6  -35.08   19.83
  -3  -1   6   -2.87   13.56
  -3  -1   6    6.33   18.01
  -3  -1   6   -2.29    8.09
   2   1  -6   70.89   15.75
   2   1  -6   93.61   13.22
  -2  -1   6   74.28   11.85
  -2  -1   6   85.40   16.17
  -2  -1   6  122.33   23.15
   1   1  -6    2.31   11.78
   1   1  -6   -4.36    7.89
  -1  -1   6   13.46    8.92
  -1  -1   6    6.84   12.26
   0   1  -6  -11.06   11.07
   0   1  -6   28.49    9.95
   0  -1   6    9.79   10.50
   0  -1   6    5.34    9.21
  -1   1  -6    8.32   11.35
  -1   1  -6   18.43    8.83
   1  -1   6   -6.68    9.24
   1  -1   6   10.20    8.06
  -2   1  -6   13.73    9.73
  -2   1  -6   13.96   12.45
   2  -1   6   24.99   10.29
   2  -1   6   32.62   11.02
  -3   1  -6   14.70   12.66
  -3   1  -6    2.24   10.37
   3  -1   6    2.98   10.09
   3  -1   6   18.36    9.89
  -4   1  -6   49.13   15.51
  -4   1  -6   29.51   10.87
   4  -1   6   65.42   14.48
   4  -1   6   45.45   12.06
  -5   1  -6    1.77   11.90
  -5   1  -6   13.30   14.89
   5  -1   6   11.17   12.83
   5  -1   6   16.54   12.86
  -6   1  -6   87.86   19.34
  -6   1  -6   95.74   17.59
   6  -1   6   99.87   18.20
   6  -1   6   65.49   16.53
  -7   1  -6    6.45   16.79
  -7   1  -6    1.66   14.63
   7  -1   6  -20.38   15.43
   7  -1   6   10.34   12.76
  -8   1  -6  -37.15   17.26
  -8   1  -6   38.39   23.03
   8  -1   6    2.26   18.33
   8  -1   6   27.72   15.88
  -9   1  -6   20.56   25.35
   9  -1   6   41.73   24.58
 -10   1  -6    3.36   31.21
  10  -1   6  -10.80   33.54
   8   0  -6   -1.42   22.01
  -8   0   6   -2.04   27.93
   7   0  -6   28.18   18.13
   7   0  -6   11.12   19.28
  -7   0   6   88.81   38.20
  -7   0   6   27.20   28.35
  -7   0   6  -19.72   17.41
   6   0  -6  -24.97   14.42
   6   0  -6   30.99   17.72
  -6   0   6   -8.12   29.13
  -6   0   6    8.41   12.10
  -6   0   6   -9.88   19.14
   5   0  -6   17.25   12.77
   5   0  -6    7.49   15.80
  -5   0   6    4.15   16.06
  -5   0   6   11.20   11.61
  -5   0   6   44.04   27.15
   4   0  -6   93.69   19.87
   4   0  -6  101.96   13.63
  -4   0   6  106.15   14.65
  -4   0   6   85.09   18.08
   3   0  -6    9.66    8.48
   3   0  -6    6.41   16.35
  -3   0   6    8.52    8.29
  -3   0   6   14.79   18.72
  -3   0   6   10.92   13.28
   2   0  -6  278.52   21.77
   2   0  -6  282.19   17.83
  -2   0   6  266.45   21.44
  -2   0   6  246.33   24.68
  -2   0   6  284.75   18.67
   1   0  -6  188.42   14.68
   1   0  -6  162.43   19.72
  -1   0   6  165.92   14.32
  -1   0   6  177.73   19.48
   0   0  -6  100.94   12.92
   0   0  -6  126.16   15.78
   0   0   6  118.37   14.70
   0   0   6  127.86   12.87
  -1   0  -6    8.28    8.99
  -1   0  -6   20.17   11.55
   1   0   6    7.67    7.89
   1   0   6   -1.18    9.58
  -2   0  -6  136.35   15.94
   2   0   6  107.78   13.48
   2   0   6  115.83   13.74
  -3   0  -6   99.53   12.86
  -3   0  -6  123.38   15.63
   3   0   6  117.60   14.53
   3   0   6  148.34   16.76
  -4   0  -6   15.61    9.13
  -4   0  -6    8.75   11.83
   4   0   6    6.93   10.58
   4   0   6   39.43   11.73
  -5   0  -6   -1.28    9.01
  -5   0  -6    5.97   13.54
   5   0   6   14.77   11.30
  -6   0  -6  -20.74   14.45
  -6   0  -6   -1.94   11.51
   6   0   6    6.60   12.36
   6   0   6  -28.31   13.57
  -7   0  -6   25.74   13.83
  -7   0  -6   58.18   18.95
   7   0   6   -2.20   12.86
   7   0   6   -3.77   13.18
  -8   0  -6   23.47   18.06
  -8   0  -6   21.86   17.11
   8   0   6  -22.22   14.58
   8   0   6   -3.95   18.46
  -9   0  -6   32.32   22.05
   9   0   6    0.36   18.31
   9   0   6   43.74   26.46
 -10   0  -6   31.98   28.95
  10   0   6  -50.09   30.73
   8  -1  -6    2.08   20.24
  -8   1   6  -11.36   29.36
   7  -1  -6   -3.00   17.58
   7  -1  -6   14.95   18.92
  -7   1   6   -5.06   15.46
  -7   1   6  -25.61   26.20
  -7   1   6   80.91   38.15
   6  -1  -6    7.37   13.99
   6  -1  -6    7.44   16.59
  -6   1   6   10.37   29.67
  -6   1   6   -5.03   18.64
  -6   1   6    7.81   13.18
   5  -1  -6   30.25   16.11
   5  -1  -6   20.87   10.44
  -5   1   6   81.10   30.31
  -5   1   6   39.17   16.58
  -5   1   6   43.57   11.77
   4  -1  -6    7.26   14.55
   4  -1  -6    1.05    7.95
  -4   1   6    6.90    8.80
  -4   1   6   -9.88   13.94
  -4   1   6   34.19   26.19
   3  -1  -6   35.97   13.44
   3  -1  -6   18.49    8.67
  -3   1   6   23.60   13.12
  -3   1   6   23.28   22.08
  -3   1   6   21.83    8.34
   2  -1  -6  123.48   12.59
   2  -1  -6  163.67   17.88
  -2   1   6  145.41   16.67
  -2   1   6  132.57   13.76
  -2   1   6  150.18   26.51
   1  -1  -6  261.25   17.00
   1  -1  -6  243.18   20.33
  -1   1   6  236.94   16.00
  -1   1   6  267.78   20.18
  -1   1   6  234.13   21.24
   0  -1  -6   46.60    9.61
   0  -1  -6   55.53   12.93
   0   1   6   66.36   12.18
   0   1   6   62.71    9.97
  -1  -1  -6  283.15   20.70
  -1  -1  -6  264.41   17.20
   1   1   6  276.78   17.34
   1   1   6  269.18   17.36
  -2  -1  -6   36.59    9.12
  -2  -1  -6   56.00   12.79
   2   1   6   41.71    9.76
   2   1   6   40.11   10.74
  -3  -1  -6  376.17   21.05
  -3  -1  -6  379.73   22.92
   3   1   6  395.98   21.46
   3   1   6  375.86   22.22
  -4  -1  -6   23.28    8.97
  -4  -1  -6   24.53   12.09
   4   1   6   25.95    9.33
   4   1   6   18.19    9.35
  -5  -1  -6   12.82   11.77
  -5  -1  -6    7.71    9.21
   5   1   6  -11.93    9.92
   5   1   6  -18.21   10.35
  -6  -1  -6   11.32   10.13
  -6  -1  -6  -15.91   12.79
   6   1   6   12.75   11.44
  -7  -1  -6    2.45   14.43
  -7  -1  -6    4.72   12.98
   7   1   6   42.51   15.69
   7   1   6   19.36   13.85
  -8  -1  -6   -2.04   14.50
  -8  -1  -6   25.59   16.57
   8   1   6   31.40   17.49
   8   1   6    4.27   14.64
  -9  -1  -6    1.85   21.90
  -9  -1  -6    5.61   19.97
   9   1   6   12.83   22.48
   9   1   6   14.52   17.22
 -10  -1  -6   -9.63   24.39
  10   1   6   12.07   29.29
   8  -2  -6    9.04   23.82
  -8   2   6  -35.96   28.23
   7  -2  -6    0.97   19.52
   7  -2  -6   37.08   18.34
  -7   2   6  -17.77   16.93
   6  -2  -6   20.09   11.84
   6  -2  -6    3.69   15.95
  -6   2   6    0.44   13.03
  -6   2   6   32.45   21.60
  -6   2   6   20.69   29.01
   5  -2  -6   21.47   16.53
   5  -2  -6   -9.14    9.24
  -5   2   6   13.24   16.80
  -5   2   6   -8.97   27.70
  -5   2   6   -5.62   11.75
   4  -2  -6   -2.67    8.82
   4  -2  -6    2.03   12.97
  -4   2   6  -11.46   23.01
  -4   2   6   -0.64    9.63
  -4   2   6   17.54   13.28
   3  -2  -6   47.76    9.59
   3  -2  -6   52.49   13.83
  -3   2   6   48.83   13.04
  -3   2   6   31.73   12.40
  -3   2   6   60.19   22.49
   2  -2  -6  118.64   12.05
   2  -2  -6  141.67   15.90
  -2   2   6  118.26   15.01
  -2   2   6  168.78   26.61
  -2   2   6  122.49   12.67
   1  -2  -6  106.99   11.42
   1  -2  -6   97.77   13.81
  -1   2   6   79.44   10.28
  -1   2   6   99.13   19.45
  -1   2   6   88.17   12.91
   0  -2  -6  448.24   23.24
   0  -2  -6  499.58   25.63
   0   2   6  467.29   23.56
   0   2   6  465.60   23.37
   0   2   6  463.73   28.92
  -1  -2  -6  116.65   13.00
  -1  -2  -6  106.41   13.33
   1   2   6   91.09   11.36
   1   2   6  103.90   12.25
  -2  -2  -6   17.87   10.85
  -2  -2  -6   29.44    8.02
   2   2   6   14.31    9.04
   2   2   6   19.91    8.35
  -3  -2  -6   -3.01    9.02
  -3  -2  -6    3.27    6.81
   3   2   6    4.35    8.94
   3   2   6   14.32    8.53
  -4  -2  -6   65.40   13.99
  -4  -2  -6   54.93   10.19
   4   2   6   58.74   11.77
   4   2   6   61.75   10.73
  -5  -2  -6    3.66   11.30
  -5  -2  -6   18.24    9.01
   5   2   6   -0.24    9.82
   5   2   6   19.37   11.06
  -6  -2  -6   15.10   15.25
  -6  -2  -6    9.57   10.58
   6   2   6   43.32   13.45
  -7  -2  -6   19.43   16.12
  -7  -2  -6  -10.45   12.15
   7   2   6  -21.92   11.56
   7   2   6    4.76   13.93
  -8  -2  -6   -3.21   15.74
  -8  -2  -6  -17.07   15.63
   8   2   6   -2.38   13.80
   8   2   6   -4.20   16.25
  -9  -2  -6   -2.00   21.15
  -9  -2  -6  -17.16   16.63
   9   2   6   11.81   18.00
   9   2   6  -46.37   21.53
 -10  -2  -6   14.64   26.15
  10   2   6  -16.32   23.72
   7  -3  -6   16.00   19.17
   7  -3  -6   13.76   14.41
  -7   3   6   18.23   18.74
  -7   3   6   -0.67   23.09
   6  -3  -6  -74.97   37.91
   6  -3  -6  -20.10   15.65
   6  -3  -6   -9.70   11.30
  -6   3   6   54.53   35.02
  -6   3   6  -14.35   13.34
  -6   3   6  -21.68   20.14
   5  -3  -6  103.24   12.28
   5  -3  -6   55.32   16.62
   5  -3  -6   66.45   40.34
  -5   3   6  129.38   35.77
  -5   3   6   89.84   19.70
  -5   3   6   81.54   14.15
   4  -3  -6   -9.73   29.92
   4  -3  -6    7.55   12.98
   4  -3  -6  -11.97    6.91
  -4   3   6   -8.00    8.71
  -4   3   6   -3.33   12.65
  -4   3   6  -26.25   24.02
   3  -3  -6   70.20   14.29
   3  -3  -6   47.85    8.54
  -3   3   6   77.44   13.74
  -3   3   6   73.83   38.53
   2  -3  -6   58.94    8.49
   2  -3  -6   51.35   12.39
  -2   3   6   55.87    9.15
  -2   3   6   52.77   11.29
  -2   3   6   64.72   24.09
   1  -3  -6   -1.78    9.63
   1  -3  -6    5.53    5.78
  -1   3   6   -2.84    8.81
  -1   3   6    9.72   17.16
  -1   3   6   -1.79    6.30
   0  -3  -6   17.27    6.72
   0  -3  -6   12.68    8.69
   0   3   6    8.93    7.76
   0   3   6   18.72    8.50
   0   3   6   35.10   14.92
  -1  -3  -6   27.21    7.87
  -1  -3  -6   16.64    9.60
   1   3   6   33.59    8.77
   1   3   6   18.39    7.72
  -2  -3  -6   15.49    8.49
  -2  -3  -6   11.25    7.69
   2   3   6   17.20    8.28
   2   3   6   19.99    7.35
  -3  -3  -6  167.79   16.26
  -3  -3  -6  191.84   13.87
   3   3   6  159.28   14.29
   3   3   6  176.06   13.68
  -4  -3  -6  161.19   13.93
  -4  -3  -6  165.75   16.98
   4   3   6  139.21   13.67
   4   3   6  138.81   14.54
  -5  -3  -6  102.09   13.04
  -5  -3  -6  116.17   15.55
   5   3   6  108.38   14.56
   5   3   6  109.53   13.73
   6   3   6   57.89   14.48
   6   3   6   54.38   12.34
  -7  -3  -6   -0.06   15.40
  -7  -3  -6  -13.25   12.49
   7   3   6    9.45   13.05
   7   3   6   -2.61   14.49
  -8  -3  -6   23.26   15.96
  -8  -3  -6   23.25   16.74
   8   3   6    5.70   17.81
   8   3   6   13.40   14.79
  -9  -3  -6  -13.87   16.95
  -9  -3  -6    1.08   17.74
   9   3   6   28.69   19.33
   9   3   6   29.94   19.00
 -10  -3  -6   18.10   24.79
  10   3   6   -2.57   26.37
   7  -4  -6  -97.96   48.21
   7  -4  -6   -2.73   19.06
   7  -4  -6  -11.89   14.56
  -7   4   6  -24.49   19.02
  -7   4   6  -69.36   24.95
   6  -4  -6  -23.80   42.38
   6  -4  -6   -5.29   10.51
   6  -4  -6  -26.52   15.50
  -6   4   6   16.42   20.20
  -6   4   6  -16.83   12.98
   5  -4  -6    9.81    7.68
   5  -4  -6    9.56   39.47
   5  -4  -6  -23.13   12.71
  -5   4   6   -7.18   28.09
  -5   4   6   18.84   15.82
  -5   4   6    3.76   11.10
   4  -4  -6   15.68    7.26
   4  -4  -6   54.69   14.12
   4  -4  -6   57.81   36.03
  -4   4   6   20.69   13.66
  -4   4   6   41.50   28.28
  -4   4   6   34.43   10.31
   3  -4  -6   65.59   29.95
   3  -4  -6   61.63   12.90
   3  -4  -6   48.44    8.33
  -3   4   6   61.07   12.53
  -3   4   6   62.36   15.55
  -3   4   6   79.43   28.21
   2  -4  -6   59.74   26.80
   2  -4  -6   60.47    7.86
   2  -4  -6   58.75   11.47
  -2   4   6   40.18   22.91
  -2   4   6   61.82    8.64
  -2   4   6   39.41   10.31
   1  -4  -6   20.46    6.02
   1  -4  -6   10.86    9.56
  -1   4   6    8.17    6.83
  -1   4   6   -3.92   16.86
   0  -4  -6   14.47    6.18
   0  -4  -6   20.50    9.12
   0   4   6   24.62    7.68
   0   4   6   14.80   18.16
   0   4   6   21.49    7.79
  -1  -4  -6   22.06    8.59
  -1  -4  -6    3.46    5.98
   1   4   6   34.94   15.66
   1   4   6   22.35    8.20
   1   4   6   20.58    7.09
  -2  -4  -6   16.16    8.52
  -2  -4  -6    7.29    6.07
   2   4   6   20.01    7.61
   2   4   6   18.96   14.08
   2   4   6    9.18    7.47
  -3  -4  -6    8.68    8.40
  -3  -4  -6   -1.44    5.55
   3   4   6   -0.57    7.58
   3   4   6    3.94    7.44
  -4  -4  -6   24.67    8.22
  -4  -4  -6   27.29   10.01
   4   4   6   28.90    9.62
   4   4   6   43.59   10.57
  -5  -4  -6   19.17    8.75
  -5  -4  -6   11.15   10.90
   5   4   6   13.51   11.01
   5   4   6    0.81    9.00
  -6  -4  -6   19.05   12.75
  -6  -4  -6   33.27    9.88
   6   4   6   25.42   11.72
   6   4   6   15.82   10.80
  -7  -4  -6   55.95   14.43
  -7  -4  -6   54.83   16.43
   7   4   6   86.30   15.78
   7   4   6   66.48   15.79
  -8  -4  -6   13.07   13.97
  -8  -4  -6   32.18   16.04
   8   4   6   14.88   16.81
   8   4   6    9.07   13.83
  -9  -4  -6   -5.65   18.83
  -9  -4  -6    1.52   17.10
   9   4   6    3.46   18.39
   9   4   6   -6.29   14.89
 -10  -4  -6   14.39   23.19
  10   4   6  -28.60   24.72
  10   4   6   14.02   25.55
   7  -5  -6   -2.48   19.23
  -7   5   6  -33.45   19.37
   6  -5  -6  -14.23   16.33
   6  -5  -6   29.87   44.48
   6  -5  -6   -0.50    9.96
  -6   5   6    9.07   13.41
  -6   5   6   19.92   19.08
   5  -5  -6   11.41    8.36
   5  -5  -6   12.58   40.98
   5  -5  -6   11.65   14.18
  -5   5   6   15.45   15.35
  -5   5   6    1.78   11.59
   4  -5  -6    4.34   12.02
   4  -5  -6    6.74   35.10
   4  -5  -6  -14.50    6.32
  -4   5   6    2.38   27.31
  -4   5   6   -2.02    8.67
  -4   5   6   13.75   12.16
   3  -5  -6    5.89    6.36
   3  -5  -6   -0.33   10.17
   3  -5  -6   -4.37   27.99
  -3   5   6   11.86   23.06
  -3   5   6    2.65    8.25
  -3   5   6    4.13    9.95
   2  -5  -6   41.13    6.80
   2  -5  -6   38.36   10.42
  -2   5   6   49.85    8.16
  -2   5   6   42.03   10.37
  -2   5   6   32.58   28.85
   1  -5  -6  196.39   26.90
   1  -5  -6  189.36   14.70
   1  -5  -6  170.08   11.22
  -1   5   6  199.28   27.49
  -1   5   6  167.45   11.80
  -1   5   6  146.34   13.47
   0  -5  -6   24.10    5.85
   0  -5  -6   36.46    8.64
   0   5   6   37.59    7.93
   0   5   6   39.76    7.61
   0   5   6   32.83   20.59
  -1  -5  -6  296.24   15.70
  -1  -5  -6  300.87   16.59
   1   5   6  282.92   16.73
   1   5   6  229.00   23.78
   1   5   6  299.70   15.82
  -2  -5  -6   20.02    6.14
  -2  -5  -6   13.27    8.16
   2   5   6    5.88    7.67
   2   5   6   23.11   14.25
   2   5   6   13.72    6.73
  -3  -5  -6  160.88   13.20
  -3  -5  -6  151.22   11.75
   3   5   6  150.34   13.16
   3   5   6  166.85   17.62
   3   5   6  156.59   12.74
  -4  -5  -6   19.85    6.98
  -4  -5  -6   18.15    9.11
   4   5   6   28.54   10.38
   4   5   6   22.08    8.78
  -5  -5  -6   42.03   10.29
  -5  -5  -6   36.06   11.38
   5   5   6   48.62   12.14
   5   5   6   29.65    9.31
  -6  -5  -6   13.88   11.76
  -6  -5  -6  -24.46    8.78
   6   5   6  -23.22   11.41
   6   5   6   -4.70    9.70
  -7  -5  -6   20.51   12.17
  -7  -5  -6   41.68   15.75
   7   5   6    4.42   13.23
   7   5   6   10.83   13.66
  -8  -5  -6  -17.80   14.43
  -8  -5  -6   10.44   14.55
   8   5   6   -0.78   13.29
   8   5   6   21.16   17.61
  -9  -5  -6   13.09   18.79
  -9  -5  -6    8.93   16.82
   9   5   6  -36.98   18.44
 -10  -5  -6   19.51   24.33
  10   5   6   13.03   23.70
   7  -6  -6   26.47   20.97
   6  -6  -6   38.16   17.84
   6  -6  -6  -12.45   51.32
   6  -6  -6   12.79   10.28
  -6   6   6   13.55   20.26
  -6   6   6   10.81   14.17
   5  -6  -6  -20.82   37.43
   5  -6  -6    4.71    7.91
   5  -6  -6  -11.46   14.10
  -5   6   6   -7.19   11.34
  -5   6   6    8.02   14.67
   4  -6  -6  -38.15   32.30
   4  -6  -6    5.37    7.06
  -4   6   6   -3.02    8.66
  -4   6   6    5.68   12.82
   3  -6  -6   64.50   34.79
   3  -6  -6   10.28    9.79
  -3   6   6   -1.72    7.19
  -3   6   6   -4.49   11.65
  -3   6   6   34.09   27.64
   2  -6  -6   59.82   32.99
   2  -6  -6   53.01    7.58
   2  -6  -6   49.21    9.22
  -2   6   6   64.53    7.92
  -2   6   6   98.97   28.24
   1  -6  -6    1.06    5.50
   1  -6  -6    4.66    6.43
   1  -6  -6   15.42   25.93
  -1   6   6  -22.16   19.08
  -1   6   6    2.98    5.20
   0  -6  -6   49.03   23.88
   0  -6  -6    8.67    6.17
   0   6   6   15.79    6.18
   0   6   6   -3.24   17.95
  -1  -6  -6   34.13    7.47
  -1  -6  -6   47.61    7.49
   1   6   6   43.93   19.86
   1   6   6   52.56    8.55
   1   6   6   50.30    7.84
  -2  -6  -6    7.25    5.38
  -2  -6  -6   -0.75    6.98
   2   6   6    4.62    6.05
   2   6   6    8.87    7.54
   2   6   6   -2.51   15.55
  -3  -6  -6   46.90    9.43
  -3  -6  -6   51.74    7.60
   3   6   6   44.31    8.27
   3   6   6   44.40   16.45
   3   6   6   35.06    9.48
  -4  -6  -6   68.55   11.79
   4   6   6   67.89   10.05
   4   6   6   83.52   16.21
   4   6   6   71.98   11.97
  -5  -6  -6   86.09   11.93
   5   6   6   95.24   12.61
   5   6   6  112.01   17.21
   5   6   6  100.80   14.37
  -6  -6  -6   71.20   14.50
  -6  -6  -6   58.71   11.64
   6   6   6   83.48   13.74
   6   6   6   81.49   14.19
  -7  -6  -6   -6.74   12.14
  -7  -6  -6    8.26   17.27
   7   6   6   18.45   14.05
   7   6   6   18.11   15.25
  -8  -6  -6    6.06   14.23
  -8  -6  -6   10.22   15.51
   8   6   6   19.72   15.21
   8   6   6   11.01   14.55
  -9  -6  -6   -2.09   17.90
  -9  -6  -6   -9.94   18.37
   9   6   6   29.35   19.59
   9   6   6    3.24   20.04
   9   6   6   -8.43   18.66
 -10  -6  -6    6.37   21.85
  10   6   6  -36.76   20.42
   7  -7  -6  -19.44   21.57
   6  -7  -6    0.17   17.27
  -6   7   6    5.66   15.02
   5  -7  -6   19.95   14.14
   5  -7  -6   19.97   10.86
   5  -7  -6   15.54   42.39
  -5   7   6   -7.59   26.40
  -5   7   6   29.74   12.54
   4  -7  -6   71.00   42.50
   4  -7  -6   68.02    8.97
   4  -7  -6   61.14   11.30
  -4   7   6   58.59   10.04
   3  -7  -6  -18.68   32.29
   3  -7  -6    1.84    6.34
   3  -7  -6    4.52    5.02
  -3   7   6   -0.06    6.22
   2  -7  -6  268.76   40.63
  -2   7   6  220.55   12.24
  -2   7   6  287.48   32.24
  -2   7   6  218.82   13.09
   1  -7  -6    1.54   28.07
  -1   7   6   -4.19    4.66
  -1   7   6  -53.13   36.96
  -1   7   6    3.84    4.38
   0  -7  -6    9.30    4.03
   0  -7  -6    2.06    3.92
   0  -7  -6   36.63   25.20
   0   7   6    6.98   18.72
   0   7   6    8.42    4.93
   0   7   6    6.63    4.12
  -1  -7  -6  128.88   27.14
  -1  -7  -6   76.84    8.46
  -1  -7  -6   77.26    8.69
   1   7   6   78.41    9.45
   1   7   6  112.46   23.86
  -2  -7  -6   76.25    9.76
  -2  -7  -6   65.46    8.44
   2   7   6   77.55    8.69
   2   7   6   94.57   10.61
   2   7   6  125.51   23.62
  -3  -7  -6  125.70   10.28
  -3  -7  -6  122.31   12.31
   3   7   6  122.96   13.51
   3   7   6  129.30   20.83
   3   7   6  114.28   10.97
  -4  -7  -6   32.28    9.72
  -4  -7  -6   26.85    7.43
   4   7   6   26.06   16.45
   4   7   6   24.66    8.51
  -5  -7  -6   23.42   11.22
  -5  -7  -6   11.47    7.17
   5   7   6   17.62    8.57
   5   7   6   -4.14   11.20
   5   7   6   33.34   15.33
  -6  -7  -6    2.45    9.23
  -6  -7  -6    9.55   12.97
   6   7   6   48.36   13.55
   6   7   6   11.21   13.09
   6   7   6   19.96   10.14
  -7  -7  -6    3.78   12.14
  -7  -7  -6    1.09   13.67
   7   7   6    3.84   11.57
   7   7   6   14.42   15.09
   7   7   6  -12.22   12.97
  -8  -7  -6   -5.52   16.21
  -8  -7  -6    2.70   15.47
   8   7   6   -1.20   14.59
   8   7   6   -7.73   10.26
   8   7   6    6.88   16.30
   8   7   6    9.35   10.91
  -9  -7  -6   -8.78   20.63
  -9  -7  -6   51.03   20.68
   9   7   6    0.13   21.74
   9   7   6   -9.55   17.59
 -10  -7  -6    5.91   24.62
  10   7   6   25.37   22.95
  -6   8   6    1.00   15.94
  -5   8   6   -3.44   11.75
  -5   8   6   27.76   12.52
   4  -8  -6   21.80   40.38
  -4   8   6   17.89    8.74
   3  -8  -6   27.58   37.50
  -3   8   6   23.35    5.69
   2  -8  -6   79.46   39.57
   1  -8  -6  -20.23   30.51
   0  -8  -6  107.23   30.79
   0   8   6  118.66   28.13
   0   8   6   66.62    6.03
   0   8   6   64.48    4.92
  -1  -8  -6  268.20   30.48
  -1  -8  -6  195.64   10.03
  -1  -8  -6  198.38    9.66
   1   8   6  214.63   10.62
   1   8   6  230.61   27.26
   1   8   6  193.91   12.78
  -2  -8  -6   22.48    6.42
   2   8   6   31.47   18.39
   2   8   6   15.26    7.70
  -3  -8  -6    9.31    5.91
  -3  -8  -6    3.15    7.51
   3   8   6    8.08    8.81
   3   8   6    3.29    6.45
   3   8   6    4.03   16.97
  -4  -8  -6   17.60    7.02
  -4  -8  -6   10.13   11.23
   4   8   6    7.32    8.30
   4   8   6   -2.09   14.43
   4   8   6   19.68   10.06
  -5  -8  -6   16.63   10.69
  -5  -8  -6   21.27    8.19
   5   8   6   -0.34   11.77
   5   8   6  -16.75   10.79
   5   8   6   22.06   10.17
  -6  -8  -6   29.49   10.21
  -6  -8  -6   15.21   12.31
   6   8   6    7.94   13.99
   6   8   6   30.72   12.70
  -7  -8  -6   45.23   13.81
  -7  -8  -6    5.25   12.82
   7   8   6   -6.88   12.95
   7   8   6  -12.09   14.01
  -8  -8  -6   -4.59   15.84
  -8  -8  -6   38.08   17.52
   8   8   6    9.24   17.80
   8   8   6   24.71   17.74
  -9  -8  -6   -9.90   20.28
   9   8   6   15.84   23.92
 -10  -8  -6  -21.42   23.67
  10   8   6   16.38   26.32
   3  -9  -6  -12.49   37.23
   2  -9  -6   21.95   35.40
   1  -9  -6   22.71   30.13
   0  -9  -6  220.44   38.07
  -1  -9  -6   63.15   28.37
   1   9   6   54.32    5.89
   1   9   6   43.28    5.24
  -2  -9  -6   87.87    8.97
   2   9   6   80.35    8.43
   2   9   6   86.61   10.41
  -3  -9  -6    4.85    6.36
  -3  -9  -6   12.25    8.26
   3   9   6   15.07    8.62
  -4  -9  -6   46.05   11.28
  -4  -9  -6   49.73    8.09
   4   9   6   42.17   12.42
   4   9   6   43.55   10.10
  -5  -9  -6   11.99   11.04
  -5  -9  -6   17.61    8.20
   5   9   6    9.89   11.06
   5   9   6   22.76   13.08
  -6  -9  -6    8.53   12.43
  -6  -9  -6    7.84   10.32
   6   9   6  -14.85   13.30
   6   9   6   -1.53   12.60
  -7  -9  -6    5.59   13.86
  -7  -9  -6   -5.97   12.05
   7   9   6    4.33   13.88
   7   9   6   -0.39   14.59
  -8  -9  -6    5.65   18.53
  -8  -9  -6    1.70   16.62
   8   9   6   73.49   22.21
   8   9   6   12.65   18.54
  -9  -9  -6  -57.98   19.27
   9   9   6  -19.10   22.77
 -10  -9  -6   36.86   30.56
  10   9   6    3.61   23.98
   3 -10  -6   80.56   50.42
   2 -10  -6  -33.06   38.19
   1 -10  -6   49.29   32.99
   0 -10  -6   33.35   36.21
  -1 -10  -6   27.98   30.91
  -2 -10  -6   15.43   25.85
   2  10   6   41.49    9.26
   2  10   6   38.16    6.39
  -3 -10  -6    5.19    8.42
  -3 -10  -6   -3.41    7.65
   3  10   6   -0.77   10.15
  -4 -10  -6   15.36    7.07
  -4 -10  -6   24.32   11.55
   4  10   6    2.63    9.38
   4  10   6    9.70   12.52
  -5 -10  -6   12.22   11.85
  -5 -10  -6   18.65    8.98
   5  10   6   14.84   12.18
   5  10   6  -11.75   13.88
  -6 -10  -6   -6.78   10.62
  -6 -10  -6    3.29   13.43
   6  10   6   -3.94   13.84
   6  10   6   -6.85   15.24
  -7 -10  -6   -6.61   13.21
  -7 -10  -6    6.23   15.75
   7  10   6   -4.16   17.01
   7  10   6   14.30   19.41
  -8 -10  -6   -2.81   17.29
   8  10   6   23.73   20.54
  -9 -10  -6   17.00   24.13
   9  10   6   29.29   26.23
   2 -11  -6   36.25   41.49
   1 -11  -6  -38.10   38.44
   0 -11  -6  -26.63   35.51
  -1 -11  -6   -0.77   33.00
  -2 -11  -6    2.27   27.56
   2  11   6   12.55    5.48
   2  11   6   12.47    8.36
  -3 -11  -6   -3.47    7.72
  -3 -11  -6    6.24    6.68
   3  11   6    5.74    7.62
   3  11   6    1.73   11.43
  -4 -11  -6   18.00   12.51
  -4 -11  -6   23.08    8.33
   4  11   6  -11.25   11.14
   4  11   6    1.80   13.79
  -5 -11  -6   -3.75    8.83
  -5 -11  -6   -5.37   14.10
   5  11   6  -15.48   14.65
   5  11   6    2.69   12.83
  -6 -11  -6    0.79   11.38
  -6 -11  -6   18.26   15.35
   6  11   6    9.27   18.06
   6  11   6   -0.21   15.79
  -7 -11  -6   -3.92   17.37
  -7 -11  -6   17.54   15.40
   7  11   6  -53.20   18.62
   1 -12  -6   16.12   45.44
   0 -12  -6   39.86   44.68
  -1 -12  -6  -58.00   40.11
  -2 -12  -6  -63.92   31.99
   3  12   6   -4.17    7.78
   3  12   6    7.84   14.20
  -4 -12  -6   -8.27    9.98
  -4 -12  -6  -12.53   12.19
   4  12   6   11.55   16.55
   4  12   6  -14.83   17.76
  -5 -12  -6   19.71   16.85
  -5 -12  -6  -19.24   14.21
   5  12   6  -20.90   18.08
  -6 -12  -6   63.07   19.64
   6  12   6   11.59   22.74
   0 -13  -6  -12.64   49.62
  -1 -13  -6  -88.63   44.45
  -2 -13  -6  -67.23   38.54
   3  13   6   22.69   15.29
  -4 -13  -6  -17.14   11.05
   4  13   6   22.37   18.82
  -5 -13  -6   16.61   17.72
   5  13   6   22.28   21.28
  -6 -13  -6   27.73   21.08
   3   8  -7  -29.95   42.47
  -3  -8   7  -45.17   27.18
   2   8  -7   -6.34   41.08
  -2  -8   7  -34.48   27.96
   1   8  -7   65.75   41.59
  -1  -8   7   44.05   25.31
   0   8  -7  -11.33   38.95
   0  -8   7  -10.86   25.73
   4   7  -7  -22.53   36.68
  -4  -7   7   19.82   25.15
   3   7  -7   -3.88   33.87
  -3  -7   7   23.65   23.31
   2   7  -7  -14.90   36.09
  -2  -7   7   32.76   22.89
   1   7  -7  -20.18   31.33
  -1  -7   7   -8.57   20.29
   0   7  -7   17.89   32.49
   0  -7   7  -38.65   18.46
   0  -7   7  -10.45   24.26
  -1   7  -7    6.88   27.15
   1  -7   7   -2.46   16.34
   1  -7   7   33.27   26.70
  -2   7  -7   43.69   30.82
   2  -7   7   61.86   18.52
  -3   7  -7   12.21   27.40
   3  -7   7   -5.15   23.98
   5   6  -7  123.96   66.09
  -5  -6   7   13.82   49.02
  -5  -6   7   72.39   36.00
   4   6  -7  -31.34   29.44
  -4  -6   7   27.17   20.45
   3   6  -7  104.51   34.87
  -3  -6   7    0.18   19.96
  -3  -6   7   12.59   28.17
   2   6  -7   35.90   30.51
   2   6  -7   36.53   20.56
  -2  -6   7    9.98   16.64
   1   6  -7   11.38   26.68
   1   6  -7   42.67   19.15
  -1  -6   7    6.87   16.50
  -1  -6   7   25.91   20.52
   0   6  -7   15.09   26.08
   0   6  -7   29.06   18.95
   0  -6   7   25.75   17.54
   0  -6   7   -0.75   17.14
  -1   6  -7    4.24   18.90
  -1   6  -7   58.52   26.29
   1  -6   7   55.38   18.38
   1  -6   7   29.68   18.14
  -2   6  -7   59.01   21.94
  -2   6  -7   65.88   28.94
   2  -6   7   78.60   24.24
   2  -6   7   97.40   19.69
  -3   6  -7   48.18   23.45
  -3   6  -7   72.80   28.18
   3  -6   7   62.60   19.44
  -4   6  -7   25.09   26.55
   4  -6   7    9.12   19.44
  -5   6  -7  -25.61   29.97
   5  -6   7  -24.41   31.58
  -6  -5   7   41.90   49.34
   5   5  -7   21.42   27.60
  -5  -5   7   52.74   44.57
  -5  -5   7   10.15   20.58
   4   5  -7  -19.50   24.53
   4   5  -7   29.37   18.39
  -4  -5   7   -9.10   16.44
  -4  -5   7  -23.97   22.82
  -4  -5   7  -20.65   36.27
   3   5  -7  -35.40   15.59
   3   5  -7   -3.79   26.61
  -3  -5   7   19.98   18.06
  -3  -5   7   -7.37   19.89
   2   5  -7  -17.65   24.57
   2   5  -7    8.87   16.66
  -2  -5   7  -13.46   16.10
   1   5  -7   -0.15   14.70
   1   5  -7  -40.39   20.64
  -1  -5   7   22.48   14.49
  -1  -5   7   14.23   16.58
   0   5  -7   15.13   24.71
   0   5  -7   33.88   17.48
   0  -5   7   37.64   14.52
   0  -5   7   23.41   16.38
  -1   5  -7   54.60   16.09
  -1   5  -7   -3.64   39.08
   1  -5   7   19.91   15.58
   1  -5   7    0.27   12.73
  -2   5  -7  -14.16   14.21
  -2   5  -7   59.88   33.36
   2  -5   7   -5.22   16.00
   2  -5   7   -2.28   21.31
  -3   5  -7   35.84   33.75
  -3   5  -7   19.69   16.24
   3  -5   7   17.74   16.87
   3  -5   7   34.08   18.63
  -4   5  -7   -2.66   19.30
   4  -5   7   -5.76   16.60
  -5   5  -7  -24.52   24.85
   5  -5   7  -14.35   18.56
   5  -5   7  -27.90   17.80
  -6   5  -7    1.33   26.07
   6  -5   7  -13.30   23.65
  -6  -4   7   93.62   44.85
   5   4  -7   12.10   25.60
   5   4  -7   13.68   19.25
  -5  -4   7  -12.12   14.97
  -5  -4   7   -8.15   38.72
  -5  -4   7   44.04   25.31
   4   4  -7   20.29   16.25
   4   4  -7   32.26   23.62
  -4  -4   7   11.82   23.03
  -4  -4   7  -20.39   32.78
  -4  -4   7  -27.22   13.51
   3   4  -7  -17.57   13.80
   3   4  -7    0.10   20.72
  -3  -4   7   21.31   31.23
  -3  -4   7  -38.82   20.60
  -3  -4   7    4.22   15.00
   2   4  -7   13.71   14.55
   2   4  -7   62.91   25.40
  -2  -4   7   22.18   19.20
  -2  -4   7   -3.93   12.35
   1   4  -7   15.69   13.56
   1   4  -7    5.03   19.81
  -1  -4   7  -11.86   12.47
  -1  -4   7  -21.59   16.35
   0   4  -7   29.65   15.85
   0   4  -7  -15.78   20.66
   0  -4   7    8.90   15.26
   0  -4   7    1.65   11.11
  -1   4  -7    4.02   13.63
  -1   4  -7   -8.61   18.96
   1  -4   7    8.82   15.10
   1  -4   7  -18.72   19.10
  -2   4  -7  -10.18   13.42
  -2   4  -7    9.41   19.75
   2  -4   7   -1.69   15.05
   2  -4   7   11.17   13.08
  -3   4  -7  -15.04   20.02
  -3   4  -7  -20.53   13.70
   3  -4   7   22.54   15.32
   3  -4   7   -9.67   15.09
  -4   4  -7   -0.84   16.48
  -4   4  -7  -38.35   22.48
   4  -4   7   -9.09   14.94
   4  -4   7    4.97   16.51
  -5   4  -7    3.39   24.98
   5  -4   7   17.84   14.46
   5  -4   7   29.70   17.96
  -6   4  -7   24.70   27.06
  -6   4  -7  -56.12   45.11
   6  -4   7   37.58   17.54
   6  -4   7  -26.48   20.88
  -7   4  -7   -4.45   26.14
   7  -4   7   18.92   27.67
  -7  -3   7  132.67   47.70
   6   3  -7  -54.94   30.11
   6   3  -7   -8.45   20.66
  -6  -3   7   73.53   42.09
  -6  -3   7   21.80   26.32
   5   3  -7   52.74   25.60
   5   3  -7   36.97   18.33
  -5  -3   7   17.54   14.87
  -5  -3   7    3.99   23.06
  -5  -3   7    5.99   35.02
   4   3  -7   10.91   22.77
   4   3  -7    8.03   14.25
  -4  -3   7   24.47   13.48
  -4  -3   7    9.91   20.11
  -4  -3   7  -25.83   27.43
   3   3  -7  -14.62   19.72
   3   3  -7   46.50   15.40
  -3  -3   7   26.78   14.44
  -3  -3   7   32.94   22.35
  -3  -3   7    8.31   25.84
   2   3  -7    5.41   13.20
   2   3  -7   30.08   20.23
  -2  -3   7   27.32   14.09
  -2  -3   7   -0.82   17.43
   1   3  -7   12.87   13.36
   1   3  -7   -7.54   17.06
  -1  -3   7   19.48   11.55
   0   3  -7   -7.15   16.16
   0   3  -7    4.80   14.33
   0  -3   7   14.46   13.92
  -1   3  -7   24.28   13.50
  -1   3  -7   16.48   18.71
   1  -3   7   32.13   14.12
   1  -3   7    1.46   12.33
  -2   3  -7  -17.80   14.31
  -2   3  -7   -5.19   16.27
   2  -3   7    9.16   14.53
   2  -3   7   19.51   12.20
  -3   3  -7    9.74   17.11
  -3   3  -7  -10.97   13.05
   3  -3   7  -17.39   13.84
  -4   3  -7   23.60   20.42
  -4   3  -7   24.95   14.80
   4  -3   7   55.52   17.37
   4  -3   7   34.22   14.90
  -5   3  -7  -13.22   16.34
   5  -3   7   26.12   15.55
   5  -3   7  -16.85   18.77
  -6   3  -7    5.74   18.69
  -6   3  -7   44.94   25.20
   6  -3   7    6.27   18.12
   6  -3   7    8.58   17.68
  -7   3  -7    7.76   23.91
   7  -3   7  -10.35   16.78
   7  -3   7   -3.90   22.41
  -8   3  -7    9.04   28.32
   8  -3   7   -6.39   29.82
  -8  -2   7  154.50   55.59
   7   2  -7  -21.22   25.27
  -7  -2   7    0.06   33.20
  -7  -2   7  115.12   44.64
   6   2  -7    3.22   24.15
   6   2  -7  -21.93   19.63
  -6  -2   7  -31.43   24.32
  -6  -2   7  -16.17   17.21
  -6  -2   7   54.15   37.77
   5   2  -7   -7.05   19.75
   5   2  -7   19.60   15.86
  -5  -2   7   22.35   22.77
  -5  -2   7   11.71   12.77
  -5  -2   7   -5.74   31.70
   4   2  -7   -1.91   19.16
   4   2  -7  -10.70   13.06
  -4  -2   7  -14.76   13.83
  -4  -2   7   20.94   27.92
  -4  -2   7   -6.64   21.55
   3   2  -7   -4.81   18.08
   3   2  -7  -13.70   13.30
  -3  -2   7   25.80   24.88
  -3  -2   7  -15.45   12.15
  -3  -2   7    6.06   17.21
   2   2  -7    4.74   11.51
   2   2  -7  -20.98   16.98
  -2  -2   7   -6.09   16.51
  -2  -2   7    4.46   10.63
   1   2  -7   41.56   12.45
  -1  -2   7   13.09   10.93
   0   2  -7   37.73   12.37
   0   2  -7   18.69   16.32
   0  -2   7   26.27   15.74
   0  -2   7   15.89   11.46
  -1   2  -7   19.93   14.80
  -1   2  -7   28.00   11.68
   1  -2   7   16.58   10.63
   1  -2   7    5.72   12.40
  -2   2  -7  -16.74   14.59
  -2   2  -7    9.05   12.37
   2  -2   7   23.05   13.46
   2  -2   7    7.92   12.18
  -3   2  -7    0.34   12.15
  -3   2  -7   20.49   17.72
   3  -2   7    3.88   11.27
   3  -2   7   -1.80   12.64
  -4   2  -7  -16.91   13.98
  -4   2  -7   10.67   16.10
   4  -2   7   25.90   13.24
   4  -2   7   -0.25   12.43
  -5   2  -7   52.49   18.53
   5  -2   7   28.63   15.40
   5  -2   7   69.46   19.54
  -6   2  -7   -0.75   19.07
  -6   2  -7    5.03   18.02
   6  -2   7   32.66   16.69
   6  -2   7   -6.92   16.01
  -7   2  -7   12.87   22.31
  -7   2  -7    1.49   23.20
   7  -2   7    6.35   18.83
   7  -2   7   28.47   17.04
  -8   2  -7  -23.64   25.62
   8  -2   7  -61.46   23.14
  -9   2  -7  -18.11   29.38
   9  -2   7   23.89   34.18
   8   1  -7   63.00   32.70
  -8  -1   7   43.56   51.74
  -8  -1   7   60.27   39.15
   7   1  -7    0.93   22.25
  -7  -1   7   24.46   30.20
  -7  -1   7   74.04   42.49
   6   1  -7   16.30   21.59
   6   1  -7   -5.22   19.18
  -6  -1   7   -7.42   14.04
  -6  -1   7   57.75   33.63
  -6  -1   7   -9.14   25.27
   5   1  -7   11.47   14.04
   5   1  -7  -17.19   18.59
  -5  -1   7  -31.56   18.77
  -5  -1   7    9.20   13.98
  -5  -1   7   38.41   29.21
   4   1  -7   35.96   19.49
   4   1  -7   -2.20   13.26
  -4  -1   7  -20.37   26.28
  -4  -1   7    4.19   18.63
  -4  -1   7   -3.79   12.53
   3   1  -7    4.86   17.88
   3   1  -7   32.14   11.94
  -3  -1   7   14.81   20.22
  -3  -1   7   26.40   11.62
  -3  -1   7   49.04   24.58
   2   1  -7  137.05   22.96
  -2  -1   7   83.38   14.30
  -2  -1   7  123.40   20.04
  -2  -1   7  109.81   33.65
   1   1  -7  149.87   19.86
   1   1  -7  125.63   17.00
  -1  -1   7  125.07   18.10
   0   1  -7   91.24   14.85
   0   1  -7   94.20   17.91
   0  -1   7  117.02   14.88
   0  -1   7   77.30   15.24
  -1   1  -7    4.54   12.61
  -1   1  -7   -5.47   10.23
   1  -1   7    8.57    9.47
   1  -1   7   10.96   11.42
  -2   1  -7   -0.13   15.06
   2  -1   7    4.37   10.99
   2  -1   7   20.24   10.70
  -3   1  -7   -0.66   15.22
   3  -1   7   25.04   13.00
  -4   1  -7   -0.91   14.27
  -4   1  -7   -5.53   11.10
   4  -1   7  -11.25   11.97
   4  -1   7    8.59   12.43
  -5   1  -7   43.66   16.64
  -5   1  -7   15.96   18.95
   5  -1   7   14.96   12.25
  -6   1  -7   15.49   14.91
  -6   1  -7   24.04   18.62
   6  -1   7   26.17   15.57
   6  -1   7    8.16   14.53
  -7   1  -7   21.44   14.06
  -7   1  -7   32.53   21.85
   7  -1   7   41.73   20.28
   7  -1   7  -12.85   16.03
  -8   1  -7  -27.11   21.72
  -8   1  -7   -7.40   22.94
   8  -1   7  -26.08   16.57
   8  -1   7   -3.61   23.48
  -9   1  -7   10.99   28.09
   9  -1   7   29.42   26.00
 -10   1  -7  -40.85   31.87
   8   0  -7   53.71   31.18
  -8   0   7   13.07   36.27
   7   0  -7   -2.44   21.43
  -7   0   7   -7.00   27.38
  -7   0   7   30.71   40.16
   6   0  -7  -16.47   17.71
   6   0  -7  -28.20   19.79
  -6   0   7    4.82   14.16
  -6   0   7   40.32   33.98
  -6   0   7  -12.89   25.26
   5   0  -7    7.51   14.51
   5   0  -7   25.77   18.11
  -5   0   7    6.74   22.55
  -5   0   7   59.76   31.88
  -5   0   7   15.30   13.31
   4   0  -7  -10.68   19.35
   4   0  -7   18.38   17.06
  -4   0   7    7.34   11.40
  -4   0   7   16.54   19.50
  -4   0   7  -12.35   24.34
   3   0  -7   32.84   12.75
   3   0  -7   11.59   16.03
  -3   0   7   50.34   21.55
  -3   0   7   37.28   16.95
  -3   0   7   42.16   11.93
   2   0  -7  434.82   30.82
   2   0  -7  403.11   24.88
  -2   0   7  470.64   51.90
  -2   0   7  353.02   27.91
  -2   0   7  464.29   24.68
   1   0  -7   67.29   15.47
   1   0  -7   43.98   11.50
  -1   0   7   57.69   19.19
  -1   0   7   46.93   14.85
   0   0  -7  205.47   20.62
   0   0  -7  214.36   17.20
   0   0   7  216.31   17.21
   0   0   7  191.68   19.06
  -1   0  -7    5.95   12.00
  -1   0  -7   13.30    9.38
   1   0   7   -2.23    8.75
   1   0   7   15.53   10.96
  -2   0  -7   26.67   13.73
  -2   0  -7   19.97   10.14
   2   0   7   48.98   11.55
   2   0   7   32.35   11.52
  -3   0  -7   76.16   13.40
  -3   0  -7   76.37   16.16
   3   0   7   99.99   15.33
   3   0   7   85.26   14.18
  -4   0  -7   98.29   17.57
  -4   0  -7  122.08   16.27
   4   0   7   82.76   15.07
  -5   0  -7   36.85   15.86
  -5   0  -7   36.47   13.27
   5   0   7   28.90   13.40
  -6   0  -7   10.25   14.84
  -6   0  -7   12.32   15.26
   6   0   7   31.37   20.64
   6   0   7   -3.47   13.44
  -7   0  -7   12.20   17.47
  -7   0  -7   24.71   15.31
   7   0   7    2.04   14.35
   7   0   7   15.22   17.42
  -8   0  -7   18.20   21.28
  -8   0  -7   11.65   15.76
   8   0   7  -24.95   16.00
   8   0   7   32.76   20.87
  -9   0  -7    3.69   25.87
   9   0   7   14.04   27.63
 -10   0  -7  -54.56   27.10
  10   0   7   87.76   35.51
  -8   1   7   50.30   60.02
   7  -1  -7   46.39   22.29
  -7   1   7   40.16   30.15
  -7   1   7  107.89   42.33
   6  -1  -7    4.75   16.36
   6  -1  -7   25.94   21.56
  -6   1   7    1.02   33.49
  -6   1   7    7.25   25.66
  -6   1   7    1.64   14.21
   5  -1  -7   60.75   16.45
   5  -1  -7   45.85   19.73
  -5   1   7   48.13   13.66
  -5   1   7   42.27   20.47
  -5   1   7   69.81   30.73
   4  -1  -7    4.84   15.77
   4  -1  -7   28.41   11.31
  -4   1   7   15.51   10.81
  -4   1   7   35.36   28.74
  -4   1   7    2.67   15.79
   3  -1  -7    8.86    8.92
   3  -1  -7    4.78   15.88
  -3   1   7   17.28   10.61
  -3   1   7   -3.90   16.31
  -3   1   7   -0.21   21.77
   2  -1  -7   21.30   10.19
  -2   1   7   41.79   22.16
  -2   1   7    9.56    9.52
  -2   1   7   22.68   15.56
   1  -1  -7   23.59   13.31
   1  -1  -7   43.72   10.43
  -1   1   7   42.48   20.05
  -1   1   7   40.68   13.44
  -1   1   7   31.14   10.12
   0  -1  -7   73.20   12.39
   0  -1  -7   83.70   16.21
   0   1   7   83.81   13.60
   0   1   7   79.88   14.66
  -1  -1  -7    7.24   12.80
  -1  -1  -7   13.22    9.74
   1   1   7   -6.79    7.90
   1   1   7   -0.41   10.01
  -2  -1  -7   58.25   14.04
  -2  -1  -7   55.57   12.52
   2   1   7   71.98   12.75
   2   1   7   72.29   12.47
  -3  -1  -7   11.88    9.90
  -3  -1  -7    9.58   12.21
   3   1   7   23.03   11.17
   3   1   7   19.19   10.66
  -4  -1  -7  146.97   17.01
  -4  -1  -7  117.89   17.35
   4   1   7  131.82   17.46
   4   1   7  114.85   15.60
  -5  -1  -7   -1.22   10.15
  -5  -1  -7   18.40   16.17
   5   1   7   18.19   13.01
   5   1   7   12.23   13.64
  -6  -1  -7   23.44   15.17
  -6  -1  -7   22.24   12.32
   6   1   7   33.32   15.38
   6   1   7   24.49   14.86
  -7  -1  -7   16.62   18.36
  -7  -1  -7   15.95   14.99
   7   1   7    7.32   16.49
   7   1   7  -11.92   16.35
  -8  -1  -7   24.96   16.91
  -8  -1  -7    5.11   18.81
   8   1   7   31.12   17.98
   8   1   7  -10.88   15.68
  -9  -1  -7    5.15   21.98
   9   1   7   -6.05   22.91
   9   1   7    4.19   19.93
 -10  -1  -7   39.08   28.54
  10   1   7  -43.48   33.25
   7  -2  -7   13.46   19.92
  -7   2   7  120.35   46.22
  -7   2   7    8.33   26.80
   6  -2  -7   -2.74   13.98
   6  -2  -7   13.50   19.05
  -6   2   7   -2.08   25.72
  -6   2   7   54.45   34.98
  -6   2   7   25.00   14.86
   5  -2  -7   95.46   15.70
   5  -2  -7  131.11   21.95
  -5   2   7  135.09   16.19
  -5   2   7   82.51   23.47
  -5   2   7  132.87   36.34
   4  -2  -7   17.36   17.40
   4  -2  -7   22.68   10.64
  -4   2   7   49.96   28.44
  -4   2   7    2.73   15.36
  -4   2   7   10.97   11.40
   3  -2  -7   27.56   15.58
   3  -2  -7   30.60    9.56
  -3   2   7   15.98   15.99
  -3   2   7   22.97   10.63
  -3   2   7    5.20   23.81
   2  -2  -7   18.07   14.05
   2  -2  -7    9.25    7.70
  -2   2   7   14.43    9.23
  -2   2   7   16.52   26.96
  -2   2   7   13.94   12.19
   1  -2  -7   61.04   10.94
   1  -2  -7   45.04   12.82
  -1   2   7   15.65   17.58
  -1   2   7   48.45   11.32
   0  -2  -7  297.53   22.84
   0  -2  -7  332.03   19.02
   0   2   7  315.08   19.14
   0   2   7  310.27   27.30
   0   2   7  265.54   19.49
  -1  -2  -7  138.68   17.05
  -1  -2  -7   95.09   12.64
   1   2   7  104.95   13.01
   1   2   7  106.52   13.19
  -2  -2  -7   66.87   13.70
   2   2   7   47.29   11.33
   2   2   7   40.56   11.41
  -3  -2  -7    6.26    8.65
  -3  -2  -7    2.21   11.38
   3   2   7  -15.44    9.39
   3   2   7  -13.81    8.85
  -4  -2  -7  119.85   15.04
  -4  -2  -7   96.38   16.89
   4   2   7  146.91   17.43
   4   2   7  123.55   15.50
  -5  -2  -7   16.64   13.95
  -5  -2  -7   32.51   19.20
   5   2   7   -3.35   11.70
   5   2   7   17.23   11.65
  -6  -2  -7    7.47   15.82
  -6  -2  -7    1.54   11.29
   6   2   7    9.67   13.66
   6   2   7  -13.00   12.40
  -7  -2  -7    3.14   15.92
  -7  -2  -7    4.55   12.35
   7   2   7    2.24   17.20
   7   2   7   23.47   15.56
  -8  -2  -7  -15.83   16.63
  -8  -2  -7   17.43   17.15
   8   2   7   16.38   18.64
   8   2   7   -2.71   16.84
  -9  -2  -7  -20.98   21.03
  -9  -2  -7    2.25   21.73
   9   2   7  -12.59   22.17
   9   2   7  -41.33   18.79
 -10  -2  -7   42.92   25.97
  10   2   7   -1.60   27.15
   7  -3  -7   42.44   18.30
   6  -3  -7   38.04   14.37
   6  -3  -7  -13.96   18.65
  -6   3   7   10.93   15.61
  -6   3   7    1.10   23.01
  -6   3   7   69.27   40.01
   5  -3  -7   17.73   11.01
   5  -3  -7  -14.90   16.81
  -5   3   7   58.61   21.43
  -5   3   7   57.95   34.75
  -5   3   7   27.61   12.88
   4  -3  -7   -2.69    7.86
   4  -3  -7   17.90   14.25
  -4   3   7    6.56   29.31
  -4   3   7   13.57   16.75
  -4   3   7   -3.81   10.75
   3  -3  -7    8.99    8.09
   3  -3  -7   38.12   14.04
  -3   3   7    5.51    9.71
  -3   3   7    7.12   22.20
  -3   3   7    7.75   13.68
   2  -3  -7   11.66    7.57
   2  -3  -7   -5.24   12.71
  -2   3   7   10.66    8.36
  -2   3   7  -11.36   26.27
  -2   3   7   -0.14   11.44
   1  -3  -7   -2.53   11.91
   1  -3  -7   16.00    7.10
  -1   3   7   -1.10   16.88
  -1   3   7    1.71    7.41
   0  -3  -7   54.44    9.28
   0  -3  -7   55.52   13.43
   0   3   7   69.88   11.16
   0   3   7   58.84   10.88
   0   3   7   87.66   21.07
  -1  -3  -7   51.13    9.66
  -1  -3  -7   62.30   13.57
   1   3   7   48.66   10.24
   1   3   7   54.91   10.48
  -2  -3  -7   -1.22   10.33
   2   3   7    8.75    9.31
   2   3   7   -1.41    8.98
  -3  -3  -7   26.29    9.31
  -3  -3  -7   20.77   11.12
   3   3   7   33.86   10.88
   3   3   7   25.76   10.16
  -4  -3  -7   30.88   10.11
  -4  -3  -7   27.65   13.07
   4   3   7   13.73    9.85
   4   3   7   39.12   10.82
  -5  -3  -7  110.05   15.57
   5   3   7  110.67   16.20
   5   3   7   88.36   13.84
  -6  -3  -7   -1.43    9.83
  -6  -3  -7    0.18   13.18
   6   3   7   23.36   14.66
   6   3   7   14.99   17.86
  -7  -3  -7   32.48   16.80
  -7  -3  -7   18.54   13.20
   7   3   7   41.82   16.80
   7   3   7    7.86   12.75
  -8  -3  -7   24.81   18.42
  -8  -3  -7   -6.75   17.07
   8   3   7   11.52   19.71
   8   3   7    7.22   14.49
  -9  -3  -7   26.35   19.87
  -9  -3  -7   -8.21   20.07
   9   3   7   -3.21   17.24
   9   3   7  -20.95   18.46
 -10  -3  -7   12.47   28.28
  10   3   7    6.35   44.33
   6  -4  -7    1.47   13.15
   6  -4  -7   10.30   18.71
   6  -4  -7  -83.46   46.10
  -6   4   7   19.78   22.28
  -6   4   7   10.38   16.07
   5  -4  -7   24.19   16.36
   5  -4  -7  -15.71    9.54
   5  -4  -7  -50.08   36.62
  -5   4   7    3.15   13.06
  -5   4   7  -33.53   17.67
  -5   4   7   37.09   33.73
   4  -4  -7  -60.06   33.54
   4  -4  -7   -5.74   14.19
   4  -4  -7   -4.51    7.67
  -4   4   7  -17.88    9.92
  -4   4   7  -23.99   15.05
  -4   4   7  -27.90   25.58
   3  -4  -7   64.40   15.68
   3  -4  -7  101.35   10.51
  -3   4   7   88.54   29.24
  -3   4   7   52.78   15.49
  -3   4   7   63.48   11.43
   2  -4  -7    1.97   12.14
   2  -4  -7    6.78    6.75
  -2   4   7   -0.90   10.80
  -2   4   7   24.86   23.73
  -2   4   7   10.24   10.33
   1  -4  -7   32.25    7.16
   1  -4  -7   -4.38   10.68
  -1   4   7    9.45    8.60
  -1   4   7   24.27   19.79
  -1   4   7   15.01    8.61
   0  -4  -7  198.16   13.36
   0  -4  -7  173.54   17.11
   0   4   7  151.66   22.39
   0   4   7  189.03   15.42
   0   4   7  155.84   14.48
  -1  -4  -7    3.39    9.81
  -1  -4  -7   16.58    7.33
   1   4   7   -0.38    8.48
   1   4   7   20.80   16.97
   1   4   7    5.43    8.16
  -2  -4  -7   62.78   12.01
  -2  -4  -7   61.90    9.33
   2   4   7   41.02    9.99
   2   4   7   67.36   10.12
  -3  -4  -7   16.74    8.27
  -3  -4  -7    9.49   10.14
   3   4   7   22.23    9.00
   3   4   7    7.23    9.16
  -4  -4  -7   12.78    8.20
  -4  -4  -7    9.96   11.68
   4   4   7    8.24    9.19
   4   4   7   16.71   11.58
  -5  -4  -7   90.94   12.91
  -5  -4  -7   74.22   23.96
   5   4   7  109.78   14.83
   5   4   7   90.62   15.16
  -6  -4  -7   33.24   14.77
   6   4   7   54.06   14.48
   6   4   7   37.66   13.28
  -7  -4  -7    5.99   16.15
  -7  -4  -7   16.37   13.18
   7   4   7   35.91   15.43
   7   4   7   23.54   15.29
  -8  -4  -7   12.63   17.91
  -8  -4  -7    4.04   14.47
   8   4   7   11.10   18.39
   8   4   7    1.30   15.15
  -9  -4  -7   -7.17   20.88
  -9  -4  -7  -35.36   18.25
   9   4   7   27.33   19.34
   9   4   7  -16.15   18.79
   6  -5  -7   11.86   19.35
   6  -5  -7  -29.19   56.57
   6  -5  -7   16.43   11.69
  -6   5   7  -11.04   23.66
  -6   5   7    5.14   14.96
   5  -5  -7   -9.96    8.76
   5  -5  -7  -12.11   16.02
   5  -5  -7  -63.75   42.31
  -5   5   7  -38.25   31.28
  -5   5   7  -12.23   16.97
  -5   5   7   23.10   13.30
   4  -5  -7   26.74    8.06
   4  -5  -7  -20.66   36.83
   4  -5  -7    4.81   13.88
  -4   5   7   14.11   30.19
  -4   5   7  -14.23   13.87
  -4   5   7   10.08   11.02
   3  -5  -7   -5.95   34.65
   3  -5  -7   41.06    8.03
   3  -5  -7   34.34   15.19
  -3   5   7   47.14   28.83
  -3   5   7   41.12   13.21
  -3   5   7   51.10   10.64
   2  -5  -7   26.25   28.86
   2  -5  -7    7.78    5.93
   2  -5  -7   -9.97   11.15
  -2   5   7   23.78   25.17
   1  -5  -7   36.70   11.42
   1  -5  -7   40.38    7.32
  -1   5   7   42.94   10.03
  -1   5   7   34.59    9.02
  -1   5   7   59.99   27.49
   0  -5  -7  219.61   17.08
   0  -5  -7  187.23   12.72
   0   5   7  168.08   25.44
   0   5   7  201.18   15.08
   0   5   7  206.24   15.02
  -1  -5  -7   -0.34    9.16
  -1  -5  -7    6.74    6.56
   1   5   7    7.79    9.01
   1   5   7    9.48   16.68
   1   5   7    2.76    7.66
  -2  -5  -7   70.48    9.72
  -2  -5  -7   80.45   12.19
   2   5   7   81.46   19.72
   2   5   7   63.93    9.83
   2   5   7   50.04   10.55
  -3  -5  -7    6.62    8.91
  -3  -5  -7    5.27    7.07
   3   5   7   23.77   15.83
   3   5   7   26.62    9.82
   3   5   7    8.30    7.97
  -4  -5  -7   20.35    7.75
  -4  -5  -7   18.98   12.02
   4   5   7   25.41    8.85
  -5  -5  -7   -3.06   11.94
  -5  -5  -7    5.24    8.93
   5   5   7   -6.80    8.88
   5   5   7    8.30    9.79
  -6  -5  -7   77.29   13.37
  -6  -5  -7   79.69   16.96
   6   5   7   39.27   13.69
   6   5   7   41.44   14.30
  -7  -5  -7   45.26   16.65
  -7  -5  -7   22.51   14.26
   7   5   7   61.46   14.76
   7   5   7   51.38   16.63
  -8  -5  -7   -3.38   15.15
  -8  -5  -7   -6.80   14.89
   8   5   7   -1.48   16.54
   8   5   7  -15.21   17.03
  -9  -5  -7  -11.45   17.60
  -9  -5  -7  -41.48   19.78
   9   5   7  -17.61   18.84
   9   5   7    8.02   17.23
  10   5   7   17.73   38.40
   7  -6  -7  -47.15   24.89
   6  -6  -7  -17.45   19.45
  -6   6   7    5.75   15.85
   5  -6  -7  -20.40   16.74
   5  -6  -7   19.84   44.22
   5  -6  -7   17.80    8.70
  -5   6   7   16.52   13.79
  -5   6   7  -10.54   16.56
   4  -6  -7    2.02   37.06
   4  -6  -7    9.35   14.32
   4  -6  -7   18.22    7.52
  -4   6   7    5.87   10.60
  -4   6   7   -1.15   30.67
  -4   6   7    7.73   13.53
   3  -6  -7  -11.42   33.26
   3  -6  -7    7.47    6.48
   3  -6  -7   17.13   14.19
  -3   6   7   13.20   31.93
  -3   6   7   10.33   11.90
  -3   6   7    1.46    8.74
   2  -6  -7  -16.08   30.29
   2  -6  -7    8.32    6.17
   2  -6  -7    1.10   10.07
  -2   6   7   -0.53    8.29
  -2   6   7  -10.80    9.58
  -2   6   7   -8.58   26.39
   1  -6  -7   21.86    9.37
   1  -6  -7   24.76    6.68
   1  -6  -7   46.04   30.53
  -1   6   7   12.38   24.03
  -1   6   7   18.34    9.32
  -1   6   7   16.80    7.38
   0  -6  -7  117.42   10.52
   0  -6  -7  110.20   12.82
   0   6   7  120.11   26.66
   0   6   7  117.13   12.00
   0   6   7  118.17   12.43
  -1  -6  -7  252.82   14.78
  -1  -6  -7  244.07   16.51
   1   6   7  241.29   16.10
   1   6   7  255.34   15.52
  -2  -6  -7   57.12    8.58
  -2  -6  -7   64.07   10.95
   2   6   7   56.12    9.17
   2   6   7   44.86   10.37
   2   6   7   65.53   20.01
  -3  -6  -7   15.78    9.69
  -3  -6  -7    5.36    6.62
   3   6   7   29.17   16.44
   3   6   7    4.94    9.18
   3   6   7   16.03    7.99
  -4  -6  -7   -5.55    7.30
  -4  -6  -7    2.06   10.60
   4   6   7   -1.00   10.67
   4   6   7    6.66    7.93
   4   6   7   16.31   16.06
  -5  -6  -7   -3.26   12.20
  -5  -6  -7   11.30    8.41
   5   6   7   -3.25    9.11
   5   6   7    2.83   11.42
  -6  -6  -7   17.01   13.98
  -6  -6  -7    2.66   11.06
   6   6   7  -10.32    9.75
   6   6   7    2.39   13.20
  -7  -6  -7    4.61   13.65
  -7  -6  -7   -0.96   13.30
   7   6   7   -8.26   12.19
   7   6   7   10.52   15.85
  -8  -6  -7   15.38   15.79
  -8  -6  -7    3.81   14.56
   8   6   7  -19.26   16.59
   8   6   7   -3.06   16.31
  -9  -6  -7   33.00   19.67
  -9  -6  -7   25.14   18.79
   9   6   7    8.51   17.98
   9   6   7   18.91   20.19
 -10  -6  -7   48.93   24.84
  10   6   7   13.70   23.01
   7  -7  -7   -3.24   26.60
   6  -7  -7  -31.51   20.14
  -6   7   7    3.53   16.35
   5  -7  -7 -110.41   63.53
   5  -7  -7  -20.85   12.28
   5  -7  -7  -42.42   15.54
  -5   7   7   25.80   21.98
  -5   7   7   -0.09   13.19
   4  -7  -7   -5.13   13.02
   4  -7  -7   17.03    9.41
   4  -7  -7    4.66   38.88
  -4   7   7   13.59   17.05
  -4   7   7  -12.21   10.40
   3  -7  -7   14.03   39.33
   3  -7  -7    9.65   10.12
   3  -7  -7    6.45    6.49
  -3   7   7    3.37    8.24
  -3   7   7   49.25   32.22
   2  -7  -7    4.21    5.66
   2  -7  -7  -17.55   32.25
   2  -7  -7   -1.20    7.50
  -2   7   7   21.99   28.83
  -2   7   7   -7.94    6.77
   1  -7  -7   31.76   28.64
   1  -7  -7   -6.85    5.35
   1  -7  -7   -4.53    6.84
  -1   7   7   12.70    6.48
  -1   7   7   16.56   25.07
   0  -7  -7   16.81    6.86
   0  -7  -7   14.73    7.26
   0   7   7   12.08    6.63
   0   7   7   32.10   27.98
  -1  -7  -7  134.81   11.29
  -1  -7  -7  108.48   12.04
   1   7   7  170.43   28.95
   1   7   7  121.92   12.00
   1   7   7  141.81   13.40
  -2  -7  -7    0.62    8.10
   2   7   7    9.68    6.88
   2   7   7    3.08    8.77
   2   7   7    1.76   18.76
  -3  -7  -7   20.77    9.66
  -3  -7  -7   21.50    7.22
   3   7   7   10.77   10.21
   3   7   7   41.92   19.95
   3   7   7   28.20    8.14
  -4  -7  -7   10.67    7.24
   4   7   7   20.15   18.00
   4   7   7   15.12    8.83
   4   7   7   11.68   10.79
  -5  -7  -7   47.43   10.88
  -5  -7  -7   39.21   13.05
   5   7   7   59.19   19.41
   5   7   7   26.19   10.49
   5   7   7   52.92   13.45
  -6  -7  -7  -11.58    9.55
  -6  -7  -7   -4.63   12.57
   6   7   7   11.79   13.93
   6   7   7   13.74   10.07
   6   7   7   11.09   16.22
  -7  -7  -7    7.91   14.10
   7   7   7   12.57   14.68
   7   7   7   -7.89   14.14
   7   7   7  -25.21   17.69
  -8  -7  -7   25.15   17.65
  -8  -7  -7   18.60   18.13
   8   7   7  -17.71   15.99
   8   7   7  -38.26   16.33
  -9  -7  -7  -20.37   18.16
  -9  -7  -7   29.17   20.63
   9   7   7  -15.85   18.42
 -10  -7  -7   36.76   24.98
  10   7   7   10.37   24.80
  -6   8   7   13.33   17.29
  -5   8   7   -3.64   12.94
   4  -8  -7   36.33   44.61
  -4   8   7   18.55   10.60
   3  -8  -7   43.93   41.76
  -3   8   7   12.52    7.73
   2  -8  -7   26.23   33.54
  -2   8   7  -15.47   27.62
  -2   8   7   11.73    5.98
  -2   8   7    7.18    5.76
   1  -8  -7   -7.65   30.65
  -1   8   7   24.30   28.91
  -1   8   7    2.56    4.60
  -1   8   7   -3.36    5.55
   0  -8  -7   22.11   27.10
   0  -8  -7    8.33    3.58
   0  -8  -7    8.02    3.55
   0   8   7   18.98    5.94
   0   8   7    2.31    4.93
   0   8   7   -1.72   22.80
  -1  -8  -7   -2.42    6.02
  -1  -8  -7   -7.84    5.57
   1   8   7    8.83   24.68
   1   8   7    3.85    7.42
  -2  -8  -7   -8.68    6.61
   2   8   7    2.86    7.64
   2   8   7   -3.93    8.66
   2   8   7  -17.68   18.94
  -3  -8  -7   30.67    7.05
  -3  -8  -7    3.31    8.66
   3   8   7   16.71   21.47
   3   8   7    7.70    9.94
   3   8   7   15.63    7.92
  -4  -8  -7   10.47    9.80
  -4  -8  -7    3.07    6.78
   4   8   7   -1.48   11.11
   4   8   7    4.97    8.60
   4   8   7   14.86   19.69
  -5  -8  -7   -6.72   11.00
  -5  -8  -7  -14.55    7.76
   5   8   7    5.96   18.24
   5   8   7    1.22   12.18
   5   8   7  -17.29    9.60
  -6  -8  -7  -13.03   10.08
  -6  -8  -7   18.28   12.87
   6   8   7  -11.57   12.79
   6   8   7    5.29   16.08
   6   8   7   13.99   12.31
  -7  -8  -7    6.99   13.39
  -7  -8  -7    9.10   14.41
   7   8   7    8.51   13.33
   7   8   7   19.16   14.54
   7   8   7    7.54   13.96
  -8  -8  -7   -8.83   17.09
  -8  -8  -7    3.68   15.57
   8   8   7    0.86   18.99
   8   8   7   -5.22   15.74
  -9  -8  -7   -6.06   20.55
   9   8   7  -15.35   19.57
 -10  -8  -7  -18.55   24.99
  10   8   7   -9.43   24.41
   3  -9  -7   12.27   38.72
   2  -9  -7   71.66   39.90
   1  -9  -7   18.92   34.93
   0  -9  -7  232.30   43.30
  -1  -9  -7  -17.30   27.94
   1   9   7   32.92   51.03
   1   9   7   13.91    4.62
   1   9   7    1.55    6.58
  -2  -9  -7   44.74    7.73
  -2  -9  -7   49.45    8.51
   2   9   7   41.16   10.56
   2   9   7   42.02   26.44
  -3  -9  -7   16.57    9.07
  -3  -9  -7   13.69    6.65
   3   9   7   40.93   21.83
   3   9   7   -8.67    9.97
   3   9   7   11.54    8.53
  -4  -9  -7   25.62   11.10
  -4  -9  -7   27.19    8.09
   4   9   7   34.38   21.01
   4   9   7   21.45    9.38
   4   9   7   27.88   13.04
  -5  -9  -7   -1.67   11.76
  -5  -9  -7   22.86    9.38
   5   9   7   29.28   17.50
   5   9   7    3.98   11.04
   5   9   7   21.79   14.20
  -6  -9  -7   -1.00   12.75
  -6  -9  -7  -16.59   10.26
   6   9   7    8.88   13.96
   6   9   7   10.87   14.89
  -7  -9  -7   10.56   13.31
  -7  -9  -7   -5.18   14.70
   7   9   7   53.09   17.41
   7   9   7   21.39   15.85
  -8  -9  -7  -30.49   18.62
  -8  -9  -7  -17.50   18.61
   8   9   7    3.52   38.44
   8   9   7  -11.39   17.25
  -9  -9  -7   -4.32   25.01
   9   9   7   56.78   24.02
  10   9   7  -15.06   27.65
   3 -10  -7   22.78   53.12
   2 -10  -7   25.09   39.27
   1 -10  -7   25.72   35.62
   0 -10  -7  108.79   39.12
  -1 -10  -7  -17.50   30.87
   2  10   7    2.70    5.30
   2  10   7    6.01    9.45
  -3 -10  -7   28.36    9.59
  -3 -10  -7   29.57    9.24
   3  10   7   25.95   11.33
   3  10   7    3.71   11.85
  -4 -10  -7   14.72   11.47
  -4 -10  -7   16.49    7.51
   4  10   7   27.71   13.20
   4  10   7    2.03    9.77
  -5 -10  -7    9.71    8.76
  -5 -10  -7  -13.83   12.47
   5  10   7   -1.37   14.96
   5  10   7    7.14   11.86
  -6 -10  -7   14.74   11.69
  -6 -10  -7   13.34   14.28
   6  10   7    6.69   16.75
   6  10   7   -0.16   14.28
  -7 -10  -7   11.47   16.54
  -7 -10  -7  -14.99   13.69
   7  10   7   17.03   19.11
   7  10   7   -2.61   17.04
  -8 -10  -7  -25.81   18.92
   8  10   7  -23.92   21.18
  -9 -10  -7   -5.68   29.19
   9  10   7   15.78   24.23
   2 -11  -7   53.61   50.68
   1 -11  -7   39.18   40.86
   0 -11  -7  -43.39   37.28
  -1 -11  -7  -40.99   32.88
   2  11   7   69.75    7.23
   2  11   7   54.00   10.15
  -3 -11  -7    8.34    7.88
   3  11   7   10.75   13.18
   3  11   7    7.53    7.68
  -4 -11  -7   20.18    9.52
  -4 -11  -7   19.17   12.34
   4  11   7   13.16   11.49
   4  11   7   39.33   15.69
  -5 -11  -7   -9.03   13.08
  -5 -11  -7   -2.04    9.06
   5  11   7   23.47   13.73
   5  11   7    3.69   16.21
  -6 -11  -7   -0.60   15.28
  -6 -11  -7   23.77   12.34
   6  11   7  -26.03   17.56
   6  11   7   20.17   16.71
  -7 -11  -7   14.54   16.64
  -7 -11  -7    1.90   18.43
   7  11   7    8.88   20.02
   1 -12  -7  -62.72   47.35
   0 -12  -7  -77.58   41.79
  -1 -12  -7  -60.53   36.30
   3  12   7    1.76   15.26
   3  12   7    6.14    7.78
  -4 -12  -7    5.31   10.66
  -4 -12  -7  -11.30   11.48
   4  12   7    8.52   17.52
  -5 -12  -7    1.77   15.68
   5  12   7   10.12   18.61
  -6 -12  -7   -1.82   17.65
   6  12   7   20.38   24.45
   0 -13  -7  -59.00   49.35
   3  13   7   -6.25   14.31
   4  13   7    0.13   19.57
  -5 -13  -7  -20.23   16.55
   5  13   7   27.36   21.26
  -6 -13  -7   13.20   21.06
   5  14   7  -52.89   31.95
   3   7  -8   26.45   50.26
  -3  -7   8  -28.86   30.68
   2   7  -8    8.18   38.26
  -2  -7   8  -38.09   25.91
   1   7  -8  -62.89   38.49
  -1  -7   8    1.12   23.06
   0   7  -8   26.96   37.85
  -1   7  -8   -6.14   37.24
   1  -7   8   57.09   26.20
  -2   7  -8   21.18   50.32
   3   6  -8   24.22   38.00
  -3  -6   8  -33.89   24.15
   2   6  -8   42.59   38.99
  -2  -6   8   34.75   22.72
   1   6  -8   22.64   35.51
  -1  -6   8   22.02   19.90
   0   6  -8   53.78   35.73
   0  -6   8   24.27   23.66
  -1   6  -8   67.74   34.34
   1  -6   8   15.53   22.12
  -2   6  -8   15.90   31.47
   2  -6   8    1.12   22.59
  -3   6  -8   13.24   30.40
   3  -6   8  -32.72   22.83
  -4   6  -8   42.85   32.76
   4  -6   8   53.10   28.73
  -5  -5   8  -67.74   52.22
   4   5  -8  -28.38   32.34
  -4  -5   8   38.80   20.91
  -4  -5   8  -79.39   43.19
   3   5  -8   -2.54   33.21
  -3  -5   8   81.10   47.23
  -3  -5   8  -27.23   20.17
  -3  -5   8  -89.42   42.64
   2   5  -8   18.73   19.52
   2   5  -8   40.44   28.32
  -2  -5   8    2.74   20.73
  -2  -5   8   53.86   17.64
   1   5  -8   25.62   26.65
   1   5  -8    7.10   18.13
  -1  -5   8   10.48   16.40
  -1  -5   8   20.42   21.76
   0   5  -8   -1.08   16.08
   0   5  -8   40.43   30.33
   0  -5   8   -8.06   18.81
   0  -5   8   24.23   20.36
  -1   5  -8    9.51   17.47
  -1   5  -8    0.01   25.66
   1  -5   8  -14.08   17.86
   1  -5   8   -9.86   19.12
  -2   5  -8   45.59   26.57
  -2   5  -8   32.89   21.15
   2  -5   8    5.78   19.13
   2  -5   8   23.82   20.10
  -3   5  -8   44.64   27.76
  -3   5  -8    6.98   24.81
   3  -5   8  -19.53   17.14
   3  -5   8   -6.53   20.79
  -4   5  -8   36.02   28.87
   4  -5   8   50.61   24.26
  -5   5  -8   89.00   29.68
   5  -5   8   11.38   27.77
  -6  -4   8  153.21   55.67
  -5  -4   8  -47.23   46.06
   4   4  -8  -27.16   19.49
   4   4  -8  -15.28   27.30
  -4  -4   8  -52.89   18.60
  -4  -4   8  -23.06   40.32
  -4  -4   8  -29.19   28.71
   3   4  -8   26.55   17.76
   3   4  -8   14.84   25.15
  -3  -4   8   13.47   19.03
  -3  -4   8   20.79   26.06
   2   4  -8    4.08   17.08
   2   4  -8   27.58   25.19
  -2  -4   8   27.79   18.17
   1   4  -8   -4.04   25.30
   1   4  -8   -8.65   16.54
  -1  -4   8  -20.63   19.77
  -1  -4   8   50.41   17.93
   0   4  -8   12.10   23.10
   0   4  -8   28.82   18.74
   0  -4   8   12.66   16.20
   0  -4   8   30.39   15.87
  -1   4  -8    0.80   22.61
  -1   4  -8   30.66   16.37
   1  -4   8   21.30   15.65
   1  -4   8    2.40   17.06
  -2   4  -8   12.10   16.26
  -2   4  -8   -0.43   21.68
   2  -4   8    1.54   14.34
   2  -4   8   31.54   17.87
  -3   4  -8  -35.31   17.14
  -3   4  -8   64.56   26.75
   3  -4   8   30.76   17.18
   3  -4   8   27.77   19.01
  -4   4  -8   37.69   25.10
  -4   4  -8   25.02   20.07
   4  -4   8   28.97   21.03
   4  -4   8   42.00   18.48
  -5   4  -8  -12.83   27.29
   5  -4   8   25.77   21.79
   5  -4   8   33.33   19.35
  -6   4  -8    6.16   30.99
   6  -4   8   36.41   27.27
  -7   4  -8  -21.88   37.26
  -6  -3   8   46.49   49.57
   5   3  -8   -0.61   29.91
   5   3  -8   21.51   20.61
  -5  -3   8    5.11   44.92
  -5  -3   8   41.34   29.80
   4   3  -8  -38.11   19.42
   4   3  -8  -29.01   24.30
  -4  -3   8   22.63   24.37
  -4  -3   8  -45.92   32.97
  -4  -3   8   -2.96   17.13
   3   3  -8   22.08   16.01
   3   3  -8  -20.71   23.36
  -3  -3   8   -2.90   34.79
  -3  -3   8  -26.96   23.22
  -3  -3   8    8.05   15.34
   2   3  -8  -18.44   21.08
   2   3  -8    0.32   15.44
  -2  -3   8   24.80   14.28
   1   3  -8   36.12   16.50
   1   3  -8  -20.61   19.99
  -1  -3   8  -16.60   13.68
  -1  -3   8   -2.76   16.44
   0   3  -8   -1.58   13.40
   0   3  -8  -27.02   19.51
   0  -3   8    7.60   15.00
   0  -3   8  -10.50   13.84
  -1   3  -8  -23.55   17.96
  -1   3  -8  -12.65   15.11
   1  -3   8    6.93   12.39
   1  -3   8    8.04   15.87
  -2   3  -8   -7.50   20.20
  -2   3  -8   36.37   15.71
   2  -3   8   14.64   15.03
   2  -3   8  -11.96   13.36
  -3   3  -8    9.82   19.17
  -3   3  -8   28.78   15.24
   3  -3   8   -9.01   13.41
   3  -3   8   23.25   14.92
  -4   3  -8   -9.40   17.71
  -4   3  -8   60.37   24.13
   4  -3   8   38.69   19.19
   4  -3   8    9.94   15.53
  -5   3  -8  -13.79   22.69
   5  -3   8   20.30   21.08
   5  -3   8  -11.67   16.10
  -6   3  -8   -1.13   28.56
   6  -3   8   31.39   25.98
   6  -3   8  -50.13   17.88
  -7   3  -8   25.83   31.30
   7  -3   8   54.09   30.52
  -8   3  -8   19.15   32.88
  -7  -2   8  114.95   53.39
   6   2  -8   -9.19   22.48
  -6  -2   8   73.61   46.30
  -6  -2   8  -30.73   29.03
   5   2  -8   28.21   26.57
   5   2  -8   35.06   18.69
  -5  -2   8  -35.26   25.44
  -5  -2   8  -35.84   17.62
  -5  -2   8   -3.71   34.97
   4   2  -8   59.51   23.65
   4   2  -8   41.77   19.77
  -4  -2   8   45.27   23.53
  -4  -2   8   30.73   15.38
  -4  -2   8   89.58   34.69
   3   2  -8   34.83   24.79
   3   2  -8   33.15   17.06
  -3  -2   8   27.23   14.79
  -3  -2   8   23.92   21.88
  -3  -2   8    8.32   30.72
   2   2  -8   33.34   14.37
   2   2  -8   -2.47   19.34
  -2  -2   8  -13.48   18.03
  -2  -2   8   27.90   13.46
   1   2  -8   -6.47   12.82
   1   2  -8   14.41   21.08
  -1  -2   8  -27.57   17.22
  -1  -2   8   -0.89   12.43
   0   2  -8    6.34   13.55
   0   2  -8  -22.05   16.86
   0  -2   8    6.65   12.31
   0  -2   8   10.68   14.37
  -1   2  -8   13.12   13.64
  -1   2  -8  -20.83   15.85
   1  -2   8    3.12   12.69
   1  -2   8   16.72   15.69
  -2   2  -8   -1.91   12.56
  -2   2  -8    9.42   17.35
   2  -2   8   -5.56   11.29
   2  -2   8    3.65   14.19
  -3   2  -8    4.74   16.43
  -3   2  -8    1.71   17.83
   3  -2   8  -18.76   11.54
   3  -2   8   -5.00   14.52
  -4   2  -8   21.57   17.31
  -4   2  -8   19.01   18.47
   4  -2   8    8.05   15.51
   4  -2   8   31.77   16.54
  -5   2  -8   -5.54   22.02
  -5   2  -8  -23.98   17.67
   5  -2   8    6.16   14.89
   5  -2   8   11.00   19.15
  -6   2  -8   10.84   20.87
  -6   2  -8   12.90   22.47
   6  -2   8   13.06   16.94
   6  -2   8   47.01   22.03
  -7   2  -8   60.67   28.99
   7  -2   8   57.20   25.40
   7  -2   8   68.16   21.20
  -8   2  -8   69.17   31.03
   8  -2   8   91.03   33.35
  -9   2  -8 -100.74   43.23
   7   1  -8    5.50   29.46
  -7  -1   8  -11.79   34.01
   6   1  -8   22.47   23.81
  -6  -1   8   -0.04   32.29
  -6  -1   8   57.76   42.93
   5   1  -8   -6.19   22.48
   5   1  -8    1.48   16.46
  -5  -1   8   51.12   34.84
  -5  -1   8   -3.16   23.83
  -5  -1   8   32.87   18.03
   4   1  -8    1.06   20.49
   4   1  -8   -0.79   15.02
  -4  -1   8   -3.71   28.45
  -4  -1   8    8.97   21.65
  -4  -1   8    6.15   13.62
   3   1  -8   86.54   23.54
   3   1  -8   47.90   17.10
  -3  -1   8   51.13   30.59
  -3  -1   8   86.48   17.03
  -3  -1   8   66.17   22.46
   2   1  -8   14.59   19.86
   2   1  -8  -11.35   12.41
  -2  -1   8  -49.20   25.59
  -2  -1   8   19.01   13.31
  -2  -1   8    9.48   18.09
   1   1  -8   37.17   13.92
   1   1  -8   17.17   18.63
  -1  -1   8   60.96   15.86
   0   1  -8   39.35   14.92
   0   1  -8   56.93   18.54
   0  -1   8   58.74   16.76
   0  -1   8   64.64   15.09
  -1   1  -8   50.11   14.39
  -1   1  -8   13.56   16.21
   1  -1   8   33.02   11.92
   1  -1   8   13.76   13.14
  -2   1  -8   30.44   13.76
  -2   1  -8   20.95   17.25
   2  -1   8   18.68   13.25
   2  -1   8   18.67   13.68
  -3   1  -8   69.44   16.56
  -3   1  -8   81.15   21.04
   3  -1   8   74.70   16.53
   3  -1   8   34.46   15.72
  -4   1  -8   37.05   19.45
   4  -1   8   55.21   16.76
   4  -1   8   27.32   15.66
  -5   1  -8   14.25   18.74
  -5   1  -8  -21.42   15.06
   5  -1   8   21.27   15.18
   5  -1   8   14.73   17.54
  -6   1  -8   10.73   21.63
  -6   1  -8   -9.79   16.82
   6  -1   8   48.30   21.69
   6  -1   8    8.99   15.89
  -7   1  -8  -22.77   21.91
  -7   1  -8   10.25   25.66
   7  -1   8  -33.68   23.01
   7  -1   8    6.30   18.28
  -8   1  -8   15.53   26.77
   8  -1   8    0.14   27.44
  -9   1  -8  -39.71   30.60
   9  -1   8  -64.13   29.16
   7   0  -8   -5.00   25.84
  -7   0   8   10.89   47.69
  -7   0   8  -76.32   31.31
   6   0  -8  -12.38   20.94
  -6   0   8   80.84   42.01
  -6   0   8   16.92   32.01
   5   0  -8  -21.53   15.52
   5   0  -8  -17.21   21.78
  -5   0   8   27.06   24.62
  -5   0   8  -20.89   12.56
  -5   0   8   58.97   33.46
   4   0  -8   41.14   20.66
   4   0  -8   37.39   16.45
  -4   0   8   18.53   22.17
  -4   0   8   14.84   31.01
  -4   0   8   29.90   12.80
   3   0  -8   -8.14   19.79
   3   0  -8   -8.10   11.23
  -3   0   8    5.71   18.31
  -3   0   8   13.43   13.02
  -3   0   8  -17.08   25.72
   2   0  -8   68.50   21.81
   2   0  -8   70.06   15.37
  -2   0   8   47.85   14.04
  -2   0   8   69.76   29.86
  -2   0   8   93.83   22.18
   1   0  -8    1.83   12.61
   1   0  -8  -35.68   16.58
  -1   0   8   12.38   11.52
   0   0  -8   21.34   11.64
   0   0  -8   17.14   16.73
   0   0   8    9.38   12.84
   0   0   8   19.68   12.33
  -1   0  -8  111.83   20.08
   1   0   8   65.81   15.34
   1   0   8   87.03   14.49
  -2   0  -8   17.03   22.90
  -2   0  -8   41.85   13.63
   2   0   8   31.17   13.98
   2   0   8   38.78   13.74
  -3   0  -8   24.04   12.68
   3   0   8    4.37   12.86
   3   0   8   -1.91   12.17
  -4   0  -8   43.38   16.66
  -4   0  -8   45.38   15.38
   4   0   8   18.76   13.95
   4   0   8   59.64   16.07
  -5   0  -8   19.01   19.28
  -5   0  -8  -11.60   15.44
   5   0   8   -3.36   14.89
   5   0   8    3.25   12.84
  -6   0  -8   32.51   18.57
  -6   0  -8   -4.31   15.85
   6   0   8   -1.16   15.06
   6   0   8   11.75   16.61
  -7   0  -8   -3.49   22.21
   7   0   8    6.21   16.02
   7   0   8   23.11   21.08
  -8   0  -8   16.33   23.08
  -8   0  -8   18.10   40.18
   8   0   8   -8.53   22.13
   8   0   8  -45.13   19.00
  -9   0  -8    0.82   26.54
   9   0   8   -4.77   26.89
  -7   1   8  -47.23   34.32
  -7   1   8   38.63   77.60
   6  -1  -8  -18.80   19.62
  -6   1   8  -31.20   26.33
  -6   1   8   12.99   36.32
   5  -1  -8  -23.91   19.35
   5  -1  -8  -10.89   15.66
  -5   1   8  -46.72   31.81
  -5   1   8    5.01   13.08
  -5   1   8   -1.54   22.97
   4  -1  -8   17.06   14.28
   4  -1  -8    2.92   17.86
  -4   1   8   16.69   12.45
   3  -1  -8    3.03   11.23
   3  -1  -8    2.66   16.96
  -3   1   8   -3.95   18.91
  -3   1   8    7.71   26.95
  -3   1   8    9.20   13.09
   2  -1  -8   14.89   16.34
   2  -1  -8  -17.17    9.08
  -2   1   8   -6.62   15.53
  -2   1   8    3.06   11.53
  -2   1   8    8.22   22.88
   1  -1  -8   15.33   10.00
   1  -1  -8   21.80   15.72
  -1   1   8   40.29   24.97
  -1   1   8    3.37   10.69
   0  -1  -8  160.72   18.02
   0   1   8  163.10   19.58
   0   1   8  146.95   16.30
  -1  -1  -8  141.00   15.93
  -1  -1  -8  145.44   19.99
   1   1   8  150.84   17.50
   1   1   8  154.26   15.93
  -2  -1  -8   36.58   12.41
  -2  -1  -8   29.36   16.15
   2   1   8   43.36   13.09
   2   1   8   33.85   13.75
  -3  -1  -8   -9.43   20.95
   3   1   8   -9.75   10.24
   3   1   8   -2.64   12.22
  -4  -1  -8   21.12   12.50
  -4  -1  -8   13.17   14.82
   4   1   8   10.85   15.86
   4   1   8   28.39   13.92
  -5  -1  -8   23.52   13.68
  -5  -1  -8   10.86   17.65
   5   1   8   18.10   16.47
   5   1   8    5.49   13.34
  -6  -1  -8  -18.33   12.87
  -6  -1  -8  -13.52   17.54
   6   1   8   31.79   16.62
   6   1   8    2.70   14.20
  -7  -1  -8  -10.67   19.24
  -7  -1  -8   24.81   16.49
   7   1   8   62.40   20.93
   7   1   8   17.18   16.24
  -8  -1  -8   60.65   24.00
  -8  -1  -8   47.62   19.53
   8   1   8   16.02   22.34
   8   1   8   39.95   20.06
  -9  -1  -8   -4.07   26.48
   9   1   8   -0.61   24.70
  -7   2   8  -24.67   40.12
   6  -2  -8   33.06   25.83
   6  -2  -8   -2.91   18.17
  -6   2   8   48.89   37.12
  -6   2   8   34.18   29.79
   5  -2  -8   -2.05   17.15
   5  -2  -8    1.53   21.78
  -5   2   8   34.24   34.27
  -5   2   8   -5.28   23.83
  -5   2   8   18.75   12.75
   4  -2  -8   44.89   19.42
   4  -2  -8   35.06   12.54
  -4   2   8   44.45   29.01
  -4   2   8   17.76   20.80
  -4   2   8   16.82   11.29
   3  -2  -8   10.55   16.40
   3  -2  -8   41.84   11.75
  -3   2   8  -14.09   17.46
  -3   2   8   18.94   13.10
  -3   2   8   15.08   24.25
   2  -2  -8  160.69   21.95
   2  -2  -8  172.89   17.87
  -2   2   8  204.71   33.04
  -2   2   8  154.39   21.20
  -2   2   8  164.32   18.55
   1  -2  -8   33.19   11.39
   1  -2  -8   24.78   16.21
  -1   2   8   32.46   13.13
  -1   2   8   54.92   23.92
  -1   2   8   53.31   13.78
   0  -2  -8  296.97   33.22
   0  -2  -8  333.75   20.77
   0   2   8  359.22   23.81
   0   2   8  264.66   32.79
   0   2   8  343.45   22.63
  -1  -2  -8  100.88   18.02
  -1  -2  -8   98.94   13.93
   1   2   8   88.13   17.65
   1   2   8   80.61   13.10
  -2  -2  -8  125.27   15.89
  -2  -2  -8  113.56   17.88
   2   2   8  123.42   19.61
   2   2   8  121.74   15.51
  -3  -2  -8    1.33   14.50
  -3  -2  -8    0.44    9.39
   3   2   8    1.14   10.23
   3   2   8  -16.18   10.20
  -4  -2  -8   35.40   11.96
  -4  -2  -8   16.45   15.75
   4   2   8   15.09   12.81
   4   2   8   12.58   12.03
  -5  -2  -8   -7.59   10.71
  -5  -2  -8    4.41   14.53
   5   2   8    6.60   13.74
   5   2   8    6.68   13.93
  -6  -2  -8   39.47   13.63
  -6  -2  -8    4.12   15.51
   6   2   8   -4.38   12.59
   6   2   8   29.54   17.10
  -7  -2  -8   56.54   17.85
  -7  -2  -8   30.81   20.53
   7   2   8   16.59   14.37
   7   2   8   58.99   21.36
  -8  -2  -8   37.49   21.58
  -8  -2  -8    4.79   16.73
   8   2   8   33.44   21.74
   8   2   8    3.84   16.49
  -9  -2  -8  -23.03   21.20
   9   2   8   34.03   26.25
   9   2   8   16.63   25.31
   6  -3  -8  -14.04   14.80
   6  -3  -8   -3.63   23.08
  -6   3   8   52.82   41.37
  -6   3   8  -36.02   28.61
   5  -3  -8    8.48   13.42
   5  -3  -8   22.80   19.58
  -5   3   8   -5.03   12.89
  -5   3   8  -47.44   21.69
  -5   3   8  112.54   36.60
   4  -3  -8   23.09   17.06
   4  -3  -8    7.71   10.73
  -4   3   8  -35.08   19.87
  -4   3   8   29.85   28.10
  -4   3   8   32.89   12.25
   3  -3  -8   46.68   11.78
   3  -3  -8   20.41   17.16
  -3   3   8   55.88   27.28
  -3   3   8   32.70   12.28
  -3   3   8   20.47   18.25
   2  -3  -8   70.33   17.68
   2  -3  -8   71.30   11.99
  -2   3   8   55.95   16.31
  -2   3   8   65.26   13.23
  -2   3   8   66.92   26.35
   1  -3  -8   42.14   10.52
   1  -3  -8   -0.93   14.17
  -1   3   8   22.23   12.55
  -1   3   8   27.38   10.32
  -1   3   8   13.15   20.62
   0  -3  -8   63.54   16.34
   0  -3  -8  108.60   13.46
   0   3   8  105.35   13.80
   0   3   8   78.41   14.75
  -1  -3  -8   23.93   13.66
  -1  -3  -8    2.33    8.48
   1   3   8    5.72   10.54
  -2  -3  -8   -7.16   12.90
  -2  -3  -8    8.62    8.92
   2   3   8   14.79    9.94
  -3  -3  -8   -5.53    9.97
  -3  -3  -8    1.79   12.65
   3   3   8   -7.94    9.42
   3   3   8   16.63   10.00
  -4  -3  -8    8.59   11.22
  -4  -3  -8  -19.43   12.40
   4   3   8    1.25   10.33
   4   3   8  -11.82   10.96
  -5  -3  -8   -5.69   13.35
   5   3   8   -3.03   11.57
   5   3   8   -8.60   12.97
  -6  -3  -8   22.91   12.90
  -6  -3  -8   10.14   15.37
   6   3   8  -22.09   12.88
   6   3   8   -5.49   12.28
  -7  -3  -8   60.85   17.85
  -7  -3  -8   56.73   18.61
   7   3   8   24.38   15.07
   7   3   8   49.78   17.46
  -8  -3  -8   64.25   19.64
  -8  -3  -8   58.86   19.26
   8   3   8   22.84   17.32
   8   3   8   26.06   21.74
  -9  -3  -8   36.29   22.03
  -9  -3  -8  -31.91   19.54
   9   3   8  -38.49   21.85
   9   3   8   19.39   21.38
   6  -4  -8   14.00   16.72
   6  -4  -8    9.50   21.96
  -6   4   8   19.14   49.26
  -6   4   8  -25.48   28.44
   5  -4  -8   27.37   13.12
   5  -4  -8   46.22   20.03
  -5   4   8   52.80   23.43
  -5   4   8   66.46   33.26
  -5   4   8   34.61   14.72
   4  -4  -8   -8.70    9.87
   4  -4  -8   25.50   17.61
  -4   4   8  -14.61   18.38
  -4   4   8    0.64   12.06
  -4   4   8   51.92   32.58
   3  -4  -8   74.88   18.61
   3  -4  -8   63.14   10.38
  -3   4   8   73.07   18.53
  -3   4   8   74.25   13.77
  -3   4   8   53.49   32.32
   2  -4  -8   12.65    8.21
   2  -4  -8   35.16   15.18
  -2   4   8   11.28   25.01
  -2   4   8   22.81   10.67
   1  -4  -8   22.19    8.22
  -1   4   8   50.42   11.44
  -1   4   8   29.41   22.33
  -1   4   8   57.68   13.67
   0  -4  -8   85.45   15.89
   0  -4  -8   71.60   11.53
   0   4   8   87.46   13.58
   0   4   8   86.22   13.48
   0   4   8   73.67   38.18
  -1  -4  -8   28.97    8.75
  -1  -4  -8   17.08   12.60
   1   4   8   28.60   19.97
   1   4   8   -0.21   10.05
  -2  -4  -8   23.53   11.81
  -2  -4  -8   -7.41    8.42
   2   4   8   -8.55    9.92
  -3  -4  -8    0.33    8.45
  -3  -4  -8   -4.71   13.24
   3   4   8  -10.97    9.23
   3   4   8    8.45   10.56
  -4  -4  -8    7.72   12.23
  -4  -4  -8    6.98    9.54
   4   4   8   -4.26   10.82
   4   4   8    9.90    9.80
  -5  -4  -8    9.26   13.66
  -5  -4  -8   20.26   10.73
   5   4   8   18.77   12.83
   5   4   8   -0.94   10.50
  -6  -4  -8   40.60   14.03
  -6  -4  -8    1.16   16.50
   6   4   8   20.72   13.72
   6   4   8   36.51   14.75
  -7  -4  -8   -7.45   15.70
  -7  -4  -8   -2.17   13.20
   7   4   8   13.95   14.62
   7   4   8  -22.28   14.87
  -8  -4  -8    0.95   18.83
  -8  -4  -8    4.66   15.69
   8   4   8   18.95   15.66
   8   4   8   17.72   19.96
  -9  -4  -8  -50.29   20.18
  -9  -4  -8   22.46   20.52
   9   4   8    8.75   24.79
   9   4   8   -0.70   20.19
   6  -5  -8   49.91   21.37
   5  -5  -8   11.84   11.45
   5  -5  -8   16.96   19.43
  -5   5   8  -26.40   14.01
  -5   5   8   31.42   22.07
  -5   5   8   33.45   34.82
   4  -5  -8    4.61   16.20
   4  -5  -8   -5.02    8.49
  -4   5   8   50.96   30.08
  -4   5   8   11.94   11.61
  -4   5   8   12.82   17.85
   3  -5  -8   32.06   16.36
   3  -5  -8   41.62    8.80
  -3   5   8   52.50   16.16
  -3   5   8   47.29   11.91
  -3   5   8   79.28   31.45
   2  -5  -8   -9.20    6.79
   2  -5  -8   -7.15   13.53
  -2   5   8   14.48    9.53
  -2   5   8    0.76   26.10
   1  -5  -8   19.61    7.48
   1  -5  -8   18.39   15.35
  -1   5   8   37.54   23.22
  -1   5   8   -0.38    9.88
  -1   5   8   33.63   10.19
   0  -5  -8   -9.48   12.02
   0  -5  -8    8.98    7.39
   0   5   8  -12.52   19.97
   0   5   8   -1.41    9.22
   0   5   8   16.02   12.01
  -1  -5  -8   15.87    7.63
  -1  -5  -8   14.43   11.31
   1   5   8   39.20   21.39
   1   5   8    5.55    9.60
  -2  -5  -8   -3.90   10.71
  -2  -5  -8    3.68    8.51
   2   5   8   17.90   18.25
   2   5   8   -1.06    8.90
  -3  -5  -8   55.57    9.93
  -3  -5  -8   58.20   15.57
   3   5   8   67.75   13.05
   3   5   8   66.48   24.32
   3   5   8   71.45   11.66
  -4  -5  -8   31.39   10.67
  -4  -5  -8   17.81   13.53
   4   5   8    7.13    9.87
   4   5   8   32.88   13.76
  -5  -5  -8   30.10   14.50
  -5  -5  -8   34.69   10.09
   5   5   8   25.56   14.18
   5   5   8   17.48   11.14
  -6  -5  -8   22.10   16.33
   6   5   8   18.55   15.39
   6   5   8   -2.03   12.75
  -7  -5  -8   18.32   14.32
  -7  -5  -8  -10.90   15.18
   7   5   8  -17.27   16.10
   7   5   8    6.44   15.05
  -8  -5  -8  -43.32   15.06
  -8  -5  -8    7.29   16.16
   8   5   8   27.78   16.96
   8   5   8   26.99   16.07
  -9  -5  -8    5.08   22.71
   9   5   8    4.17   22.07
   9   5   8  -24.22   17.08
   6  -6  -8   43.10   23.79
   5  -6  -8  -13.99   10.30
   5  -6  -8   -5.38   19.60
  -5   6   8  -17.42   22.06
  -5   6   8   -2.06   37.68
  -5   6   8   20.34   15.11
   4  -6  -8   45.24    8.77
   4  -6  -8  -15.48   40.42
   4  -6  -8   18.85   17.13
  -4   6   8   27.93   17.74
  -4   6   8  108.77   35.02
  -4   6   8   20.00   12.93
   3  -6  -8   -7.93   14.35
   3  -6  -8   -8.68    6.80
  -3   6   8   -2.59   28.52
  -3   6   8   18.41   10.89
   2  -6  -8   18.29   13.69
   2  -6  -8    7.01    6.28
  -2   6   8   -3.81   11.33
  -2   6   8   15.19    9.42
  -2   6   8  -15.62   27.08
   1  -6  -8  -12.33   11.12
   1  -6  -8   -4.97    6.05
  -1   6   8    8.61   24.31
  -1   6   8    6.12    8.58
  -1   6   8   -8.04   10.03
   0  -6  -8   20.40    7.37
   0  -6  -8   10.53   11.25
   0   6   8   10.76    9.63
   0   6   8   27.01   23.88
  -1  -6  -8  113.71   12.27
  -1  -6  -8  122.57   14.79
   1   6   8  122.10   26.00
   1   6   8  117.85   14.22
  -2  -6  -8  151.43   16.74
  -2  -6  -8  150.96   14.10
   2   6   8  184.72   28.07
   2   6   8  131.80   14.50
   2   6   8  174.12   19.86
  -3  -6  -8   37.00    9.55
   3   6   8   46.76   12.40
   3   6   8   44.15   21.65
   3   6   8   18.68   10.42
  -4  -6  -8    4.07    8.99
  -4  -6  -8   13.12   12.76
   4   6   8   29.92   20.89
   4   6   8    0.90   11.09
   4   6   8    8.35    9.52
  -5  -6  -8   15.22   10.31
  -5  -6  -8   -9.31   11.57
   5   6   8    3.10   10.94
   5   6   8   22.05   12.48
  -6  -6  -8    1.13   14.63
  -6  -6  -8   -3.86   11.46
   6   6   8  -19.09   12.44
   6   6   8    1.96   13.33
  -7  -6  -8   24.13   15.42
  -7  -6  -8  -12.21   13.94
   7   6   8  -10.08   14.56
   7   6   8    5.81   13.89
  -8  -6  -8  -11.59   17.54
  -8  -6  -8    6.01   15.96
   8   6   8    8.30   15.96
   8   6   8   16.60   18.42
  -9  -6  -8  -36.19   19.15
  -9  -6  -8  -19.33   21.00
   9   6   8  -20.23   19.94
   6  -7  -8  -25.60   23.53
   5  -7  -8    3.28   19.65
  -5   7   8   32.64   15.35
   4  -7  -8   -5.46   16.05
  -4   7   8   15.05   12.76
  -4   7   8   71.29   37.97
   3  -7  -8   32.25   13.89
   3  -7  -8  -32.99   40.00
  -3   7   8   54.40   33.28
  -3   7   8   20.01   14.03
  -3   7   8   39.58   11.07
   2  -7  -8  -23.82   33.92
   2  -7  -8   17.11   11.12
  -2   7   8    1.69   12.89
  -2   7   8   35.06   30.26
  -2   7   8    7.58    9.24
   1  -7  -8    0.40    9.35
   1  -7  -8   -3.43    7.13
  -1   7   8    2.88    7.95
  -1   7   8    5.99   28.99
  -1   7   8    3.93   11.07
   0  -7  -8    9.59    6.41
   0  -7  -8    7.86    9.32
   0   7   8    2.29    9.03
   0   7   8  -16.27   25.65
  -1  -7  -8   68.58   11.29
  -1  -7  -8   68.31    9.25
   1   7   8   55.38   10.63
  -2  -7  -8   58.58   12.01
  -2  -7  -8   44.09    8.56
   2   7   8   41.03   11.88
   2   7   8   58.50   10.05
   2   7   8   59.81   24.96
  -3  -7  -8   14.36    7.45
   3   7   8    0.89    8.80
   3   7   8    7.76   11.47
   3   7   8   27.35   20.68
  -4  -7  -8   -7.03   11.52
  -4  -7  -8    4.69    8.22
   4   7   8    0.87   12.83
   4   7   8   20.02   10.14
   4   7   8   13.63   20.54
  -5  -7  -8   -1.50   12.90
  -5  -7  -8  -11.60   10.11
   5   7   8   11.48   10.97
   5   7   8    3.11   19.73
   5   7   8    9.11   13.86
  -6  -7  -8   36.20   12.71
  -6  -7  -8   25.89   14.44
   6   7   8   34.39   13.20
   6   7   8    6.15   21.93
   6   7   8   14.51   13.80
  -7  -7  -8  -17.82   12.51
  -7  -7  -8   16.81   14.49
   7   7   8   -3.19   14.31
   7   7   8   -0.25   13.98
  -8  -7  -8   31.76   16.59
  -8  -7  -8   15.90   15.77
   8   7   8   40.07   20.16
   8   7   8   -3.46   18.64
  -9  -7  -8  -16.18   23.31
   9   7   8  -22.30   18.95
 -10  -7  -8   83.78   28.83
  10   7   8   18.11   29.66
   5  -8  -8   44.45   15.25
  -5   8   8   60.85   15.88
   4  -8  -8    0.55   12.13
   4  -8  -8   20.33   10.08
  -4   8   8   25.99   12.71
   3  -8  -8   17.52    7.54
   3  -8  -8   22.04    8.45
   3  -8  -8  -14.94   40.34
  -3   8   8   35.74   10.85
  -3   8   8   24.13    9.33
   2  -8  -8  -46.54   34.74
   2  -8  -8    4.76    6.50
   2  -8  -8   -6.40    5.78
  -2   8   8   -1.60    7.69
  -2   8   8   28.35   33.81
  -2   8   8   -2.66    7.70
   1  -8  -8    7.92    5.76
   1  -8  -8   -1.73   34.36
   1  -8  -8    9.46    6.87
  -1   8   8   49.88   30.77
  -1   8   8   18.38    7.27
   0  -8  -8   21.67    6.65
   0  -8  -8   33.23    8.12
   0   8   8   61.00   31.41
   0   8   8   26.01    8.47
  -1  -8  -8    6.32    8.32
   1   8   8   14.04   26.68
   1   8   8    5.10    9.52
   1   8   8    7.36   17.03
  -2  -8  -8    9.38    9.19
  -2  -8  -8   17.79    7.16
   2   8   8   12.65    8.35
   2   8   8   -3.82   24.92
   2   8   8   -8.54    9.54
  -3  -8  -8   14.03    7.46
  -3  -8  -8   30.92   11.71
   3   8   8   17.14    9.28
   3   8   8   31.73   24.17
   3   8   8   36.21   12.97
  -4  -8  -8   19.20    8.18
  -4  -8  -8   39.55   12.08
   4   8   8   17.97   23.39
   4   8   8   19.55   10.67
   4   8   8   27.08   13.29
  -5  -8  -8   15.75   12.76
  -5  -8  -8   17.23    8.88
   5   8   8    5.55   11.87
   5   8   8   55.86   24.75
   5   8   8   14.26   14.58
  -6  -8  -8  -12.17   11.03
  -6  -8  -8   10.06   13.18
   6   8   8  -22.66   14.69
   6   8   8    6.71   21.52
   6   8   8   13.96   13.88
  -7  -8  -8   11.90   15.69
   7   8   8  -23.19   22.42
   7   8   8   -1.15   16.51
  -8  -8  -8   13.75   17.81
  -8  -8  -8  -11.89   19.08
   8   8   8    0.91   18.87
   8   8   8    0.12   22.68
   8   8   8  -18.32   19.51
  -9  -8  -8   38.98   24.83
   9   8   8    0.61   21.96
 -10  -8  -8   80.62   28.88
  10   8   8  -18.29   25.09
  -4   9   8    8.93   11.26
  -3   9   8    1.57    8.33
  -3   9   8   -3.70    7.27
   2  -9  -8  -12.82   39.85
  -2   9   8    3.43    6.55
  -2   9   8   12.40    5.71
  -1   9   8    8.48    5.16
  -1   9   8   24.97   33.06
  -1   9   8   19.91    6.33
   0   9   8   44.73   30.91
   0   9   8   29.50    5.61
   0   9   8   22.40    7.20
  -1  -9  -8    0.24    5.67
  -1  -9  -8   -0.55    5.82
   1   9   8    9.19    9.54
   1   9   8   16.68   26.93
   1   9   8    0.81    5.73
  -2  -9  -8   17.00   12.73
  -2  -9  -8   11.35    8.42
   2   9   8    9.31   10.30
   2   9   8   33.21   56.58
   2   9   8    8.04   10.89
  -3  -9  -8   21.18    7.42
  -3  -9  -8   34.66   10.79
   3   9   8   32.79   28.21
   3   9   8   38.03    9.69
   3   9   8   40.55   13.46
  -4  -9  -8    5.72    7.70
  -4  -9  -8   18.23   11.49
   4   9   8   27.91   25.17
   4   9   8   -1.27    9.84
   4   9   8    6.50   13.67
  -5  -9  -8   25.88   12.50
  -5  -9  -8   29.49    9.72
   5   9   8   33.23   24.57
   5   9   8    7.63   12.03
   5   9   8   28.34   15.74
  -6  -9  -8   -5.87   11.44
  -6  -9  -8    7.81   14.29
   6   9   8  -19.31   21.04
   6   9   8   21.76   17.56
   6   9   8   13.60   14.52
  -7  -9  -8  -10.27   14.88
  -7  -9  -8  -14.07   15.15
   7   9   8   22.24   16.70
   7   9   8   17.20   17.68
   7   9   8   -0.51   17.91
  -8  -9  -8   34.46   20.99
  -8  -9  -8  -35.14   20.75
   8   9   8  -19.75   17.81
  -9  -9  -8   33.54   23.87
   9   9   8   31.34   24.34
 -10  -9  -8  -17.96   39.72
  10   9   8    2.37   29.67
   2 -10  -8  -38.22   44.99
   1 -10  -8  -13.44   37.26
   0 -10  -8  -18.35   36.90
   1  10   8   22.24    5.26
   1  10   8   53.18   33.27
   1  10   8    4.97    6.70
  -2 -10  -8   13.81    6.83
  -2 -10  -8    2.56    6.15
   2  10   8   29.29   30.98
   2  10   8    2.29    6.46
   2  10   8   31.21   11.40
  -3 -10  -8   22.76   10.64
   3  10   8   13.01   13.79
   3  10   8   22.59   10.56
   3  10   8   54.79   31.62
  -4 -10  -8   -2.48   11.83
  -4 -10  -8   -8.83    7.83
   4  10   8   27.81   25.88
   4  10   8  -13.52   13.94
   4  10   8   20.18   10.23
  -5 -10  -8   -5.08    9.49
  -5 -10  -8   -5.70   12.94
   5  10   8   20.23   12.60
   5  10   8   31.10   23.99
   5  10   8   18.50   16.19
  -6 -10  -8   25.64   14.91
  -6 -10  -8   29.78   12.89
   6  10   8   47.56   19.20
   6  10   8   10.74   15.02
  -7 -10  -8   -4.90   15.22
  -7 -10  -8  -31.43   15.57
   7  10   8   -9.73   20.77
   7  10   8    6.04   16.95
  -8 -10  -8   -0.39   21.17
   8  10   8   -3.59   19.62
   9  10   8   -6.22   35.60
   1 -11  -8  -83.15   45.53
   0 -11  -8  -81.35   38.88
   2  11   8   74.03    8.76
   2  11   8   74.83   12.49
  -3 -11  -8   24.17    9.90
   3  11   8   -4.85   15.25
  -4 -11  -8   -9.75    9.23
  -4 -11  -8    1.61   12.49
   4  11   8    8.28   11.70
   4  11   8   31.30   16.67
  -5 -11  -8  -20.98   13.60
  -5 -11  -8   -7.82    9.68
   5  11   8    3.33   14.25
   5  11   8  -11.78   18.06
  -6 -11  -8    7.30   12.87
  -6 -11  -8   -2.78   16.20
   6  11   8   33.19   20.22
   6  11   8    8.69   17.77
  -7 -11  -8  -45.63   18.26
   3  12   8   -1.85    9.17
   3  12   8   17.99   17.32
  -4 -12  -8    1.90   12.05
  -4 -12  -8   11.21   15.70
   4  12   8   28.70   18.81
  -5 -12  -8    5.22   15.70
   5  12   8   31.75   20.95
  -6 -12  -8   -1.43   17.40
   6  12   8  -36.83   44.39
   4  13   8   14.33   21.29
  -5 -13  -8   -2.10   16.76
   5  13   8   51.97   23.52
  -6 -13  -8   33.13   21.76
   1   7  -9    7.80   81.30
   2   6  -9  -57.40   70.79
  -2  -6   9    1.27   29.56
   1   6  -9   -1.72   39.91
  -1  -6   9   -5.82   22.90
   0   6  -9 -109.01   39.34
   0  -6   9  -18.68   23.58
  -1   6  -9    0.50   37.67
   1  -6   9    0.01   25.14
  -2   6  -9  -32.51   35.20
   2  -6   9   26.74   29.45
  -3   6  -9   92.45   39.97
   2   5  -9   24.80   34.43
  -2  -5   9   -2.68   22.75
   1   5  -9   27.42   32.86
  -1  -5   9  -35.82   20.26
   0   5  -9  -19.03   32.11
   0  -5   9    0.99   21.16
  -1   5  -9   23.96   30.50
   1  -5   9    8.70   24.52
  -2   5  -9  -35.14   29.27
   2  -5   9    3.51   24.05
  -3   5  -9  -15.38   32.41
   3  -5   9   30.34   23.55
  -4   5  -9   45.21   33.16
   4  -5   9    2.36   27.09
  -5   5  -9   37.11   52.85
  -5  -4   9 -132.32   60.62
  -4  -4   9   37.54   52.06
   3   4  -9   61.49   34.52
  -3  -4   9   16.00   21.20
   2   4  -9   29.98   31.08
   2   4  -9   11.92   37.60
  -2  -4   9   86.79   23.82
  -2  -4   9   14.17   26.02
   1   4  -9   -8.62   20.98
   1   4  -9   13.03   29.77
  -1  -4   9    7.57   20.82
  -1  -4   9   24.23   21.20
   0   4  -9    7.33   20.78
   0   4  -9   40.33   30.87
   0  -4   9   36.73   18.58
   0  -4   9    8.34   18.78
  -1   4  -9  -19.03   28.24
  -1   4  -9   48.25   20.16
   1  -4   9   28.15   18.33
   1  -4   9  -12.95   19.06
  -2   4  -9   32.83   27.44
  -2   4  -9   -9.14   18.51
   2  -4   9   29.08   18.69
   2  -4   9    1.26   17.25
  -3   4  -9  -25.25   29.46
   3  -4   9  -12.85   16.93
   3  -4   9   -0.62   22.00
  -4   4  -9    4.56   30.40
   4  -4   9    8.76   25.30
  -5   4  -9   44.00   33.37
   5  -4   9  -12.67   28.38
  -6   4  -9   17.55   34.62
   6  -4   9  -18.10   31.78
  -5  -3   9    2.99   49.92
   4   3  -9  -20.00   39.49
  -4  -3   9  -39.44   40.41
  -4  -3   9   -8.34   29.57
   3   3  -9   26.72   22.28
   3   3  -9   86.06   30.47
  -3  -3   9  -22.76   38.03
  -3  -3   9   62.52   20.63
  -3  -3   9   68.48   28.63
   2   3  -9  -10.17   27.46
   2   3  -9  -23.59   17.53
  -2  -3   9  -34.46   17.95
  -2  -3   9  -10.40   19.88
   1   3  -9   18.22   18.06
   1   3  -9   26.16   24.48
  -1  -3   9   -1.55   18.07
  -1  -3   9    8.81   17.86
   0   3  -9   28.79   17.31
   0   3  -9   35.10   24.25
   0  -3   9   14.07   18.79
   0  -3   9    3.08   16.50
  -1   3  -9   -2.57   22.10
  -1   3  -9   12.66   17.58
   1  -3   9   15.17   16.29
   1  -3   9   11.56   16.46
  -2   3  -9    2.28   23.85
  -2   3  -9   -2.68   16.46
   2  -3   9   23.57   19.14
   2  -3   9   17.08   17.66
  -3   3  -9  -28.57   23.74
  -3   3  -9  -19.79   18.44
   3  -3   9   15.25   15.53
   3  -3   9   -4.92   18.05
  -4   3  -9   30.75   23.08
  -4   3  -9    4.58   25.48
   4  -3   9   15.23   22.66
   4  -3   9  -20.12   16.59
  -5   3  -9  -39.04   26.40
   5  -3   9   36.16   25.53
   5  -3   9  -11.32   21.06
  -6   3  -9   38.87   30.25
   6  -3   9   35.37   30.31
  -7   3  -9   26.86   35.64
   7  -3   9   -5.73   30.27
  -6  -2   9  191.63   67.09
   5   2  -9   10.63   23.40
  -5  -2   9   41.75   43.19
  -5  -2   9   13.50   36.94
   4   2  -9   31.70   29.28
   4   2  -9   70.07   24.04
  -4  -2   9   -0.01   39.08
  -4  -2   9  -34.54   19.07
  -4  -2   9  -13.40   29.63
   3   2  -9    4.23   16.95
   3   2  -9  -19.77   26.77
  -3  -2   9    9.36   18.09
  -3  -2   9   21.46   37.69
  -3  -2   9   27.89   24.83
   2   2  -9   36.21   24.73
   2   2  -9  -17.11   16.93
  -2  -2   9   12.64   14.59
  -2  -2   9  -29.78   35.36
   1   2  -9    9.09   15.82
   1   2  -9  -12.70   23.36
  -1  -2   9   12.64   19.44
  -1  -2   9   16.15   17.47
   0   2  -9   48.02   22.25
   0   2  -9   -6.81   17.14
   0  -2   9   37.47   18.64
   0  -2   9   20.83   15.19
  -1   2  -9   45.94   23.79
  -1   2  -9   37.56   18.35
   1  -2   9    9.56   15.15
   1  -2   9    3.84   15.80
  -2   2  -9  -22.59   20.01
  -2   2  -9    8.07   16.33
   2  -2   9  -22.37   13.61
   2  -2   9   -2.29   14.79
  -3   2  -9   34.13   17.07
  -3   2  -9   28.43   21.17
   3  -2   9  -18.66   14.82
   3  -2   9   12.37   17.87
  -4   2  -9   29.59   22.47
  -4   2  -9    1.49   18.17
   4  -2   9    2.46   20.23
   4  -2   9   45.06   17.05
  -5   2  -9   -4.66   20.01
  -5   2  -9   16.85   25.69
   5  -2   9  -11.40   20.21
   5  -2   9    6.24   16.42
  -6   2  -9   24.65   26.93
   6  -2   9   31.89   27.20
   6  -2   9  -16.48   20.54
  -7   2  -9   49.27   29.13
   7  -2   9   22.99   30.37
  -8   2  -9  -57.01   31.41
   8  -2   9  -16.01   35.36
   6   1  -9  131.34   30.06
  -6  -1   9   -7.25   36.71
  -6  -1   9  127.16   56.34
   5   1  -9    6.08   22.27
  -5  -1   9   51.36   34.03
  -5  -1   9   39.15   42.13
   4   1  -9  -12.88   20.57
   4   1  -9    0.23   27.92
  -4  -1   9   27.23   18.67
  -4  -1   9  -32.75   27.75
  -4  -1   9   16.77   36.98
   3   1  -9   18.43   17.50
   3   1  -9   22.24   23.15
  -3  -1   9   -1.29   36.43
  -3  -1   9   -8.80   22.78
  -3  -1   9   10.85   14.76
   2   1  -9  -17.49   16.35
   2   1  -9   20.10   21.20
  -2  -1   9   -1.49   13.84
  -2  -1   9  -37.47   28.80
   1   1  -9    9.20   20.64
   1   1  -9    3.56   14.71
  -1  -1   9   15.23   19.64
  -1  -1   9    6.54   13.61
   0   1  -9   -3.22   13.65
   0   1  -9    7.52   19.17
   0  -1   9    0.24   14.70
   0  -1   9   32.66   14.88
  -1   1  -9   32.15   16.91
  -1   1  -9   33.99   21.07
   1  -1   9   19.96   16.51
   1  -1   9   35.94   14.72
  -2   1  -9   16.57   15.25
  -2   1  -9   10.70   20.29
   2  -1   9   19.89   14.34
   2  -1   9   15.41   15.74
  -3   1  -9  -29.71   19.87
  -3   1  -9   -0.41   16.63
   3  -1   9   -8.05   14.86
   3  -1   9   -6.64   13.71
  -4   1  -9   25.78   16.56
  -4   1  -9   35.42   23.23
   4  -1   9   44.83   16.80
   4  -1   9   56.07   18.65
  -5   1  -9   12.33   20.70
   5  -1   9   -1.53   15.59
   5  -1   9   29.17   19.76
  -6   1  -9   12.44   25.88
  -6   1  -9  -19.40   20.66
   6  -1   9   15.29   24.56
   6  -1   9   55.82   19.70
  -7   1  -9   16.77   28.76
   7  -1   9   69.73   29.24
  -8   1  -9   -4.27   32.35
   8  -1   9   83.22   30.56
  -7   0   9  169.57   79.20
   6   0  -9  -18.48   25.33
  -6   0   9    4.81   37.46
  -6   0   9   85.17   55.83
   5   0  -9  -27.37   21.62
  -5   0   9   71.06   39.60
  -5   0   9   10.25   32.87
   4   0  -9   53.85   19.69
   4   0  -9   -6.83   25.06
  -4   0   9   34.73   16.78
  -4   0   9    2.49   29.41
  -4   0   9   10.30   32.07
   3   0  -9   22.35   20.61
   3   0  -9    2.24   15.64
  -3   0   9   45.14   16.06
  -3   0   9   -9.00   32.59
  -3   0   9   11.31   22.74
   2   0  -9  -36.31   14.62
   2   0  -9   21.59   19.79
  -2   0   9   -3.33   13.93
  -2   0   9  -22.26   29.65
   1   0  -9   -8.73   14.05
   1   0  -9    2.69   20.66
  -1   0   9   15.45   16.50
  -1   0   9  -24.88   30.94
  -1   0   9   -6.80   14.60
   0   0  -9   26.26   20.15
   0   0  -9   19.18   15.90
   0   0   9   30.94   16.60
   0   0   9   30.30   12.95
  -1   0  -9    1.23   12.59
  -1   0  -9   18.86   17.07
   1   0   9   22.95   15.47
   1   0   9  -28.31   12.36
  -2   0  -9   11.50   16.83
  -2   0  -9  -11.59   15.19
   2   0   9    3.03   13.97
   2   0   9   11.24   13.79
  -3   0  -9  -15.43   18.78
  -3   0  -9   -6.43   14.14
   3   0   9  -10.55   13.75
   3   0   9   -9.59   15.24
  -4   0  -9  -10.63   18.68
   4   0   9   13.15   15.37
   4   0   9   19.25   14.52
  -5   0  -9  -13.31   16.56
  -5   0  -9    8.11   18.60
   5   0   9   23.46   16.00
   5   0   9   25.75   20.22
  -6   0  -9  -14.84   19.99
  -6   0  -9   43.37   22.51
   6   0   9   27.10   19.73
   6   0   9  -40.58   20.72
  -7   0  -9   67.50   26.57
  -7   0  -9   42.66   26.28
   7   0   9   20.11   21.07
   7   0   9   53.27   25.87
  -8   0  -9  -15.71   29.35
   8   0   9    2.76   25.67
   9   0   9  -11.82   54.28
   6  -1  -9   44.60   24.69
  -6   1   9   19.94   30.27
   5  -1  -9   11.82   32.93
   5  -1  -9   28.25   21.16
  -5   1   9   27.29   29.82
  -5   1   9   20.04   34.71
   4  -1  -9   13.14   17.50
   4  -1  -9   36.20   23.21
  -4   1   9  -10.07   25.29
  -4   1   9   34.22   15.24
  -4   1   9   60.41   34.84
   3  -1  -9  -15.98   17.79
   3  -1  -9   12.46   15.18
  -3   1   9   22.34   15.10
  -3   1   9  -14.84   30.05
  -3   1   9   51.54   23.43
   2  -1  -9    5.72   19.37
   2  -1  -9  -22.88   13.43
  -2   1   9  -11.96   13.75
   1  -1  -9   36.56   18.62
  -1   1   9    4.30   16.48
  -1   1   9   22.26   28.37
  -1   1   9   -1.14   13.90
   0  -1  -9   -3.50   18.74
   0   1   9   12.50   13.09
   0   1   9   -5.39   11.91
  -1  -1  -9    4.53   13.72
  -1  -1  -9    8.61   17.03
   1   1   9    0.31   12.67
   1   1   9   32.99   13.82
  -2  -1  -9   23.80   14.61
  -2  -1  -9   19.35   19.00
   2   1   9   23.27   15.02
  -3  -1  -9  -11.45   13.50
  -3  -1  -9    4.93   16.69
   3   1   9   17.50   13.71
   3   1   9    9.27   14.20
  -4  -1  -9   17.66   17.51
  -4  -1  -9   -6.83   13.66
   4   1   9    7.62   14.62
   4   1   9    8.76   14.34
  -5  -1  -9   20.76   19.53
  -5  -1  -9   20.18   17.04
   5   1   9    1.66   14.88
   5   1   9    8.48   16.68
  -6  -1  -9    9.52   19.44
  -6  -1  -9   -7.62   18.09
   6   1   9  -12.11   17.97
   6   1   9  -26.96   17.49
  -7  -1  -9   30.85   21.04
  -7  -1  -9  -28.24   17.79
   7   1   9   -1.15   18.57
   7   1   9   14.15   20.07
  -8  -1  -9  -24.61   22.38
   8   1   9  -12.69   22.93
   8   1   9   -3.22   25.84
  -9  -1  -9   43.11   37.47
   9   1   9   27.61   34.06
   6  -2  -9   30.26   21.41
  -6   2   9   30.39   36.01
   5  -2  -9   10.94   18.06
   5  -2  -9   49.29   25.61
  -5   2   9   33.49   35.77
  -5   2   9   26.50   26.64
   4  -2  -9    3.60   15.78
   4  -2  -9  -60.07   20.07
  -4   2   9    9.20   12.32
  -4   2   9  -28.55   24.18
  -4   2   9   48.94   29.78
   3  -2  -9  -33.81   16.52
   3  -2  -9  -24.07   11.87
  -3   2   9   34.68   21.21
  -3   2   9    2.76   12.96
  -3   2   9   17.23   30.13
   2  -2  -9   19.56   12.91
   2  -2  -9    2.49   16.91
  -2   2   9   18.91   30.34
  -2   2   9   31.08   13.18
   1  -2  -9    5.53   17.94
   1  -2  -9  -22.72   11.30
  -1   2   9   -6.87   15.36
  -1   2   9  -13.92   26.35
  -1   2   9   -0.64   11.75
   0  -2  -9  160.45   22.64
   0  -2  -9  175.84   19.32
   0   2   9  197.31   21.66
   0   2   9  264.10   41.99
   0   2   9  153.75   18.93
  -1  -2  -9   -1.87   11.33
  -1  -2  -9   -0.14   16.15
   1   2   9    6.03   13.07
   1   2   9   12.16   12.66
  -2  -2  -9   32.05   18.65
  -2  -2  -9   33.20   12.61
   2   2   9    6.83   12.03
   2   2   9    9.95   12.50
  -3  -2  -9   27.26   16.72
   3   2   9  -15.08   12.55
   3   2   9   20.42   12.43
  -4  -2  -9   14.26   18.00
  -4  -2  -9   -1.64   14.94
   4   2   9   14.57   14.59
   4   2   9   21.18   14.22
  -5  -2  -9    8.26   17.82
  -5  -2  -9    3.32   14.43
   5   2   9   16.03   13.89
   5   2   9   17.24   18.64
  -6  -2  -9   -4.82   18.70
  -6  -2  -9   13.37   18.15
   6   2   9   14.11   16.24
   6   2   9    8.28   18.50
  -7  -2  -9    7.39   15.76
  -7  -2  -9   17.43   20.95
   7   2   9   13.10   16.03
  -8  -2  -9   27.95   24.04
  -8  -2  -9    5.96   18.91
   8   2   9  -11.12   22.40
   8   2   9   -6.22   17.64
  -9  -2  -9   -6.77   26.92
   9   2   9    8.53   45.58
   5  -3  -9  -36.33   23.23
   5  -3  -9   34.03   16.79
  -5   3   9  105.37   40.27
   4  -3  -9   -5.95   12.94
   4  -3  -9   -9.31   19.00
  -4   3   9    7.75   25.23
  -4   3   9  -11.78   31.34
  -4   3   9   23.49   13.68
   3  -3  -9   32.27   18.75
   3  -3  -9  -16.66   11.08
  -3   3   9   10.16   21.55
  -3   3   9   12.76   28.00
  -3   3   9   -1.33   13.38
   2  -3  -9    6.69   17.69
   2  -3  -9   -1.33   10.95
  -2   3   9   -9.17   12.65
  -2   3   9    3.72   25.31
   1  -3  -9   -5.01   16.81
   1  -3  -9   17.62   11.06
  -1   3   9   26.90   14.26
  -1   3   9   11.79   11.61
  -1   3   9  -26.45   24.32
   0  -3  -9  -26.05   10.07
   0  -3  -9   36.75   16.84
   0   3   9   -6.98   11.67
   0   3   9   -0.95   24.24
   0   3   9   26.40   13.36
  -1  -3  -9   46.45   16.00
  -1  -3  -9   55.00   12.05
   1   3   9   30.24   12.68
   1   3   9   51.16   28.95
   1   3   9   37.18   13.41
  -2  -3  -9   14.00   16.61
  -2  -3  -9    4.77   11.92
   2   3   9   40.69   12.99
   2   3   9   14.26   12.28
  -3  -3  -9   63.90   17.65
   3   3   9   57.77   16.12
   3   3   9   60.24   14.57
  -4  -3  -9   41.42   18.26
   4   3   9   48.70   13.99
   4   3   9   31.84   15.29
  -5  -3  -9  -16.24   15.29
  -5  -3  -9  -14.71   13.15
   5   3   9    4.47   13.83
   5   3   9   -5.00   16.38
  -6  -3  -9   16.64   16.89
  -6  -3  -9  -14.09   13.98
   6   3   9    6.06   14.48
   6   3   9   40.47   16.64
  -7  -3  -9   34.67   18.50
  -7  -3  -9  -13.09   16.35
   7   3   9   -4.00   17.75
   7   3   9   -9.41   17.27
  -8  -3  -9   28.08   19.78
  -8  -3  -9   24.25   18.20
   8   3   9   17.25   19.73
   8   3   9   28.13   21.12
  -9  -3  -9    9.78   28.26
   5  -4  -9  -31.25   14.06
   5  -4  -9   13.01   22.47
  -5   4   9  -17.27   23.09
  -5   4   9  -38.67   26.71
  -5   4   9   54.33   40.70
   4  -4  -9  -19.63   11.58
   4  -4  -9    5.93   19.46
  -4   4   9   16.75   13.57
  -4   4   9    4.21   31.12
  -4   4   9   20.24   22.25
   3  -4  -9   41.58   18.53
   3  -4  -9   57.80   12.47
  -3   4   9   69.29   14.70
  -3   4   9   89.67   30.93
  -3   4   9   48.98   20.92
   2  -4  -9  -15.77   16.63
   2  -4  -9    8.63    9.72
  -2   4   9   22.65   12.19
  -2   4   9   33.06   28.16
   1  -4  -9   -3.85   14.75
   1  -4  -9   16.39    9.40
  -1   4   9    0.61   12.37
  -1   4   9   18.20   25.63
  -1   4   9    3.58   12.21
   0  -4  -9  115.24   14.48
   0  -4  -9   75.04   16.68
   0   4   9   90.83   15.33
   0   4   9   78.11   15.46
   0   4   9   79.04   28.23
  -1  -4  -9  207.00   22.50
  -1  -4  -9  174.26   17.54
   1   4   9  171.67   18.18
   1   4   9  181.67   19.87
   1   4   9  186.37   28.61
  -2  -4  -9  355.26   27.79
  -2  -4  -9  387.26   24.47
   2   4   9  377.14   26.09
   2   4   9  379.51   23.84
  -3  -4  -9  151.57   20.69
   3   4   9  110.26   17.53
   3   4   9  156.99   17.59
  -4  -4  -9   79.00   17.47
  -4  -4  -9  105.16   16.42
   4   4   9  127.05   17.96
   4   4   9  100.82   18.85
  -5  -4  -9  -18.48   12.78
  -5  -4  -9   17.83   16.97
   5   4   9  -12.44   14.76
   5   4   9  -13.97   13.79
  -6  -4  -9    3.56   16.10
  -6  -4  -9   21.11   13.79
   6   4   9   15.32   15.62
   6   4   9    4.26   16.44
  -7  -4  -9   28.26   16.90
  -7  -4  -9   36.32   17.58
   7   4   9   22.18   17.93
   7   4   9   -2.12   14.72
  -8  -4  -9    3.23   18.92
  -8  -4  -9   -4.00   17.50
   8   4   9    8.69   18.87
   8   4   9  -16.99   18.72
  -9  -4  -9  -29.38   22.68
   9   4   9   32.70   21.78
   5  -5  -9   35.29   22.26
  -5   5   9    5.60   24.26
   4  -5  -9  -10.79   10.82
   4  -5  -9   12.14   18.70
  -4   5   9   16.35   13.70
  -4   5   9   -2.27   21.16
  -4   5   9   38.96   33.36
   3  -5  -9    9.47    9.73
   3  -5  -9   65.36   20.05
  -3   5   9   12.18   12.77
  -3   5   9   35.53   30.61
   2  -5  -9   12.40    9.06
   2  -5  -9    9.79   16.07
  -2   5   9    3.20   25.15
  -2   5   9   23.75   15.51
  -2   5   9   11.32   11.81
   1  -5  -9    0.54    8.01
   1  -5  -9   -3.22   15.06
  -1   5   9   32.50   25.90
  -1   5   9   17.05   11.24
  -1   5   9    7.50   13.46
   0  -5  -9   29.82   14.79
   0  -5  -9   25.29    9.60
   0   5   9   32.54   12.28
   0   5   9   42.13   12.91
   0   5   9    9.02   23.66
  -1  -5  -9  117.39   14.03
  -1  -5  -9  155.06   19.85
   1   5   9  121.28   17.02
   1   5   9  108.38   29.88
   1   5   9  134.13   16.80
  -2  -5  -9  214.59   18.26
  -2  -5  -9  199.24   21.69
   2   5   9  229.70   20.25
   2   5   9  211.72   20.62
   2   5   9  213.77   30.63
  -3  -5  -9   17.96   15.30
   3   5   9   10.29   28.42
   3   5   9   16.53   14.20
   3   5   9   31.30   13.72
  -4  -5  -9    8.43   15.55
  -4  -5  -9    1.47   10.68
   4   5   9   -7.45   13.08
   4   5   9    2.14   11.95
  -5  -5  -9   -4.15   10.19
  -5  -5  -9    5.91   14.14
   5   5   9    4.08   13.70
   5   5   9   -3.48   15.97
  -6  -5  -9   -2.06   15.92
  -6  -5  -9   11.20   11.89
   6   5   9    3.73   13.26
   6   5   9    5.37   13.75
  -7  -5  -9    7.71   17.32
  -7  -5  -9    2.56   16.16
   7   5   9   17.15   16.61
   7   5   9   -5.09   17.93
  -8  -5  -9  -14.10   18.80
  -8  -5  -9  -32.36   17.18
   8   5   9    8.57   17.60
   8   5   9   50.12   22.25
  -9  -5  -9    9.91   21.48
   9   5   9  -32.14   21.24
   5  -6  -9  -23.03   21.85
  -5   6   9   10.99   20.83
   4  -6  -9   13.83   10.54
   4  -6  -9  -38.95   18.65
  -4   6   9  128.41   39.32
  -4   6   9   -6.88   12.65
  -4   6   9  -20.49   19.74
   3  -6  -9   29.63   18.17
   3  -6  -9   24.05    8.79
  -3   6   9   17.82   12.38
  -3   6   9   49.84   28.47
   2  -6  -9    9.44    7.47
   2  -6  -9   17.47   15.66
  -2   6   9   -9.66   10.26
  -2   6   9   21.11   29.20
  -2   6   9   -3.58   13.50
   1  -6  -9  135.43   19.23
   1  -6  -9  116.39   12.75
  -1   6   9  154.64   36.25
  -1   6   9  126.07   15.06
  -1   6   9  129.66   16.54
   0  -6  -9    9.42    7.61
   0  -6  -9    2.05   13.48
   0   6   9   20.36   12.12
   0   6   9   23.86   12.00
   0   6   9   22.56   26.30
  -1  -6  -9    5.21   12.63
  -1  -6  -9   -2.99    7.87
   1   6   9    0.91   22.77
   1   6   9   10.87   11.05
   1   6   9   13.92   11.88
  -2  -6  -9   24.00   13.13
  -2  -6  -9   27.14    9.25
   2   6   9   28.68   24.27
   2   6   9   11.77   11.69
   2   6   9   26.96   13.04
  -3  -6  -9    8.91   12.77
  -3  -6  -9    4.23    8.44
   3   6   9   -2.51   11.48
   3   6   9    4.74   12.02
  -4  -6  -9   -3.70   10.44
  -4  -6  -9  -21.98   13.29
   4   6   9  -16.32   13.43
   4   6   9  -13.27   11.41
   4   6   9    2.93   24.86
  -5  -6  -9    0.24   11.66
  -5  -6  -9   11.15   14.92
   5   6   9   30.21   14.19
   5   6   9   14.78   12.64
  -6  -6  -9  -11.81   14.05
   6   6   9   -0.27   17.13
   6   6   9   -2.40   20.62
  -7  -6  -9    2.45   16.15
  -7  -6  -9    0.34   16.87
   7   6   9    4.22   18.43
   7   6   9    3.89   15.46
  -8  -6  -9   18.50   18.55
  -8  -6  -9  -33.20   16.89
   8   6   9    9.02   16.94
   8   6   9    9.59   21.67
  -9  -6  -9   20.43   24.29
   9   6   9   -2.77   20.91
   5  -7  -9  -26.70   22.26
  -5   7   9   -6.66   18.96
   4  -7  -9   -8.20   18.94
  -4   7   9  -23.57   13.59
   3  -7  -9   13.87    8.63
   3  -7  -9   14.04   16.53
  -3   7   9  120.33   38.37
  -3   7   9    5.72   15.38
  -3   7   9    2.50   12.52
   2  -7  -9    5.06    7.24
   2  -7  -9   18.61   14.14
  -2   7   9   19.28   11.42
  -2   7   9   -4.91   12.27
  -2   7   9   65.26   30.52
   1  -7  -9  103.42   15.30
   1  -7  -9   84.86   10.77
  -1   7   9   57.29   11.92
  -1   7   9   89.53   14.66
  -1   7   9   56.10   33.06
   0  -7  -9  -18.39   11.08
   0  -7  -9   16.13    6.88
   0   7   9   13.77   28.48
   0   7   9   20.33   11.08
   0   7   9    2.66   10.43
  -1  -7  -9   18.74    7.47
  -1  -7  -9    1.64   11.52
   1   7   9    6.38   10.67
   1   7   9   -8.44   11.53
   1   7   9   14.01   25.73
  -2  -7  -9    0.54    7.68
  -2  -7  -9   -5.68   11.88
   2   7   9   -9.38   10.32
   2   7   9   -6.02   12.20
   2   7   9   -0.17   22.52
  -3  -7  -9   11.42   12.42
   3   7   9    3.53   11.58
   3   7   9  -19.36   11.74
  -4  -7  -9    6.37    9.53
  -4  -7  -9   19.93   13.37
   4   7   9   12.62   25.22
   4   7   9   27.71   14.74
   4   7   9   14.01   11.29
  -5  -7  -9   19.89   11.61
  -5  -7  -9  -11.02   13.80
   5   7   9   -9.02   15.76
   5   7   9   -3.69   25.67
   5   7   9    1.47   12.75
  -6  -7  -9    0.75   13.90
  -6  -7  -9  -24.19   12.72
   6   7   9   12.31   14.95
   6   7   9  -27.47   27.51
   6   7   9    0.46   14.96
  -7  -7  -9   12.96   16.86
  -7  -7  -9  -24.76   16.24
   7   7   9    8.55   15.86
   7   7   9  -36.40   16.89
  -8  -7  -9   26.22   19.63
  -8  -7  -9   16.12   19.54
   8   7   9   15.91   21.10
   8   7   9   23.71   26.72
  -9  -7  -9    6.93   23.61
   9   7   9  -10.30   21.22
   5  -8  -9    5.28   24.14
  -5   8   9  -22.81   17.31
   4  -8  -9  -14.62   15.19
  -4   8   9   17.40   14.65
   3  -8  -9   -7.79    9.59
   3  -8  -9    3.35   12.92
  -3   8   9   14.14   12.87
  -3   8   9   64.43   39.21
   2  -8  -9   22.56   10.98
   2  -8  -9   -7.07    8.30
  -2   8   9   13.93   10.56
  -2   8   9   -9.42   31.85
   1  -8  -9   -4.20    8.01
  -1   8   9   -6.32   14.37
  -1   8   9   41.36   30.32
  -1   8   9   -6.83    9.72
   0   8   9   -3.95   10.06
   0   8   9   -1.60   28.53
   0   8   9   -7.45   11.80
  -1  -8  -9    4.16    7.47
  -1  -8  -9   10.89   11.99
   1   8   9   16.15   28.80
   1   8   9   21.88   10.18
   1   8   9    5.92   11.19
  -2  -8  -9   -1.22   10.63
  -2  -8  -9    9.99    7.64
   2   8   9   21.49   27.00
   2   8   9   14.80    9.81
   2   8   9   -1.34   12.16
  -3  -8  -9    1.70   11.90
   3   8   9   -4.83   30.75
   3   8   9    0.38   10.03
   3   8   9   -6.37   13.15
  -4  -8  -9    6.48   13.21
  -4  -8  -9   10.28    9.16
   4   8   9   38.97   12.61
   4   8   9   27.83   15.48
   4   8   9   49.08   28.31
  -5  -8  -9   -3.59   11.11
  -5  -8  -9    7.00   13.41
   5   8   9   23.40   27.05
   5   8   9    5.57   15.20
   5   8   9   11.78   13.20
  -6  -8  -9   19.77   14.22
  -6  -8  -9    1.36   13.64
   6   8   9   -1.50   27.80
   6   8   9   23.04   17.59
   6   8   9    6.12   14.61
  -7  -8  -9  -30.12   15.88
  -7  -8  -9    9.78   17.27
   7   8   9   26.60   29.54
   7   8   9   -2.52   18.10
   7   8   9   -0.62   16.92
  -8  -8  -9   34.41   19.29
  -8  -8  -9    2.60   32.52
   8   8   9  -49.82   31.16
   8   8   9    0.60   20.70
  -9  -8  -9   73.83   26.65
   9   8   9   39.45   23.58
  -4   9   9   -6.00   13.06
  -3   9   9    0.76   11.68
  -2   9   9   57.17   37.66
  -2   9   9   21.53   10.46
  -2   9   9   18.31    8.38
  -1   9   9   26.06    9.39
  -1   9   9   87.06   38.57
  -1   9   9   43.02    8.28
   0  -9  -9   23.06    6.55
   0  -9  -9   19.73    7.60
   0   9   9   21.76   35.94
   0   9   9   17.21    9.21
   0   9   9   23.88    7.89
  -1  -9  -9    9.45    8.10
  -1  -9  -9    5.93    8.99
   1   9   9   -9.24   29.11
   1   9   9   11.49   10.62
  -2  -9  -9    9.84    8.16
  -2  -9  -9    7.30   10.22
   2   9   9   14.07   33.21
   2   9   9   -2.48    9.11
   2   9   9    1.05   13.64
  -3  -9  -9    4.80   11.28
   3   9   9   20.93   14.70
   3   9   9    1.10    9.74
   3   9   9   14.22   31.41
  -4  -9  -9    6.00    9.03
  -4  -9  -9    7.57   12.14
   4   9   9   -4.10   11.35
   4   9   9    1.12   15.55
   4   9   9    5.80   29.68
  -5  -9  -9   -3.00   13.13
  -5  -9  -9   -4.16   10.53
   5   9   9  -18.03   12.14
   5   9   9   16.57   29.06
   5   9   9   -6.12   16.35
  -6  -9  -9    3.95   14.27
  -6  -9  -9  -20.54   13.29
   6   9   9   -5.19   14.61
   6   9   9   31.72   30.86
   6   9   9   -9.39   18.12
  -7  -9  -9   17.01   16.62
  -7  -9  -9  -13.16   17.21
   7   9   9   17.91   20.56
   7   9   9   34.35   29.68
  -8  -9  -9   -5.96   22.41
   8   9   9   13.31   21.87
  -9  -9  -9  -17.82   28.78
   9   9   9    9.42   23.66
   0  10   9   30.64   39.94
   0  10   9    9.75    5.74
   1  10   9   38.42   40.11
   1  10   9    0.91    9.14
   1  10   9   17.36    6.78
  -2 -10  -9    1.97    8.50
   2  10   9   -0.74   36.54
   2  10   9   -2.59   13.08
  -3 -10  -9   -6.85   11.22
  -3 -10  -9   -9.51    9.10
   3  10   9   17.73   11.08
   3  10   9   -0.23   34.08
   3  10   9  -11.50   14.60
  -4 -10  -9  -11.74    8.66
  -4 -10  -9   30.66   13.69
   4  10   9  -15.92   33.03
   4  10   9    4.01   16.17
   4  10   9    5.22   12.46
  -5 -10  -9    4.98   10.17
  -5 -10  -9   -4.65   13.76
   5  10   9   36.06   31.89
   5  10   9    6.87   16.73
   5  10   9    0.02   13.20
  -6 -10  -9   -8.15   13.40
  -6 -10  -9   -9.27   15.43
   6  10   9   12.68   29.13
   6  10   9   32.23   16.33
   6  10   9   -3.30   19.42
  -7 -10  -9   29.26   17.76
  -7 -10  -9  -25.89   16.77
   7  10   9    6.27   18.81
  -8 -10  -9    9.37   28.44
   8  10   9   -6.98   23.50
   1 -11  -9 -119.40   56.18
   2  11   9   -0.76   13.02
   2  11   9    9.32    6.77
  -3 -11  -9    2.37   11.17
  -3 -11  -9   -3.32   10.04
   3  11   9   36.54   38.48
   3  11   9    6.43   17.04
  -4 -11  -9   -4.53   13.26
  -4 -11  -9   -5.90   10.30
   4  11   9   -8.13   18.10
   4  11   9  -20.70   12.75
  -5 -11  -9   14.99   10.85
  -5 -11  -9   10.09   15.35
   5  11   9  -38.42   18.85
   5  11   9   12.07   15.62
  -6 -11  -9    9.32   17.27
   6  11   9   18.40   24.04
   3  12   9   15.05   19.41
  -4 -12  -9    7.10   13.47
   4  12   9  -10.63   21.28
  -5 -12  -9   -9.81   16.20
   5  12   9   58.77   23.04
  -6 -12  -9   -8.20   18.85
   4  13   9    9.73   24.42
  -5 -13  -9   -9.84   17.05
   5  13   9  -10.59   27.82
  -6 -13  -9  -38.84   21.81
   0   5 -10   42.75   42.07
   0  -5  10  -23.21   28.10
  -1   5 -10   -4.65   39.55
   1  -5  10  -26.61   27.09
  -2   5 -10   28.79   39.18
   2  -5  10   -1.61   27.34
  -3   5 -10   -3.77   38.41
   3  -5  10  -37.34   32.10
   1   4 -10   54.49   37.78
  -1  -4  10   27.55   24.77
   0   4 -10   -0.40   32.32
   0  -4  10  -38.05   20.05
  -1   4 -10  -42.24   34.27
   1  -4  10   11.22   25.06
  -2   4 -10   48.88   34.93
   2  -4  10  -23.81   26.78
  -3   4 -10   73.70   36.29
   3  -4  10  -36.20   23.41
  -4   4 -10  -27.36   36.43
  -5   4 -10   36.62   34.08
   5  -4  10    5.90   33.19
   2   3 -10   36.70   32.38
  -2  -3  10   48.76   32.21
   1   3 -10   -4.43   23.94
   1   3 -10   26.66   29.43
  -1  -3  10   12.35   24.99
  -1  -3  10   38.20   20.53
   0   3 -10   56.16   23.49
   0   3 -10  -51.30   25.87
   0  -3  10   10.71   19.70
   0  -3  10   26.75   18.81
  -1   3 -10   41.73   30.84
  -1   3 -10   18.83   22.93
   1  -3  10   11.28   20.56
   1  -3  10  -33.39   20.20
  -2   3 -10   13.17   26.61
  -2   3 -10   30.31   29.42
   2  -3  10  -45.91   21.00
   2  -3  10  -10.44   18.10
  -3   3 -10    1.38   27.09
   3  -3  10  -20.92   23.06
   3  -3  10   14.80   22.93
  -4   3 -10   15.13   30.20
   4  -3  10  -29.64   23.08
  -5   3 -10  -26.95   34.30
   5  -3  10   41.55   27.42
  -6   3 -10  -39.76   31.23
   6  -3  10  -39.91   33.79
  -4  -2  10   73.48   59.86
   3   2 -10   10.26   24.81
  -3  -2  10  -74.12   40.30
   2   2 -10    7.73   28.69
   2   2 -10  -16.44   19.08
  -2  -2  10  -20.56   18.99
  -2  -2  10   27.69   21.64
   1   2 -10    7.39   27.43
   1   2 -10   50.97   19.93
  -1  -2  10   22.20   21.55
  -1  -2  10   31.09   17.61
   0   2 -10   41.07   21.05
   0   2 -10   23.99   27.27
   0  -2  10   13.59   17.89
   0  -2  10  -12.24   16.51
  -1   2 -10    4.62   20.24
  -1   2 -10   59.81   24.29
   1  -2  10   20.89   18.90
   1  -2  10   21.13   16.26
  -2   2 -10   -2.08   19.62
  -2   2 -10   36.41   24.53
   2  -2  10   13.20   19.92
   2  -2  10    6.54   16.57
  -3   2 -10   63.79   27.62
  -3   2 -10   11.38   19.58
   3  -2  10   17.99   19.62
   3  -2  10   -4.07   18.91
  -4   2 -10   53.64   27.49
  -4   2 -10   22.99   23.79
   4  -2  10   52.38   23.93
   4  -2  10  -13.33   18.11
  -5   2 -10  -10.14   30.77
   5  -2  10   10.87   24.81
  -6   2 -10   51.34   32.62
   6  -2  10   98.47   29.95
  -7   2 -10   21.55   37.50
   7  -2  10   14.37   31.91
   4   1 -10    1.93   21.70
  -4  -1  10    0.21   35.28
  -4  -1  10   57.60   49.92
   3   1 -10    9.05   22.58
   3   1 -10  -17.14   27.49
   2   1 -10   -6.79   27.33
   2   1 -10   -2.91   20.89
  -2  -1  10   -2.81   21.13
  -2  -1  10  -19.24   38.50
  -2  -1  10  -17.73   16.21
   1   1 -10   48.90   23.38
   1   1 -10   -9.61   15.95
  -1  -1  10   25.93   20.85
  -1  -1  10   -2.12   17.19
   0   1 -10    6.87   24.68
   0   1 -10   29.60   17.93
   0  -1  10   -4.52   14.60
   0  -1  10    6.83   17.00
  -1   1 -10   12.00   18.84
  -1   1 -10   -9.50   20.53
   1  -1  10   44.38   17.78
   1  -1  10   82.65   19.92
  -2   1 -10   48.35   23.24
  -2   1 -10   16.45   17.73
   2  -1  10   58.84   19.85
   2  -1  10    1.44   18.56
  -3   1 -10    7.47   17.03
  -3   1 -10   26.16   20.89
   3  -1  10   -2.82   16.39
   3  -1  10   40.71   18.73
  -4   1 -10  -47.67   17.19
  -4   1 -10   11.82   24.75
   4  -1  10   21.64   17.19
   4  -1  10   -2.15   19.42
  -5   1 -10   15.17   23.60
  -5   1 -10   34.42   24.44
   5  -1  10   13.06   17.92
   5  -1  10   -2.38   24.25
  -6   1 -10  -32.98   29.46
   6  -1  10   12.81   24.55
  -7   1 -10   67.15   34.30
   7  -1  10  -22.81   27.58
  -5   0  10   34.57   34.98
   4   0 -10   19.88   23.62
  -4   0  10   67.63   37.54
  -4   0  10  -21.09   41.11
   3   0 -10  -33.58   21.50
   3   0 -10   23.12   27.27
  -3   0  10  -69.23   35.60
  -3   0  10  -19.56   26.15
  -3   0  10   -2.17   17.08
   2   0 -10  -14.15   24.60
   2   0 -10    9.69   19.53
  -2   0  10   16.86   22.42
  -2   0  10  -33.58   35.88
  -2   0  10   21.91   16.33
   1   0 -10   81.02   19.44
   1   0 -10    7.22   23.77
  -1   0  10  -54.38   34.43
  -1   0  10   19.37   20.11
  -1   0  10   13.31   16.15
   0   0 -10   31.82   21.46
   0   0 -10    0.73   16.48
   0   0  10    5.32   15.55
   0   0  10  -18.91   15.01
  -1   0 -10  -12.44   21.73
  -1   0 -10    5.45   15.23
   1   0  10   28.74   15.97
   1   0  10   15.12   16.32
  -2   0 -10   77.97   21.62
  -2   0 -10   -1.10   16.65
   2   0  10   28.44   17.84
   2   0  10   22.86   16.28
  -3   0 -10   -3.46   16.23
  -3   0 -10   -5.07   21.93
   3   0  10  -31.18   15.06
   3   0  10   19.30   16.66
  -4   0 -10  -30.82   18.80
  -4   0 -10   32.26   19.84
   4   0  10   27.19   16.32
   4   0  10   -1.37   18.66
  -5   0 -10   28.79   22.28
   5   0  10   34.10   19.83
   5   0  10   13.01   16.81
  -6   0 -10   35.15   25.33
  -6   0 -10  -27.67   24.01
   6   0  10   41.87   25.70
   6   0  10   20.14   19.86
  -7   0 -10   30.94   29.06
   7   0  10   27.46   27.08
  -8   0 -10   26.44   56.92
   8   0  10   92.75   53.18
   5  -1 -10  -21.90   23.94
  -5   1  10    5.74   36.54
   4  -1 -10   28.28   22.29
  -4   1  10   71.99   37.21
  -4   1  10   13.42   33.40
   3  -1 -10   -4.96   17.82
   3  -1 -10   18.00   22.05
  -3   1  10  -33.24   35.58
  -3   1  10   -9.26   26.44
  -3   1  10   23.83   16.79
   2  -1 -10   30.57   19.15
   2  -1 -10  -11.15   20.91
  -2   1  10   36.88   32.66
  -2   1  10   12.32   21.76
  -2   1  10   53.51   16.57
   1  -1 -10   67.81   17.02
   1  -1 -10   17.52   20.96
  -1   1  10   65.44   16.91
  -1   1  10   34.18   37.72
  -1   1  10   64.45   19.70
   0  -1 -10   -5.86   15.56
   0  -1 -10    4.80   20.87
   0   1  10    9.78   16.64
   0   1  10   34.93   16.10
  -1  -1 -10   19.20   21.70
  -1  -1 -10   83.02   18.36
   1   1  10   18.47   16.21
   1   1  10   20.16   15.78
  -2  -1 -10   22.83   19.87
  -2  -1 -10   41.64   16.19
   2   1  10    6.48   14.77
   2   1  10    1.95   16.53
  -3  -1 -10    4.16   15.47
  -3  -1 -10  -29.39   19.89
   3   1  10    0.75   15.12
   3   1  10   -5.25   15.61
  -4  -1 -10  -14.76   19.44
  -4  -1 -10   -1.90   16.92
   4   1  10  -45.62   15.64
   4   1  10   10.97   16.28
  -5  -1 -10   13.13   18.60
  -5  -1 -10  -23.95   18.78
   5   1  10  -15.17   18.02
   5   1  10   11.93   15.56
  -6  -1 -10   68.41   21.98
  -6  -1 -10   -3.61   24.05
   6   1  10    2.14   17.48
   6   1  10   62.64   21.08
  -7  -1 -10   65.91   27.29
  -7  -1 -10  -19.37   27.62
   7   1  10    8.82   23.66
   7   1  10   14.36   21.05
  -8  -1 -10   38.94   33.18
   8   1  10   28.07   35.06
   5  -2 -10  -30.43   20.40
  -5   2  10  -30.96   35.33
   4  -2 -10    3.51   28.06
   4  -2 -10   -0.34   19.86
  -4   2  10  -10.84   31.98
  -4   2  10   51.24   37.85
   3  -2 -10  -22.54   21.45
   3  -2 -10  -14.86   15.10
  -3   2  10    4.33   17.14
  -3   2  10   11.94   25.51
  -3   2  10  -20.44   29.04
   2  -2 -10  -45.54   19.76
   2  -2 -10    5.99   14.28
  -2   2  10   43.43   34.71
  -2   2  10   16.87   21.27
  -2   2  10    5.11   14.57
   1  -2 -10   37.36   13.89
   1  -2 -10   44.89   20.86
  -1   2  10   77.40   18.44
  -1   2  10   36.86   31.22
  -1   2  10   48.59   23.62
   0  -2 -10   10.22   18.07
   0  -2 -10    3.39   14.25
   0   2  10   14.71   15.28
   0   2  10    4.37   33.91
  -1  -2 -10    6.20   17.73
  -1  -2 -10    2.36   14.07
   1   2  10   30.71   13.97
  -2  -2 -10   19.29   18.20
  -2  -2 -10   -3.35   12.49
   2   2  10    7.97   14.06
   2   2  10    5.96   15.04
  -3  -2 -10    5.46   14.63
  -3  -2 -10   14.20   20.43
   3   2  10   16.91   15.16
   3   2  10   21.82   14.52
  -4  -2 -10   22.38   18.90
   4   2  10   14.82   15.43
   4   2  10   -1.91   15.20
  -5  -2 -10   15.37   18.44
  -5  -2 -10  -23.94   17.85
   5   2  10   28.55   15.56
   5   2  10  -34.28   17.40
  -6  -2 -10    4.32   17.72
  -6  -2 -10  -14.31   19.29
   6   2  10   11.44   19.56
   6   2  10  -23.81   15.71
  -7  -2 -10  -49.43   22.21
  -7  -2 -10  -21.88   21.20
   7   2  10   22.64   20.39
   7   2  10    3.61   23.49
  -8  -2 -10    2.36   25.80
   8   2  10   58.50   32.53
   5  -3 -10   -9.33   21.83
  -5   3  10   58.59   35.55
   4  -3 -10   48.74   16.35
   4  -3 -10   11.37   23.33
  -4   3  10  -27.96   25.51
  -4   3  10   46.61   40.19
   3  -3 -10   31.53   15.88
   3  -3 -10    8.04   21.78
  -3   3  10   -6.77   15.33
  -3   3  10   52.10   33.36
   2  -3 -10   46.85   15.25
   2  -3 -10  -13.63   17.66
  -2   3  10   -7.65   13.06
  -2   3  10   19.38   20.01
  -2   3  10   22.48   28.10
   1  -3 -10   16.07   12.78
   1  -3 -10   40.58   18.54
  -1   3  10   19.12   17.39
  -1   3  10    1.02   14.66
  -1   3  10   -9.46   30.06
   0  -3 -10   -7.65   12.23
   0  -3 -10   24.47   18.34
   0   3  10  -42.94   30.76
   0   3  10   13.01   14.45
   0   3  10   21.98   14.41
  -1  -3 -10   38.92   18.78
  -1  -3 -10   10.73   12.20
   1   3  10   12.57   14.51
   1   3  10   -9.93   15.26
   1   3  10  -12.28   34.91
  -2  -3 -10   93.97   16.16
  -2  -3 -10   48.08   18.16
   2   3  10   48.07   17.27
   2   3  10   89.35   17.21
  -3  -3 -10    2.83   13.95
  -3  -3 -10   17.81   16.97
   3   3  10   30.51   16.57
  -4  -3 -10  -23.64   18.39
   4   3  10   -2.41   16.62
   4   3  10    5.81   14.44
  -5  -3 -10  -10.25   16.71
  -5  -3 -10   24.53   19.31
   5   3  10   13.32   17.12
   5   3  10   -1.74   14.47
  -6  -3 -10  -22.79   19.54
  -6  -3 -10   -6.57   16.43
   6   3  10   13.68   18.74
   6   3  10   20.97   18.13
  -7  -3 -10  -22.46   17.50
  -7  -3 -10    1.81   23.24
   7   3  10  -22.90   18.07
   7   3  10   12.57   17.79
  -8  -3 -10   31.21   23.14
  -8  -3 -10  -48.45   22.62
   8   3  10   -2.84   30.67
   8   3  10  -26.53   20.01
   4  -4 -10   36.90   23.91
  -4   4  10   56.62   41.23
  -4   4  10   26.68   26.79
   3  -4 -10   -0.34   13.47
   3  -4 -10   -3.77   21.07
  -3   4  10   16.99   33.16
  -3   4  10    2.95   13.62
   2  -4 -10   -8.25   12.24
   2  -4 -10   32.33   19.94
  -2   4  10   53.31   20.88
  -2   4  10   -4.17   13.15
  -2   4  10  -12.23   26.49
   1  -4 -10    4.24   18.07
   1  -4 -10    9.37   10.85
  -1   4  10   -0.02   16.12
  -1   4  10    3.72   13.32
  -1   4  10   20.10   28.65
   0  -4 -10   36.58   13.34
   0  -4 -10   29.28   16.85
   0   4  10    8.94   29.62
   0   4  10   55.41   15.64
   0   4  10   36.28   15.89
  -1  -4 -10   10.89   17.72
  -1  -4 -10    8.45   10.63
   1   4  10    6.89   14.91
   1   4  10   -0.41   33.28
   1   4  10   -1.44   12.01
  -2  -4 -10  142.31   22.51
  -2  -4 -10  134.72   16.83
   2   4  10  112.97   17.91
   2   4  10   92.91   16.71
   2   4  10  180.16   44.70
  -3  -4 -10   20.42   16.15
  -3  -4 -10    6.20   12.41
   3   4  10  -12.24   15.20
   3   4  10   20.91   15.37
  -4  -4 -10    1.11   14.98
  -4  -4 -10   16.25   14.14
   4   4  10   27.19   15.41
  -5  -4 -10    7.77   17.34
  -5  -4 -10    6.95   16.12
   5   4  10   32.15   18.02
   5   4  10   -5.46   15.61
  -6  -4 -10  -37.24   16.30
  -6  -4 -10  -19.72   17.15
   6   4  10   23.39   20.02
   6   4  10    8.07   15.37
  -7  -4 -10   -6.73   18.11
  -7  -4 -10   -5.71   18.50
   7   4  10   -3.89   16.85
   7   4  10  -44.21   18.09
  -8  -4 -10   54.86   26.55
  -8  -4 -10   -2.71   22.56
   8   4  10   -4.86   18.54
   8   4  10   18.46   39.02
   4  -5 -10   -4.41   22.92
   4  -5 -10  -11.92   13.91
  -4   5  10    9.49   24.75
   3  -5 -10   25.97   12.07
   3  -5 -10   36.81   20.80
  -3   5  10   10.22   14.65
  -3   5  10   72.68   32.09
   2  -5 -10   31.57   20.02
   2  -5 -10   37.83   12.28
  -2   5  10   36.02   29.34
  -2   5  10   -1.18   17.37
  -2   5  10   36.33   14.55
   1  -5 -10   53.12   11.74
   1  -5 -10   11.02   18.46
  -1   5  10   12.48   27.86
  -1   5  10    4.57   14.93
  -1   5  10   34.66   14.21
   0  -5 -10    4.75   10.42
   0  -5 -10   26.27   17.08
   0   5  10    8.19   30.62
   0   5  10  -13.00   13.91
   0   5  10    7.24   13.61
  -1  -5 -10   51.22   12.52
  -1  -5 -10   55.84   18.05
   1   5  10   37.47   15.11
   1   5  10   41.15   16.26
   1   5  10   26.67   29.52
  -2  -5 -10   58.44   18.40
  -2  -5 -10   36.53   11.17
   2   5  10   22.35   15.24
   2   5  10   72.71   16.50
   2   5  10   82.01   35.84
  -3  -5 -10   21.50   12.76
  -3  -5 -10   23.44   16.75
   3   5  10   24.13   14.22
   3   5  10   17.33   32.87
   3   5  10   13.24   15.18
  -4  -5 -10   19.84   13.63
  -4  -5 -10   39.14   18.25
   4   5  10   32.92   15.32
   4   5  10  -13.79   14.21
  -5  -5 -10    1.97   12.96
  -5  -5 -10   69.96   16.70
   5   5  10   17.38   17.80
   5   5  10   37.66   18.71
  -6  -5 -10   45.28   17.82
  -6  -5 -10  -17.35   17.44
   6   5  10  -35.99   16.12
   6   5  10   -7.43   16.90
  -7  -5 -10   13.72   17.40
  -7  -5 -10    9.73   18.32
   7   5  10   35.38   19.59
   7   5  10   67.53   21.18
  -8  -5 -10   21.51   22.57
  -8  -5 -10   12.62   22.25
   8   5  10  -23.03   18.18
   9   5  10    8.51   37.15
   4  -6 -10   11.06   22.59
  -4   6  10  -10.42   18.74
   3  -6 -10   20.84   10.94
   3  -6 -10   33.01   20.97
  -3   6  10   -3.54   19.53
  -3   6  10   24.88   13.55
  -3   6  10   55.76   35.76
   2  -6 -10  -16.39    9.37
   2  -6 -10   14.86   18.66
  -2   6  10   -4.41   27.16
  -2   6  10   12.90   15.30
  -2   6  10   18.85   12.94
   1  -6 -10   57.81   10.63
   1  -6 -10   30.06   18.24
  -1   6  10   47.97   16.04
  -1   6  10   11.01   26.16
  -1   6  10   46.84   14.30
   0  -6 -10  -10.50    8.91
   0  -6 -10  -27.26   13.92
   0   6  10   11.34   13.80
   0   6  10  -19.88   13.03
   0   6  10  -42.01   24.29
  -1  -6 -10   -6.89   14.79
  -1  -6 -10   13.93    9.28
   1   6  10   14.90   13.96
   1   6  10   17.80   14.16
   1   6  10  -15.82   27.30
  -2  -6 -10   46.61   16.17
  -2  -6 -10   36.82   11.53
   2   6  10   18.85   15.76
   2   6  10   -1.47   29.29
   2   6  10    9.93   15.07
  -3  -6 -10   21.19   15.79
  -3  -6 -10   47.94   12.42
   3   6  10   18.52   13.71
   3   6  10   18.08   14.75
   3   6  10   44.09   34.04
  -4  -6 -10  104.64   17.16
  -4  -6 -10   95.26   19.30
   4   6  10   84.51   35.71
   4   6  10   86.15   18.32
   4   6  10  108.52   20.85
  -5  -6 -10   41.17   17.04
  -5  -6 -10   56.52   14.02
   5   6  10   30.30   15.37
   5   6  10   47.06   18.61
  -6  -6 -10   32.96   16.85
  -6  -6 -10    8.45   17.47
   6   6  10   16.94   16.01
   6   6  10   23.71   17.15
  -7  -6 -10    7.57   20.53
  -7  -6 -10   10.91   19.08
   7   6  10   15.59   20.08
   7   6  10    0.27   20.24
  -8  -6 -10  -23.69   20.92
   8   6  10   48.50   20.53
  -9  -6 -10   47.01   25.96
   9   6  10  -27.37   22.47
   4  -7 -10   -7.42   22.53
  -4   7  10  -18.95   17.02
   3  -7 -10    6.94   18.89
   3  -7 -10  -22.73   15.56
  -3   7  10   -2.70   13.75
  -3   7  10    9.11   61.68
   2  -7 -10   -0.90    8.14
   2  -7 -10  -34.22   15.48
  -2   7  10   -1.97   15.30
  -2   7  10  -22.25   28.06
  -2   7  10  -11.32   11.99
   1  -7 -10   26.84   15.83
   1  -7 -10   25.23    8.59
  -1   7  10   30.71   12.64
  -1   7  10   29.08   14.12
  -1   7  10   14.19   29.41
   0  -7 -10    8.64   13.31
   0  -7 -10    7.02    8.62
   0   7  10    7.76   13.43
   0   7  10   -3.74   12.10
   0   7  10   -1.35   28.23
  -1  -7 -10  -16.97    8.73
  -1  -7 -10   23.73   14.78
   1   7  10    1.46   27.81
   1   7  10    4.67   14.09
   1   7  10   12.06   13.34
  -2  -7 -10   -2.31    9.47
  -2  -7 -10    4.02   13.54
   2   7  10   -2.73   28.64
   2   7  10    2.06   12.91
   2   7  10    5.86   14.83
  -3  -7 -10   42.42   11.47
  -3  -7 -10   35.10   15.50
   3   7  10   20.60   13.68
   3   7  10   19.13   15.23
   3   7  10   18.57   31.60
  -4  -7 -10   20.61   16.05
  -4  -7 -10   52.18   12.90
   4   7  10   22.61   32.28
   4   7  10   39.57   16.91
   4   7  10   27.23   15.16
  -5  -7 -10   23.50   13.74
  -5  -7 -10   27.81   15.92
   5   7  10    6.19   15.51
   5   7  10   12.54   32.51
   5   7  10   -2.35   16.01
  -6  -7 -10   22.64   17.07
  -6  -7 -10    3.53   16.70
   6   7  10    1.19   17.35
   6   7  10  -74.41   34.83
   6   7  10   36.00   17.66
  -7  -7 -10   -5.89   19.55
  -7  -7 -10   48.27   20.01
   7   7  10  -14.01   18.27
   7   7  10  -22.88   20.90
  -8  -7 -10   -4.75   23.37
   8   7  10   -7.30   19.35
  -9  -7 -10  -21.01   29.09
   9   7  10   34.07   25.50
   4  -8 -10   25.99   19.99
  -4   8  10   -0.61   17.28
   3  -8 -10   10.59   16.70
  -3   8  10    0.74   13.67
   2  -8 -10   23.66   15.25
  -2   8  10   11.10   17.62
  -2   8  10   -8.09   12.08
  -2   8  10   60.56   35.18
   1  -8 -10    5.51   13.45
   1  -8 -10   -1.13    8.31
  -1   8  10   -7.04   11.25
  -1   8  10   23.05   32.23
  -1   8  10   -7.56   13.35
   0  -8 -10    3.74    7.60
   0  -8 -10   24.09   13.54
   0   8  10   20.90   12.79
   0   8  10   12.63   13.57
   0   8  10   -2.02   31.02
  -1  -8 -10   65.01   14.04
  -1  -8 -10   56.78    9.27
   1   8  10   58.14   14.55
   1   8  10   -1.87   32.20
   1   8  10   43.05   13.13
  -2  -8 -10   41.82   10.38
  -2  -8 -10   27.30   12.72
   2   8  10   27.44   15.14
   2   8  10   16.64   11.90
   2   8  10   19.88   29.70
  -3  -8 -10   15.33   13.61
  -3  -8 -10   18.75   10.07
   3   8  10  -27.17   14.54
   3   8  10    7.60   13.35
   3   8  10    8.02   30.64
  -4  -8 -10   21.95   11.43
  -4  -8 -10   -0.65   14.26
   4   8  10   25.88   17.39
   4   8  10    9.79   31.40
   4   8  10   14.33   13.58
  -5  -8 -10   -8.04   12.21
  -5  -8 -10   28.52   15.04
   5   8  10  -15.56   13.87
   5   8  10   11.30   33.38
   5   8  10   11.79   17.04
  -6  -8 -10   -1.78   16.42
  -6  -8 -10  -11.72   15.53
   6   8  10   -4.11   16.55
   6   8  10    0.30   17.94
   6   8  10    8.53   36.19
  -7  -8 -10   10.87   19.26
  -7  -8 -10    4.60   18.38
   7   8  10   -7.83   33.22
   7   8  10  -48.75   73.96
   7   8  10    9.89   18.11
  -8  -8 -10   18.64   25.01
   8   8  10   31.05   22.81
  -9  -8 -10  -29.14   28.53
   9   8  10   -0.46   23.19
  -4   9  10   27.93   24.78
  -3   9  10   10.81   14.29
   2  -9 -10   -4.02   10.61
  -2   9  10    9.89   12.36
   1  -9 -10    6.66    8.31
   1  -9 -10   11.87   10.45
  -1   9  10   40.94   35.76
  -1   9  10   10.72   11.52
   0  -9 -10   11.56   11.66
   0  -9 -10   17.19    9.24
   0   9  10   25.38   12.26
   0   9  10    1.41   22.27
   0   9  10   52.17   36.27
  -1  -9 -10   67.43   13.27
   1   9  10   87.76   37.93
   1   9  10   42.14   13.78
   1   9  10   43.80   12.86
  -2  -9 -10   -8.09    8.91
  -2  -9 -10   17.70   12.23
   2   9  10   19.72   36.02
   2   9  10   -0.26   15.14
   2   9  10    1.49   11.04
  -3  -9 -10    6.70   13.58
  -3  -9 -10   10.20    9.65
   3   9  10   22.23   34.00
   3   9  10   23.74   12.44
  -4  -9 -10   -4.60   10.28
  -4  -9 -10   -0.43   13.41
   4   9  10   -4.41   16.56
   4   9  10    9.67   34.20
   4   9  10    2.83   12.82
  -5  -9 -10   -4.46   12.35
  -5  -9 -10   15.07   14.94
   5   9  10  -10.55   14.30
   5   9  10   40.37   18.94
   5   9  10   22.66   36.04
  -6  -9 -10   -0.74   15.58
  -6  -9 -10  -13.90   16.51
   6   9  10  -43.31   20.00
   6   9  10   -2.94   16.40
   6   9  10    5.08   46.52
  -7  -9 -10   14.12   20.15
  -7  -9 -10    1.94   19.24
   7   9  10   37.79   20.78
   7   9  10    4.37   40.82
  -8  -9 -10   32.47   26.72
   8   9  10   16.37   23.48
   9   9  10   43.31   27.73
  -2  10  10    5.98   11.11
  -1  10  10  167.12   50.40
   0  10  10    6.75   10.59
   0  10  10   74.36   41.04
   0  10  10    3.08    7.92
  -1 -10 -10    9.31    8.60
   1  10  10   -2.21   10.27
   1  10  10   12.12   12.71
   1  10  10   87.92   42.37
  -2 -10 -10    8.01   12.42
  -2 -10 -10    0.21   11.26
   2  10  10    3.17   38.54
   2  10  10    0.79   13.48
   2  10  10   34.11   16.80
  -3 -10 -10  -12.88   13.16
  -3 -10 -10   12.99   10.31
   3  10  10   21.02   39.20
   3  10  10    8.42   18.34
   3  10  10   -3.09   12.56
  -4 -10 -10   -1.52   13.39
   4  10  10   20.74   19.48
   4  10  10   27.37   41.92
   4  10  10    2.89   13.71
  -5 -10 -10   10.81   15.14
  -5 -10 -10  -35.30   11.68
   5  10  10   14.87   41.86
   5  10  10    4.98   15.76
   5  10  10   36.61   20.06
  -6 -10 -10    7.19   16.54
  -6 -10 -10   -2.87   15.47
   6  10  10   35.44   41.89
   6  10  10   36.20   25.28
   6  10  10  -15.27   17.26
   1  11  10   60.55   46.88
  -2 -11 -10   15.77    8.72
   2  11  10   65.44   47.56
   2  11  10   10.99   15.71
  -3 -11 -10   -8.74   16.10
  -3 -11 -10   11.22   12.59
   3  11  10    0.34   45.78
   3  11  10   20.17   20.48
  -4 -11 -10  -17.68   14.33
   4  11  10   11.46   20.01
   4  11  10   25.01   47.78
  -5 -11 -10   -6.13   15.30
   5  11  10   16.86   22.05
   5  11  10   10.76   45.52
  -6 -11 -10   48.12   18.85
   2  12  10    7.09   11.91
   3  12  10  -18.70   20.13
  -4 -12 -10  -12.58   14.15
   4  12  10   15.88   23.08
  -5 -12 -10  -11.76   17.28
   5  12  10  -11.49   25.99
  -6 -12 -10   11.51   37.65
   4  13  10   51.57   26.88
  -5 -13 -10  -18.96   17.73
  -1   3 -11   64.06   39.18
   1  -3  11   53.42   28.96
  -2   3 -11  -11.64   34.13
   2  -3  11   23.48   24.83
  -3   3 -11  -13.19   38.60
   3  -3  11   47.01   31.08
  -4   3 -11   22.49   40.90
   4  -3  11  -15.60   33.59
   0   2 -11   23.57   29.58
   0  -2  11  -36.07   21.53
   0  -2  11   20.97   24.10
  -1   2 -11   65.45   29.26
   1  -2  11  -28.07   23.65
   1  -2  11   11.39   23.90
  -2   2 -11   -6.92   29.25
   2  -2  11  -27.55   21.87
  -3   2 -11  -40.15   29.70
   3  -2  11  -49.54   24.73
  -4   2 -11   23.60   31.13
   4  -2  11  -47.76   23.35
  -5   2 -11   43.46   38.57
   5  -2  11   16.45   29.35
  -3  -1  11    3.74   49.74
   2   1 -11   19.51   22.26
  -2  -1  11   48.73   27.91
   1   1 -11   35.79   29.92
   1   1 -11  -35.59   23.33
  -1  -1  11   19.54   24.70
  -1  -1  11  -35.64   33.11
   0   1 -11    5.76   26.56
   0   1 -11   -9.93   19.06
   0  -1  11  -33.57   21.39
   0  -1  11  -10.45   19.84
  -1   1 -11  -51.08   19.26
  -1   1 -11   18.21   25.63
   1  -1  11    8.53   18.89
   1  -1  11   26.95   18.98
  -2   1 -11   -3.57   27.60
  -2   1 -11    4.58   22.09
   2  -1  11   -5.56   20.13
   2  -1  11  -37.10   19.52
  -3   1 -11   35.95   28.40
  -3   1 -11   -3.63   22.18
   3  -1  11  -24.24   21.72
   3  -1  11  -39.47   17.62
  -4   1 -11    2.95   29.44
   4  -1  11   13.94   22.84
   4  -1  11  -37.20   19.68
  -5   1 -11   62.74   33.43
   5  -1  11   45.97   24.72
  -6   1 -11   31.03   41.14
   6  -1  11   74.09   37.79
   4   0 -11    2.45   30.89
   3   0 -11   60.85   24.47
  -3   0  11   22.80   28.84
   2   0 -11   12.05   24.57
  -2   0  11   25.89   29.76
  -2   0  11  -69.98   43.43
   1   0 -11   50.71   20.36
   1   0 -11    4.37   24.92
  -1   0  11   10.06   19.16
  -1   0  11    8.76   22.17
   0   0 -11    0.24   19.56
   0   0 -11   49.37   25.46
   0   0  11  -13.34   18.72
   0   0  11  -43.46   18.09
  -1   0 -11   -1.50   24.55
  -1   0 -11  -31.33   19.73
   1   0  11   -5.67   15.94
   1   0  11   -8.92   19.35
  -2   0 -11    3.02   19.90
   2   0  11  -36.71   16.72
   2   0  11   -8.98   18.93
  -3   0 -11   -6.98   23.05
  -3   0 -11   68.93   20.39
   3   0  11   54.72   20.03
   3   0  11   16.78   17.26
  -4   0 -11   10.95   23.91
  -4   0 -11  -24.78   22.59
   4   0  11  -38.69   18.72
   4   0  11  -36.49   17.37
  -5   0 -11  -17.74   25.11
  -5   0 -11  -44.96   24.24
   5   0  11   31.55   23.45
   5   0  11  -11.94   25.61
  -6   0 -11   59.36   30.80
   6   0  11  -19.37   25.96
  -5   1  11  -10.19   42.27
   4  -1 -11   61.14   28.16
   3  -1 -11   60.22   25.42
   2  -1 -11   40.85   30.30
   2  -1 -11   17.95   24.00
  -2   1  11  -16.95   28.69
  -2   1  11  -85.29   38.29
   1  -1 -11    1.92   19.77
   1  -1 -11    3.45   23.26
  -1   1  11   13.69   20.87
  -1   1  11  -67.13   38.03
  -1   1  11   44.51   17.82
   0  -1 -11   -0.60   21.02
   0  -1 -11  -25.52   23.87
   0   1  11  -23.41   18.46
   0   1  11    7.81   16.37
   0   1  11  -51.41   39.99
  -1  -1 -11   -0.62   21.15
  -1  -1 -11    8.65   18.85
   1   1  11    1.56   17.20
   1   1  11   -2.04   16.44
  -2  -1 -11   -8.45   19.38
  -2  -1 -11    3.87   18.62
   2   1  11   -3.53   16.93
   2   1  11   -4.82   16.79
  -3  -1 -11   10.28   18.68
  -3  -1 -11  -13.16   20.08
   3   1  11   -9.66   17.24
   3   1  11   10.85   17.06
  -4  -1 -11   44.77   22.07
  -4  -1 -11   62.34   22.44
   4   1  11   -8.01   20.17
   4   1  11   -0.95   19.79
  -5  -1 -11   -7.55   22.50
  -5  -1 -11   -0.30   23.02
   5   1  11   20.89   24.04
   5   1  11    7.40   18.08
  -6  -1 -11   41.16   28.29
   6   1  11   -9.65   23.14
   6   1  11   -5.71   23.79
   4  -2 -11   15.97   26.30
   3  -2 -11  -17.25   22.74
   2  -2 -11   36.34   20.40
   2  -2 -11   66.39   27.54
  -2   2  11  -12.97   21.01
  -2   2  11   26.55   36.58
  -2   2  11    6.33   27.48
   1  -2 -11   10.03   18.99
   1  -2 -11   26.88   21.89
  -1   2  11   14.71   17.61
  -1   2  11  -44.87   35.25
  -1   2  11   25.69   22.10
   0  -2 -11    6.11   16.93
   0  -2 -11   18.53   20.61
   0   2  11   14.25   21.11
   0   2  11   28.44   15.48
  -1  -2 -11   60.07   19.80
  -1  -2 -11   15.34   22.13
   1   2  11   33.61   19.69
   1   2  11   31.63   15.62
  -2  -2 -11  -13.47   17.79
  -2  -2 -11   23.13   21.90
   2   2  11   20.71   15.55
   2   2  11   -1.13   15.39
  -3  -2 -11   14.09   18.69
  -3  -2 -11   -4.89   21.29
   3   2  11   11.78   17.41
   3   2  11    6.33   17.00
  -4  -2 -11   15.83   21.75
  -4  -2 -11    2.24   20.85
   4   2  11   -8.22   19.48
   4   2  11   26.97   20.28
  -5  -2 -11   32.83   21.05
   5   2  11  -11.95   16.32
   5   2  11   -1.92   19.33
  -6  -2 -11   20.75   22.45
  -6  -2 -11  -20.46   20.27
   6   2  11   10.04   21.67
   6   2  11   37.45   23.41
  -7  -2 -11   -3.84   32.76
   7   2  11   60.63   29.34
   4  -3 -11  -32.24   24.08
   3  -3 -11  -24.63   19.18
  -3   3  11   30.74   29.31
   2  -3 -11   37.61   23.72
   2  -3 -11   22.91   18.55
  -2   3  11    8.26   16.76
  -2   3  11   18.06   25.67
  -2   3  11   65.03   35.94
   1  -3 -11   -9.95   23.07
   1  -3 -11   22.09   16.37
  -1   3  11  -67.90   32.45
  -1   3  11   -6.41   20.23
  -1   3  11   15.09   15.99
   0  -3 -11  -17.48   20.07
   0  -3 -11   23.15   15.09
   0   3  11   51.70   16.95
   0   3  11  -47.26   35.83
   0   3  11   22.48   20.09
  -1  -3 -11   96.98   24.07
  -1  -3 -11   72.98   16.16
   1   3  11  110.02   47.08
   1   3  11   54.55   18.25
   1   3  11   55.74   15.73
  -2  -3 -11   98.20   21.14
  -2  -3 -11   82.63   23.71
   2   3  11   45.98   18.12
   2   3  11   50.89   18.86
  -3  -3 -11  106.60   24.42
  -3  -3 -11   56.71   18.98
   3   3  11   39.84   16.18
   3   3  11   78.01   20.77
  -4  -3 -11   23.59   20.98
  -4  -3 -11   -2.52   20.62
   4   3  11   14.23   18.18
   4   3  11    7.46   16.31
  -5  -3 -11    4.83   19.99
   5   3  11   14.73   20.05
   5   3  11   27.45   19.52
  -6  -3 -11   -9.31   20.50
   6   3  11   51.31   21.51
   6   3  11   12.12   19.34
  -7  -3 -11   26.77   25.57
  -7  -3 -11   -4.05   28.68
   7   3  11   -4.57   19.93
   3  -4 -11  -24.72   18.30
   3  -4 -11  -26.32   25.06
  -3   4  11   38.95   31.22
   2  -4 -11   19.57   16.24
   2  -4 -11    1.12   22.36
  -2   4  11    4.60   16.33
  -2   4  11  -42.73   32.68
  -2   4  11   11.96   22.44
   1  -4 -11    4.85   18.16
   1  -4 -11   31.48   16.12
  -1   4  11   -3.35   19.81
  -1   4  11   10.97   32.07
  -1   4  11  -15.61   15.91
   0  -4 -11  -13.62   15.02
   0  -4 -11  -15.30   20.05
   0   4  11    0.05   15.81
   0   4  11  -30.92   34.54
   0   4  11    9.46   18.59
  -1  -4 -11   52.39   15.59
  -1  -4 -11   32.21   19.07
   1   4  11   25.79   19.02
   1   4  11   61.21   38.73
   1   4  11   40.86   15.54
  -2  -4 -11   14.59   17.76
   2   4  11  -41.62   36.27
   2   4  11  -14.16   15.55
   2   4  11    6.36   17.78
  -3  -4 -11   -1.46   19.42
  -3  -4 -11   38.84   16.07
   3   4  11   24.72   18.32
   3   4  11   -8.41   16.89
  -4  -4 -11    2.54   19.46
  -4  -4 -11   18.00   18.22
   4   4  11    7.56   16.96
   4   4  11    5.62   17.05
  -5  -4 -11   11.04   18.44
  -5  -4 -11    1.06   21.05
   5   4  11  -27.41   18.56
   5   4  11   31.00   18.86
  -6  -4 -11   -7.05   19.68
  -6  -4 -11  -32.33   18.98
   6   4  11    0.86   18.86
   6   4  11   -5.26   17.63
  -7  -4 -11   43.46   23.48
  -7  -4 -11  -16.84   24.91
   7   4  11  -32.51   18.27
  -8  -4 -11  -10.90   52.12
   8   4  11  -31.84   26.52
   3  -5 -11  -28.02   23.57
   3  -5 -11    7.03   15.27
  -3   5  11   23.87   24.70
   2  -5 -11    9.57   14.49
   2  -5 -11    2.11   21.81
  -2   5  11   49.97   37.63
  -2   5  11   13.18   17.60
  -2   5  11    8.58   19.77
   1  -5 -11   23.21   13.63
   1  -5 -11    9.74   18.99
  -1   5  11   -4.90   16.98
  -1   5  11   48.74   33.77
  -1   5  11   -9.03   16.26
   0  -5 -11   29.83   14.12
   0  -5 -11    7.03   19.11
   0   5  11   19.20   33.26
   0   5  11    4.49   16.20
   0   5  11   34.98   16.69
  -1  -5 -11    1.91   17.96
  -1  -5 -11   16.23   13.65
   1   5  11   -9.30   16.95
   1   5  11   24.21   16.40
   1   5  11   13.26   32.42
  -2  -5 -11   52.14   18.70
  -2  -5 -11   16.24   13.15
   2   5  11   30.74   17.20
   2   5  11   38.87   35.06
   2   5  11    0.05   17.49
  -3  -5 -11   -4.98   14.85
  -3  -5 -11   20.30   18.52
   3   5  11   -2.25   15.39
   3   5  11   22.89   18.14
   3   5  11  -58.42   38.15
  -4  -5 -11    4.54   18.62
   4   5  11   26.04   17.86
   4   5  11    4.44   16.72
  -5  -5 -11   -9.70   19.44
  -5  -5 -11   46.00   21.81
   5   5  11   36.50   18.80
   5   5  11   22.52   19.08
  -6  -5 -11   -4.73   19.51
  -6  -5 -11  -40.91   20.20
   6   5  11  -11.11   19.12
   6   5  11    5.72   20.70
  -7  -5 -11    8.03   24.38
  -7  -5 -11   85.96   22.99
   7   5  11  -13.25   20.08
  -8  -5 -11    7.26   23.31
   8   5  11   15.97   24.87
   3  -6 -11   29.22   24.55
   2  -6 -11  -15.13   20.65
   2  -6 -11   -5.42   12.94
  -2   6  11   -4.36   20.02
  -2   6  11   65.99   37.15
  -2   6  11   11.78   15.22
   1  -6 -11    2.64   12.15
   1  -6 -11  -35.86   17.78
  -1   6  11   -6.34   15.63
  -1   6  11   25.22   17.85
  -1   6  11  -25.93   29.28
   0  -6 -11   -6.70   17.78
   0  -6 -11    6.18   11.94
   0   6  11  -12.91   29.33
   0   6  11   49.01   17.70
   0   6  11   18.78   15.47
  -1  -6 -11   19.24   16.61
  -1  -6 -11   -0.36   12.12
   1   6  11   28.74   17.48
   1   6  11   -1.56   13.49
   1   6  11  -27.40   31.10
  -2  -6 -11   74.30   15.49
  -2  -6 -11   24.30   17.50
   2   6  11   14.50   17.49
   2   6  11   18.00   36.59
   2   6  11   23.14   16.39
  -3  -6 -11   13.01   16.13
  -3  -6 -11   -0.66   13.96
   3   6  11  -31.87   38.88
   3   6  11    0.07   16.88
   3   6  11    0.27   14.70
  -4  -6 -11   43.97   18.37
   4   6  11   30.23   18.10
   4   6  11   45.96   42.24
   4   6  11   27.73   18.45
  -5  -6 -11   14.92   18.16
  -5  -6 -11   17.03   20.00
   5   6  11    9.26   18.86
   5   6  11   10.84   17.91
  -6  -6 -11   28.24   19.58
  -6  -6 -11   -1.57   22.29
   6   6  11   15.23   20.24
   6   6  11   30.96   19.44
  -7  -6 -11  -16.76   24.50
  -7  -6 -11   11.45   26.18
   7   6  11   10.34   18.88
  -8  -6 -11  -16.76   26.65
   8   6  11   -7.52   22.35
   3  -7 -11   44.26   23.27
   2  -7 -11   -5.53   20.08
  -2   7  11   37.82   14.86
   1  -7 -11  -13.40   10.49
   1  -7 -11   -5.68   17.80
  -1   7  11   -6.74   17.34
  -1   7  11   66.42   33.25
  -1   7  11    6.05   14.79
   0  -7 -11   28.49   10.37
   0  -7 -11   19.76   17.36
   0   7  11    9.69   17.01
   0   7  11   31.75   31.15
   0   7  11  -17.01   13.95
  -1  -7 -11   13.86   11.19
  -1  -7 -11   34.27   17.50
   1   7  11   21.32   16.50
   1   7  11   49.34   16.89
   1   7  11   73.39   36.62
  -2  -7 -11    8.81   11.90
  -2  -7 -11   26.81   16.95
   2   7  11   17.45   16.75
   2   7  11   19.11   16.47
   2   7  11   59.24   37.00
  -3  -7 -11   -7.92   12.37
  -3  -7 -11   27.03   17.19
   3   7  11   -6.33   17.52
   3   7  11   13.40   17.42
   3   7  11    4.27   34.01
  -4  -7 -11   21.09   16.78
   4   7  11  -25.89   39.22
   4   7  11   35.93   18.04
   4   7  11   13.44   17.61
  -5  -7 -11   60.25   18.94
  -5  -7 -11   -8.83   17.17
   5   7  11   13.20   18.59
   5   7  11  -14.49   18.83
   5   7  11  -18.46   39.72
  -6  -7 -11   18.44   17.37
  -6  -7 -11  -19.75   19.07
   6   7  11  -34.60   48.85
   6   7  11  -34.20   22.48
   6   7  11   -8.04   19.21
  -7  -7 -11  -44.94   23.63
   7   7  11   32.55   20.57
  -8  -7 -11   31.45   26.80
   8   7  11   -3.51   21.85
  -9  -7 -11   56.30   34.41
   9   7  11   -3.07   36.87
   4  -8 -11   10.20   25.84
   3  -8 -11   20.99   21.85
   2  -8 -11   57.06   19.71
  -2   8  11    8.24   14.37
   1  -8 -11   42.87   11.35
   1  -8 -11   64.94   18.20
  -1   8  11   90.45   40.33
  -1   8  11   10.66   14.88
   0  -8 -11    7.11   15.86
   0  -8 -11   12.41   10.36
   0   8  11   43.18   37.05
   0   8  11   23.96   17.05
   0   8  11   22.95   15.87
  -1  -8 -11   51.87   17.01
  -1  -8 -11   46.73   11.49
   1   8  11  117.34   41.29
   1   8  11   36.85   16.88
   1   8  11   51.03   16.62
  -2  -8 -11    1.68   15.39
  -2  -8 -11   18.82   10.95
   2   8  11   52.70   38.51
   2   8  11   12.75   14.99
   2   8  11    6.35   16.77
  -3  -8 -11   38.08   13.25
  -3  -8 -11  -30.57   14.92
   3   8  11  -16.50   14.83
   3   8  11   45.36   39.27
   3   8  11    5.83   17.36
  -4  -8 -11   32.37   15.97
   4   8  11   19.89   18.41
   4   8  11   -5.28   38.19
   4   8  11   -3.97   15.00
  -5  -8 -11   -2.61   15.05
  -5  -8 -11   22.78   17.60
   5   8  11   -3.50   16.47
   5   8  11  -24.62   19.32
   5   8  11   43.87   42.35
  -6  -8 -11  -33.27   18.77
  -6  -8 -11   54.55   19.49
   6   8  11   18.38   34.69
   6   8  11   -5.30   16.66
   6   8  11   24.42   48.52
  -7  -8 -11  -25.29   22.92
   7   8  11   26.99   22.87
   7   8  11 -112.92   50.44
  -8  -8 -11   16.13   28.75
   8   8  11   29.33   23.12
  -9  -8 -11  -49.04   31.28
   9   8  11  -14.48   24.38
  -3   9  11   12.00   18.32
   2  -9 -11   33.86   15.65
  -2   9  11   10.65   14.28
   1  -9 -11   -2.65   14.69
  -1   9  11   15.67   13.96
   0  -9 -11   -5.21   14.66
   0   9  11   21.65   14.82
   0   9  11   74.55   35.87
  -1  -9 -11    3.59    9.65
  -1  -9 -11    8.56   14.60
   1   9  11   19.64   14.96
   1   9  11   25.97   38.52
   1   9  11   24.60   15.75
  -2  -9 -11   19.75   10.59
  -2  -9 -11  -21.46   14.19
   2   9  11    1.98   17.83
   2   9  11   62.61   38.88
   2   9  11   14.02   14.54
  -3  -9 -11    3.97   14.63
  -3  -9 -11    3.12   11.75
   3   9  11   71.94   40.34
   3   9  11    8.26   14.56
   3   9  11   -6.05   17.58
  -4  -9 -11   16.95   13.12
  -4  -9 -11    0.21   15.46
   4   9  11  -24.34   18.91
   4   9  11   34.64   41.82
   4   9  11   10.03   14.89
  -5  -9 -11   19.78   17.07
  -5  -9 -11   12.38   14.75
   5   9  11   48.24   23.46
   5   9  11  -26.66   14.86
   5   9  11   19.38   46.58
  -6  -9 -11   37.90   18.68
  -6  -9 -11   27.77   19.83
   6   9  11   -0.63   48.54
   6   9  11   -3.84   19.75
  -7  -9 -11   25.26   24.42
   7   9  11  -11.89   20.77
   7   9  11   10.31   51.45
   8   9  11  -31.01   29.82
  -1  10  11  -11.50   12.68
   0 -10 -11   -2.88   11.03
   0  10  11   35.11   46.94
   0  10  11   -4.81   13.38
  -1 -10 -11   -8.58   12.69
   1  10  11   37.93   40.36
   1  10  11   19.61   16.14
  -2 -10 -11    2.15   14.30
   2  10  11   -8.50   17.54
   2  10  11   14.36   41.30
  -3 -10 -11   40.30   12.78
  -3 -10 -11   43.05   15.54
   3  10  11   -0.96   21.41
   3  10  11   98.90   47.35
  -4 -10 -11   45.17   16.59
  -4 -10 -11   -5.95   14.11
   4  10  11   26.35   26.93
   4  10  11    7.80   46.62
   4  10  11   -0.16   20.81
  -5 -10 -11  -26.40   16.50
   5  10  11   10.30   25.74
   5  10  11   17.93   50.78
   6  10  11   26.97   51.52
   0  11  11    8.19   17.07
   1  11  11   87.19   52.52
  -2 -11 -11    0.44   12.00
   2  11  11    0.49   18.25
   2  11  11   75.89   50.56
  -3 -11 -11   21.61   15.42
   3  11  11   13.09   21.37
   3  11  11   21.75   49.00
  -4 -11 -11   16.44   16.87
   4  11  11  -38.18   23.19
   4  11  11  101.28   56.26
  -5 -11 -11   24.95   18.78
   5  11  11   63.99   54.55
   2  12  11  101.07   53.15
   2  12  11   -1.39   15.97
   3  12  11   71.13   59.71
  -4 -12 -11   -2.81   16.23
   4  12  11   77.18   58.78
   4  12  11   24.29   26.98
  -5 -12 -11   -1.56   19.54
   4  13  11    3.00   45.36
   2   0 -12   43.02   33.92
   1   0 -12   86.63   28.49
   0   0 -12  -12.00   25.66
   0   0  12    6.24   26.49
  -1   0 -12  113.91   27.23
   1   0  12   30.99   24.19
  -2   0 -12   56.59   24.70
  -2   0 -12   88.37   39.00
   2   0  12    9.18   21.06
  -3   0 -12  -71.93   46.55
  -3   0 -12  -22.54   29.87
   3   0  12  -12.14   23.63
   3  -1 -12    8.97   31.06
  -3   1  12  -47.00   32.19
   2  -1 -12  -19.66   25.40
  -2   1  12  -17.10   32.01
   1  -1 -12   27.35   25.76
  -1   1  12  -33.51   23.84
   0  -1 -12    9.01   21.95
   0   1  12   35.62   25.68
  -1  -1 -12  -30.54   24.63
  -1  -1 -12   -8.56   22.69
   1   1  12   69.62   24.76
  -2  -1 -12    6.18   25.91
  -2  -1 -12   42.48   24.00
   2   1  12    6.85   20.45
   2   1  12   61.92   24.08
  -3  -1 -12   12.44   29.57
  -3  -1 -12   15.14   24.24
   3   1  12   55.66   21.25
   3   1  12   42.64   23.41
  -4  -1 -12   39.49   26.98
  -4  -1 -12  -56.43   25.79
   4   1  12    7.42   19.80
   4   1  12   22.30   38.37
   3  -2 -12   -7.48   29.20
  -3   2  12    8.10   34.54
   2  -2 -12   15.40   27.11
  -2   2  12  -12.00   25.21
   1  -2 -12  -23.27   22.61
  -1   2  12  -36.41   24.05
   0  -2 -12   -6.58   24.01
   0  -2 -12    4.89   25.34
   0   2  12   21.76   22.65
  -1  -2 -12    3.08   23.19
  -1  -2 -12  -48.31   22.90
   1   2  12    6.08   20.83
   1   2  12   -2.04   19.39
  -2  -2 -12  -13.49   23.50
  -2  -2 -12  -14.44   20.42
   2   2  12  -36.31   21.46
   2   2  12    4.11   19.46
  -3  -2 -12   40.32   22.04
  -3  -2 -12   12.58   22.51
   3   2  12  -10.99   20.41
   3   2  12   50.78   23.52
  -4  -2 -12   42.70   28.32
  -4  -2 -12  -13.52   21.56
   4   2  12    4.40   21.98
   4   2  12    0.27   22.30
  -5  -2 -12   40.87   23.79
  -5  -2 -12  -11.04   29.11
   5   2  12   15.23   22.64
   3  -3 -12  -31.51   30.10
  -3   3  12   -9.34   29.17
   2  -3 -12   -9.67   23.35
  -2   3  12   31.12   28.29
   1  -3 -12  -34.53   21.11
  -1   3  12  -15.53   22.24
   0  -3 -12   23.77   26.32
   0  -3 -12   -7.95   22.02
   0   3  12   13.21   21.03
   0   3  12    4.17   21.42
  -1  -3 -12    6.90   24.19
  -1  -3 -12  -28.33   19.42
   1   3  12   -8.95   20.16
   1   3  12    6.54   18.39
   1   3  12  -77.89   45.10
  -2  -3 -12   31.46   21.10
  -2  -3 -12   25.52   23.07
   2   3  12    5.44   19.74
   2   3  12   -5.81   19.84
  -3  -3 -12  -16.82   18.56
  -3  -3 -12   18.50   24.09
   3   3  12   18.17   20.67
   3   3  12   54.08   20.39
  -4  -3 -12   30.96   21.97
  -4  -3 -12   14.11   25.21
   4   3  12  -17.53   18.49
   4   3  12  -13.59   20.70
  -5  -3 -12   12.00   24.71
  -5  -3 -12  -33.96   21.97
   5   3  12   20.29   19.85
   5   3  12  -23.63   36.12
   6   3  12   30.10   25.29
   2  -4 -12  -29.73   20.93
  -2   4  12    2.74   26.00
   1  -4 -12  -22.78   18.37
   1  -4 -12   18.54   24.75
  -1   4  12   77.17   26.12
   0  -4 -12   -7.06   17.11
   0  -4 -12  -60.98   22.16
   0   4  12   39.47   21.38
   0   4  12   -4.68   21.88
   0   4  12  -10.88   44.61
  -1  -4 -12  -12.68   19.10
  -1  -4 -12  -16.41   20.97
   1   4  12    4.91   22.03
   1   4  12   27.87   19.92
   1   4  12   29.72   46.00
  -2  -4 -12   47.00   23.95
  -2  -4 -12   21.86   19.18
   2   4  12  -45.54   46.83
   2   4  12   56.40   23.46
   2   4  12   34.68   18.48
  -3  -4 -12   28.59   20.24
  -3  -4 -12    8.65   19.88
   3   4  12   11.74   18.03
   3   4  12   42.84   23.10
  -4  -4 -12    2.76   23.44
  -4  -4 -12   29.78   21.69
   4   4  12   38.53   23.68
   4   4  12  -34.83   20.18
  -5  -4 -12  -18.12   23.63
   5   4  12    8.79   20.83
   5   4  12  -18.91   25.57
  -6  -4 -12   18.97   26.70
   6   4  12  -49.19   23.11
  -7  -4 -12    1.49   29.42
   7   4  12   33.73   24.25
   2  -5 -12  -11.64   33.74
   1  -5 -12  -11.53   22.51
   1  -5 -12    1.66   16.89
  -1   5  12  -45.04   23.74
   0  -5 -12   -6.62   15.24
   0  -5 -12   19.74   22.31
   0   5  12   -3.27   17.87
   0   5  12    1.32   20.10
   0   5  12  -58.50   42.51
  -1  -5 -12   36.94   19.99
  -1  -5 -12  -18.19   20.51
   1   5  12   -9.46   16.07
   1   5  12   21.43   44.04
  -2  -5 -12   -7.20   17.18
  -2  -5 -12   14.67   21.24
   2   5  12  -16.78   18.94
   2   5  12    8.56   43.07
   2   5  12  -27.58   18.60
  -3  -5 -12   11.69   19.58
  -3  -5 -12   -1.90   19.66
   3   5  12    9.93   19.40
   3   5  12  -79.26   47.09
   3   5  12    0.34   18.94
  -4  -5 -12   42.34   23.59
  -4  -5 -12  -10.21   19.96
   4   5  12   -4.07   19.24
   4   5  12   -2.67   21.39
  -5  -5 -12   25.30   21.55
   5   5  12   37.53   33.91
   5   5  12   27.36   20.22
  -6  -5 -12   18.15   23.75
   6   5  12  -21.13   23.44
  -7  -5 -12  -38.25   24.77
   7   5  12   21.00   23.68
   1  -6 -12  -20.17   22.97
   1  -6 -12  -35.25   15.90
  -1   6  12   -4.91   20.41
   0  -6 -12   12.94   15.07
   0  -6 -12  -19.27   20.81
   0   6  12   24.06   20.13
   0   6  12   19.11   21.60
   0   6  12    5.64   42.39
  -1  -6 -12    1.89   20.57
  -1  -6 -12  -13.01   14.86
   1   6  12   15.25   18.76
   1   6  12  -23.93   39.38
   1   6  12   -0.14   18.92
  -2  -6 -12   48.77   21.53
  -2  -6 -12   26.26   16.93
   2   6  12   25.90   19.01
   2   6  12  -21.87   17.15
   2   6  12  -54.18   42.37
  -3  -6 -12   18.21   20.51
  -3  -6 -12   23.03   20.11
   3   6  12  -27.95   43.55
   3   6  12   25.89   18.78
  -4  -6 -12  -14.81   19.29
  -4  -6 -12    3.81   20.97
   4   6  12  -40.25   49.18
   4   6  12  -16.54   20.43
   4   6  12   30.26   22.54
  -5  -6 -12   -2.61   21.90
   5   6  12   24.82   36.92
   5   6  12   20.09   23.77
  -6  -6 -12   -9.41   24.15
   6   6  12   23.68   21.64
  -7  -6 -12  -26.95   24.55
   7   6  12   -7.98   25.65
  -8  -6 -12   29.77   34.87
   8   6  12  -36.40   23.66
   2  -7 -12   36.05   28.61
   1  -7 -12    9.33   22.41
   0  -7 -12    9.30   14.26
   0  -7 -12   -4.29   19.66
   0   7  12   60.18   46.30
   0   7  12  -17.99   18.77
   0   7  12   30.10   20.68
  -1  -7 -12   39.13   19.49
  -1  -7 -12  -31.69   14.04
   1   7  12   75.11   42.26
   1   7  12   18.84   19.58
   1   7  12  -10.98   19.86
  -2  -7 -12    8.12   14.68
  -2  -7 -12   16.14   18.60
   2   7  12   18.30   40.45
   2   7  12  -30.90   19.03
   2   7  12   26.68   19.85
  -3  -7 -12    1.60   14.45
  -3  -7 -12   -9.58   19.28
   3   7  12  -34.02   19.64
   3   7  12   30.24   20.09
   3   7  12   31.72   44.05
  -4  -7 -12   12.65   19.71
  -4  -7 -12  -10.40   18.15
   4   7  12    1.41   21.74
   4   7  12  -20.08   22.13
   4   7  12   -0.99   44.92
  -5  -7 -12   41.19   22.83
   5   7  12    7.99   19.08
   5   7  12  -63.28   51.19
  -6  -7 -12    9.88   24.96
   6   7  12  -94.42   55.58
   6   7  12    7.07   22.41
  -7  -7 -12    7.83   25.12
   7   7  12   42.81   24.62
  -8  -7 -12   35.37   34.72
   8   7  12   22.93   26.24
   2  -8 -12    7.03   23.32
   1  -8 -12   36.14   19.99
   0  -8 -12   49.51   20.15
   0   8  12    5.69   18.82
  -1  -8 -12   22.58   18.09
  -1  -8 -12    6.74   13.25
   1   8  12  -16.21   18.61
   1   8  12    7.92   21.08
   1   8  12   69.27   44.88
  -2  -8 -12    5.76   14.33
  -2  -8 -12   -3.38   17.35
   2   8  12    4.31   18.99
   2   8  12    4.20   19.74
   2   8  12   30.05   44.41
  -3  -8 -12   11.69   17.24
  -3  -8 -12   10.74   15.00
   3   8  12   17.79   46.64
   3   8  12   10.40   18.56
   3   8  12  -14.65   20.61
  -4  -8 -12   43.63   17.16
  -4  -8 -12    2.68   18.20
   4   8  12   18.86   23.90
   4   8  12   22.53   19.86
   4   8  12   58.57   48.26
  -5  -8 -12   25.94   20.40
   5   8  12   26.52   22.34
   5   8  12  -33.31   50.97
  -6  -8 -12  -39.09   21.22
   6   8  12  -31.60   57.14
   6   8  12   41.97   22.30
  -7  -8 -12   19.98   30.74
   7   8  12 -104.76   63.92
   7   8  12   43.25   23.32
   8   8  12   -5.32   28.35
   2  -9 -12   80.69   22.72
   1  -9 -12   56.72   19.34
  -1   9  12   26.38   19.63
   0  -9 -12   22.83   17.72
   0   9  12   -4.12   18.02
  -1  -9 -12   -8.90   16.97
   1   9  12   17.66   43.11
   1   9  12   46.16   19.39
  -2  -9 -12    8.48   17.19
   2   9  12   -3.62   19.83
   2   9  12   37.23   42.89
  -3  -9 -12   52.81   19.60
  -3  -9 -12   14.78   17.12
   3   9  12   20.77   42.83
   3   9  12    2.00   21.02
  -4  -9 -12  -15.24   17.19
  -4  -9 -12    4.56   17.65
   4   9  12   -2.96   34.43
   4   9  12  128.72   52.74
   4   9  12  -16.55   19.30
  -5  -9 -12   14.38   25.20
   5   9  12  -19.96   52.55
   5   9  12    7.51   23.80
   6   9  12  -42.13   60.36
   7   9  12   -6.79   85.42
  -1  10  12    1.96   17.17
   0 -10 -12    4.75   15.25
   0  10  12    6.45   16.52
  -1 -10 -12   20.71   16.10
   1  10  12   11.41   19.50
  -2 -10 -12    0.37   16.14
   2  10  12   29.54   21.99
   2  10  12   58.13   47.98
  -3 -10 -12   10.41   17.57
   3  10  12   25.43   52.72
   3  10  12   43.15   25.52
  -4 -10 -12    6.53   17.95
   4  10  12   61.50   53.46
   5  10  12  116.51   58.37
   6  10  12   17.42   59.05
   1  11  12    7.86   17.62
  -2 -11 -12  -25.95   14.61
   2  11  12   -6.68   21.68
   2  11  12   86.24   60.75
  -3 -11 -12   17.70   17.24
   3  11  12  -63.12   28.17
   3  11  12   91.19   56.76
  -4 -11 -12   44.44   18.56
   4  11  12    0.51   58.86
   5  11  12  101.31   63.59
   3  12  12  118.32   70.00
  -4 -12 -12  -28.03   19.07
   0  -1 -13  -26.50   31.76
   0   1  13   10.33   30.86
  -1  -1 -13  -47.36   34.64
   1   1  13   29.05   33.06
   2  -2 -13  -47.53   32.97
  -2   2  13   26.97   31.86
   1  -2 -13   12.69   29.79
  -1   2  13  -29.09   26.92
   0  -2 -13   -8.13   27.65
   0   2  13   -5.97   26.70
  -1  -2 -13  -40.77   28.43
   1   2  13  -17.31   24.21
  -2  -2 -13   60.11   27.82
   2   2  13   10.38   24.38
  -3  -2 -13   14.89   25.73
   3   2  13    3.83   25.02
   4   2  13  -11.52   25.81
   1  -3 -13  -21.33   27.85
  -1   3  13   33.59   30.14
   0  -3 -13    9.52   26.16
   0   3  13   40.42   25.02
  -1  -3 -13   31.53   23.98
   1   3  13  -14.30   26.08
  -2  -3 -13   34.42   27.64
   2   3  13   61.82   25.37
  -3  -3 -13   74.07   26.78
   3   3  13   15.65   26.36
  -4  -3 -13   10.28   27.40
   4   3  13    5.34   23.65
  -5  -3 -13  -46.63   31.28
   5   3  13  -56.90   26.71
   1  -4 -13    0.75   27.48
  -1   4  13  -16.34   28.79
   0  -4 -13   12.31   24.25
   0   4  13   -0.85   24.49
  -1  -4 -13  -29.12   23.55
   1   4  13   41.31   23.83
  -2  -4 -13  -36.27   24.14
   2   4  13  -52.00   23.49
  -3  -4 -13   13.73   24.01
   3   4  13   51.07   27.60
  -4  -4 -13  -14.28   28.01
   4   4  13    4.23   25.94
  -5  -4 -13  -43.35   27.82
   5   4  13   27.20   24.92
  -6  -4 -13    7.80   32.63
   6   4  13   20.21   31.51
   0  -5 -13    4.63   22.13
   0   5  13    5.33   25.03
  -1  -5 -13  -16.18   22.66
   1   5  13   -4.88   23.04
  -2  -5 -13   -6.73   22.95
   2   5  13   -5.23   24.60
  -3  -5 -13   -1.44   25.40
   3   5  13   30.54   24.24
   3   5  13 -110.99   87.32
  -4  -5 -13  -21.76   27.47
   4   5  13  -81.21   65.77
   4   5  13   32.27   26.71
  -5  -5 -13  -20.51   27.99
   5   5  13   -7.26   22.56
   6   5  13    8.42   26.28
  -1  -6 -13   -2.22   38.74
   1   6  13   13.62   24.65
  -2  -6 -13   69.85   20.70
   2   6  13   28.93   24.04
  -3  -6 -13   43.68   23.84
   3   6  13   13.84   25.69
   3   6  13   -1.86   63.38
  -4  -6 -13    1.98   25.10
   4   6  13   34.82   23.56
   4   6  13 -116.69   64.29
  -5  -6 -13   20.74   28.82
   5   6  13   -4.99   26.47
   6   6  13   11.33   27.10
  -7  -6 -13  -26.28   31.44
   7   6  13    5.77   26.76
  -2  -7 -13  -33.50   18.63
   2   7  13   16.35   24.71
  -3  -7 -13  -22.44   36.50
   3   7  13   26.50   24.67
   3   7  13  -63.27   54.83
  -4  -7 -13   11.91   23.64
   4   7  13   10.24   23.31
   4   7  13  -33.30   61.22
  -5  -7 -13  -18.16   26.12
   5   7  13    3.44   25.78
   6   7  13   -0.23   26.39
  -7  -7 -13    8.30   34.44
   7   7  13   24.71   28.65
   3   8  13   59.89   63.49
   4   8  13   15.05   57.34
   5   8  13   -4.14   60.44
   6   8  13  -23.51   66.89
   0  -9 -13   -8.61   28.27
  -1  -9 -13   22.46   22.77
  -2  -9 -13   30.96   25.17
   3   9  13   24.66   60.89
   4   9  13   86.28   58.80
   5   9  13  -84.44   61.93
   6   9  13 -102.42   67.39
  -1 -10 -13  -25.34   19.86
  -2 -10 -13  -40.01   19.57
   4  10  13  121.31   66.20
   5  10  13  127.13   66.67
  -2 -11 -13    8.87   25.88
   4  11  13  133.26   77.24
   0   3  14  -27.72   32.12
  -1  -3 -14   -0.41   31.45
   1   3  14  -68.00   30.66
  -2  -3 -14  -39.87   29.50
   2   3  14   46.90   29.87
  -3  -3 -14  -82.30   59.66
  -1  -4 -14   36.07   28.46
   1   4  14   35.20   31.85
  -2  -4 -14  -21.07   30.75
   2   4  14   -4.64   29.58
  -3  -4 -14    8.63   30.80
   3   4  14   67.12   32.21
  -4  -4 -14    9.53   36.32
   4   4  14   39.65   31.95
  -2  -5 -14   32.49   30.95
   2   5  14  -51.98   27.04
  -3  -5 -14  -65.24   30.39
   3   5  14   27.71   27.66
  -4  -5 -14   81.62   33.82
   4   5  14    1.02   29.09
  -5  -5 -14   83.98   38.67
   5   5  14    4.42   28.89
   3   6  14  -22.35   34.43
  -4  -6 -14  -41.17   36.39
   4   6  14   38.76   30.68
  -5  -6 -14   18.99   41.07
   5   6  14   72.56   33.73
  -6  -6 -14  -41.76   62.49
   6   6  14  -45.37   32.45
   0   0   0    0.00    0.00


 _exptl_absorpt_process_details 'SADABS 2014/5'
 _exptl_absorpt_correction_type   multi-scan
 _exptl_absorpt_correction_T_max  0.7459
 _exptl_absorpt_correction_T_min  0.5178
 _exptl_special_details
)
 The following wavelength and cell were deduced by SADABS from the
 direction cosines etc. They are given here for emergency use only:
 CELL 0.71027    8.315   10.493   10.634   66.789   75.515   76.520
)

_computing_structure_solution     'SHELXT 2014/5 (Sheldrick, 2014)'
;
_shelx_hkl_checksum              97928
loop_
_space_group_symop_operation_xyz
'x, y, z'
'-x, -y, -z'
loop_
_atom_site_label
_atom_site_type_symbol
_atom_site_fract_x
_atom_site_fract_y
_atom_site_fract_z
_atom_site_U_iso_or_equiv
_atom_site_adp_type
_atom_site_occupancy
_atom_site_site_symmetry_order
_atom_site_calc_flag
_atom_site_refinement_flags_posn
_atom_site_refinement_flags_adp
_atom_site_refinement_flags_occupancy
_atom_site_disorder_assembly
_atom_site_disorder_group
C1 C 0.4068(7) 0.6261(5) 0.8523(5) 0.0526(13) Uani 1 1 d . . . . .
C2 C 0.2435(8) 0.5984(5) 0.8939(6) 0.0720(16) Uani 1 1 d . . . . .
H2 H 0.212218 0.539114 0.862131 0.086 Uiso 1 1 calc R U . . .
C3 C 0.1277(8) 0.6552(7) 0.9796(7) 0.0841(18) Uani 1 1 d . . . . .
H3 H 0.018891 0.635870 1.005578 0.101 Uiso 1 1 calc R U . . .
C4 C 0.1760(8) 0.7417(7) 1.0265(6) 0.0795(18) Uani 1 1 d . . . . .
H4 H 0.097894 0.781524 1.084695 0.095 Uiso 1 1 calc R U . . .
C5 C 0.3384(7) 0.7718(5) 0.9898(5) 0.0601(14) Uani 1 1 d . . . . .
H5 H 0.368644 0.829744 1.023822 0.072 Uiso 1 1 calc R U . . .
C6 C 0.4536(6) 0.7142(5) 0.9020(5) 0.0485(12) Uani 1 1 d . . . . .
C7 C 0.6762(7) 0.8095(6) 0.9182(6) 0.0615(14) Uani 1 1 d . . . . .
C8 C 0.5352(6) 0.6663(5) 0.5765(5) 0.0464(12) Uani 1 1 d . . . . .
C9 C 0.4306(6) 0.7935(5) 0.5498(6) 0.0632(15) Uani 1 1 d . . . . .
H9 H 0.366080 0.818644 0.623315 0.076 Uiso 1 1 calc R U . . .
C10 C 0.4204(7) 0.8825(6) 0.4177(6) 0.0751(17) Uani 1 1 d . . . . .
H10 H 0.349474 0.967422 0.401905 0.090 Uiso 1 1 calc R U . . .
C11 C 0.5147(8) 0.8469(6) 0.3079(6) 0.0803(18) Uani 1 1 d . . . . .
H11 H 0.506681 0.907330 0.217936 0.096 Uiso 1 1 calc R U . . .
C12 C 0.6197(7) 0.7235(6) 0.3308(5) 0.0704(16) Uani 1 1 d . . . . .
H12 H 0.684307 0.700970 0.255904 0.085 Uiso 1 1 calc R U . . .
C13 C 0.6322(6) 0.6302(5) 0.4644(5) 0.0506(13) Uani 1 1 d . . . . .
C14 C 0.7484(6) 0.4976(5) 0.4881(5) 0.0551(13) Uani 1 1 d . . . . .
H14 H 0.729672 0.427687 0.574334 0.066 Uiso 1 1 calc R U . . .
C15 C 0.8771(6) 0.4694(6) 0.3971(6) 0.0666(15) Uani 1 1 d . . . . .
H15 H 0.898727 0.540368 0.312035 0.080 Uiso 1 1 calc R U . . .
C16 C 0.9884(6) 0.3353(7) 0.4196(7) 0.0690(16) Uani 1 1 d . . . . .
C17 C 1.0831(7) 0.1176(6) 0.5786(8) 0.094(2) Uani 1 1 d D U . . .
H17A H 1.061074 0.067063 0.527588 0.113 Uiso 1 1 calc R U . . .
H17B H 1.199410 0.130492 0.550113 0.113 Uiso 1 1 calc R U . . .
C18 C 1.0492(11) 0.0409(8) 0.7233(9) 0.158(4) Uani 1 1 d D U . . .
H18A H 0.933213 0.030782 0.750992 0.238 Uiso 1 1 calc R U . . .
H18B H 1.075231 0.089958 0.772773 0.238 Uiso 1 1 calc R U . . .
H18C H 1.116294 -0.049719 0.743611 0.238 Uiso 1 1 calc R U . . .
N1 N 0.6184(6) 0.7413(5) 0.8630(4) 0.0595(12) Uani 1 1 d D . . . .
H1N H 0.697(4) 0.721(5) 0.800(4) 0.064(15) Uiso 1 1 d D . . . .
N2 N 0.7216(7) 0.8671(6) 0.9693(6) 0.0954(18) Uani 1 1 d . . . . .
O1 O 0.9760(4) 0.2522(4) 0.5505(5) 0.0735(11) Uani 1 1 d . . . . .
O2 O 1.0835(5) 0.3033(5) 0.3280(5) 0.1053(16) Uani 1 1 d . . . . .
S1 S 0.55325(19) 0.54521(13) 0.74545(14) 0.0651(5) Uani 1 1 d . . . . .
loop_
_atom_site_aniso_label
_atom_site_aniso_U_11
_atom_site_aniso_U_22
_atom_site_aniso_U_33
_atom_site_aniso_U_23
_atom_site_aniso_U_13
_atom_site_aniso_U_12
C1 0.060(4) 0.048(3) 0.038(3) -0.009(2) -0.010(3) 0.003(3)
C2 0.078(5) 0.062(4) 0.071(4) -0.016(3) -0.019(4) -0.010(3)
C3 0.064(4) 0.094(5) 0.082(5) -0.025(4) -0.004(4) -0.012(4)
C4 0.059(4) 0.093(5) 0.063(4) -0.026(4) 0.012(3) 0.004(3)
C5 0.068(4) 0.062(3) 0.044(3) -0.024(3) -0.002(3) 0.002(3)
C6 0.051(3) 0.049(3) 0.034(3) -0.009(2) -0.004(2) 0.000(2)
C7 0.056(4) 0.071(4) 0.052(4) -0.022(3) 0.003(3) -0.010(3)
C8 0.056(3) 0.047(3) 0.038(3) -0.015(2) -0.010(2) -0.009(2)
C9 0.074(4) 0.054(3) 0.054(4) -0.020(3) -0.015(3) 0.010(3)
C10 0.097(5) 0.055(3) 0.056(4) -0.010(3) -0.024(3) 0.012(3)
C11 0.117(5) 0.063(4) 0.048(4) -0.008(3) -0.025(4) 0.000(4)
C12 0.093(4) 0.073(4) 0.038(3) -0.017(3) 0.001(3) -0.015(3)
C13 0.055(3) 0.047(3) 0.056(4) -0.026(3) -0.003(3) -0.012(2)
C14 0.056(3) 0.058(3) 0.056(3) -0.029(3) 0.000(3) -0.014(3)
C15 0.064(4) 0.074(4) 0.060(4) -0.028(3) 0.001(3) -0.014(3)
C16 0.041(3) 0.094(5) 0.091(5) -0.060(4) -0.005(3) -0.005(3)
C17 0.076(4) 0.071(4) 0.144(7) -0.065(5) -0.006(4) 0.006(4)
C18 0.166(8) 0.077(5) 0.148(8) -0.011(5) 0.034(7) 0.018(5)
N1 0.056(3) 0.074(3) 0.046(3) -0.031(2) 0.007(2) -0.007(2)
N2 0.081(4) 0.124(5) 0.095(4) -0.058(4) 0.001(3) -0.026(3)
O1 0.068(3) 0.066(2) 0.087(3) -0.044(2) 0.000(2) 0.0043(19)
O2 0.072(3) 0.152(4) 0.104(4) -0.089(3) 0.015(3) 0.004(3)
S1 0.0920(11) 0.0497(8) 0.0451(8) -0.0198(6) -0.0147(7) 0.0127(7)
loop_
_atom_type_symbol
_atom_type_description
_atom_type_scat_dispersion_real
_atom_type_scat_dispersion_imag
_atom_type_scat_source
C C 0.0033 0.0016 'International Tables Vol C Tables 4.2.6.8 and 6.1.1.4'
H H 0.0000 0.0000 'International Tables Vol C Tables 4.2.6.8 and 6.1.1.4'
N N 0.0061 0.0033 'International Tables Vol C Tables 4.2.6.8 and 6.1.1.4'
O O 0.0106 0.0060 'International Tables Vol C Tables 4.2.6.8 and 6.1.1.4'
S S 0.1246 0.1234 'International Tables Vol C Tables 4.2.6.8 and 6.1.1.4'
loop_
_geom_angle_atom_site_label_1
_geom_angle_atom_site_label_2
_geom_angle_atom_site_label_3
_geom_angle
_geom_angle_site_symmetry_1
_geom_angle_site_symmetry_3
_geom_angle_publ_flag
C2 C1 C6 118.5(4) . . ?
C2 C1 S1 120.3(4) . . ?
C6 C1 S1 121.1(4) . . ?
C3 C2 C1 122.3(6) . . ?
C3 C2 H2 118.8 . . ?
C1 C2 H2 118.8 . . ?
C2 C3 C4 118.2(6) . . ?
C2 C3 H3 120.9 . . ?
C4 C3 H3 120.9 . . ?
C3 C4 C5 122.0(5) . . ?
C3 C4 H4 119.0 . . ?
C5 C4 H4 119.0 . . ?
C6 C5 C4 119.0(5) . . ?
C6 C5 H5 120.5 . . ?
C4 C5 H5 120.5 . . ?
C5 C6 N1 120.8(5) . . ?
C5 C6 C1 120.0(5) . . ?
N1 C6 C1 119.2(4) . . ?
N2 C7 N1 177.7(6) . . ?
C9 C8 C13 118.6(4) . . ?
C9 C8 S1 123.6(4) . . ?
C13 C8 S1 117.8(3) . . ?
C10 C9 C8 121.2(5) . . ?
C10 C9 H9 119.4 . . ?
C8 C9 H9 119.4 . . ?
C9 C10 C11 120.2(5) . . ?
C9 C10 H10 119.9 . . ?
C11 C10 H10 119.9 . . ?
C12 C11 C10 120.0(5) . . ?
C12 C11 H11 120.0 . . ?
C10 C11 H11 120.0 . . ?
C11 C12 C13 121.2(5) . . ?
C11 C12 H12 119.4 . . ?
C13 C12 H12 119.4 . . ?
C12 C13 C8 118.8(4) . . ?
C12 C13 C14 120.7(4) . . ?
C8 C13 C14 120.4(5) . . ?
C15 C14 C13 125.6(5) . . ?
C15 C14 H14 117.2 . . ?
C13 C14 H14 117.2 . . ?
C14 C15 C16 125.2(6) . . ?
C14 C15 H15 117.4 . . ?
C16 C15 H15 117.4 . . ?
O2 C16 O1 122.6(6) . . ?
O2 C16 C15 123.6(7) . . ?
O1 C16 C15 113.7(5) . . ?
C18 C17 O1 108.2(5) . . ?
C18 C17 H17A 110.1 . . ?
O1 C17 H17A 110.1 . . ?
C18 C17 H17B 110.1 . . ?
O1 C17 H17B 110.1 . . ?
H17A C17 H17B 108.4 . . ?
C17 C18 H18A 109.5 . . ?
C17 C18 H18B 109.5 . . ?
H18A C18 H18B 109.5 . . ?
C17 C18 H18C 109.5 . . ?
H18A C18 H18C 109.5 . . ?
H18B C18 H18C 109.5 . . ?
C7 N1 C6 122.5(4) . . ?
C7 N1 H1N 109(3) . . ?
C6 N1 H1N 129(3) . . ?
C16 O1 C17 116.0(5) . . ?
C1 S1 C8 103.1(2) . . ?
loop_
_geom_bond_atom_site_label_1
_geom_bond_atom_site_label_2
_geom_bond_distance
_geom_bond_site_symmetry_2
_geom_bond_publ_flag
C1 C2 1.390(7) . ?
C1 C6 1.402(7) . ?
C1 S1 1.764(5) . ?
C2 C3 1.362(7) . ?
C2 H2 0.9300 . ?
C3 C4 1.373(8) . ?
C3 H3 0.9300 . ?
C4 C5 1.393(8) . ?
C4 H4 0.9300 . ?
C5 C6 1.379(6) . ?
C5 H5 0.9300 . ?
C6 N1 1.401(6) . ?
C7 N2 1.134(7) . ?
C7 N1 1.319(7) . ?
C8 C9 1.386(6) . ?
C8 C13 1.404(6) . ?
C8 S1 1.773(5) . ?
C9 C10 1.365(7) . ?
C9 H9 0.9300 . ?
C10 C11 1.374(7) . ?
C10 H10 0.9300 . ?
C11 C12 1.359(7) . ?
C11 H11 0.9300 . ?
C12 C13 1.392(7) . ?
C12 H12 0.9300 . ?
C13 C14 1.474(6) . ?
C14 C15 1.323(6) . ?
C14 H14 0.9300 . ?
C15 C16 1.468(8) . ?
C15 H15 0.9300 . ?
C16 O2 1.205(6) . ?
C16 O1 1.320(7) . ?
C17 C18 1.425(8) . ?
C17 O1 1.453(6) . ?
C17 H17A 0.9700 . ?
C17 H17B 0.9700 . ?
C18 H18A 0.9600 . ?
C18 H18B 0.9600 . ?
C18 H18C 0.9600 . ?
N1 H1N 0.871(19) . ?
loop_
_geom_torsion_atom_site_label_1
_geom_torsion_atom_site_label_2
_geom_torsion_atom_site_label_3
_geom_torsion_atom_site_label_4
_geom_torsion
_geom_torsion_site_symmetry_1
_geom_torsion_site_symmetry_2
_geom_torsion_site_symmetry_3
_geom_torsion_site_symmetry_4
_geom_torsion_publ_flag
C6 C1 C2 C3 0.8(8) . . . . ?
S1 C1 C2 C3 178.0(4) . . . . ?
C1 C2 C3 C4 -0.5(9) . . . . ?
C2 C3 C4 C5 -0.3(9) . . . . ?
C3 C4 C5 C6 0.9(8) . . . . ?
C4 C5 C6 N1 -179.7(5) . . . . ?
C4 C5 C6 C1 -0.5(7) . . . . ?
C2 C1 C6 C5 -0.3(7) . . . . ?
S1 C1 C6 C5 -177.5(4) . . . . ?
C2 C1 C6 N1 178.9(4) . . . . ?
S1 C1 C6 N1 1.7(6) . . . . ?
C13 C8 C9 C10 0.3(8) . . . . ?
S1 C8 C9 C10 -179.5(4) . . . . ?
C8 C9 C10 C11 0.0(9) . . . . ?
C9 C10 C11 C12 -0.7(9) . . . . ?
C10 C11 C12 C13 1.0(9) . . . . ?
C11 C12 C13 C8 -0.7(8) . . . . ?
C11 C12 C13 C14 -179.1(5) . . . . ?
C9 C8 C13 C12 0.0(7) . . . . ?
S1 C8 C13 C12 179.8(4) . . . . ?
C9 C8 C13 C14 178.4(4) . . . . ?
S1 C8 C13 C14 -1.8(6) . . . . ?
C12 C13 C14 C15 18.7(8) . . . . ?
C8 C13 C14 C15 -159.7(5) . . . . ?
C13 C14 C15 C16 -177.5(5) . . . . ?
C14 C15 C16 O2 165.2(5) . . . . ?
C14 C15 C16 O1 -15.3(8) . . . . ?
C5 C6 N1 C7 7.3(7) . . . . ?
C1 C6 N1 C7 -171.8(5) . . . . ?
O2 C16 O1 C17 -0.7(8) . . . . ?
C15 C16 O1 C17 179.7(4) . . . . ?
C18 C17 O1 C16 -178.1(6) . . . . ?
C2 C1 S1 C8 91.5(4) . . . . ?
C6 C1 S1 C8 -91.3(4) . . . . ?
C9 C8 S1 C1 2.4(5) . . . . ?
C13 C8 S1 C1 -177.4(4) . . . . ?
