#------------------------------------------------------------------------------
#$Date: 2020-05-17 02:28:52 +0300 (Sun, 17 May 2020) $
#$Revision: 252116 $
#$URL: file:///home/coder/svn-repositories/cod/cif/4/03/83/4038372.cif $
#------------------------------------------------------------------------------
#
# This file is available in the Crystallography Open Database (COD),
# http://www.crystallography.net/
#
# All data on this site have been placed in the public domain by the
# contributors.
#
data_4038372
loop_
_publ_author_name
'Schoemaker, Robin'
'Schwedtmann, Kai'
'Hennersdorf, Felix'
'Bauz\'a, Antonio'
'Frontera, Antonio'
'Weigand, Jan J.'
_publ_section_title
;
 Toward N,P-Doped \p-Extended PAHs: A One-Pot Synthesis to Diannulated
 1,4,2-Diazaphospholium Triflate Salts.
;
_journal_name_full               'The Journal of organic chemistry'
_journal_paper_doi               10.1021/acs.joc.0c00577
_journal_year                    2020
_chemical_formula_moiety         'C7 H4 Cl2 N P S'
_chemical_formula_sum            'C7 H4 Cl2 N P S'
_chemical_formula_weight         236.04
_space_group_crystal_system      triclinic
_space_group_IT_number           2
_space_group_name_Hall           '-P 1'
_space_group_name_H-M_alt        'P -1'
_atom_sites_solution_hydrogens   difmap
_audit_creation_date             2017-02-07
_audit_creation_method
;
Olex2 1.2
(compiled 2015.09.30 svn.r3233 for OlexSys, GUI svn.r5103)
;
_cell_angle_alpha                91.2912(19)
_cell_angle_beta                 107.150(2)
_cell_angle_gamma                108.239(2)
_cell_formula_units_Z            2
_cell_length_a                   6.71538(17)
_cell_length_b                   6.98592(18)
_cell_length_c                   10.6276(2)
_cell_measurement_reflns_used    2960
_cell_measurement_temperature    100.01(10)
_cell_measurement_theta_max      76.3340
_cell_measurement_theta_min      4.3590
_cell_volume                     448.83(2)
_computing_cell_refinement       'CrysAlisPro 1.171.38.43 (Rigaku OD, 2015)'
_computing_data_collection       'CrysAlisPro 1.171.38.43 (Rigaku OD, 2015)'
_computing_data_reduction        'CrysAlisPro 1.171.38.43 (Rigaku OD, 2015)'
_computing_molecular_graphics    'Olex2 (Dolomanov et al., 2009)'
_computing_publication_material  'Olex2 (Dolomanov et al., 2009)'
_computing_structure_refinement  'ShelXL (Sheldrick, 2015)'
_computing_structure_solution    'ShelXT (Sheldrick, 2015)'
_diffrn_ambient_environment      N~2~
_diffrn_ambient_temperature      100.01(10)
_diffrn_detector                 'CCD plate'
_diffrn_detector_area_resol_mean 5.2850
_diffrn_detector_type            AtlasS2
_diffrn_measured_fraction_theta_full 0.999
_diffrn_measured_fraction_theta_max 0.981
_diffrn_measurement_details
;
List of Runs (angles in degrees, time in seconds):

  # Type    Start    End  Width  t~exp~   \w     \q     \k     \f   Frames
--------------------------------------------------------------------------
  1  \w    -58.00  28.00   0.50    0.50    --  -38.50  57.00   0.00  172
  2  \w    -29.00  -2.00   0.50    0.50    --  -38.50 125.00-150.00   54
  3  \w    -68.00 -35.00   0.50    0.50    --  -38.50 125.00-150.00   66
  4  \w     16.00 113.00   0.50    0.50    --   42.50  57.00-150.00  194
  5  \w    141.00 176.00   0.50    2.00    --  111.00  61.00-180.00   70
  6  \w    113.00 171.00   0.50    2.00    --  111.00  15.00-180.00  116
  7  \w    104.00 133.00   0.50    2.00    --  111.00 -77.00-150.00   58
  8  \w    101.00 133.00   0.50    2.00    --  111.00 -45.00-150.00   64
  9  \w     89.00 177.00   0.50    2.00    --  111.00  30.00-120.00  176
 10  \w     85.00 112.00   0.50    2.00    --  111.00  61.00-180.00   54
 11  \w     66.00  92.00   0.50    2.00    --  111.00  15.00-180.00   52
 12  \w     41.00 100.00   0.50    2.00    --  111.00 -45.00-150.00  118
 13  \w     79.00 106.00   0.50    2.00    --  111.00 -94.00-180.00   54
 14  \w     84.00 111.00   0.50    2.00    --  111.00-125.00-180.00   54
 15  \w     53.00  81.00   0.50    2.00    --  111.00 -77.00-150.00   56
 16  \w     41.00  66.00   0.50    2.00    --  111.00-125.00-180.00   50
 17  \w     39.00  78.00   0.50    2.00    --  111.00 -77.00-180.00   78
 18  \w     47.00 121.00   0.50    2.00    --  111.00-125.00 -60.00  148
 19  \w     43.00 139.00   0.50    2.00    --  111.00 -61.00  30.00  192
 20  \w    153.00 178.00   0.50    2.00    --  111.00  15.00 120.00   50
 21  \w    140.00 172.00   0.50    2.00    --  111.00  45.00  90.00   64
 22  \w    109.00 136.00   0.50    2.00    --  111.00  45.00  90.00   54
 23  \w     76.00 101.00   0.50    2.00    --  111.00  15.00 120.00   50
 24  \w     32.00 105.00   0.50    2.00    --  111.00 -94.00  30.00  146
 25  \w     46.00 102.00   0.50    2.00    --  111.00-125.00  30.00  112
 26  \w    -60.00  33.00   0.50    0.50    --  -38.50  77.00  90.00  186
;
_diffrn_measurement_device       'four-circle diffractometer'
_diffrn_measurement_device_type  'SuperNova, Dual, Cu at zero, AtlasS2'
_diffrn_measurement_method       '\w scans'
_diffrn_orient_matrix_type
'CrysAlisPro convention (1999,Acta A55,543-557)'
_diffrn_orient_matrix_UB_11      -0.0114612000
_diffrn_orient_matrix_UB_12      -0.0805301000
_diffrn_orient_matrix_UB_13      -0.1390097000
_diffrn_orient_matrix_UB_21      -0.1743750000
_diffrn_orient_matrix_UB_22      0.0993140000
_diffrn_orient_matrix_UB_23      -0.0637334000
_diffrn_orient_matrix_UB_31      0.1853860000
_diffrn_orient_matrix_UB_32      0.1960624000
_diffrn_orient_matrix_UB_33      -0.0017118000
_diffrn_radiation_monochromator  mirror
_diffrn_radiation_probe          x-ray
_diffrn_radiation_type           CuK\a
_diffrn_radiation_wavelength     1.54184
_diffrn_reflns_av_R_equivalents  0.0156
_diffrn_reflns_av_unetI/netI     0.0210
_diffrn_reflns_Laue_measured_fraction_full 0.999
_diffrn_reflns_Laue_measured_fraction_max 0.981
_diffrn_reflns_limit_h_max       8
_diffrn_reflns_limit_h_min       -7
_diffrn_reflns_limit_k_max       8
_diffrn_reflns_limit_k_min       -8
_diffrn_reflns_limit_l_max       12
_diffrn_reflns_limit_l_min       -13
_diffrn_reflns_number            3556
_diffrn_reflns_point_group_measured_fraction_full 0.999
_diffrn_reflns_point_group_measured_fraction_max 0.981
_diffrn_reflns_theta_full        67.684
_diffrn_reflns_theta_max         76.555
_diffrn_reflns_theta_min         4.389
_diffrn_source                   'micro-focus sealed X-ray tube'
_diffrn_source_type              'SuperNova (Cu) X-ray Source'
_exptl_absorpt_coefficient_mu    9.863
_exptl_absorpt_correction_T_max  1.00000
_exptl_absorpt_correction_T_min  0.52383
_exptl_absorpt_correction_type   multi-scan
_exptl_absorpt_process_details
;
CrysAlisPro 1.171.38.43 (Rigaku Oxford Diffraction, 2015)
Empirical absorption correction using spherical harmonics,
 implemented in SCALE3 ABSPACK scaling algorithm.
;
_exptl_crystal_colour            colourless
_exptl_crystal_colour_primary    colourless
_exptl_crystal_density_diffrn    1.747
_exptl_crystal_description       block
_exptl_crystal_F_000             236
_exptl_crystal_size_max          0.204
_exptl_crystal_size_mid          0.111
_exptl_crystal_size_min          0.058
_refine_diff_density_max         0.247
_refine_diff_density_min         -0.404
_refine_diff_density_rms         0.080
_refine_ls_extinction_method     none
_refine_ls_goodness_of_fit_ref   1.074
_refine_ls_hydrogen_treatment    refall
_refine_ls_matrix_type           full
_refine_ls_number_parameters     125
_refine_ls_number_reflns         1850
_refine_ls_number_restraints     0
_refine_ls_restrained_S_all      1.074
_refine_ls_R_factor_all          0.0229
_refine_ls_R_factor_gt           0.0223
_refine_ls_shift/su_max          0.000
_refine_ls_shift/su_mean         0.000
_refine_ls_structure_factor_coef Fsqd
_refine_ls_weighting_details
'w=1/[\s^2^(Fo^2^)+(0.0375P)^2^+0.1374P] where P=(Fo^2^+2Fc^2^)/3'
_refine_ls_weighting_scheme      calc
_refine_ls_wR_factor_gt          0.0608
_refine_ls_wR_factor_ref         0.0612
_reflns_Friedel_coverage         0.000
_reflns_number_gt                1796
_reflns_number_total             1850
_reflns_threshold_expression     'I > 2\s(I)'
_cod_data_source_file            jo0c00577_si_010.cif
_cod_data_source_block           jjw0611
_cod_database_code               4038372
_chemical_oxdiff_formula         'C14 H8 Cl4 N2 P2 S2 '
_shelx_space_group_comment
;
The symmetry employed for this shelxl refinement is uniquely defined
by the following loop, which should always be used as a source of
symmetry information in preference to the above space-group names.
They are only intended as comments.
;
_reflns_odcompleteness_completeness 99.88
_reflns_odcompleteness_iscentric 1
_reflns_odcompleteness_theta     66.97
_olex2_refinement_description
;
;
_shelx_res_file
;
    jjw0611.res created by SHELXL-2014/7

TITL jjw0611_a.res in P-1
REM Old TITL jjw0611 in P-1 #2
REM SHELXT solution in P-1
REM R1 0.054, Rweak 0.005, Alpha 0.034, Orientation as input
REM Formula found by SHELXT: C7 N P S Cl2
CELL 1.54184 6.715385 6.985925 10.627599 91.2912 107.1503 108.2389
ZERR 2 0.000168 0.000181 0.000199 0.0019 0.0021 0.0023
LATT 1
SFAC C H Cl N P S
UNIT 14 8 4 2 2 2

L.S. 10
PLAN  20
BOND $H
LIST 6
fmap 2
MORE -1
CONF
ACTA
REM <olex2.extras>
REM <HklSrc "%.\\jjw0611.hkl">
REM </olex2.extras>

WGHT    0.037500    0.137400
FVAR       0.91988
CL1   3    0.740261    0.929757    0.037580    11.00000    0.02054    0.02169 =
         0.01635    0.00694    0.00534    0.00839
CL2   3    0.777548    0.493499    0.074568    11.00000    0.02315    0.02063 =
         0.01714    0.00024    0.00594    0.00976
S1    6    0.577743    0.812181    0.293601    11.00000    0.01427    0.01885 =
         0.01320    0.00326    0.00352    0.00791
P1    5    0.939313    0.792260    0.160833    11.00000    0.01393    0.02020 =
         0.01391    0.00369    0.00510    0.00597
N1    4    0.945480    0.745553    0.410626    11.00000    0.01536    0.01473 =
         0.01555    0.00087    0.00407    0.00529
C1    1    0.827089    0.780686    0.298251    11.00000    0.01437    0.01459 =
         0.01492    0.00150    0.00481    0.00495
C2    1    0.632836    0.770963    0.458448    11.00000    0.01621    0.01232 =
         0.01328    0.00079    0.00308    0.00439
C3    1    0.837586    0.738109    0.504451    11.00000    0.01471    0.01124 =
         0.01527    0.00006    0.00429    0.00368
C4    1    0.917561    0.701792    0.635869    11.00000    0.01648    0.01559 =
         0.01536    0.00089    0.00234    0.00576
H4    2    1.057977    0.678320    0.666953    11.00000    0.01708
C5    1    0.791194    0.699995    0.718078    11.00000    0.02145    0.01514 =
         0.01377    0.00083    0.00412    0.00434
H5    2    0.840842    0.674200    0.807727    11.00000    0.01795
C6    1    0.586564    0.732560    0.670955    11.00000    0.02115    0.01472 =
         0.01768    0.00111    0.00972    0.00496
H6    2    0.505674    0.731214    0.729114    11.00000    0.02688
C7    1    0.503966    0.767420    0.541198    11.00000    0.01519    0.01497 =
         0.01854    0.00058    0.00517    0.00596
H7    2    0.369181    0.786398    0.508452    11.00000    0.02185
HKLF 4

REM  jjw0611_a.res in P-1
REM R1 =  0.0223 for    1796 Fo > 4sig(Fo)  and  0.0229 for all    1850 data
REM    125 parameters refined using      0 restraints

END

WGHT      0.0375      0.1374

REM Highest difference peak  0.247,  deepest hole -0.404,  1-sigma level  0.080
Q1    1   0.8477  0.7493  0.2261  11.00000  0.05    0.25
Q2    1   0.6879  0.7345  0.6846  11.00000  0.05    0.24
Q3    1   0.5025  0.6115  0.1217  11.00000  0.05    0.24
Q4    1   0.4184  0.8385  0.8541  11.00000  0.05    0.22
Q5    1   0.4417  0.5706  0.3822  11.00000  0.05    0.21
Q6    1   0.8815  0.7328  0.6816  11.00000  0.05    0.21
Q7    1   0.7753  0.3360 -0.1261  11.00000  0.05    0.21
Q8    1   0.6734  0.3454 -0.1168  11.00000  0.05    0.21
Q9    1   0.7727  0.6024  0.2951  11.00000  0.05    0.20
Q10   1   0.4990  0.7140  0.1601  11.00000  0.05    0.20
Q11   1   0.8523  0.6719  0.5598  11.00000  0.05    0.20
Q12   1   0.5929  0.9632  0.3201  11.00000  0.05    0.19
Q13   1   0.4408  0.7184  0.1802  11.00000  0.05    0.19
Q14   1   0.8484  0.6435  0.1436  11.00000  0.05    0.19
Q15   1   0.4975  0.7177  0.1028  11.00000  0.05    0.19
Q16   1   0.7219  0.7260  0.4793  11.00000  0.05    0.19
Q17   1   0.7236  0.8508 -0.1207  11.00000  0.05    0.18
Q18   1   0.9286  1.0241  0.2636  11.00000  0.05    0.18
Q19   1   0.8343  0.6698  0.6638  11.00000  0.05    0.18
Q20   1   0.9956  0.9281  0.7640  11.00000  0.05    0.18
;
_shelx_res_checksum              76849
_shelx_hkl_file
;
   0   0  -1   16.43    0.69
   0   0  -1   15.30    0.85
   0   0  -2  208.19    4.51
   0   0  -2  199.81    5.18
   0   0  -3  589.26   11.29
   0   0  -3  586.45   12.60
   0   0  -4  115.60    4.83
   0   0  -5  985.03   21.39
   0   0   5  959.80   18.34
   0   0  -6   66.88    4.59
   0   0  -7  104.33    6.30
   0   0  -8  755.18   21.20
   0   0  -8  740.30   15.13
   0   0  -8  749.97   14.91
   0   0  -9 1002.19   19.23
   0   0 -10   10.30    1.71
   0   0 -10   13.62    1.36
   0   0 -11   -0.16    0.67
   0   0 -11    0.04    0.51
   0   0 -12   29.17    1.47
   0   1 -12   89.47    2.71
   0   1 -11  230.47    5.79
   0   1 -11  220.70    6.10
   0   1 -10    5.75    0.95
   0   1 -10    4.08    1.14
   0   1  -9    4.64    0.91
   0   1  -9    3.27    1.12
   0   1  -8 1049.57   19.88
   0   1  -8 1070.67   26.95
   0   1  -7   35.07    3.59
   0   1  -6 1064.29   24.67
   0   1  -6 1112.78   22.92
   0   1  -5  110.06    4.75
   0   1  -5  107.54    5.26
   0   1  -4  522.41   12.66
   0   1  -4  537.88   12.28
   0   1  -3   56.97    2.74
   0   1  -3   52.67    2.73
   0   1  -2  334.55    7.58
   0   1  -2  334.57    7.45
   0   1  -1  951.49   16.92
   0  -1   0   73.27    1.54
   0   1   0   80.74    2.30
   0   1   1 1137.35   19.59
   0   1   1 1131.50   19.09
   0   1   2  246.55    5.51
   0  -1  -3  117.34    4.73
   0   1   3  106.45    3.27
   0  -1  -4  255.61    8.32
   0   1   4  243.31    5.90
   0  -1  -5  242.05    8.85
   0  -1  -6   65.30    4.68
   0  -1  -7 1282.89   23.16
   0  -1  -7 1320.80   30.00
   0  -1  -7 1230.75   22.71
   0  -1  -8 1202.91   29.47
   0  -1  -8 1174.86   22.08
   0  -1  -8 1162.52   21.69
   0  -1  -9  132.56    4.66
   0  -1  -9  128.97    4.39
   0  -1 -10   49.67    2.45
   0  -1 -11   40.05    1.89
   0  -1 -11   38.01    2.49
   0  -1 -12  386.90    7.80
   0   2 -12    6.59    0.67
   0   2 -11  124.08    3.85
   0   2 -10   20.10    1.57
   0   2  -9   13.95    1.37
   0   2  -8  625.20   12.81
   0   2  -8  590.79   18.91
   0   2  -7 3103.00   58.04
   0   2  -6  845.54   20.41
   0   2  -5   14.69    2.00
   0   2  -4  691.64   16.12
   0   2  -3  250.53    7.63
   0   2  -2 1489.13   25.02
   0   2  -2 1424.01   27.38
   0   2  -1  885.14   17.40
   0   2   0 2846.53   44.00
   0  -2   0 2523.63   41.26
   0   2   1 9999.00  161.18
   0   2   2 1441.03   25.92
   0  -2  -2 1654.00   29.00
   0  -2  -3  222.63    7.86
   0  -2  -4  425.38   12.73
   0  -2  -5  198.71    8.65
   0  -2  -6  892.22   23.23
   0  -2  -7  182.10    5.12
   0  -2  -7  187.95    9.45
   0  -2  -7  185.69    5.54
   0  -2  -8  294.67    7.74
   0  -2  -8  303.34    7.36
   0  -2  -9   55.53    2.58
   0  -2  -9   54.95    2.78
   0  -2 -10   95.04    3.23
   0  -2 -11    9.32    0.76
   0  -2 -11    7.58    1.16
   0   3 -12  143.01    3.40
   0   3 -11  180.37    4.69
   0   3 -10  288.49    7.11
   0   3  -9    7.66    1.00
   0   3  -9    7.07    1.07
   0   3  -8  603.52   13.10
   0   3  -8  648.16   13.05
   0   3  -7  285.94   11.70
   0   3  -7  292.35    7.22
   0   3  -7  281.80    7.22
   0   3  -6  273.54   10.96
   0   3  -5   37.24    3.61
   0   3  -4  357.25   11.48
   0   3  -3    1.13    0.68
   0   3  -2   35.76    2.95
   0   3  -1   35.08    2.74
   0   3   0 1219.35   24.51
   0   3   1  585.28   13.52
   0   3   2   17.98    1.64
   0  -3  -2   18.25    2.27
   0  -3  -3  179.13    7.91
   0  -3  -4  520.62   16.09
   0  -3  -5 1162.57   28.62
   0   3   6  520.63   11.14
   0  -3  -6  538.75   17.76
   0  -3  -6  506.07   10.52
   0  -3  -7    1.58    0.57
   0   3   7    1.37    0.60
   0  -3  -8  160.79    4.65
   0  -3  -8  165.82    5.19
   0  -3  -9  708.35   13.65
   0  -3  -9  738.80   14.39
   0  -3 -10   26.74    1.29
   0   3  10   26.75    1.28
   0  -3 -11   -0.09    0.46
   0   4 -11   21.71    1.23
   0   4 -10  304.64    7.10
   0   4  -9  430.71    9.26
   0   4  -9  429.24    9.69
   0   4  -8    6.83    1.02
   0   4  -8    9.38    1.10
   0   4  -7   18.37    1.56
   0   4  -7   19.09    1.61
   0   4  -6 1181.62   29.90
   0   4  -6 1159.83   21.64
   0   4  -6 1174.59   21.66
   0   4  -5 1445.46   33.91
   0   4  -5 1451.43   25.78
   0   4  -4   75.89    5.62
   0   4  -3  985.02   24.37
   0   4  -2   15.35    2.46
   0   4  -1  648.32   17.75
   0   4   0 1971.43   39.60
   0   4   1 1280.40   27.39
   0  -4  -2  511.14   15.61
   0  -4  -3  233.98   10.48
   0  -4  -4   10.13    2.48
   0   4   4    9.25    1.02
   0   4   4    8.25    1.05
   0  -4  -5   55.88    5.49
   0   4   5   58.46    2.76
   0   4   6  494.00   10.87
   0   4   7   54.05    2.61
   0  -4  -8  357.95    8.28
   0   4   9    5.54    0.68
   0  -4  -9    5.12    0.74
   0   4  10  135.38    2.95
   0   5 -11    2.65    0.39
   0   5 -10    3.45    0.63
   0   5  -9  139.03    4.24
   0   5  -8  246.14    6.54
   0   5  -8  245.79    6.18
   0   5  -7  512.32   11.41
   0   5  -7  529.44   11.21
   0   5  -6   31.54    2.00
   0   5  -6   30.51    2.04
   0   5  -5   83.24    3.40
   0   5  -4   18.43    1.55
   0   5  -4   20.91    3.53
   0   5  -4   19.46    1.63
   0   5  -3  705.74   14.38
   0   5  -3  729.73   22.40
   0   5  -3  724.61   14.30
   0   5  -3  702.12   13.67
   0   5  -2  942.84   17.68
   0   5  -2  890.67   17.57
   0   5  -2  933.33   26.06
   0   5  -2  904.27   17.20
   0   5  -2  931.89   17.54
   0   5  -1  240.49    6.33
   0   5  -1  234.83    6.19
   0   5  -1  240.98    6.31
   0   5  -1  247.85    6.43
   0   5  -1  234.33   11.34
   0   5   0    0.72    0.41
   0   5   0    0.77    0.59
   0   5   0    1.11    0.54
   0   5   1  199.60    5.63
   0  -5  -1  210.35   10.05
   0   5   1  204.88    5.73
   0   5   1  197.05    5.93
   0   5   2  328.45    8.08
   0  -5  -2  357.02   14.08
   0   5   2  334.83    8.39
   0   5   3   37.89    2.25
   0   5   3   34.54    2.15
   0  -5  -3   31.22    4.14
   0   5   4   10.10    1.12
   0   5   4    8.12    1.10
   0   5   5   10.83    1.19
   0   5   6  642.62   12.96
   0  -5  -7  881.10   16.59
   0  -5  -8   74.70    2.54
   0   5   8   73.97    2.47
   0   5   9   11.75    0.68
   0   6 -10  205.01    4.24
   0   6  -9   15.11    1.11
   0   6  -8  459.49    8.96
   0   6  -8  451.52    9.78
   0   6  -7  256.98    6.84
   0   6  -7  263.92    6.31
   0   6  -6   17.61    1.44
   0   6  -6   18.03    1.63
   0   6  -5  136.59    4.72
   0   6  -5  136.02    4.46
   0   6  -4  360.06    8.83
   0   6  -4  353.63    8.51
   0   6  -3   14.18    1.38
   0   6  -3   14.09    1.45
   0   6  -2  344.26    8.48
   0   6  -2  342.91    8.38
   0   6  -1  342.21    8.42
   0   6  -1  335.79    8.27
   0   6  -1  329.96    8.24
   0   6   0    8.04    1.12
   0   6   0    6.21    1.15
   0   6   0    7.19    1.08
   0   6   1 1123.43   21.86
   0   6   1 1124.43   21.19
   0   6   2  107.81    4.01
   0   6   2  117.86    4.40
   0   6   3    5.17    0.90
   0   6   4   13.24    1.21
   0   6   5  208.08    5.30
   0   6   5  217.58    5.68
   0   6   6  239.28    5.55
   0   6   6  228.41    5.21
   0   6   7   70.91    2.13
   0  -6  -7   72.36    2.15
   0   7  -8   87.94    2.42
   0   7  -7  119.99    2.95
   0   7  -7  125.28    3.53
   0   7  -6   69.38    2.70
   0   7  -6   69.22    2.39
   0   7  -5   37.57    1.87
   0   7  -5   39.91    2.11
   0   7  -4   51.85    2.48
   0   7  -4   50.20    2.31
   0   7  -3   87.55    3.25
   0   7  -3   85.59    3.33
   0   7  -2   57.21    2.66
   0   7  -2   61.06    2.72
   0   7  -1  610.96   12.49
   0   7   0  702.38   13.87
   0   7   1  142.82    4.29
   0   7   2   93.92    3.14
   0   7   3   49.12    1.98
   0   7   4    6.10    0.61
   0   7   4    6.10    0.60
   0  -7  -5    1.76    0.36
   0   8  -4   29.68    1.30
   0   8  -3  114.57    3.07
   0   8  -2  124.68    3.13
   0   8  -2  129.03    3.33
   0   8  -1   15.83    0.99
   0   8  -1   16.12    1.03
   0   8   0   35.51    1.57
   0   8   0   36.49    1.39
   0   8   1  174.81    4.06
   0   8   2   97.45    2.39
  -1   8   3    4.96    0.51
  -1   8   2   59.06    2.02
  -1   8   1   46.07    1.89
  -1   8   0    2.17    0.53
  -1   8  -1    0.25    0.38
  -1   8  -2   12.59    1.03
  -1   8  -3  153.17    4.08
  -1   8  -4    9.35    0.84
  -1   8  -5  207.85    4.65
  -1   7   6   25.41    1.12
   1  -7  -6   25.78    1.20
  -1   7   6   22.14    0.93
  -1   7   5   29.14    1.29
  -1   7   5   29.69    1.46
  -1   7   4  243.87    5.86
  -1   7   3  613.29   12.30
  -1   7   3  586.30   12.05
  -1   7   2  228.81    6.33
  -1   7   2  212.64    5.93
  -1   7   1    6.94    1.18
  -1   7   1    6.71    1.01
  -1   7   0    3.97    0.90
  -1   7   0    5.82    1.10
  -1   7  -1  224.22    6.14
  -1   7  -1  225.22    6.26
  -1   7  -2  561.28   11.95
  -1   7  -2  551.87   11.53
  -1   7  -3   12.43    1.32
  -1   7  -3   12.31    1.19
  -1   7  -4    0.06    0.56
  -1   7  -4    0.52    0.39
  -1   7  -5  172.24    5.03
  -1   7  -6  241.59    6.05
  -1   7  -7   40.35    1.85
  -1   7  -8    4.49    0.53
   1  -6  -8   13.61    0.88
  -1   6   8   13.88    0.84
  -1   6   7   27.10    1.46
   1  -6  -7   28.27    1.57
  -1   6   6  117.42    3.74
  -1   6   5   43.74    2.29
  -1   6   5   42.93    2.08
  -1   6   4  366.46    8.78
  -1   6   4  369.11    8.66
  -1   6   3    4.36    0.96
  -1   6   3    4.67    0.92
  -1   6   2  221.51    6.34
  -1   6   2  223.57    6.70
  -1   6   1  141.47    5.11
  -1   6   1  146.56    4.87
  -1   6   0  119.89    4.30
  -1   6   0  117.05    4.43
  -1   6   0  114.52    4.08
  -1   6  -1  187.36    5.70
  -1   6  -1  183.67    5.37
  -1   6  -1  194.67    5.70
  -1   6  -2    6.28    0.92
  -1   6  -2    5.78    0.90
  -1   6  -2    5.66    0.98
  -1   6  -3   53.78    2.55
  -1   6  -3   56.01    2.87
  -1   6  -4  328.42    7.73
  -1   6  -4  322.37    8.30
  -1   6  -5   54.06    2.44
  -1   6  -5   56.33    2.89
  -1   6  -6   87.47    3.61
  -1   6  -7  210.87    5.92
  -1   6  -8  473.43    9.97
  -1   6  -9  403.67    8.10
   1  -5  -9   84.32    2.68
   1  -5  -8    1.72    0.61
  -1   5   7    6.29    0.95
  -1   5   6  840.26   16.59
  -1   5   5  814.77   15.65
  -1   5   5  805.47   16.16
   1  -5  -4   82.23    6.68
  -1   5   4   82.97    3.38
  -1   5   4   83.62    3.48
  -1   5   3  104.79    3.98
  -1   5   3  103.01    3.86
   1  -5  -3  100.10    7.08
   1  -5  -2  484.39   16.31
  -1   5   2  479.23   10.50
  -1   5   1  243.55    6.31
  -1   5   1  232.44   10.81
  -1   5   0   69.02    5.74
  -1   5  -1  164.57    9.02
  -1   5  -2    2.13    1.24
  -1   5  -2    0.82    0.51
  -1   5  -3 1214.18   30.43
  -1   5  -3 1179.06   21.73
  -1   5  -3 1227.62   22.33
  -1   5  -4  196.94   10.33
  -1   5  -4  199.56    5.84
  -1   5  -4  206.08    5.69
  -1   5  -4  202.73    5.48
  -1   5  -5    7.54    1.03
  -1   5  -6    8.05    1.09
  -1   5  -7    0.90    0.60
  -1   5  -8    5.30    0.93
  -1   5  -9    0.23    0.50
   1  -5   9    0.96    0.44
   1  -5  10  293.97    6.06
  -1   5 -10  291.40    6.31
   1  -4 -10   90.22    2.55
   1  -4 -10   93.20    2.94
   1  -4  -9  167.09    4.42
   1  -4  -9  163.50    4.80
   1  -4  -8   50.15    2.59
   1  -4  -8   45.20    2.20
  -1   4   8   48.92    2.50
   1  -4  -7  100.32    3.53
  -1   4   7  104.04    3.89
   1  -4  -6  170.18    9.46
  -1   4   6  164.02    5.12
  -1   4   5  224.21    6.15
   1  -4  -5  232.00   10.95
   1  -4  -4  101.47    6.63
   1  -4  -3  262.92   10.36
  -1   4   2   42.12    3.50
  -1   4   1  109.10    5.82
  -1   4   0  360.97   11.48
  -1   4  -1 1010.02   23.24
  -1   4  -2 2010.31   40.19
  -1   4  -3 1204.54   27.56
  -1   4  -4  166.87    8.26
  -1   4  -5   69.15    5.50
  -1   4  -5   70.55    2.87
  -1   4  -6   24.58    1.73
  -1   4  -6   31.48    4.02
  -1   4  -7   60.83    2.87
  -1   4  -8    4.51    0.85
  -1   4  -9  146.79    4.55
  -1   4 -10  400.84    8.45
  -1   4 -11  869.24   15.21
   1  -3 -11    1.34    0.39
   1  -3 -10  299.09    6.81
   1  -3 -10  283.41    7.01
   1  -3  -9  138.74    4.61
   1  -3  -9  138.68    4.35
   1  -3  -8   48.88    2.66
   1  -3  -8   44.77    2.34
   1  -3  -7   26.84    3.65
   1  -3  -7   25.17    3.53
   1  -3  -7   27.03    1.78
  -1   3   7   28.74    1.94
  -1   3   6  311.06    7.59
   1  -3  -6  308.18   11.40
   1  -3  -6  319.63   12.37
   1  -3  -5  290.07   11.22
   1  -3  -4 2408.12   46.66
   1  -3  -4 2408.00   44.49
   1  -3  -3  748.80   15.83
   1  -3  -3  764.86   18.06
   1  -3  -2  236.95    5.97
  -1   3   2  224.40    7.62
  -1   3   1  795.04   17.67
  -1   3   0   48.46    3.15
  -1   3  -1   58.15    3.50
  -1   3  -2  163.70    6.15
  -1   3  -3 1137.04   24.16
  -1   3  -4  181.49    7.56
  -1   3  -5   66.42    4.64
  -1   3  -6    8.30    1.98
  -1   3  -6    7.01    0.92
  -1   3  -7   16.17    1.75
  -1   3  -7   19.01    1.56
  -1   3  -8   47.19    2.52
  -1   3  -8   48.95    2.91
  -1   3  -9  274.86    7.02
  -1   3  -9  266.96    7.38
  -1   3 -10  337.07    7.93
  -1   3 -10  373.05    8.10
  -1   3 -11  103.63    3.04
   1  -3  12  371.22    6.86
   1  -2 -12  304.51    5.98
   1  -2 -12  283.41    6.40
   1  -2 -11   13.22    1.13
   1  -2 -10    6.20    1.03
   1  -2 -10    7.60    1.04
   1  -2  -9  136.75    4.47
   1  -2  -9  130.75    4.61
   1  -2  -8  122.42    4.35
   1  -2  -8  119.39    7.70
   1  -2  -8  120.48    4.12
   1  -2  -8  135.10    7.78
   1  -2  -7    8.62    1.97
  -1   2   7    6.72    0.97
   1  -2  -7    7.63    0.95
   1  -2  -6  444.52   13.87
   1  -2  -5 2958.28   54.76
   1  -2  -4  434.43   12.04
   1  -2  -3  107.42    4.65
   1  -2  -2    0.84    0.49
   1  -2  -1   65.02    2.24
  -1   2   0  585.15   11.68
   1  -2   0  514.88    9.22
  -1   2  -1  316.50    8.00
  -1   2  -2  599.57   13.01
  -1   2  -3 2110.83   37.83
  -1   2  -4 5463.81   93.55
  -1   2  -4 5460.76   92.21
  -1   2  -5   63.94    4.51
  -1   2  -5   63.63    3.90
  -1   2  -6   98.81    6.20
  -1   2  -7   13.28    1.27
  -1   2  -7   11.44    1.63
  -1   2  -7   11.21    2.39
  -1   2  -8  413.33    9.64
  -1   2  -8  434.28   11.13
  -1   2  -9   17.23    1.53
  -1   2  -9   18.87    1.96
  -1   2 -10    3.60    0.76
  -1   2 -10    2.45    0.78
  -1   2 -11    1.50    0.53
  -1   2 -11    2.26    0.54
  -1   2 -12  332.86    6.27
   1  -1 -12  214.55    4.95
   1  -1 -12  208.34    5.21
   1  -1 -11 1262.96   22.80
   1  -1 -10  203.79    5.82
   1  -1  -9  635.47   18.82
   1  -1  -9  611.24   13.18
   1  -1  -9  616.40   12.90
   1  -1  -8  426.08    9.74
   1  -1  -8  441.35   14.49
   1  -1  -8  423.25    9.50
   1  -1  -7    3.58    1.23
   1  -1  -6  273.17    9.39
   1  -1  -5  391.91   10.95
   1  -1  -4  428.28   10.78
   1  -1  -3 1169.85   22.05
   1  -1  -2  589.29   11.50
   1  -1  -2  577.72   11.74
   1  -1  -1  111.29    3.18
   1  -1   0 3891.03   63.05
  -1   1  -1   98.01    3.21
  -1   1  -1   96.98    3.03
  -1   1  -2 1362.21   23.97
  -1   1  -2 1369.28   25.01
  -1   1  -3  764.99   16.42
  -1   1  -3  761.11   14.79
  -1   1  -4 1257.40   25.86
  -1   1  -4 1262.74   23.49
  -1   1  -5   96.81    5.42
   1  -1   6  237.22    8.38
  -1   1  -6  244.64   10.01
  -1   1  -7  572.53   17.82
  -1   1  -7  548.10   11.58
  -1   1  -8  167.61    5.17
  -1   1  -8  173.30    9.42
  -1   1  -8  163.73    6.67
  -1   1  -9    1.88    0.71
  -1   1  -9    1.65    1.03
  -1   1 -10   73.89    3.66
  -1   1 -10   72.92    2.95
  -1   1 -11  631.55   12.73
  -1   1 -12   82.02    2.12
   1   0 -13    7.38    0.54
   1   0 -12  653.64   12.34
   1   0 -11    2.18    0.70
   1   0 -11    1.06    0.75
   1   0 -10    9.90    1.19
   1   0  -9   51.26    2.60
   1   0  -8   49.81    2.43
   1   0  -8   52.15    4.40
   1   0  -8   48.65    4.77
   1   0  -8   52.26    2.62
   1   0  -7  684.58   17.83
   1   0  -6   12.80    1.82
   1   0  -5   49.38    3.16
   1   0  -4 3968.75   66.81
   1   0  -3 3915.64   64.54
   1   0  -2  995.76   18.04
   1   0  -2  972.94   16.65
   1   0  -1  237.26    5.49
   1   0   0   90.07    2.92
  -1   0   0   85.98    2.30
  -1   0  -1 2359.37   39.94
   1   0   1 2382.85   40.45
  -1   0  -2 1127.89   18.91
  -1   0  -2 1193.28   21.75
   1   0   2 1174.54   21.81
   1   0   3  172.44    5.48
  -1   0  -3  171.08    5.77
  -1   0  -4   34.68    2.82
   1   0   4    9.17    1.36
  -1   0  -5 2680.62   51.36
   1   0   5 2755.16   48.87
  -1   0  -6  175.25    8.36
  -1   0  -7  174.16    9.05
  -1   0  -7  174.99    5.24
  -1   0  -7  176.25    5.12
  -1   0  -8  459.84   16.34
  -1   0  -8  442.08    9.97
  -1   0  -9  252.61    6.60
  -1   0 -10  160.99    5.96
  -1   0 -10  161.52    4.61
  -1   0 -11    7.22    1.03
   1   1 -13  181.59    3.77
   1   1 -12  104.13    3.10
   1   1 -12   99.40    3.02
   1   1 -12   94.65    2.81
   1   1 -11   12.07    1.21
   1   1 -10  553.39   11.77
   1   1  -9   66.90    2.98
   1   1  -8  312.89    7.55
   1   1  -8  293.57   12.54
   1   1  -7 1208.08   27.25
   1   1  -7 1222.91   29.07
   1   1  -6  248.67    9.73
   1   1  -6  235.41    8.59
   1   1  -5 1075.61   22.48
   1   1  -5 1057.11   21.90
   1   1  -5 1025.49   23.26
   1   1  -4  159.35    5.20
   1   1  -4  152.65    5.87
   1   1  -4  147.76    5.82
   1   1  -3  898.67   18.28
   1   1  -3  875.40   17.55
   1   1  -2    1.84    0.58
   1   1  -2    1.30    0.64
   1   1  -1   16.31    1.36
   1   1  -1   17.01    1.13
   1   1  -1   14.20    1.32
   1   1   0 6460.27  105.21
   1   1   0 6454.63  104.05
  -1  -1   0 6388.27  104.33
   1   1   0 6435.60  104.27
  -1  -1  -1  621.40   13.00
   1   1   1  601.92   12.98
   1   1   2   64.59    3.26
  -1  -1  -2   66.45    3.52
  -1  -1  -3  237.75    8.02
   1   1   3  229.96    7.16
  -1  -1  -4 1656.01   33.71
   1   1   4 1682.11   31.59
  -1  -1  -5   72.55    4.94
  -1  -1  -6    8.64    1.95
  -1  -1  -7  119.11    7.65
  -1  -1  -7  122.26    4.04
  -1  -1  -7  123.79    4.24
  -1  -1  -8 1019.40   19.14
  -1  -1  -8 1013.41   19.56
  -1  -1  -9  988.39   18.41
  -1  -1 -10   99.85    4.49
  -1  -1 -10  100.19    3.17
  -1  -1 -11    3.61    0.77
   1   2 -12   25.68    1.34
   1   2 -12   22.57    1.16
   1   2 -11  738.64   14.35
   1   2 -11  762.31   14.47
   1   2 -10  239.04    6.19
   1   2  -9  109.18    3.83
   1   2  -8   71.33    2.94
   1   2  -8   72.51    6.11
   1   2  -7   78.43    5.97
   1   2  -6 1901.92   38.31
   1   2  -6 1831.11   38.92
   1   2  -5 1053.95   23.68
   1   2  -5 1007.96   23.05
   1   2  -4   40.63    3.29
   1   2  -4   42.05    2.90
   1   2  -3 1078.86   20.15
   1   2  -3  974.93   22.00
   1   2  -2 1803.68   34.66
   1   2  -2 1868.46   31.78
   1   2  -1  960.28   17.30
   1   2  -1  942.31   19.64
   1   2   0  718.20   15.07
  -1  -2  -1  503.23   12.17
   1   2   1  492.10   10.36
   1   2   1  476.41   12.06
  -1  -2  -2  453.68   12.30
   1   2   2  430.48   11.38
  -1  -2  -3 1251.69   26.96
   1   2   3 1226.10   24.99
  -1  -2  -4  493.00   15.04
   1   2   4  522.24   13.12
  -1  -2  -5  125.64    7.23
  -1  -2  -6  259.30   11.37
  -1  -2  -6  256.41    6.71
  -1  -2  -7   20.87    3.29
  -1  -2  -7   19.77    1.46
  -1  -2  -7   24.85    1.81
  -1  -2  -8   74.90    2.88
  -1  -2  -8   76.00    3.21
  -1  -2  -9  466.74    9.45
   1   2   9  473.84    9.36
  -1  -2 -10    4.83    1.09
  -1  -2 -11   19.98    1.22
   1   3 -12  245.44    5.16
   1   3 -11    9.50    0.94
   1   3 -11    7.57    0.83
   1   3 -10   30.80    1.91
   1   3 -10   29.62    1.87
   1   3  -9  161.71    5.16
   1   3  -9  162.39    5.10
   1   3  -8   33.48    2.20
   1   3  -8   30.06    2.03
   1   3  -7  286.16    7.46
   1   3  -7  284.30    7.18
   1   3  -7  277.61   11.94
   1   3  -6  120.43    7.22
   1   3  -5  795.56   21.19
   1   3  -4  122.43    6.71
   1   3  -3  439.56   13.51
   1   3  -2  132.53    6.45
   1   3  -1   62.12    4.08
   1   3   0  322.68    9.66
  -1  -3  -1 5543.15   95.44
  -1  -3  -2  969.04   23.17
  -1  -3  -3   72.63    5.30
  -1  -3  -4    1.35    1.16
  -1  -3  -5  497.62   16.95
   1   3   5  480.12   10.32
  -1  -3  -6   28.99    3.92
   1   3   6   27.57    1.80
  -1  -3  -7    3.99    0.82
   1   3   8   24.39    1.56
  -1  -3  -8   25.77    1.71
   1   3   9  115.33    3.17
  -1  -3 -10  638.16   12.44
   1   4 -12  186.87    3.92
   1   4 -11    1.15    0.38
   1   4 -11    0.65    0.34
   1   4 -10  346.21    7.76
   1   4 -10  350.33    7.79
   1   4  -9  185.86    5.48
   1   4  -9  199.26    5.65
   1   4  -8   26.59    1.94
   1   4  -8   27.56    1.93
   1   4  -7  353.65    8.60
   1   4  -7  360.33    8.85
   1   4  -6  207.58   10.70
   1   4  -6  209.16    6.09
   1   4  -6  209.64    5.81
   1   4  -5  497.92   10.94
   1   4  -5  507.03   11.00
   1   4  -5  517.74   17.52
   1   4  -5  502.27   10.58
   1   4  -4 1304.83   31.75
   1   4  -3  385.92   14.17
   1   4  -2  311.16   12.14
   1   4  -1  241.62   10.02
  -1  -4   0   10.78    2.01
  -1  -4  -1    0.91    0.77
   1   4   2  420.91    9.34
  -1  -4  -2  439.73   15.04
  -1  -4  -3   86.15    6.55
   1   4   3   89.03    3.38
   1   4   4   68.84    2.91
  -1  -4  -4   58.35    5.57
   1   4   5  203.14    5.58
   1   4   6   40.48    2.09
  -1  -4  -7   55.94    2.44
   1   4   7   52.27    2.42
  -1  -4  -8   24.49    1.38
   1   4   8   24.26    1.36
   1   4   9  525.94    9.05
  -1  -4  -9  465.87    9.92
   1   5 -11    7.01    0.56
   1   5 -10    3.42    0.51
   1   5 -10    3.80    0.63
   1   5  -9   47.32    2.18
   1   5  -9   43.81    2.30
   1   5  -8   91.06    3.70
   1   5  -8   94.10    3.57
   1   5  -7    5.06    0.94
   1   5  -7    4.75    0.99
   1   5  -6  822.50   16.64
   1   5  -6  836.01   16.82
   1   5  -5  681.79   13.43
   1   5  -5  684.55   14.19
   1   5  -5  676.42   14.17
   1   5  -4   36.13    4.97
   1   5  -4   32.87    2.12
   1   5  -4   32.11    1.89
   1   5  -4   33.98    2.11
   1   5  -4   32.68    2.18
   1   5  -3    6.35    2.24
   1   5  -3    6.52    1.01
   1   5  -3    6.41    0.95
   1   5  -3    4.56    0.89
   1   5  -2  101.62    3.74
   1   5  -2   95.23    7.42
   1   5  -2  104.90    3.77
   1   5  -2  102.24    3.80
   1   5  -1   84.67    3.32
   1   5  -1   85.23    3.39
   1   5  -1   79.74    3.18
  -1  -5   0  360.32   13.99
   1   5   0  399.37    9.04
   1   5   0  375.71    8.52
   1   5   0  386.10    8.85
   1   5   1  749.63   15.03
   1   5   1  750.37   14.85
  -1  -5  -1  715.08   21.81
   1   5   2  960.85   18.44
   1   5   2  956.11   18.31
   1   5   3 1132.17   21.98
   1   5   3 1179.51   21.41
   1   5   4  497.17   10.46
   1   5   4  502.79   11.37
   1   5   5   46.52    2.48
   1   5   5   43.58    2.01
   1   5   6  295.31    6.98
  -1  -5  -6  298.38    6.68
  -1  -5  -7   23.97    1.19
   1   5   7   22.87    1.28
   1   5   8  124.41    2.80
   1   6  -9  294.23    5.89
   1   6  -9  292.70    6.23
   1   6  -8  245.52    6.08
   1   6  -8  253.14    5.84
   1   6  -7   39.86    2.19
   1   6  -7   42.78    2.15
   1   6  -6    7.09    1.01
   1   6  -6   10.40    1.19
   1   6  -5  282.55    7.25
   1   6  -5  279.28    7.30
   1   6  -4    4.35    0.72
   1   6  -4    4.94    0.91
   1   6  -4    4.92    0.89
   1   6  -3  109.43    4.04
   1   6  -3  108.91    3.93
   1   6  -2   82.64    3.34
   1   6  -2   89.64    3.58
   1   6  -1  139.48    4.45
   1   6  -1  140.19    4.63
   1   6  -1  138.82    4.44
   1   6   0  179.15    5.16
   1   6   1    2.85    0.69
   1   6   2  251.60    5.99
   1   6   2  227.23    5.83
   1   6   3    2.50    0.62
   1   6   4   44.38    2.07
   1   6   4   46.15    1.83
  -1  -6  -5   31.11    1.36
   1   6   5   28.57    1.45
   1   6   6    1.02    0.29
   1   7  -7   14.14    0.88
   1   7  -7   12.53    0.81
   1   7  -6   53.24    2.06
   1   7  -6   55.08    2.08
   1   7  -5  129.60    3.77
   1   7  -5  127.76    3.72
   1   7  -4  815.01   15.05
   1   7  -4  779.14   14.84
   1   7  -4  790.39   14.23
   1   7  -3  120.33    3.54
   1   7  -3  115.71    3.59
   1   7  -3  120.10    3.81
   1   7  -2   98.91    3.19
   1   7  -2   98.93    3.39
   1   7  -1  151.63    4.56
   1   7  -1  148.33    4.06
   1   7   0    1.17    0.54
   1   7   1  944.50   17.53
   1   7   2  154.21    4.02
   1   7   3   35.11    1.31
  -2   8   4    1.46    0.36
  -2   8   3   20.28    1.16
  -2   8   2  182.76    4.60
  -2   8   1  287.51    6.57
  -2   8   0   25.35    1.54
  -2   8  -1   39.28    1.91
  -2   8  -2  159.10    4.33
  -2   8  -3   25.57    1.46
  -2   8  -4  355.41    7.35
  -2   8  -5   32.04    1.38
   2  -7  -7  156.96    3.57
  -2   7   6  154.88    3.96
  -2   7   5    4.55    0.66
  -2   7   5    4.59    0.75
  -2   7   4    2.17    0.68
  -2   7   4    2.14    0.65
  -2   7   3  115.93    4.08
  -2   7   3  111.19    3.94
  -2   7   2  761.81   15.51
  -2   7   2  749.29   15.14
  -2   7   1  910.78   18.25
  -2   7   1  945.33   18.09
  -2   7   0   15.66    1.50
  -2   7   0   16.59    1.53
  -2   7  -1   16.69    1.42
  -2   7  -1   18.26    1.60
  -2   7  -2   88.48    3.12
  -2   7  -2   96.52    3.70
  -2   7  -3  156.50    4.89
  -2   7  -4   46.20    2.37
  -2   7  -5  117.15    3.84
  -2   7  -6    1.61    0.50
  -2   7  -7  446.66    8.70
   2  -6  -9   61.24    1.80
   2  -6  -8  172.07    4.29
  -2   6   7   77.67    2.84
   2  -6  -7   74.35    2.37
  -2   6   6   56.60    2.29
   2  -6  -6   58.51    2.28
  -2   6   6   56.44    2.62
  -2   6   5  115.00    3.87
  -2   6   5  116.92    4.09
  -2   6   4    0.30    0.62
  -2   6   4    0.46    0.55
  -2   6   3  276.66    7.43
   2  -6  -3  288.12    6.94
  -2   6   2  193.26    5.78
   2  -6  -2  192.62    5.31
   2  -6  -1  663.03   13.27
  -2   6   1  672.66   13.95
  -2   6   0   10.30    1.25
  -2   6  -1    6.00    0.93
  -2   6  -1    4.49    0.80
  -2   6  -1    7.08    0.93
  -2   6  -1    4.83    0.93
  -2   6  -2   40.42    2.12
  -2   6  -2   43.62    2.47
  -2   6  -2   40.40    2.11
  -2   6  -3  205.56    5.61
  -2   6  -3  216.49    6.19
  -2   6  -4   52.88    2.47
  -2   6  -4   52.13    2.74
   2  -6   4   60.31    2.64
  -2   6  -5  937.40   17.95
   2  -6   5  930.82   17.44
  -2   6  -5  887.43   17.10
   2  -6   6  821.11   15.92
  -2   6  -6  850.38   16.37
  -2   6  -7   66.07    2.71
   2  -6   7   58.38    2.43
  -2   6  -8   65.69    2.40
   2  -6   8   63.73    2.23
  -2   6  -9    4.00    0.45
   2  -5 -10    0.95    0.35
   2  -5 -10    0.91    0.29
   2  -5  -9 1512.62   25.45
   2  -5  -9 1468.20   25.86
   2  -5  -8  398.50    8.39
  -2   5   8  395.10    8.79
   2  -5  -8  382.67    8.75
  -2   5   7   43.17    2.34
  -2   5   6  114.39    4.14
  -2   5   6  118.54    3.78
  -2   5   5  102.07    3.88
   2  -5  -5  114.53    7.64
   2  -5  -4   53.49    5.07
  -2   5   4   50.34    2.61
   2  -5  -4   53.01    2.52
  -2   5   3    3.51    0.76
   2  -5  -3    6.20    1.89
   2  -5  -3    4.81    0.80
  -2   5   2   15.73    2.83
  -2   5   2   19.31    1.52
   2  -5  -2   19.43    1.45
  -2   5   1  197.07    9.80
  -2   5   0 1616.33   36.21
  -2   5  -1  382.76   13.89
  -2   5  -2   68.19    2.90
  -2   5  -2   62.99    5.33
  -2   5  -2   68.45    2.76
   2  -5   3    1.95    0.66
  -2   5  -3    2.30    0.69
  -2   5  -3    3.44    1.72
  -2   5  -3    2.16    0.66
   2  -5   4   10.56    1.18
  -2   5  -4    7.92    2.21
  -2   5  -4    7.48    0.99
  -2   5  -4    7.35    1.07
  -2   5  -4    6.79    1.01
  -2   5  -5  199.13    5.54
   2  -5   5  189.23    5.62
  -2   5  -5  193.38    5.78
  -2   5  -6  103.57    3.75
  -2   5  -6   97.51    3.86
   2  -5   7  428.28    9.99
  -2   5  -7  432.00    9.81
   2  -5   8    2.66    0.71
  -2   5  -8    1.83    0.64
  -2   5  -8    2.85    0.62
   2  -5   9   23.87    1.46
  -2   5  -9   24.38    1.37
   2  -5  10   57.34    1.83
   2  -4 -11   43.28    1.53
   2  -4 -10    8.86    0.88
   2  -4 -10    7.32    0.88
   2  -4  -9   27.68    1.73
   2  -4  -9   27.36    1.81
   2  -4  -8  270.33    6.77
  -2   4   8  253.97    6.90
  -2   4   7    0.85    0.57
   2  -4  -7    0.67    0.45
   2  -4  -6   40.48    2.09
  -2   4   6   39.82    2.26
   2  -4  -5   45.61    4.37
   2  -4  -5   46.01    2.31
  -2   4   5   46.04    2.38
   2  -4  -4  163.70    7.96
  -2   4   3   30.61    3.34
  -2   4   2  708.18   18.95
  -2   4   1 3112.74   58.32
  -2   4   0   56.47    4.29
  -2   4  -1    4.09    1.29
  -2   4  -2   78.26    5.03
  -2   4  -3  469.53   14.39
  -2   4  -4  617.20   17.99
  -2   4  -5    4.73    1.77
  -2   4  -5    5.48    0.86
  -2   4  -5    4.52    0.98
  -2   4  -6  262.19    7.56
  -2   4  -6  269.38    6.78
  -2   4  -7 1153.97   21.24
  -2   4  -7 1124.16   22.21
  -2   4  -8  661.78   13.26
  -2   4  -8  654.01   13.93
  -2   4  -9    2.88    0.65
  -2   4  -9    3.40    0.67
   2  -4  10   31.72    1.59
  -2   4 -10   32.69    1.44
   2  -3 -12    1.23    0.33
   2  -3 -11   58.83    2.28
   2  -3 -10   94.18    3.36
   2  -3 -10   89.60    3.36
   2  -3  -9  276.30    7.03
   2  -3  -9  271.88    7.15
  -2   3   8 1175.93   22.31
   2  -3  -8 1203.96   22.37
   2  -3  -8 1191.56   22.13
   2  -3  -7 1203.76   29.64
   2  -3  -7 1239.45   22.38
  -2   3   7 1247.16   22.82
   2  -3  -7 1187.09   23.74
   2  -3  -6  497.26   15.24
   2  -3  -6  478.43   15.11
   2  -3  -5  570.80   16.16
   2  -3  -5  592.69   16.01
   2  -3  -4  362.52   10.74
   2  -3  -4  362.36   11.14
   2  -3  -3  452.18   11.56
   2  -3  -2  299.44    7.57
   2  -3  -1   16.70    1.23
  -2   3   1   16.74    2.04
  -2   3   0  338.99    9.97
  -2   3  -1  228.11    7.92
  -2   3  -2   99.28    4.99
  -2   3  -3   75.28    4.35
  -2   3  -4   63.01    4.27
  -2   3  -5    7.08    1.65
  -2   3  -6  444.25   10.95
  -2   3  -6  434.21    9.55
  -2   3  -7   94.20    3.52
  -2   3  -7   91.34    4.28
  -2   3  -8  357.11    9.64
  -2   3  -8  381.25    8.65
  -2   3  -9  295.15    7.94
  -2   3  -9  313.23    7.20
  -2   3 -10  113.85    3.24
  -2   3 -10  105.22    3.51
   2  -3  11  362.35    6.82
  -2   3 -11  333.45    6.34
   2  -2 -12    0.47    0.37
   2  -2 -11  231.71    5.88
   2  -2 -10   37.78    2.17
   2  -2 -10   40.58    2.30
   2  -2  -9  124.20    4.25
   2  -2  -9  120.30    4.28
   2  -2  -8  653.99   15.17
   2  -2  -8  702.47   13.96
   2  -2  -8  702.58   14.07
   2  -2  -8  661.73   20.71
   2  -2  -7    1.46    1.23
   2  -2  -7    4.92    1.31
   2  -2  -6   13.21    2.28
   2  -2  -6   11.39    1.82
   2  -2  -5  897.58   20.11
   2  -2  -5  917.85   21.45
   2  -2  -4  513.58   12.66
   2  -2  -4  526.96   13.45
   2  -2  -3 1314.16   25.07
   2  -2  -3 1348.80   25.86
   2  -2  -2  333.88    8.47
   2  -2  -1  155.38    4.69
   2  -2   0 5823.07   95.26
  -2   2  -1  544.63   12.47
  -2   2  -2  272.95    7.93
  -2   2  -3   61.04    3.35
  -2   2  -3   59.71    3.84
  -2   2  -4  647.52   14.97
  -2   2  -4  635.21   16.90
  -2   2  -5 1805.32   38.05
   2  -2   6  231.31    9.84
  -2   2  -6  222.99    5.97
  -2   2  -6  224.68    7.34
  -2   2  -6  239.02   10.68
  -2   2  -7    4.13    1.25
  -2   2  -8  147.50    5.81
  -2   2  -9  318.88    7.41
  -2   2  -9  309.98    8.60
  -2   2 -10    2.57    0.52
  -2   2 -10    2.27    0.71
  -2   2 -11  102.13    2.50
  -2   2 -11  103.86    2.93
   2  -1 -13  126.88    2.92
   2  -1 -12  387.20    8.05
   2  -1 -11   68.15    2.87
   2  -1 -10   91.34    3.59
   2  -1  -9 1064.90   20.03
   2  -1  -9 1053.79   20.16
   2  -1  -8  309.62    8.66
   2  -1  -8  310.20    7.61
   2  -1  -8  315.71   13.09
   2  -1  -8  316.94    7.52
   2  -1  -7  213.18    8.06
   2  -1  -7  206.30    9.70
   2  -1  -6  490.56   14.93
   2  -1  -6  477.02   12.39
   2  -1  -5   58.51    3.19
   2  -1  -5   60.49    4.19
   2  -1  -4  520.39   13.00
   2  -1  -4  481.26   10.80
   2  -1  -3 1969.83   34.31
   2  -1  -3 2032.64   33.43
   2  -1  -3 2061.44   36.85
   2  -1  -2   12.72    1.42
   2  -1  -2   12.31    1.07
   2  -1  -1  747.76   14.93
   2  -1   0  407.32    9.32
  -2   1  -1  405.90    9.37
  -2   1  -2  202.78    6.53
  -2   1  -2  203.56    5.60
  -2   1  -3  667.00   15.78
  -2   1  -3  651.97   13.14
   2  -1   4  730.95   18.77
  -2   1  -4  747.18   18.45
   2  -1   5    3.72    1.30
  -2   1  -5    3.88    1.30
  -2   1  -6   68.73    2.85
  -2   1  -6   72.32    5.64
   2  -1   6   77.00    5.22
  -2   1  -6   66.58    3.94
  -2   1  -7   39.09    2.20
  -2   1  -7   34.89    3.02
  -2   1  -7   34.69    4.23
  -2   1  -8  146.39    6.11
  -2   1  -8  144.99    4.64
  -2   1  -9   11.65    1.69
  -2   1 -10  131.34    4.52
  -2   1 -10  131.02    3.59
  -2   1 -11   97.92    2.90
  -2   1 -11   85.91    2.15
   2   0 -13   13.64    0.71
   2   0 -13   11.58    0.71
   2   0 -12  123.14    3.55
   2   0 -11  677.62   13.51
   2   0 -10    1.31    0.65
   2   0  -9   78.34    3.21
   2   0  -9   71.82    6.42
   2   0  -8   41.57    2.67
   2   0  -8   41.26    2.14
   2   0  -8   40.04    4.48
   2   0  -7  772.31   21.59
   2   0  -6   89.69    5.74
   2   0  -5  741.27   15.47
   2   0  -5  774.88   18.66
   2   0  -4  147.61    6.05
   2   0  -4  146.60    3.94
   2   0  -3 1757.61   31.91
   2   0  -3 1640.59   29.24
   2   0  -2 4248.03   71.05
   2   0  -2 4195.35   70.10
   2   0  -1 2818.78   47.88
  -2   0   1 2784.50   44.95
  -2   0   0  100.72    3.15
   2   0   0   97.39    4.31
  -2   0  -1 1932.95   34.08
   2   0   1 1933.58   36.21
  -2   0  -2  196.11    4.36
  -2   0  -2  183.07    6.32
  -2   0  -3   59.53    3.85
   2   0   3   66.59    4.32
  -2   0  -4  689.57   18.15
   2   0   4  742.53   18.34
  -2   0  -5   18.67    2.68
  -2   0  -6  674.64   19.90
  -2   0  -6  673.82   13.49
  -2   0  -6  671.39   13.34
  -2   0  -7  487.99   17.04
  -2   0  -7  479.10   10.34
  -2   0  -8   31.35    1.88
  -2   0  -8   26.90    2.73
  -2   0  -9    2.40    1.14
  -2   0 -10   19.43    1.64
  -2   0 -11  111.47    3.10
   2   1 -13  169.34    3.60
   2   1 -12    9.80    0.84
   2   1 -12   10.88    1.01
   2   1 -12   11.31    0.91
   2   1 -11  394.63    8.55
   2   1 -10  429.72    9.50
   2   1  -9  162.70    4.89
   2   1  -8 1280.49   24.33
   2   1  -8 1304.90   32.80
   2   1  -8 1262.11   22.93
   2   1  -7   20.25    3.16
   2   1  -6   69.81    5.22
   2   1  -5  163.37    7.32
   2   1  -4  613.04   15.35
   2   1  -3  692.27   15.36
  -2  -1   2  402.17    7.92
   2   1  -2  409.55   10.40
   2   1  -1  208.58    6.18
   2   1  -1  198.48    6.76
  -2  -1   1  209.93    5.39
  -2  -1   0    0.64    0.56
   2   1   0   11.03    1.59
   2   1   1   79.65    4.40
  -2  -1  -1   75.62    3.81
   2   1   2   67.84    4.27
  -2  -1  -2   67.48    3.99
  -2  -1  -3   31.40    3.04
   2   1   3   29.68    2.92
  -2  -1  -4  334.63   11.82
   2   1   4  365.40   11.64
  -2  -1  -5 2235.81   45.89
   2   1   6  721.19   14.19
  -2  -1  -6  746.97   14.45
   2   1   7   38.45    1.97
  -2  -1  -7   38.31    2.18
  -2  -1  -8    1.74    0.56
  -2  -1  -9    1.25    0.88
  -2  -1 -10   13.24    1.30
   2   2 -12  138.31    3.47
   2   2 -12  140.50    3.79
   2   2 -11    9.35    1.11
   2   2 -11    6.53    0.83
   2   2 -10 1144.72   21.60
   2   2 -10 1218.25   22.53
   2   2  -9  479.88   10.66
   2   2  -8  726.98   14.68
   2   2  -7  283.83   12.86
   2   2  -6  512.88   16.32
   2   2  -5   25.49    2.76
   2   2  -4  250.67    8.09
   2   2  -4  238.95    9.39
   2   2  -3  310.08    8.59
   2   2  -3  313.03   10.56
   2   2  -2   66.77    4.22
   2   2  -2   68.04    3.35
   2   2  -1 1230.93   25.58
  -2  -2   1 1186.88   23.29
  -2  -2   0 1662.57   32.14
   2   2   0 1707.77   33.78
  -2  -2  -1  478.24   13.02
   2   2   1  469.98   13.60
  -2  -2  -2  748.30   18.65
   2   2   2  736.52   18.80
  -2  -2  -3   18.62    2.63
   2   2   3   16.32    2.33
  -2  -2  -4  310.48   11.93
   2   2   4  336.10   11.50
  -2  -2  -5   55.72    5.04
   2   2   6  209.15    5.89
  -2  -2  -6  236.69    6.05
   2   2   7    2.93    0.64
  -2  -2  -7    2.01    0.71
   2   2   8   17.02    1.16
  -2  -2  -9    0.35    0.64
  -2  -2 -10    0.28    0.34
   2   3 -12  220.43    4.81
   2   3 -12  220.96    4.40
   2   3 -11   89.23    3.11
   2   3 -11   83.29    2.69
   2   3 -10    0.57    0.55
   2   3 -10    0.68    0.55
   2   3  -9   58.32    3.00
   2   3  -9   54.15    2.65
   2   3  -8  661.77   13.93
   2   3  -8  610.32   13.09
   2   3  -7  156.87    4.67
   2   3  -7  159.16    5.26
   2   3  -7  146.65    4.70
   2   3  -6   98.04    3.75
   2   3  -6   90.69    3.32
   2   3  -6   89.60    3.40
   2   3  -5    8.69    2.23
   2   3  -4  217.47    9.93
   2   3  -3  192.38    8.93
   2   3  -2 1783.50   36.92
  -2  -3   2 1769.37   34.07
  -2  -3   1  436.82   12.29
  -2  -3   0   29.19    2.96
  -2  -3  -1    0.54    0.81
  -2  -3  -2   53.27    4.52
  -2  -3  -3  323.23   12.49
   2   3   4   83.39    3.46
  -2  -3  -4   79.33    6.14
   2   3   5    5.54    0.95
   2   3   6  685.19   13.76
   2   3   7  587.26   11.65
  -2  -3  -8  191.12    5.74
   2   3   8  198.34    4.55
  -2  -3  -9   98.49    2.83
   2   4 -11    3.88    0.56
   2   4 -11    4.35    0.59
   2   4 -10  202.46    5.43
   2   4  -9  288.17    7.45
   2   4  -9  282.29    6.91
   2   4  -8  286.76    7.64
   2   4  -8  265.14    6.99
   2   4  -7  687.89   13.45
   2   4  -7  670.10   14.42
   2   4  -7  652.85   13.70
   2   4  -6  658.21   13.48
   2   4  -6  686.11   14.35
   2   4  -6  679.10   14.12
   2   4  -5  932.39   17.50
   2   4  -5  942.27   18.08
   2   4  -5  979.40   18.68
   2   4  -5  959.61   18.25
   2   4  -5  970.64   18.40
   2   4  -4    7.87    0.99
   2   4  -4    9.13    0.99
   2   4  -4    9.23    2.32
   2   4  -4    7.64    1.03
   2   4  -4    6.42    0.91
   2   4  -3  109.08    7.48
   2   4  -3  120.18    4.03
   2   4  -3  113.76    3.87
   2   4  -3  115.48    3.85
   2   4  -2   52.22    2.41
   2   4  -2   50.53    2.45
   2   4  -2   50.59    2.40
   2   4  -1   49.87    2.33
   2   4  -1   44.09    2.25
   2   4  -1   42.81    2.17
   2   4   0   39.08    2.12
   2   4   0   42.33    2.01
   2   4   0   38.52    2.03
   2   4   1   21.27    1.54
   2   4   1   21.04    1.57
  -2  -4  -1   21.50    3.21
   2   4   1   17.06    1.34
   2   4   2   30.78    1.99
  -2  -4  -2   31.69    4.02
   2   4   3  300.43    7.78
   2   4   4  159.63    5.16
   2   4   5  257.56    6.76
   2   4   6   77.49    2.92
   2   4   7    2.65    0.50
   2   4   8   11.70    0.66
   2   5 -10   26.36    1.32
   2   5 -10   22.26    1.15
   2   5  -9  105.86    3.45
   2   5  -9   91.96    3.18
   2   5  -8  182.80    5.28
   2   5  -8  158.33    4.92
   2   5  -7   84.44    3.55
   2   5  -7   81.88    2.91
   2   5  -7   75.46    3.28
   2   5  -6   45.27    2.59
   2   5  -6   42.97    2.18
   2   5  -6   41.29    2.38
   2   5  -5  204.42    6.08
   2   5  -5  197.69    5.24
   2   5  -5  203.73    5.63
   2   5  -5  208.86    6.14
   2   5  -5  194.95    5.72
   2   5  -4  522.42   11.04
   2   5  -4  541.08   11.76
   2   5  -4  519.79   11.28
   2   5  -4  539.57   11.73
   2   5  -3    1.56    0.60
   2   5  -3    0.73    0.55
   2   5  -3    1.93    0.61
   2   5  -3    1.70    0.60
   2   5  -2    1.58    0.62
   2   5  -2    2.89    0.71
   2   5  -1  515.31   11.02
   2   5  -1  492.82   10.82
   2   5   0  544.35   11.32
   2   5   0  498.38   10.85
   2   5   1  215.82    5.62
   2   5   1  231.86    5.88
   2   5   2  180.65    5.26
   2   5   2  176.93    5.19
   2   5   3    5.83    0.95
   2   5   3    5.84    0.81
   2   5   4  239.77    6.19
   2   5   5  407.88    8.44
   2   5   5  393.05    7.88
   2   5   6    1.08    0.35
   2   6  -9   49.64    1.63
   2   6  -8   67.73    2.40
   2   6  -7   34.70    1.87
   2   6  -6   22.32    1.61
   2   6  -5   69.44    2.42
   2   6  -5   62.92    2.85
   2   6  -4  711.12   14.08
   2   6  -4  688.80   13.43
   2   6  -3  148.43    4.51
   2   6  -3  146.75    4.59
   2   6  -2   84.98    3.37
   2   6  -2   79.23    3.17
   2   6  -2   78.44    3.17
   2   6  -1   15.07    1.49
   2   6  -1   13.43    1.20
   2   6   0    5.50    0.99
   2   6   1   56.39    2.59
   2   6   2   60.00    2.37
   2   6   2   57.52    2.15
   2   6   3  174.39    4.00
   2   6   3  170.88    4.20
   2   6   4   20.63    1.03
   2   7  -6    3.54    0.50
   2   7  -5  161.46    4.05
   2   7  -4    0.73    0.33
   2   7  -3  418.58    8.27
   2   7  -2  250.32    5.74
   2   7  -1   41.53    1.87
   2   7   0  125.98    3.47
   2   7   1  116.06    2.92
  -3   8   5    0.98    0.26
  -3   8   4  231.74    4.96
  -3   8   4  234.16    5.03
  -3   8   3    0.83    0.40
  -3   8   3    1.32    0.40
  -3   8   2   17.14    1.18
  -3   8   2   18.69    1.21
  -3   8   1   13.38    1.06
  -3   8   1   14.26    1.11
  -3   8   0   84.76    2.73
  -3   8   0   87.33    2.91
  -3   8  -1  342.51    7.34
  -3   8  -2    4.58    0.65
  -3   8  -3  646.83   11.94
  -3   8  -4   86.37    2.42
   3  -7  -7    0.31    0.32
  -3   7   7    0.62    0.32
  -3   7   6  237.66    5.09
  -3   7   6  242.01    5.45
   3  -7  -6  223.77    4.84
  -3   7   5 1293.03   22.94
  -3   7   5 1322.96   23.15
  -3   7   4  152.99    4.50
  -3   7   4  146.82    4.45
  -3   7   3   35.38    2.15
   3  -7  -3   36.28    1.87
  -3   7   3   37.59    2.14
  -3   7   2  121.38    4.33
   3  -7  -2  125.22    3.93
  -3   7   2  128.28    4.26
  -3   7   1  116.18    4.15
   3  -7  -1  117.03    3.84
  -3   7   1  124.00    4.16
  -3   7   0   70.95    3.01
  -3   7   0   66.36    2.88
   3  -7   0   65.58    2.75
  -3   7  -1    2.49    0.62
  -3   7  -1    3.03    0.74
   3  -7   2   14.78    1.18
  -3   7  -2   16.59    1.43
  -3   7  -3  552.10   11.17
  -3   7  -3  573.16   11.57
  -3   7  -4  137.56    3.86
  -3   7  -4  145.35    4.21
  -3   7  -5  118.20    3.16
  -3   7  -5  112.85    3.42
  -3   7  -6   36.64    1.52
   3  -7   7    5.75    0.53
   3  -6  -9   47.67    1.46
   3  -6  -9   47.81    1.56
   3  -6  -8  142.74    3.62
   3  -6  -8  141.48    3.75
  -3   6   7  105.91    3.08
  -3   6   7  111.25    3.55
  -3   6   6  361.42    7.91
  -3   6   6  356.23    8.26
  -3   6   5   79.72    3.25
   3  -6  -4  212.86    5.82
  -3   6   4  200.59    5.87
   3  -6  -3    5.25    0.87
  -3   6   3    4.85    0.91
   3  -6  -2   61.75    2.84
  -3   6   2   65.35    2.96
  -3   6   1  338.46    8.24
   3  -6   0    4.40    0.79
  -3   6   0    3.39    0.78
  -3   6   0    3.91    0.77
  -3   6  -1   15.47    1.34
  -3   6  -1   16.77    1.47
  -3   6  -2  809.54   15.71
  -3   6  -2  796.19   15.85
   3  -6   3 1073.59   20.14
  -3   6  -3 1045.36   19.96
  -3   6  -3 1089.75   20.22
  -3   6  -4  529.00   11.38
  -3   6  -4  560.02   11.55
   3  -6   4  536.17   11.55
   3  -6   5   11.51    1.23
  -3   6  -5   10.31    1.12
  -3   6  -5   11.52    1.15
   3  -6   6  119.48    3.87
  -3   6  -6  113.96    3.58
  -3   6  -6  115.46    3.66
   3  -6   7  672.85   12.75
  -3   6  -7  693.10   12.23
   3  -6   8  258.56    5.45
   3  -5 -10   35.06    1.42
   3  -5 -10   35.01    1.45
   3  -5  -9   34.43    1.70
   3  -5  -9   32.55    1.66
   3  -5  -8  145.79    4.30
   3  -5  -8  137.63    4.26
  -3   5   8  144.12    4.38
   3  -5  -7  317.22    7.26
  -3   5   7  303.24    7.57
   3  -5  -6   26.00    1.69
  -3   5   6   24.14    1.75
   3  -5  -5    6.80    1.00
   3  -5  -5    3.45    1.62
  -3   5   5    6.27    0.97
   3  -5  -4 1426.27   25.58
   3  -5  -4 1414.12   32.62
  -3   5   4 1388.09   25.56
   3  -5  -3  505.55   10.70
  -3   5   3  492.33   10.64
  -3   5   2  170.12    4.74
  -3   5   2  158.49    4.76
   3  -5  -1  963.80   17.64
  -3   5   1  910.74   25.24
  -3   5   1  962.73   17.71
  -3   5   1  928.16   17.80
  -3   5   0   63.00    2.65
  -3   5   0   60.85    2.64
  -3   5  -1  392.79   14.60
   3  -5   1  429.88    9.38
  -3   5  -1  412.31    9.17
  -3   5  -1  404.72    9.11
   3  -5   2  139.86    4.52
  -3   5  -2  135.69    4.42
  -3   5  -2  138.09    4.32
   3  -5   3  250.27    6.74
  -3   5  -3  236.51   11.15
  -3   5  -3  253.28    6.86
  -3   5  -3  257.81    6.53
   3  -5   4   28.70    2.00
  -3   5  -4   30.44    2.15
  -3   5  -4   32.43    1.96
   3  -5   5   17.62    1.62
  -3   5  -5   23.27    1.60
  -3   5  -5   19.06    1.73
  -3   5  -5   20.28    1.56
   3  -5   6    1.74    0.70
  -3   5  -6    1.91    0.60
  -3   5  -6    2.08    0.60
  -3   5  -6    1.67    0.75
   3  -5   7   29.49    1.93
  -3   5  -7   30.20    1.92
  -3   5  -7   29.91    1.67
   3  -5   8  131.31    3.96
  -3   5  -8  127.97    3.69
   3  -5   9   23.46    1.22
  -3   5  -9   21.91    0.94
   3  -4 -11    8.77    0.74
   3  -4 -10   28.02    1.59
   3  -4 -10   26.66    1.50
   3  -4  -9  117.92    3.86
   3  -4  -9  111.24    3.74
   3  -4  -8   28.70    1.82
  -3   4   8   27.21    1.86
   3  -4  -8   27.84    1.85
   3  -4  -7  238.99    7.02
   3  -4  -7  238.30    6.26
  -3   4   7  228.31    6.29
  -3   4   6    0.53    0.50
  -3   4   5  979.35   24.91
  -3   4   5 1007.65   19.04
   3  -4  -5 1030.31   19.24
  -3   4   4  165.91    8.38
   3  -4  -4  186.59    7.98
  -3   4   3   95.74    6.14
  -3   4   2   11.97    2.21
  -3   4   1  356.04   12.31
  -3   4   0 2629.82   51.21
  -3   4  -1  590.86   17.00
  -3   4  -2    1.72    0.97
   3  -4   3   94.07    3.50
  -3   4  -3   95.58    3.79
  -3   4  -4 2125.54   44.61
  -3   4  -4 2197.76   36.91
  -3   4  -4 2139.09   38.50
  -3   4  -5   97.95    3.39
  -3   4  -5   97.83    4.23
  -3   4  -6   59.65    2.56
  -3   4  -6   55.88    3.18
  -3   4  -7   21.54    1.48
  -3   4  -7   19.87    1.88
   3  -4   8  590.43   12.34
  -3   4  -8  605.36   11.52
  -3   4  -8  585.10   12.47
   3  -4   9  973.50   17.42
  -3   4  -9  957.29   16.55
  -3   4  -9  938.01   17.29
   3  -4  10    0.79    0.27
   3  -3 -12   41.84    1.56
   3  -3 -11  435.15    8.96
   3  -3 -10  359.46    8.07
   3  -3 -10  336.56    7.81
   3  -3  -9  192.48    5.55
   3  -3  -9  195.77    5.47
   3  -3  -8  478.72   11.75
   3  -3  -8  498.81   10.68
   3  -3  -8  479.08   10.49
   3  -3  -7   12.62    1.54
   3  -3  -7   12.68    1.25
  -3   3   7   12.68    1.26
   3  -3  -7   14.93    3.05
   3  -3  -6  769.96   21.73
   3  -3  -5 1113.48   26.16
   3  -3  -5 1099.65   24.25
   3  -3  -4  131.99    5.79
   3  -3  -4  144.47    6.51
   3  -3  -3  559.22   13.85
   3  -3  -2  135.35    5.28
   3  -3  -1  187.76    6.21
  -3   3   0 1620.51   32.69
  -3   3  -1  230.41    8.57
  -3   3  -2   40.08    3.41
  -3   3  -3  391.32   12.01
  -3   3  -4  131.66    4.81
  -3   3  -5    0.53    0.74
  -3   3  -6  244.56    6.07
  -3   3  -6  233.89    7.47
  -3   3  -7  628.15   12.42
  -3   3  -7  621.42   14.32
  -3   3  -8  304.70    6.80
  -3   3  -8  295.57    8.12
  -3   3  -9   56.81    1.95
  -3   3  -9   56.46    2.63
   3  -3  10   20.71    1.06
  -3   3 -10   20.82    1.15
   3  -2 -12  215.00    4.96
   3  -2 -11    2.04    0.62
   3  -2 -10    8.78    1.08
   3  -2  -9   81.66    4.10
   3  -2  -9   84.87    3.37
   3  -2  -9   78.72    3.21
   3  -2  -8  644.21   14.69
   3  -2  -8  643.02   13.07
   3  -2  -8  657.79   13.35
   3  -2  -8  687.64   21.81
   3  -2  -7 1537.54   29.16
   3  -2  -7 1598.67   28.07
   3  -2  -6  137.89    7.87
   3  -2  -5   17.38    2.57
   3  -2  -4  658.48   16.75
   3  -2  -3  452.58   11.99
   3  -2  -3  436.64    9.82
   3  -2  -3  429.29    9.93
   3  -2  -2   23.03    2.00
   3  -2  -2   21.40    2.04
   3  -2  -1    5.70    1.11
   3  -2   0    7.32    1.24
  -3   2  -1 3277.68   57.79
  -3   2  -2 3392.12   59.70
  -3   2  -3  662.72   15.42
   3  -2   4   23.25    3.38
  -3   2  -4   24.33    2.97
   3  -2   5 1154.84   29.03
  -3   2  -5 1156.79   23.10
  -3   2  -5 1153.92   28.38
   3  -2   6   94.04    6.89
  -3   2  -6  102.00    4.71
  -3   2  -7    5.06    1.33
  -3   2  -8  352.13    9.46
  -3   2  -9    3.07    0.89
   3  -2  10  449.99    8.41
  -3   2 -10  478.19    9.24
   3  -1 -13  416.17    7.49
   3  -1 -12  239.96    5.50
   3  -1 -11  145.32    4.34
   3  -1 -10  187.24    5.33
   3  -1  -9  130.20    5.28
   3  -1  -9  131.85    4.29
   3  -1  -8    0.33    0.67
   3  -1  -8    0.78    0.49
   3  -1  -8    2.51    0.65
   3  -1  -8    0.52    1.43
   3  -1  -7  743.75   22.16
   3  -1  -6  315.79   12.29
   3  -1  -5   13.96    2.32
   3  -1  -4 1865.91   36.78
   3  -1  -3   59.49    3.73
   3  -1  -3   61.86    3.05
   3  -1  -2  245.18    7.48
   3  -1  -2  252.11    8.00
   3  -1  -1  140.22    5.59
   3  -1  -1  129.87    5.69
   3  -1   0 3067.56   53.93
   3  -1   0 3001.57   55.87
   3  -1   1    0.78    0.99
  -3   1  -1    2.07    0.73
  -3   1  -2  124.97    4.58
   3  -1   2  111.69    6.77
  -3   1  -2  122.53    5.40
   3  -1   3  154.51    8.35
  -3   1  -3  156.84    7.00
   3  -1   4   13.76    2.56
  -3   1  -4   11.01    2.01
   3  -1   5  364.73   13.73
  -3   1  -5  363.86   10.31
  -3   1  -5  373.16   13.66
  -3   1  -6    3.75    1.57
  -3   1  -6    3.60    1.26
  -3   1  -7   22.69    2.33
  -3   1  -8  444.00   11.12
  -3   1  -9 1014.08   19.47
  -3   1 -10   90.44    2.89
   3   0 -13    0.30    0.29
   3   0 -12   22.11    1.22
   3   0 -11   91.06    3.02
   3   0 -11   88.79    3.11
   3   0 -10    0.12    0.46
   3   0  -9  161.12    5.84
   3   0  -9  158.01    4.70
   3   0  -8  380.29    9.74
   3   0  -8  377.14    8.83
   3   0  -8  406.31   16.44
   3   0  -7  128.08    8.26
   3   0  -6 2608.90   52.79
   3   0  -5 2183.83   43.53
   3   0  -4  478.68   13.40
   3   0  -3  871.56   19.48
   3   0  -3  879.60   18.50
   3   0  -2  293.57    8.95
   3   0  -2  301.71    9.10
   3   0  -1  202.58    7.14
  -3   0   0  188.02    5.30
  -3   0  -1  401.49   10.19
  -3   0  -2  173.65    6.78
  -3   0  -3 1181.13   26.23
  -3   0  -4 1232.08   28.52
   3   0   5    4.20    1.85
  -3   0  -5    1.13    1.41
  -3   0  -5    3.11    1.35
  -3   0  -6  699.74   16.71
  -3   0  -7   25.16    2.49
  -3   0  -8  357.72    9.47
  -3   0  -9   31.86    1.97
  -3   0 -10  187.01    4.31
   3   1 -13   93.53    2.48
   3   1 -12   48.35    2.15
   3   1 -10  348.77    8.02
   3   1  -9  247.56    7.36
   3   1  -9  250.72    6.61
   3   1  -8  158.22    5.47
   3   1  -8  170.45   10.33
   3   1  -8  160.35    4.87
   3   1  -7  379.35   14.97
   3   1  -7  371.79    8.42
   3   1  -6    0.24    0.85
   3   1  -5   19.95    2.63
   3   1  -4  763.73   18.48
   3   1  -3  106.91    5.22
   3   1  -3  103.63    5.13
   3   1  -2  474.94   12.56
   3   1  -2  471.71   13.15
   3   1  -1   40.86    3.46
   3   1  -1   44.80    3.22
   3   1   0  486.37   14.52
  -3  -1  -1 1775.70   33.55
   3   1   1 1703.34   37.01
  -3  -1  -2  828.53   19.58
   3   1   2  774.81   21.46
  -3  -1  -3  226.04    9.32
   3   1   3  217.35   10.03
   3   1   4    1.62    0.60
   3   1   4    0.73    1.15
  -3  -1  -4    2.05    1.42
   3   1   5    3.39    0.72
  -3  -1  -5    2.43    1.43
  -3  -1  -6  653.60   15.54
   3   1   6  645.77   12.62
   3   1   6  637.80   12.67
  -3  -1  -7  319.69    9.09
   3   1   7  309.39    6.80
  -3  -1  -8   20.98    1.81
  -3  -1  -9   19.20    1.31
   3   2 -12  326.51    7.00
   3   2 -11   98.23    3.55
   3   2 -10  274.60    6.53
   3   2 -10  281.99    7.61
   3   2  -9   44.23    2.34
   3   2  -9   43.33    2.76
   3   2  -8  951.61   18.46
   3   2  -8  957.82   19.53
   3   2  -7   14.72    1.43
   3   2  -7   18.04    1.71
   3   2  -6   13.98    2.53
   3   2  -6   16.44    1.46
   3   2  -6   19.18    1.65
   3   2  -5  555.47   15.76
   3   2  -4 1129.50   24.82
   3   2  -3  577.60   14.87
   3   2  -2 1165.03   24.69
   3   2  -1  674.76   18.63
   3   2   0   18.41    2.76
   3   2   1  663.09   19.46
   3   2   2   10.86    1.10
   3   2   2    9.97    2.22
  -3  -2  -2    7.96    1.78
   3   2   2    9.17    1.04
   3   2   3   14.15    1.34
   3   2   3   11.07    2.43
  -3  -2  -3   13.27    2.51
   3   2   3   14.33    1.31
   3   2   4    1.71    0.64
   3   2   4    1.70    0.60
   3   2   5   92.67    3.48
  -3  -2  -6   45.58    3.08
   3   2   6   51.95    2.31
  -3  -2  -7  223.56    6.51
   3   2   7  232.03    5.33
  -3  -2  -8   60.27    2.39
   3   3 -12   24.13    1.15
   3   3 -11    4.59    0.73
   3   3 -10   84.30    3.46
   3   3  -9    3.14    0.67
   3   3  -9    2.37    0.84
   3   3  -8   13.47    1.30
   3   3  -8   11.23    1.47
   3   3  -7  290.31    7.50
   3   3  -7  291.93    8.08
   3   3  -7  299.93    7.43
   3   3  -6  164.51    5.12
   3   3  -6  171.13    5.47
   3   3  -6  166.38    5.00
   3   3  -5  118.38    3.78
   3   3  -5  126.98    4.35
   3   3  -5  119.06    3.97
   3   3  -5  118.65    4.13
   3   3  -4  347.80    8.09
   3   3  -4  335.65    7.74
   3   3  -4  347.63    8.13
   3   3  -4  335.07    7.85
   3   3  -3   65.20    2.71
   3   3  -3   63.13    2.57
   3   3  -3   64.07    2.73
   3   3  -3   63.44    2.73
   3   3  -3   64.99    2.69
   3   3  -2    0.63    0.47
   3   3  -2    0.35    0.38
   3   3  -2    0.66    0.48
   3   3  -1  740.57   13.93
   3   3  -1  731.89   14.53
   3   3  -1  741.20   14.21
   3   3  -1  717.87   14.29
   3   3  -1  731.50   13.86
   3   3   0 1162.59   21.60
   3   3   0 1185.14   21.22
   3   3   0 1171.64   21.42
   3   3   0 1152.68   21.03
   3   3   1   49.88    2.39
   3   3   1   47.36    2.42
   3   3   1   49.76    2.43
   3   3   2  291.77    7.36
   3   3   2  278.64    7.06
   3   3   3  324.90    8.02
   3   3   3  314.70    7.43
   3   3   4  175.08    5.25
   3   3   5   75.55    2.98
   3   3   6  183.42    4.71
   3   3   7   95.39    2.66
   3   3   8  321.89    5.98
   3   4 -11  233.66    5.08
   3   4 -10  162.58    4.54
   3   4  -9  425.17    8.59
   3   4  -9  428.82    9.75
   3   4  -8  753.65   14.52
   3   4  -8  748.02   15.58
   3   4  -7  434.07    9.78
   3   4  -7  448.14   10.58
   3   4  -6  136.51    4.10
   3   4  -6  141.22    4.96
   3   4  -6  145.28    4.76
   3   4  -6  137.46    4.58
   3   4  -5    8.55    1.02
   3   4  -5    9.71    1.24
   3   4  -5    7.68    1.08
   3   4  -5    8.16    1.09
   3   4  -4  124.81    4.13
   3   4  -4  132.20    4.48
   3   4  -4  129.93    4.38
   3   4  -4  124.65    4.30
   3   4  -3  141.55    4.59
   3   4  -3  143.26    4.31
   3   4  -3  144.64    4.61
   3   4  -3  142.38    4.56
   3   4  -3  141.80    4.61
   3   4  -2    0.34    0.51
   3   4  -2    0.50    0.43
   3   4  -2    0.52    0.44
   3   4  -2    0.42    0.47
   3   4  -1  140.00    4.73
   3   4  -1  136.11    4.35
   3   4  -1  142.39    4.54
   3   4  -1  138.83    4.09
   3   4   0  450.22    9.46
   3   4   0  450.41   10.25
   3   4   0  444.74    9.73
   3   4   0  432.02    9.83
   3   4   0  454.01    9.63
   3   4   1  162.05    4.65
   3   4   1  158.37    4.91
   3   4   1  151.49    4.64
   3   4   1  154.31    4.74
   3   4   2  162.04    4.62
   3   4   2  156.84    4.96
   3   4   3   25.32    1.77
   3   4   4    2.88    0.70
   3   4   5    6.43    0.78
   3   4   6   10.36    0.78
   3   4   6   10.57    0.68
   3   4   6   10.97    0.80
   3   5 -10   41.94    1.51
   3   5  -9  117.75    3.48
   3   5  -8  129.65    4.11
   3   5  -7  351.70    8.35
   3   5  -7  344.52    7.63
   3   5  -6    2.17    0.57
   3   5  -6    1.27    0.63
   3   5  -5   75.48    2.85
   3   5  -5   79.98    3.33
   3   5  -5   78.60    3.15
   3   5  -5   83.23    3.39
   3   5  -4    7.67    0.97
   3   5  -4    6.87    0.98
   3   5  -4    7.91    1.08
   3   5  -3  153.83    4.80
   3   5  -3  154.74    4.88
   3   5  -3  147.05    4.65
   3   5  -2   18.62    1.62
   3   5  -2   17.97    1.43
   3   5  -2   18.32    1.39
   3   5  -2   18.80    1.55
   3   5  -1  102.58    3.89
   3   5  -1   93.28    3.40
   3   5  -1   97.97    3.58
   3   5   0   53.41    2.66
   3   5   0   54.88    2.44
   3   5   0   52.54    2.23
   3   5   1 1010.94   18.35
   3   5   1 1033.73   18.95
   3   5   1 1014.91   18.64
   3   5   2  111.45    3.36
   3   5   2  108.30    3.55
   3   5   3  212.81    5.28
   3   5   4  135.94    3.62
   3   5   4  138.28    3.59
   3   5   5    8.94    0.58
   3   6  -8   14.40    0.83
   3   6  -7  803.84   14.55
   3   6  -6    0.42    0.35
   3   6  -5   19.32    1.31
   3   6  -4    2.75    0.54
   3   6  -4    3.15    0.62
   3   6  -3   75.29    2.75
   3   6  -3   85.64    2.97
   3   6  -2  117.64    3.74
   3   6  -2  114.28    3.54
   3   6  -1   59.26    2.49
   3   6  -1   55.72    2.10
   3   6  -1   56.60    2.15
   3   6   0   82.50    2.77
   3   6   0   88.08    2.94
   3   6   1    0.38    0.33
   3   6   1    0.28    0.36
   3   6   2   64.22    2.12
  -4   8   5    9.45    0.57
  -4   8   4   48.50    1.67
  -4   8   4   44.02    1.48
  -4   8   3  239.93    5.22
  -4   8   3  230.96    4.92
  -4   8   2   57.70    2.08
  -4   8   2   56.29    1.93
  -4   8   1   61.39    2.11
   4  -8  -1   57.07    1.97
  -4   8   1   57.79    2.00
  -4   8   0   44.78    1.63
  -4   8   0   44.43    1.70
   4  -8   0   43.46    1.69
  -4   8  -1   34.37    1.42
   4  -8   1   32.49    1.41
   4  -8   2  262.17    5.38
  -4   7   7   26.13    1.01
   4  -7  -7   25.93    1.10
  -4   7   6  214.54    4.81
  -4   7   6  210.68    4.81
  -4   7   5   47.13    2.05
  -4   7   5   46.22    1.96
   4  -7  -4  758.91   13.97
  -4   7   4  780.27   14.43
   4  -7  -3   84.26    3.12
  -4   7   3   86.57    3.07
   4  -7  -2   -0.33    0.53
  -4   7   2    0.64    0.45
   4  -7  -1  262.82    6.55
  -4   7   1  256.43    6.31
  -4   7   0  315.45    7.34
   4  -7   0  330.96    7.24
  -4   7   0  329.66    7.40
  -4   7  -1   15.64    1.22
   4  -7   1   16.24    1.23
   4  -7   2  175.71    4.73
  -4   7  -2  175.65    4.76
  -4   7  -2  181.47    4.65
   4  -7   3  359.53    7.77
  -4   7  -3  355.47    7.67
   4  -7   4  262.17    6.02
  -4   7  -4  260.80    5.82
   4  -7   5  137.20    3.62
  -4   7  -5  142.11    3.42
   4  -7   6    0.23    0.25
   4  -6  -9   76.02    2.14
   4  -6  -8   41.11    1.75
   4  -6  -8   41.36    1.55
   4  -6  -7   39.25    1.74
  -4   6   7   40.75    1.89
   4  -6  -6  135.62    3.97
  -4   6   6  134.52    4.04
   4  -6  -5  107.82    3.85
  -4   6   5  111.17    3.69
   4  -6  -4   25.23    1.81
  -4   6   4   27.28    1.75
   4  -6  -3  136.01    4.57
  -4   6   3  144.59    4.46
   4  -6  -2  102.29    3.48
   4  -6  -2   92.33    3.70
  -4   6   2   99.37    3.56
  -4   6   1  223.87    6.07
  -4   6   1  234.40    6.05
   4  -6  -1  232.63    6.06
   4  -6   0    0.37    0.45
  -4   6   0    0.51    0.55
   4  -6   1   17.35    1.47
  -4   6  -1   15.42    1.40
  -4   6  -2   39.25    2.19
  -4   6  -3 1152.17   21.29
   4  -6   4  664.41   13.50
  -4   6  -4  662.60   13.27
   4  -6   5   92.33    3.36
  -4   6  -5   96.33    3.27
  -4   6  -6   12.91    1.01
   4  -6   6   11.69    1.02
   4  -6   7   85.69    2.48
  -4   6  -7   85.63    2.31
   4  -5 -10  198.14    4.46
   4  -5  -9    0.97    0.47
   4  -5  -8  550.10   11.05
   4  -5  -7  180.36    5.11
  -4   5   7  182.35    5.04
  -4   5   6    0.43    0.49
   4  -5  -5  628.13   12.23
  -4   5   5  624.73   12.53
   4  -5  -5  593.69   12.89
   4  -5  -4  291.61    7.57
   4  -5  -4  306.28    7.17
  -4   5   4  314.71    7.38
   4  -5  -3  724.97   14.03
   4  -5  -3  707.20   14.42
   4  -5  -2  689.33   13.63
  -4   5   2  687.43   13.55
  -4   5   1   27.49    3.87
   4  -5  -1   29.46    1.85
  -4   5   1   29.50    1.83
  -4   5   0  110.00    7.57
   4  -5   0  115.31    3.97
  -4   5   0  116.25    3.95
  -4   5  -1  191.69   10.03
  -4   5  -1  199.96    5.73
   4  -5   1  209.12    5.95
   4  -5   2  137.10    4.62
  -4   5  -2  129.18    4.48
   4  -5   3   77.60    3.37
  -4   5  -3   75.63    3.38
   4  -5   4 1092.34   20.86
  -4   5  -4 1083.23   20.91
   4  -5   5    0.41    0.57
  -4   5  -5    0.84    0.67
   4  -5   6   36.18    2.11
  -4   5  -6   31.97    2.01
   4  -5   7    0.40    0.43
  -4   5  -7    0.31    0.40
   4  -5   8  123.69    3.16
  -4   5  -8  120.15    2.98
   4  -4 -11  118.22    3.09
   4  -4 -10   69.31    2.55
   4  -4  -9    5.24    0.81
   4  -4  -9    5.99    0.91
   4  -4  -8  119.69    4.62
   4  -4  -8  121.13    4.04
   4  -4  -7   49.76    2.88
   4  -4  -7   57.96    2.40
   4  -4  -7   50.53    2.56
  -4   4   7   51.64    2.44
   4  -4  -6  109.01    4.26
   4  -4  -6  106.17    3.90
   4  -4  -6  105.06    3.54
  -4   4   6  110.89    3.70
   4  -4  -5   81.51    3.39
   4  -4  -5   76.40    3.17
   4  -4  -5   77.58    2.99
   4  -4  -4 1240.39   22.65
  -4   4   3 1303.96   31.61
   4  -4  -3 1362.09   23.95
  -4   4   3 1324.74   23.63
  -4   4   2   44.85    4.41
  -4   4   1   65.49    5.24
  -4   4   0   66.81    5.34
   4  -4   0   72.67    2.95
  -4   4   0   68.13    2.85
   4  -4   1   32.26    1.97
  -4   4  -1   30.70    1.97
  -4   4  -2   39.16    4.13
   4  -4   2   38.91    2.22
  -4   4  -2   35.74    2.28
  -4   4  -3   89.68    6.14
   4  -4   3   96.70    3.78
  -4   4  -3   90.72    3.88
   4  -4   4  512.34   11.55
  -4   4  -4  513.96   11.91
   4  -4   5 1077.21   21.00
  -4   4  -5 1102.98   21.51
   4  -4   6  649.09   13.60
  -4   4  -6  640.40   13.94
   4  -4   7  118.71    3.96
  -4   4  -7  120.43    4.19
   4  -4   8   66.86    2.41
  -4   4  -8   67.80    2.55
  -4   4  -9    6.17    0.50
   4  -3 -12  172.33    3.80
   4  -3 -11   60.92    2.26
   4  -3 -10  372.72    8.26
   4  -3  -9  811.19   17.31
   4  -3  -9  820.66   15.84
   4  -3  -9  813.46   15.87
   4  -3  -8   83.51    3.97
   4  -3  -8   84.36    3.37
   4  -3  -7  768.62   16.31
   4  -3  -7  775.60   22.77
   4  -3  -7  769.84   14.95
   4  -3  -7  776.83   15.41
   4  -3  -6  361.76    8.42
   4  -3  -6  376.24   13.87
   4  -3  -6  385.75    8.67
   4  -3  -6  372.13    8.37
   4  -3  -5  338.36    7.81
   4  -3  -5  331.51    7.65
   4  -3  -5  327.77   11.96
   4  -3  -4   14.82    2.22
   4  -3  -3 1123.39   24.93
   4  -3  -2   -1.26    0.84
   4  -3  -2    0.44    0.67
   4  -3  -1  283.83   10.69
   4  -3  -1  297.07    9.80
  -4   3   0    2.86    1.24
  -4   3  -1   13.34    2.19
   4  -3   2  354.78   14.92
  -4   3  -2  402.55   12.83
   4  -3   2  385.73    8.73
  -4   3  -2  372.68    9.10
   4  -3   3   87.81    7.15
   4  -3   3   87.83    3.46
  -4   3  -3   87.62    3.80
   4  -3   4 1932.44   34.28
  -4   3  -4 1942.48   35.25
   4  -3   5  201.28    6.04
  -4   3  -5  210.83    6.77
   4  -3   6   41.46    2.39
  -4   3  -6   42.04    2.79
   4  -3   7   15.59    1.36
  -4   3  -7   17.06    1.72
   4  -3   8   63.62    2.36
  -4   3  -8   66.17    2.78
  -4   3  -9  480.05    9.12
   4  -2 -12    7.09    0.65
   4  -2 -11  684.45   12.99
   4  -2 -10  196.40    6.49
   4  -2 -10  197.49    5.31
   4  -2  -9   11.82    1.58
   4  -2  -9   12.21    1.21
   4  -2  -9   12.92    1.29
   4  -2  -8    3.73    1.04
   4  -2  -8    6.51    0.96
   4  -2  -7   42.53    2.59
   4  -2  -7   38.95    2.21
   4  -2  -7   42.58    4.87
   4  -2  -7   39.24    2.12
   4  -2  -7   40.45    2.21
   4  -2  -6  487.04   10.51
   4  -2  -6  502.68   16.73
   4  -2  -6  512.52   10.70
   4  -2  -6  502.61   10.48
   4  -2  -5   19.47    2.75
   4  -2  -4   65.38    4.64
   4  -2  -3  830.05   20.08
   4  -2  -2 2625.34   48.76
   4  -2  -2 2555.60   48.23
   4  -2  -1  906.91   22.39
   4  -2  -1  920.85   21.32
   4  -2   0  876.34   23.39
   4  -2   1  253.00   11.93
  -4   2  -1  306.22    9.92
   4  -2   2   94.30    7.37
   4  -2   3  672.23   21.84
   4  -2   3  646.04   13.07
  -4   2  -3  648.04   14.13
   4  -2   4   49.72    2.53
  -4   2  -4   52.79    3.08
   4  -2   4   50.53    5.45
  -4   2  -5   10.04    1.54
   4  -2   6  143.81    4.65
  -4   2  -6  161.98    5.80
   4  -2   7  244.43    6.15
  -4   2  -7  273.52    7.50
  -4   2  -8  115.25    3.95
  -4   2  -9  144.77    3.68
   4  -1 -13   32.74    1.24
   4  -1 -12   53.87    1.76
   4  -1 -12   48.17    1.77
   4  -1 -11    9.16    0.88
   4  -1 -10  205.23    6.66
   4  -1 -10  198.98    5.25
   4  -1  -9    3.48    1.03
   4  -1  -9    3.03    0.67
   4  -1  -8  296.59    8.39
   4  -1  -8  305.90    7.65
   4  -1  -8  293.61   13.90
   4  -1  -8  303.62    7.34
   4  -1  -7    1.01    1.34
   4  -1  -7    2.48    0.70
   4  -1  -7    2.46    0.61
   4  -1  -6  547.67   17.53
   4  -1  -5 1298.56   29.64
   4  -1  -4  193.54    8.30
   4  -1  -3  823.01   18.93
   4  -1  -3  820.85   20.13
   4  -1  -2  160.24    7.19
   4  -1  -1  110.78    6.34
   4  -1  -1  112.40    5.97
   4  -1   0    9.77    2.28
   4  -1   1  449.02   16.41
   4  -1   2  711.02   22.55
   4  -1   3   32.96    4.53
  -4   1  -3   35.35    2.44
  -4   1  -3   30.83    3.27
  -4   1  -4  184.26    6.35
  -4   1  -4  190.53    9.21
  -4   1  -5 2037.92   37.41
  -4   1  -6   39.30    2.73
  -4   1  -7    5.35    1.09
  -4   1  -8    8.05    1.01
   4  -1   8    7.60    0.66
  -4   1  -9   11.35    0.82
   4   0 -13  330.96    6.33
   4   0 -12    0.94    0.32
   4   0 -12    1.59    0.51
   4   0 -11   96.06    3.21
   4   0 -10  370.65    9.59
   4   0  -9  653.45   14.56
   4   0  -9  643.67   13.39
   4   0  -8  412.76   10.24
   4   0  -8  407.71    9.41
   4   0  -7  331.55    7.88
   4   0  -7  328.09   13.92
   4   0  -6  437.02    9.40
   4   0  -6  434.66    9.46
   4   0  -6  430.84   15.17
   4   0  -5  387.66   13.29
   4   0  -4 1260.10   29.10
   4   0  -4 1374.90   27.69
   4   0  -3    0.31    0.63
   4   0  -3    0.57    0.83
   4   0  -2  169.98    7.61
   4   0  -2  166.55    7.66
   4   0  -1 1013.27   23.88
   4   0  -1 1030.59   25.14
   4   0   0  218.54   10.30
   4   0   1  700.14   21.73
   4   0   2  822.62   24.92
   4   0   2  834.67   15.74
   4   0   3  157.70    9.76
   4   0   3  143.31    4.37
  -4   0  -4  626.48   13.96
   4   0   4  571.93   11.94
  -4   0  -5   38.53    2.75
   4   0   5   37.96    1.95
  -4   0  -6   17.78    1.80
   4   0   7    1.65    0.42
  -4   0  -7    1.75    0.70
   4   0   8    0.69    0.30
  -4   0  -8    2.61    0.54
   4   1 -12  463.89    9.24
   4   1 -11   10.87    0.95
   4   1 -11    9.57    1.09
   4   1 -10   71.87    2.98
   4   1 -10   70.68    3.32
   4   1  -9   14.46    1.53
   4   1  -9   13.06    1.29
   4   1  -9   12.82    1.40
   4   1  -8    0.64    0.62
   4   1  -8    0.35    0.50
   4   1  -7   41.09    2.40
   4   1  -7   38.55    2.14
   4   1  -7   40.25    2.52
   4   1  -7   35.00    4.36
   4   1  -6  450.84    9.62
   4   1  -6  448.25   10.37
   4   1  -6  441.20   10.33
   4   1  -5  183.58    5.44
   4   1  -5  181.77    8.79
   4   1  -4  600.57   17.18
   4   1  -3   34.71    3.49
   4   1  -3   35.72    3.45
   4   1  -2  650.93   17.69
   4   1  -2  651.82   18.59
   4   1  -1   30.97    3.70
   4   1   0    4.85    0.77
   4   1   0    3.51    1.39
   4   1   0    4.46    0.79
   4   1   1  112.80    3.93
   4   1   1  114.01    7.95
   4   1   1  120.00    4.16
   4   1   1  122.73    3.88
   4   1   2  174.13    5.22
   4   1   2  167.77   10.03
   4   1   2  175.92    5.54
   4   1   2  188.68    5.23
   4   1   3 1626.84   28.76
   4   1   3 1593.73   29.30
   4   1   3 1615.64   28.69
   4   1   4  769.30   15.51
   4   1   4  763.97   15.05
   4   1   5  189.62    5.20
   4   1   5  179.62    5.01
  -4  -1  -6  699.02   13.89
   4   1   6  661.75   12.60
   4   1   6  674.46   12.64
  -4  -1  -7   42.55    1.95
   4   1   8    0.35    0.17
   4   2 -12  309.82    6.34
   4   2 -11  461.62    9.43
   4   2 -11  434.93    8.58
   4   2 -10   11.09    1.06
   4   2 -10   10.86    1.28
   4   2  -9  175.65    5.28
   4   2  -9  173.10    5.72
   4   2  -8  369.56    9.07
   4   2  -8  360.36    8.32
   4   2  -8  363.16    9.43
   4   2  -7  159.31    4.71
   4   2  -7  152.45    5.22
   4   2  -7  151.26    5.33
   4   2  -6  248.14    6.95
   4   2  -6  235.82    6.81
   4   2  -6  257.55    6.29
   4   2  -5 1011.35   18.43
   4   2  -5  995.74   19.09
   4   2  -5  963.23   18.75
   4   2  -5  983.02   18.34
   4   2  -4  150.33    4.58
   4   2  -4  161.28    4.60
   4   2  -4  147.49    4.68
   4   2  -4  150.08    7.66
   4   2  -4  147.70    4.43
   4   2  -3 1026.25   18.35
   4   2  -3  967.24   18.65
   4   2  -3  978.26   18.58
   4   2  -3 1012.68   18.62
   4   2  -3  977.65   18.42
   4   2  -2  161.86    4.48
   4   2  -2  152.92    4.77
   4   2  -2  149.84    4.48
   4   2  -2  154.35    4.65
   4   2  -2  152.38    4.59
   4   2  -1  130.70    3.98
   4   2  -1  127.50    4.29
   4   2  -1  123.71    3.87
   4   2  -1  126.55    4.21
   4   2  -1  126.88    4.17
   4   2  -1  128.69    3.97
   4   2   0  538.46   18.83
   4   2   0  534.15   10.98
   4   2   0  520.15   11.31
   4   2   0  526.18   11.38
   4   2   0  526.20   11.00
   4   2   1   14.64    1.34
   4   2   1   14.61    1.42
   4   2   1   14.43    1.34
   4   2   2    4.81    0.87
   4   2   2    5.91    1.01
   4   2   3  121.89    4.23
   4   2   3  122.71    4.19
   4   2   4  392.25    8.82
   4   2   4  405.84    8.82
   4   2   4  399.12    8.99
   4   2   5   26.86    1.43
   4   2   5   36.48    1.83
   4   2   6    0.17    0.31
   4   2   7    6.88    0.60
   4   3 -11  324.86    6.80
   4   3 -10   32.00    1.52
   4   3 -10   32.54    1.88
   4   3  -9   17.12    1.57
   4   3  -9   15.92    1.30
   4   3  -8   18.15    1.72
   4   3  -8   19.33    1.60
   4   3  -7    9.66    1.27
   4   3  -7   10.66    1.38
   4   3  -7   10.35    1.13
   4   3  -6  184.37    5.74
   4   3  -6  179.91    5.67
   4   3  -6  187.10    5.32
   4   3  -5  229.31    6.49
   4   3  -5  223.91    6.27
   4   3  -5  227.25    6.10
   4   3  -4 1233.21   22.67
   4   3  -4 1232.35   22.35
   4   3  -4 1230.08   22.86
   4   3  -4 1207.84   22.51
   4   3  -4 1244.43   22.60
   4   3  -3  135.45    4.53
   4   3  -3  136.69    4.44
   4   3  -3  135.10    4.33
   4   3  -3  136.07    4.42
   4   3  -2    2.42    0.64
   4   3  -2    2.29    0.69
   4   3  -2    2.27    0.67
   4   3  -2    1.63    0.56
   4   3  -2    2.12    0.65
   4   3  -1  222.77    5.81
   4   3  -1  224.91    6.35
   4   3  -1  220.72    6.20
   4   3  -1  221.25    5.84
   4   3  -1  218.04    6.14
   4   3  -1  224.12    5.80
   4   3   0   20.71    1.52
   4   3   0   18.93    1.61
   4   3   0   18.66    1.48
   4   3   1   73.63    3.05
   4   3   1   74.38    3.04
   4   3   1   68.39    3.06
   4   3   1   72.14    3.05
   4   3   2   91.47    3.52
   4   3   2   88.83    3.38
   4   3   2   90.74    3.50
   4   3   3   38.06    2.19
   4   3   3   41.64    2.21
   4   3   3   37.44    1.90
   4   3   3   40.47    2.19
   4   3   4  291.39    7.09
   4   3   4  299.84    6.78
   4   3   4  302.64    6.25
   4   3   4  292.89    6.90
   4   3   5 1193.02   20.88
   4   3   5 1174.12   20.18
   4   3   5 1188.81   20.57
   4   3   6    3.10    0.43
   4   4 -10  282.40    6.00
   4   4  -9  158.62    3.96
   4   4  -9  164.49    4.55
   4   4  -8  230.46    5.67
   4   4  -8  223.65    6.10
   4   4  -7  422.43    9.74
   4   4  -7  427.83    9.41
   4   4  -6   25.13    1.80
   4   4  -6   24.72    1.72
   4   4  -6   25.83    1.82
   4   4  -5    4.29    0.84
   4   4  -5    4.46    0.84
   4   4  -5    6.00    0.93
   4   4  -4  107.24    3.82
   4   4  -4  112.17    3.56
   4   4  -4  102.33    3.65
   4   4  -4  104.09    3.83
   4   4  -4  113.66    3.96
   4   4  -3  547.95   11.71
   4   4  -3  545.46   11.46
   4   4  -3  521.68   10.99
   4   4  -3  542.29   11.22
   4   4  -3  555.48   11.63
   4   4  -2   50.85    2.67
   4   4  -2   50.42    2.47
   4   4  -2   51.08    2.56
   4   4  -1    6.22    0.78
   4   4  -1    5.77    0.96
   4   4  -1    7.61    1.04
   4   4  -1    6.03    0.92
   4   4   0    0.84    0.51
   4   4   0    1.50    0.53
   4   4   0    0.93    0.56
   4   4   0    1.62    0.69
   4   4   0    0.40    0.44
   4   4   1  398.98    8.54
   4   4   1  410.59    8.64
   4   4   1  386.99    9.12
   4   4   1  387.50    8.56
   4   4   1  392.04    8.71
   4   4   2    2.35    0.62
   4   4   2    2.00    0.53
   4   4   2    2.73    0.72
   4   4   2    2.63    0.51
   4   4   3  115.83    3.41
   4   4   3  118.73    3.55
   4   4   3  118.48    3.53
   4   4   4  100.56    2.72
   4   4   4   98.89    2.70
   4   5  -8   43.75    1.73
   4   5  -7   76.64    2.66
   4   5  -6   62.49    2.45
   4   5  -5   76.27    2.77
   4   5  -5   87.94    3.08
   4   5  -4    2.88    0.57
   4   5  -4    3.33    0.71
   4   5  -3  440.59    8.83
   4   5  -3  452.45    9.57
   4   5  -2  408.94    8.89
   4   5  -2  394.91    8.36
   4   5  -2  402.57    8.72
   4   5  -1  159.30    4.51
   4   5  -1  156.58    4.33
   4   5  -1  148.74    4.23
   4   5   0  297.69    6.91
   4   5   0  309.32    6.54
   4   5   1  106.95    2.66
   4   5   1  107.54    3.30
   4   5   2  117.65    3.17
  -5   8   4    4.31    0.44
  -5   8   3    2.14    0.38
  -5   8   2  242.02    5.00
   5  -8  -2  248.79    5.10
  -5   8   1   58.96    1.71
   5  -8  -1   64.14    1.98
   5  -8   0    0.26    0.26
   5  -8   1    6.59    0.57
   5  -7  -7  332.41    6.32
  -5   7   6  424.85    7.92
   5  -7  -6  399.22    7.58
   5  -7  -5    7.43    0.70
   5  -7  -4  545.22   10.84
   5  -7  -3    4.34    0.74
   5  -7  -2    6.48    0.85
   5  -7  -2    6.82    0.72
   5  -7  -1  162.59    4.61
  -5   7   0   12.73    0.95
   5  -7   0   13.70    1.08
   5  -7   1  386.11    8.11
   5  -7   2  138.43    3.81
  -5   7  -2  137.32    3.75
   5  -7   3   53.41    2.04
  -5   7  -3   57.05    2.04
   5  -7   4   51.18    1.81
  -5   7  -4   51.87    1.74
   5  -6  -9  214.63    4.39
  -5   6   8   11.75    0.74
   5  -6  -8   12.23    0.83
   5  -6  -8   13.67    0.94
   5  -6  -7   76.82    2.58
   5  -6  -6    5.41    0.77
   5  -6  -5    2.23    0.72
   5  -6  -5    1.82    0.45
   5  -6  -4   30.21    1.93
   5  -6  -4   31.82    1.71
   5  -6  -3    1.14    0.56
   5  -6  -2   25.98    1.71
   5  -6  -2   25.31    1.82
   5  -6  -1  422.11    9.45
  -5   6   1  434.70    9.42
   5  -6   0  864.44   16.81
  -5   6   0  880.37   16.62
   5  -6   1  319.63    7.66
  -5   6  -1  313.00    7.44
   5  -6   2   64.60    2.81
  -5   6  -2   62.18    2.66
   5  -6   3    2.60    0.71
  -5   6  -3    2.78    0.70
   5  -6   4    1.82    0.56
  -5   6  -4    2.25    0.59
   5  -6   5  263.47    5.83
  -5   6  -5  262.10    5.75
   5  -6   6    0.76    0.24
  -5   6  -6    0.80    0.28
   5  -5 -10    1.55    0.34
   5  -5  -9    2.37    0.49
   5  -5  -8  174.87    4.66
   5  -5  -7   67.58    2.45
   5  -5  -7   71.11    2.86
   5  -5  -6  209.71    5.36
   5  -5  -5 1142.61   21.47
   5  -5  -5 1148.14   20.93
   5  -5  -4   21.82    1.70
   5  -5  -4   25.03    1.68
   5  -5  -3  945.28   17.95
   5  -5  -3  937.84   18.18
   5  -5  -2    1.22    0.57
  -5   5   2    1.30    0.52
   5  -5  -1  228.79    6.29
  -5   5   1  242.79    6.19
   5  -5   0   18.15    1.54
  -5   5   0   18.51    1.48
   5  -5   1  231.78    6.36
  -5   5  -1  221.61    6.09
   5  -5   2    7.01    1.05
  -5   5  -2    8.09    1.10
   5  -5   3    1.93    0.69
  -5   5  -3    2.48    0.74
   5  -5   4    2.57    0.73
   5  -5   4    3.68    0.77
   5  -5   5   48.68    2.30
   5  -5   5   49.93    2.19
  -5   5  -5   51.54    2.34
   5  -5   6   13.81    0.90
  -5   5  -6   13.60    1.03
  -5   5  -7  120.40    2.86
   5  -4 -11   51.23    1.61
   5  -4 -10   12.78    0.95
   5  -4  -9  250.59    6.78
   5  -4  -9  252.25    6.06
   5  -4  -9  247.40    5.95
   5  -4  -8  300.93    7.99
   5  -4  -8  294.29    7.15
   5  -4  -7  557.42   12.53
   5  -4  -7  550.51   11.33
   5  -4  -7  560.02   11.78
   5  -4  -6   38.94    2.39
   5  -4  -6   37.85    2.15
   5  -4  -6   36.69    2.06
   5  -4  -5  196.33    5.53
   5  -4  -5  205.17    5.71
   5  -4  -5  200.90    5.58
   5  -4  -4   20.05    1.50
   5  -4  -4   20.48    1.56
  -5   4   3  427.07   16.01
   5  -4  -3  429.61    9.46
   5  -4  -3  440.18    9.79
  -5   4   3  452.72    9.33
  -5   4   2  491.03   16.96
   5  -4  -2  476.07   10.08
   5  -4  -2  479.82   10.45
  -5   4   2  479.93   10.01
  -5   4   1    1.41    1.24
   5  -4  -1    1.20    0.55
  -5   4   1    0.72    0.49
   5  -4   0   74.91    6.35
  -5   4   0   72.09    5.92
   5  -4   0   84.44    3.13
   5  -4   0   78.00    3.24
  -5   4   0   74.29    3.04
   5  -4   1  863.15   16.17
   5  -4   1  845.94   16.60
  -5   4  -1  813.88   16.38
   5  -4   2  561.74   11.60
   5  -4   2  558.04   12.05
   5  -4   2  558.21   12.03
  -5   4  -2  552.61   12.09
   5  -4   3  389.49    8.78
   5  -4   3  392.20    9.32
   5  -4   3  384.04    9.13
  -5   4  -3  400.79    9.55
   5  -4   4  276.13    6.79
   5  -4   4  288.99    7.42
   5  -4   4  285.31    7.13
  -5   4  -4  300.97    7.69
   5  -4   5   29.79    1.87
   5  -4   5   28.24    1.64
  -5   4  -5   30.29    2.03
   5  -4   6  386.03    8.32
  -5   4  -6  406.96    8.78
  -5   4  -7  186.63    4.46
   5  -3 -11  524.28    9.69
   5  -3 -10  413.50    9.63
   5  -3 -10  400.30    8.29
   5  -3  -9    3.13    0.91
   5  -3  -9    2.23    0.63
   5  -3  -9    2.94    0.66
   5  -3  -8  266.06    7.73
   5  -3  -8  272.38    6.87
   5  -3  -7   44.44    2.69
   5  -3  -7   39.88    2.17
   5  -3  -7   41.98    2.30
   5  -3  -6   24.25    1.70
   5  -3  -6   21.44    1.65
   5  -3  -6   26.08    1.75
   5  -3  -5   24.23    1.64
   5  -3  -5   20.29    1.57
   5  -3  -5   21.32    1.54
   5  -3  -5   22.23    1.63
   5  -3  -5   21.68    3.20
   5  -3  -4  369.29   13.24
   5  -3  -4  363.97    8.48
   5  -3  -4  379.89    8.40
   5  -3  -4  371.86    8.58
   5  -3  -3   38.59    2.08
   5  -3  -3   44.10    2.23
   5  -3  -3   37.43    3.83
   5  -3  -2  855.49   22.26
   5  -3  -2  868.37   16.74
   5  -3  -2  899.25   16.84
  -5   3   1  253.36   10.91
   5  -3  -1  247.66    6.41
   5  -3  -1  250.28    6.43
   5  -3  -1  253.24   11.19
  -5   3   0  282.83   11.30
   5  -3   0  273.91   12.75
   5  -3   0  276.45    7.00
   5  -3   0  280.01    7.00
  -5   3   0  274.64    6.83
   5  -3   1  131.45    9.23
   5  -3   1  139.41    4.44
   5  -3   1  133.76    4.47
   5  -3   1  133.53    4.41
  -5   3  -1  139.33    4.56
   5  -3   2   33.01    2.03
   5  -3   2   28.59    1.91
  -5   3  -2   31.24    2.12
   5  -3   3    0.08    0.47
   5  -3   3    0.52    0.55
  -5   3  -3    0.29    0.59
   5  -3   4  174.21    5.31
  -5   3  -4  191.41    5.93
   5  -3   5  474.45   10.48
  -5   3  -5  540.41   11.54
   5  -3   6  111.72    3.40
  -5   3  -6  126.24    4.16
   5  -3   7    4.56    0.58
  -5   3  -7    6.49    0.78
   5  -2 -12    8.16    0.63
   5  -2 -10  320.09    8.54
   5  -2 -10  334.74    7.05
   5  -2  -9  526.64   12.32
   5  -2  -9  526.58   10.55
   5  -2  -9  525.14   10.92
   5  -2  -8   72.23    3.57
   5  -2  -8   80.83    3.31
   5  -2  -8   76.50    3.08
   5  -2  -7  107.39    3.91
   5  -2  -7   99.57    3.88
   5  -2  -7  109.34    3.85
   5  -2  -7  109.16    3.78
   5  -2  -6  733.14   14.74
   5  -2  -6  737.59   14.79
   5  -2  -6  756.34   14.78
   5  -2  -6  723.97   21.81
   5  -2  -5   82.30    3.18
   5  -2  -5   83.74    3.29
   5  -2  -5   89.19    3.34
   5  -2  -5   80.98    6.06
   5  -2  -4  491.09   16.07
   5  -2  -4  502.33   10.73
   5  -2  -4  518.90   10.77
   5  -2  -3  908.34   17.09
   5  -2  -3  866.72   22.98
   5  -2  -2   28.36    3.43
   5  -2  -2   34.11    1.98
   5  -2  -2   34.26    1.92
   5  -2  -1 1249.17   30.87
   5  -2  -1 1287.98   23.18
   5  -2  -1 1246.96   22.82
   5  -2   0  403.70    9.30
   5  -2   0  399.24    9.00
   5  -2   1   84.05    7.51
  -5   2  -2  518.87   11.52
  -5   2  -3  143.56    5.03
  -5   2  -4   14.05    1.56
  -5   2  -5  389.74    9.51
  -5   2  -6  378.46    8.75
  -5   2  -7   12.42    1.02
   5  -1 -12   72.23    2.13
   5  -1 -12   71.91    2.20
   5  -1 -11    1.57    0.46
   5  -1 -10  170.83    5.61
   5  -1  -9  683.88   14.77
   5  -1  -9  661.79   13.68
   5  -1  -8  378.64    9.52
   5  -1  -8  374.18    8.83
   5  -1  -8  364.71    8.24
   5  -1  -7  187.78    5.49
   5  -1  -7  182.52    5.49
   5  -1  -7  188.56    5.11
   5  -1  -6    1.64    0.63
   5  -1  -6    1.15    0.55
   5  -1  -6    1.44    1.16
   5  -1  -5  182.44    5.25
   5  -1  -5  187.47    5.21
   5  -1  -4   17.96    1.41
   5  -1  -4   14.28    2.62
   5  -1  -3   14.27    2.30
   5  -1  -3   14.58    1.28
   5  -1  -3   14.89    1.26
   5  -1  -3   11.14    2.25
   5  -1  -2 1052.54   19.26
   5  -1  -2 1063.84   26.43
   5  -1  -2 1079.99   19.85
   5  -1  -2 1040.93   26.32
   5  -1  -1   15.14    2.83
   5  -1  -1   15.89    1.22
   5  -1  -1   17.59    1.47
   5  -1   0  169.33    4.65
   5  -1   0  170.50   10.28
   5  -1   1   21.46    3.83
   5  -1   1   19.40    1.40
   5  -1   2   63.19    2.65
   5  -1   3   18.93    1.40
   5  -1   4   57.10    2.44
  -5   1  -4   62.14    3.08
   5  -1   5    5.17    0.69
  -5   1  -5    6.49    1.03
  -5   1  -6  479.37   10.00
  -5   1  -7  577.69   10.71
   5  -1   7  593.10   10.47
   5   0 -12   32.96    1.26
   5   0 -12   33.30    1.36
   5   0 -11   46.06    1.98
   5   0 -11   43.38    1.99
   5   0 -10  383.12    9.37
   5   0 -10  400.06    8.92
   5   0 -10  388.32    8.93
   5   0  -9   11.58    1.45
   5   0  -9   11.62    1.25
   5   0  -9   10.48    1.28
   5   0  -9   10.05    1.24
   5   0  -8 1370.91   25.16
   5   0  -8 1325.33   24.25
   5   0  -8 1357.03   25.32
   5   0  -7  181.14    5.34
   5   0  -7  175.92    5.93
   5   0  -7  185.47    5.43
   5   0  -6  257.96    7.41
   5   0  -6  272.01    6.85
   5   0  -5  986.93   26.70
   5   0  -5 1045.32   20.04
   5   0  -5 1041.47   19.43
   5   0  -4   15.07    1.36
   5   0  -4   14.57    1.29
   5   0  -4   14.69    2.67
   5   0  -3    0.83    1.00
   5   0  -3    0.54    0.88
   5   0  -3    0.20    0.41
   5   0  -3    0.41    0.40
   5   0  -2  884.54   16.47
   5   0  -2  871.68   16.85
   5   0  -2  882.54   16.83
   5   0  -2  892.63   24.11
   5   0  -2  855.33   16.45
   5   0  -1  418.71    9.02
   5   0  -1  412.29    9.37
   5   0  -1  415.07    9.46
   5   0  -1  421.83   16.10
   5   0  -1  411.86    9.25
   5   0   0  194.42    5.29
   5   0   0  191.28    5.55
   5   0   0  198.45    5.74
   5   0   0  194.87   11.26
   5   0   0  194.46    5.69
   5   0   1  342.24    8.02
   5   0   1  350.81    8.32
   5   0   1  346.47    8.73
   5   0   2   77.29    3.13
   5   0   2   82.17    3.24
   5   0   3  465.71   10.15
   5   0   4  182.99    5.17
   5   0   4  198.94    5.73
   5   0   5  190.09    4.87
   5   0   5  194.98    5.14
   5   0   6    1.99    0.40
   5   0   6    1.99    0.41
   5   0   7  108.66    2.80
   5   1 -12  101.88    2.51
   5   1 -11  254.58    5.57
   5   1 -11  246.89    5.70
   5   1 -10   30.31    1.77
   5   1 -10   25.61    1.69
   5   1  -9   90.74    3.29
   5   1  -9   90.29    3.63
   5   1  -9   81.79    3.42
   5   1  -8    6.18    1.00
   5   1  -8    5.43    0.88
   5   1  -8    7.33    1.20
   5   1  -8    6.02    1.06
   5   1  -7  314.77    7.78
   5   1  -7  310.80    8.61
   5   1  -6   26.93    2.06
   5   1  -6   27.67    1.76
   5   1  -5  131.06    4.60
   5   1  -5  129.00    4.14
   5   1  -5  139.22    4.06
   5   1  -4   10.30    1.17
   5   1  -4   14.07    1.24
   5   1  -4   15.03    2.81
   5   1  -4   14.73    1.23
   5   1  -3    4.24    0.76
   5   1  -3    5.50    0.84
   5   1  -3    4.51    0.75
   5   1  -3    3.31    0.67
   5   1  -2   91.64    3.34
   5   1  -2   91.60    3.58
   5   1  -2   96.07    3.45
   5   1  -2   92.73    3.43
   5   1  -2   90.11    6.92
   5   1  -1  813.36   15.70
   5   1  -1  809.40   16.18
   5   1  -1  818.43   15.87
   5   1  -1  814.53   16.09
   5   1   0  823.33   16.05
   5   1   0  830.79   16.58
   5   1   0  825.45   16.35
   5   1   0  850.02   16.76
   5   1   1  118.60    4.05
   5   1   1  122.88    4.32
   5   1   1  116.83    4.21
   5   1   1  112.14    4.40
   5   1   2  105.83    3.85
   5   1   2  110.25    3.94
   5   1   2  111.09    4.30
   5   1   3   47.87    2.43
   5   1   3   49.14    2.30
   5   1   3   51.22    2.68
   5   1   4  148.82    4.42
   5   1   4  158.65    4.54
   5   1   5    3.38    0.57
   5   1   5    3.07    0.49
   5   1   6   12.33    0.75
   5   1   6   11.19    0.78
   5   2 -11   11.38    0.73
   5   2 -11   11.34    0.79
   5   2 -10   18.42    1.23
   5   2 -10   16.33    1.20
   5   2  -9  231.45    5.94
   5   2  -9  203.62    5.70
   5   2  -8  252.00    6.11
   5   2  -8  269.56    7.01
   5   2  -7  382.96    8.45
   5   2  -7  386.53    9.36
   5   2  -6  166.47    5.47
   5   2  -6  169.82    4.75
   5   2  -5  182.69    5.63
   5   2  -5  185.31    5.12
   5   2  -4 1456.56   26.00
   5   2  -4 1435.17   26.10
   5   2  -4 1423.80   25.69
   5   2  -3  285.97    7.27
   5   2  -3  278.52    6.94
   5   2  -3  283.59    7.04
   5   2  -2  167.71    4.87
   5   2  -2  170.92    5.22
   5   2  -2  160.14    4.63
   5   2  -2  167.43    5.09
   5   2  -1    7.65    1.00
   5   2  -1    8.46    1.13
   5   2   0  233.93    6.17
   5   2   0  235.40    6.59
   5   2   0  233.15    6.57
   5   2   1    2.86    0.74
   5   2   1    2.86    0.77
   5   2   1    1.80    0.71
   5   2   2   13.47    1.29
   5   2   2   15.59    1.34
   5   2   2   16.24    1.44
   5   2   3   53.38    2.41
   5   2   3   54.42    2.27
   5   2   3   55.32    2.36
   5   2   4   31.96    1.63
   5   2   4   33.25    1.46
   5   2   5  366.86    7.11
   5   3 -10  217.70    4.51
   5   3 -10  208.45    4.54
   5   3  -9    7.97    0.83
   5   3  -9    6.49    0.76
   5   3  -8  124.60    3.93
   5   3  -8  112.39    3.63
   5   3  -7  268.65    6.79
   5   3  -7  257.16    6.05
   5   3  -6    1.76    0.65
   5   3  -6    0.90    0.47
   5   3  -5  221.65    6.16
   5   3  -5  228.09    5.89
   5   3  -4   37.60    2.04
   5   3  -4   40.45    2.17
   5   3  -4   37.59    2.08
   5   3  -3  155.27    4.72
   5   3  -3  154.05    4.57
   5   3  -3  161.36    4.80
   5   3  -2  109.09    3.91
   5   3  -2  110.15    3.90
   5   3  -1   49.28    2.25
   5   3  -1   51.33    2.58
   5   3  -1   51.44    2.54
   5   3   0  111.29    3.61
   5   3   0  108.09    3.86
   5   3   0  107.03    3.81
   5   3   1  376.60    8.20
   5   3   1  370.50    8.44
   5   3   1  368.48    8.29
   5   3   2  204.22    5.20
   5   3   2  206.06    5.22
   5   3   2  215.61    5.10
   5   3   3  238.63    5.41
   5   3   3  239.08    5.19
   5   3   3  241.90    4.94
   5   3   4  277.14    5.44
   5   4  -8    2.08    0.43
   5   4  -7  147.59    4.05
   5   4  -6   61.07    2.50
   5   4  -6   62.58    2.34
   5   4  -5    5.78    0.81
   5   4  -5    5.43    0.74
   5   4  -4   50.79    2.25
   5   4  -3  303.43    6.90
   5   4  -3  327.46    7.31
   5   4  -2  551.80   11.04
   5   4  -2  559.37   11.24
   5   4  -1    9.05    0.94
   5   4  -1    9.02    0.94
   5   4   0   46.05    2.04
   5   4   0   47.02    1.95
   5   4   1    8.57    0.81
   5   4   1    8.37    0.68
   5   4   2    3.77    0.45
   5   5  -3  150.10    3.69
  -6   7   6   66.03    1.81
   6  -7  -6   62.69    1.70
   6  -7  -5    4.57    0.50
   6  -7  -4   15.97    0.81
   6  -7  -3  131.71    3.51
   6  -7  -3  123.67    3.11
   6  -7  -2  163.40    4.14
   6  -7  -2  160.36    3.87
   6  -7  -1  262.60    5.80
   6  -7  -1  255.78    5.57
   6  -7   0   83.90    2.63
   6  -7   1  245.28    5.33
   6  -7   2   36.51    1.42
   6  -6  -8    8.22    0.61
   6  -6  -8    7.56    0.57
   6  -6  -7   96.50    2.74
   6  -6  -6    0.20    0.25
   6  -6  -6    0.67    0.37
   6  -6  -5  190.44    4.60
   6  -6  -4  534.48   10.78
   6  -6  -4  527.82   10.48
   6  -6  -3  241.09    6.00
   6  -6  -3  239.91    5.85
   6  -6  -2   39.91    2.03
   6  -6  -1   11.07    1.09
   6  -6  -1    9.41    1.01
   6  -6   0    3.20    0.66
  -6   6   0    3.15    0.62
   6  -6   1  578.76   11.59
  -6   6  -1  590.18   11.25
   6  -6   2  367.00    7.80
  -6   6  -2  364.34    7.52
   6  -6   3    8.99    0.80
  -6   6  -3   10.14    0.80
   6  -6   4   50.18    1.61
  -6   6  -4   53.33    1.69
   6  -5  -9  158.02    3.55
   6  -5  -8  257.25    5.76
   6  -5  -7  483.98    9.51
   6  -5  -7  482.45    9.85
   6  -5  -6  154.30    4.30
   6  -5  -5   55.15    2.46
   6  -5  -5   53.39    2.41
   6  -5  -4  193.02    5.29
   6  -5  -4  185.16    5.21
   6  -5  -3    2.28    0.61
   6  -5  -3    1.86    0.59
   6  -5  -2   49.54    2.38
  -6   5   2   51.37    2.23
   6  -5  -1    2.83    0.70
  -6   5   1    2.78    0.63
   6  -5   0    5.75    0.91
  -6   5   0    4.93    0.77
   6  -5   1    0.44    0.48
  -6   5  -1    1.55    0.57
   6  -5   2  335.43    7.79
  -6   5  -2  345.80    7.55
   6  -5   3   65.45    2.49
  -6   5  -3   64.96    2.44
   6  -5   4  298.63    6.24
  -6   5  -4  315.81    6.50
  -6   5  -5   32.29    1.27
   6  -4 -10   58.66    1.65
   6  -4  -9    8.03    0.99
   6  -4  -9    6.94    0.66
   6  -4  -9    7.36    0.75
   6  -4  -8   72.42    3.12
   6  -4  -8   68.57    2.61
   6  -4  -7    4.11    0.91
   6  -4  -7    3.73    0.70
   6  -4  -7    3.93    0.72
   6  -4  -6  538.88   11.19
   6  -4  -5  912.15   17.04
   6  -4  -5  871.31   16.74
   6  -4  -5  887.15   17.05
   6  -4  -4   92.81    3.41
   6  -4  -4   92.67    3.33
   6  -4  -4   93.57    3.54
   6  -4  -3  386.48    8.70
   6  -4  -3  380.93    8.57
   6  -4  -2  235.79    6.09
   6  -4  -1   69.42    2.85
   6  -4  -1   69.32    3.01
  -6   4   1   74.95    2.73
   6  -4   0   92.05    3.32
   6  -4   0   88.82    3.47
  -6   4   0   93.01    3.19
   6  -4   1  295.99    7.17
   6  -4   1  309.94    7.56
  -6   4  -1  313.14    7.18
   6  -4   2  182.80    5.00
   6  -4   2  186.97    5.22
  -6   4  -2  194.13    5.14
   6  -4   3  694.07   13.50
   6  -4   3  709.75   13.56
   6  -4   4  241.99    5.47
  -6   4  -4  254.95    5.84
  -6   4  -5   76.56    2.36
   6  -3 -11   92.53    2.44
   6  -3 -10   85.41    3.20
   6  -3  -9  209.61    6.03
   6  -3  -9  207.85    5.07
   6  -3  -8   18.25    1.69
   6  -3  -8   15.56    1.23
   6  -3  -7    0.00    0.44
   6  -3  -7    0.86    0.50
   6  -3  -7    1.42    0.55
   6  -3  -6  231.37    6.01
   6  -3  -6  227.48    6.23
   6  -3  -6  228.01    6.10
   6  -3  -5  356.86    8.05
   6  -3  -5  345.01    8.28
   6  -3  -5  338.87    8.21
   6  -3  -4   57.50    2.72
   6  -3  -4   55.64    2.68
   6  -3  -3   48.69    2.44
   6  -3  -3   46.96    2.44
   6  -3  -2    4.74    0.81
   6  -3  -1  160.69    4.96
   6  -3   0    2.16    0.65
   6  -3   0    2.53    0.68
   6  -3   1  114.55    4.07
   6  -3   1  115.13    3.91
   6  -3   2  508.00   11.23
  -6   3  -2  532.74   10.84
   6  -3   3   16.11    1.38
  -6   3  -3   15.25    1.28
   6  -3   4  121.53    3.84
  -6   3  -4  124.02    3.68
   6  -3   5   96.12    2.90
  -6   3  -5   98.63    2.82
   6  -3   6   60.13    1.75
   6  -2 -11    0.42    0.26
   6  -2 -10   60.61    2.76
   6  -2 -10   63.37    2.41
   6  -2  -9   35.91    2.28
   6  -2  -8    1.72    0.75
   6  -2  -8    3.10    0.75
   6  -2  -8    2.67    0.55
   6  -2  -7  122.48    4.12
   6  -2  -7  119.78    4.16
   6  -2  -7  117.82    3.98
   6  -2  -7  116.94    3.69
   6  -2  -6  110.07    3.89
   6  -2  -6  103.18    3.85
   6  -2  -6  107.02    3.83
   6  -2  -6  112.71    3.61
   6  -2  -5   65.32    2.85
   6  -2  -5   64.47    2.94
   6  -2  -5   65.70    2.87
   6  -2  -4 2231.02   38.63
   6  -2  -4 2224.79   38.54
   6  -2  -3   78.64    3.25
   6  -2  -3   77.63    3.16
   6  -2  -2  757.15   15.02
   6  -2  -2  729.90   14.74
   6  -2  -1  358.07    8.61
   6  -2  -1  342.89    8.29
   6  -2  -1  358.63    7.97
   6  -2   0    0.17    0.48
   6  -2   1   19.27    1.69
   6  -2   2  330.92    8.32
   6  -2   3   27.31    1.91
   6  -2   4  105.77    3.68
   6  -2   5  136.36    3.81
   6  -2   5  135.89    3.58
   6  -2   6   84.85    2.21
   6  -2   6   79.37    2.05
   6  -1 -11    6.34    0.64
   6  -1 -10    0.91    0.53
   6  -1 -10    0.67    0.42
   6  -1  -9   21.07    1.73
   6  -1  -9   20.14    1.47
   6  -1  -9   20.19    1.55
   6  -1  -8  475.29   10.81
   6  -1  -8  462.90   10.16
   6  -1  -8  466.10   10.59
   6  -1  -7   98.26    3.63
   6  -1  -7   96.30    3.64
   6  -1  -7   94.32    3.85
   6  -1  -6  125.55    4.20
   6  -1  -6  121.53    4.38
   6  -1  -6  127.97    4.27
   6  -1  -5   33.17    2.01
   6  -1  -5   32.91    2.04
   6  -1  -5   35.81    2.03
   6  -1  -4    0.57    0.51
   6  -1  -4    0.52    0.50
   6  -1  -3   21.45    1.63
   6  -1  -2   14.45    1.37
   6  -1  -2   13.90    1.20
   6  -1  -1  220.84    5.76
   6  -1  -1  222.47    6.23
   6  -1  -1  221.97    5.89
   6  -1   0    3.82    0.69
   6  -1   0    3.37    0.80
   6  -1   0    4.39    0.86
   6  -1   1    9.19    0.98
   6  -1   1    7.03    1.08
   6  -1   1    7.77    1.12
   6  -1   2   20.89    1.41
   6  -1   2   19.69    1.67
   6  -1   2   20.44    1.72
   6  -1   3  477.56    9.54
   6  -1   3  475.80   10.63
   6  -1   3  497.29   10.60
   6  -1   4  469.81   10.06
   6  -1   4  487.18    9.82
   6  -1   5    7.92    0.78
   6  -1   5    8.17    0.71
   6   0 -11  314.30    6.27
   6   0 -10  221.20    5.50
   6   0 -10  224.01    5.41
   6   0  -9  419.27    9.51
   6   0  -9  423.15    9.09
   6   0  -9  444.02    9.56
   6   0  -8  230.34    6.40
   6   0  -8  230.33    6.02
   6   0  -8  239.75    6.57
   6   0  -7   54.45    2.58
   6   0  -7   55.79    2.55
   6   0  -7   55.96    2.89
   6   0  -6    5.81    0.92
   6   0  -6    4.78    0.94
   6   0  -6    5.72    0.86
   6   0  -5   17.45    1.47
   6   0  -5   17.17    1.41
   6   0  -4  174.50    4.95
   6   0  -4  181.09    5.23
   6   0  -3  963.91   18.12
   6   0  -3  947.49   17.65
   6   0  -2   32.46    1.96
   6   0  -2   32.17    1.88
   6   0  -1  558.40   11.65
   6   0  -1  570.72   11.98
   6   0  -1  568.95   11.90
   6   0   0  807.43   15.60
   6   0   0  789.92   15.95
   6   0   0  836.24   16.24
   6   0   1   70.01    2.81
   6   0   1   66.26    2.99
   6   0   1   70.98    3.22
   6   0   2  169.36    4.65
   6   0   2  163.28    5.03
   6   0   2  172.08    5.18
   6   0   3    3.44    0.60
   6   0   3    2.88    0.66
   6   0   3    2.88    0.68
   6   0   4   11.83    0.80
   6   0   4   11.05    0.96
   6   0   4   12.96    0.95
   6   0   5    1.11    0.26
   6   0   5    0.98    0.23
   6   1 -11   31.82    1.14
   6   1 -10    0.28    0.29
   6   1  -9   30.50    1.56
   6   1  -9   31.85    1.78
   6   1  -8  253.12    6.14
   6   1  -8  258.53    6.67
   6   1  -7   34.02    1.90
   6   1  -7   36.24    2.19
   6   1  -6  139.99    4.33
   6   1  -6  143.49    4.67
   6   1  -5   53.93    2.56
   6   1  -5   55.36    2.35
   6   1  -5   54.19    2.22
   6   1  -4   71.92    2.84
   6   1  -4   73.37    2.80
   6   1  -4   74.40    2.78
   6   1  -3  142.47    4.21
   6   1  -3  142.86    4.28
   6   1  -2  175.80    4.88
   6   1  -2  181.17    5.12
   6   1  -1   89.06    3.27
   6   1  -1   85.11    3.15
   6   1  -1   94.39    3.53
   6   1   0  259.71    6.45
   6   1   0  256.83    6.43
   6   1   0  273.08    6.94
   6   1   1  206.28    5.37
   6   1   1  203.17    5.40
   6   1   1  210.63    5.83
   6   1   2   59.55    2.34
   6   1   2   54.48    2.30
   6   1   2   62.79    2.59
   6   1   3   17.48    1.08
   6   1   3   18.32    1.11
   6   1   3   18.75    1.17
   6   1   4   80.92    2.14
   6   1   4   84.92    2.11
   6   2 -10   88.02    2.28
   6   2  -9  101.38    2.98
   6   2  -8  398.61    7.97
   6   2  -8  411.93    8.69
   6   2  -7  804.54   14.82
   6   2  -7  811.28   15.55
   6   2  -6   18.48    1.29
   6   2  -6   18.53    1.44
   6   2  -6   17.56    1.12
   6   2  -5   11.10    1.08
   6   2  -5   11.11    0.97
   6   2  -4  122.85    3.71
   6   2  -4  124.28    3.73
   6   2  -3  104.58    3.16
   6   2  -3  110.91    3.55
   6   2  -2  296.38    7.04
   6   2  -1   41.15    2.13
   6   2   0    0.48    0.41
   6   2   0    0.34    0.42
   6   2   1  240.98    5.65
   6   2   1  246.68    5.84
   6   2   2  207.67    4.80
   6   2   2  220.80    4.85
   6   3  -8   63.16    2.02
   6   3  -7  312.72    6.66
   6   3  -6  162.91    4.24
   6   3  -6  162.46    3.83
   6   3  -5    1.85    0.41
   6   3  -5    1.87    0.43
   6   3  -4  135.13    3.70
   6   3  -3   40.33    1.85
   6   3  -2   12.44    1.03
   6   3  -1  110.01    3.27
   6   3   0  378.55    7.55
   7  -6  -6    5.42    0.51
   7  -6  -5   34.14    1.33
   7  -6  -5   34.13    1.42
   7  -6  -4   48.38    1.75
   7  -6  -3  153.14    3.70
   7  -6  -3  157.15    3.86
   7  -6  -2  666.78   12.09
   7  -6  -2  675.87   12.31
   7  -6  -1  144.49    3.50
   7  -6  -1  149.35    3.72
   7  -6   0   13.70    0.81
   7  -6   0   14.91    0.94
   7  -6   1  213.48    4.49
   7  -5  -8  160.27    3.45
   7  -5  -7   43.16    1.61
   7  -5  -6  199.04    4.61
   7  -5  -6  192.81    4.59
   7  -5  -5  272.06    6.19
   7  -5  -5  289.00    6.26
   7  -5  -4    1.01    0.44
   7  -5  -3  101.33    2.96
   7  -5  -3  101.98    3.26
   7  -5  -2  220.29    5.05
   7  -5  -2  221.84    5.45
   7  -5  -1  248.22    5.44
   7  -5  -1  248.92    5.89
   7  -5   0   41.19    1.84
   7  -5   1    1.39    0.38
  -7   5  -1    0.86    0.37
   7  -5   2   29.91    1.14
   7  -4  -9  447.97    8.67
   7  -4  -8   61.94    2.37
   7  -4  -8   58.27    1.85
   7  -4  -7   14.82    1.24
   7  -4  -7   13.33    0.93
   7  -4  -6  177.13    4.66
   7  -4  -6  179.90    4.54
   7  -4  -5   35.81    1.84
   7  -4  -5   33.49    1.76
   7  -4  -4   23.26    1.47
   7  -4  -4   22.31    1.49
   7  -4  -3  102.52    3.35
   7  -4  -3  104.54    3.45
   7  -4  -2   -0.06    0.40
   7  -4  -2    0.41    0.43
   7  -4  -1  443.70    9.12
   7  -4  -1  442.51    9.32
   7  -4   0  613.32   11.67
   7  -4   0  603.93   11.77
   7  -4   1  121.39    3.36
   7  -4   1  122.79    3.30
   7  -4   2  489.85    9.04
   7  -4   2  472.77    8.90
   7  -4   3   59.75    1.72
   7  -3 -10   16.90    1.01
   7  -3  -9  239.77    5.75
   7  -3  -9  233.20    4.97
   7  -3  -8   46.73    2.28
   7  -3  -8   43.52    1.76
   7  -3  -7   30.38    1.88
   7  -3  -7   28.87    1.45
   7  -3  -7   30.03    1.38
   7  -3  -6    7.45    0.81
   7  -3  -6    7.80    0.93
   7  -3  -6    6.52    0.82
   7  -3  -6    8.11    0.76
   7  -3  -5   16.73    1.19
   7  -3  -5   18.33    1.39
   7  -3  -5   15.12    1.22
   7  -3  -4  536.72   11.08
   7  -3  -4  530.86   10.90
   7  -3  -3   57.22    2.53
   7  -3  -3   54.97    2.44
   7  -3  -2  335.72    7.66
   7  -3  -2  323.58    7.48
   7  -3  -1   59.44    2.54
   7  -3  -1   58.63    2.40
   7  -3   0   56.94    2.43
   7  -3   0   53.75    2.06
   7  -3   1   16.47    1.23
   7  -3   1   13.51    1.02
   7  -3   2   21.98    1.31
   7  -3   2   21.57    1.21
   7  -3   3  354.78    6.98
   7  -3   3  345.75    6.83
   7  -2 -10   50.07    1.92
   7  -2 -10   49.61    1.57
   7  -2  -9    3.36    0.67
   7  -2  -9    2.14    0.43
   7  -2  -8  343.26    8.01
   7  -2  -8  359.76    7.44
   7  -2  -8  336.98    7.30
   7  -2  -7  357.40    7.62
   7  -2  -7  333.58    7.34
   7  -2  -6  246.77    6.02
   7  -2  -6  245.12    6.16
   7  -2  -5  671.65   13.06
   7  -2  -5  676.41   13.38
   7  -2  -5  667.78   13.04
   7  -2  -4   24.49    1.53
   7  -2  -4   23.98    1.65
   7  -2  -4   24.77    1.55
   7  -2  -3  226.10    5.96
   7  -2  -3  230.29    5.73
   7  -2  -2   10.93    1.13
   7  -2  -1    1.68    0.59
   7  -2  -1    0.76    0.38
   7  -2   0   29.60    1.78
   7  -2   0   28.88    1.56
   7  -2   1  279.53    6.55
   7  -2   1  265.03    6.18
   7  -2   2    8.25    0.86
   7  -2   2    8.79    0.81
   7  -2   3  378.45    7.49
   7  -2   3  372.31    7.27
   7  -1 -10   83.32    2.40
   7  -1 -10   85.02    2.22
   7  -1  -9   65.95    2.47
   7  -1  -9   66.90    2.21
   7  -1  -8    2.34    0.55
   7  -1  -8    1.87    0.46
   7  -1  -7    4.56    0.74
   7  -1  -7    3.84    0.63
   7  -1  -6   49.22    2.22
   7  -1  -6   46.42    1.96
   7  -1  -6   47.56    2.18
   7  -1  -5   65.95    2.66
   7  -1  -5   66.26    2.67
   7  -1  -4  438.10    9.43
   7  -1  -3   36.37    1.96
   7  -1  -2   83.86    3.08
   7  -1  -2   82.47    2.72
   7  -1  -1   85.90    3.11
   7  -1  -1   82.42    2.82
   7  -1   0  181.58    4.91
   7  -1   0  180.31    4.71
   7  -1   1    2.66    0.57
   7  -1   1    1.96    0.49
   7  -1   2  127.29    3.53
   7  -1   2  130.25    3.45
   7  -1   3   28.02    1.20
   7  -1   3   30.49    1.19
   7   0  -9   54.10    1.85
   7   0  -8    9.81    0.90
   7   0  -8    9.76    0.84
   7   0  -8   10.91    0.89
   7   0  -7  118.02    3.53
   7   0  -7  120.39    3.50
   7   0  -7  110.61    3.33
   7   0  -6  115.13    3.49
   7   0  -6  107.26    3.18
   7   0  -6  109.41    3.29
   7   0  -5   69.56    2.66
   7   0  -5   71.10    2.56
   7   0  -4  575.85   11.28
   7   0  -3  444.93    9.23
   7   0  -3  452.95    8.84
   7   0  -2   10.85    0.99
   7   0  -2    9.19    0.85
   7   0  -1   42.01    1.91
   7   0  -1   41.45    1.88
   7   0   0   60.66    2.28
   7   0   0   61.76    2.33
   7   0   1   11.01    0.85
   7   0   1   10.65    0.87
   7   0   2   89.32    2.37
   7   0   2  102.43    2.59
   7   1  -8    6.68    0.61
   7   1  -8    6.80    0.61
   7   1  -7    0.88    0.35
   7   1  -7    0.46    0.30
   7   1  -6    1.91    0.46
   7   1  -6    1.01    0.36
   7   1  -5  138.64    3.75
   7   1  -4   51.81    1.81
   7   1  -3  618.88   11.44
   7   1  -2  191.12    4.56
   7   1  -1   35.06    1.58
   7   1   0   80.86    2.46
   7   1   1  102.77    2.57
   7   2  -6  183.00    3.84
   7   2  -5   64.29    1.95
   7   2  -4    3.92    0.50
   7   2  -4    3.33    0.40
   7   2  -3   16.69    0.89
   7   2  -2  216.31    4.54
   8  -5  -4    0.82    0.24
   8  -5  -3    1.40    0.26
   8  -4  -6    4.76    0.55
   8  -4  -5   91.86    2.65
   8  -4  -4  353.84    6.96
   8  -4  -4  364.87    6.90
   8  -4  -3    5.68    0.56
   8  -4  -3    4.13    0.45
   8  -4  -2  574.07   10.28
   8  -3  -7  406.54    7.99
   8  -3  -6   18.91    1.17
   8  -3  -5    0.21    0.26
   8  -3  -4    2.41    0.46
   8  -3  -3   35.28    1.54
   8  -3  -2   23.52    1.21
   8  -3  -1  385.19    7.48
   8  -3   0   53.20    1.66
   8  -2  -7   70.95    2.29
   8  -2  -6  186.54    4.37
   8  -2  -6  164.91    3.73
   8  -2  -5   59.72    1.87
   8  -2  -5   62.47    2.11
   8  -2  -4  125.20    3.00
   8  -2  -4  122.00    3.29
   8  -2  -3  371.36    7.46
   8  -2  -2   33.28    1.47
   8  -2  -1   90.77    2.56
   8  -2   0  577.46   10.27
   8  -1  -7   29.44    1.12
   8  -1  -6  114.65    3.05
   8  -1  -6  127.70    3.00
   8  -1  -5   11.57    0.79
   8  -1  -5   11.53    0.78
   8  -1  -4    4.05    0.51
   8  -1  -4    4.26    0.51
   8  -1  -3   21.73    1.04
   8  -1  -3   21.72    1.08
   8  -1  -2    8.56    0.65
   8   0  -5   22.07    0.97
   8   0  -4   30.98    1.17
   0   0   0    0.00    0.00


TITL jjw0611 in P-1
REM P-1 (#2 in standard setting)
CELL 1.54184   6.715385   6.985925  10.627599  91.2912 107.1503 108.2389
ZERR    1.00   0.000168   0.000181   0.000199   0.0019   0.0021   0.0023
LATT  1
SFAC C H N P S Cl
UNIT 14.00 8.00 2.00 2.00 2.00 4.00
TREF
HKLF 4
END
_computing_structure_solution     'SHELXT 2014/5 (Sheldrick, 2014)'
;
_shelx_hkl_checksum              38590
_shelx_shelxl_version_number     2014/7
_olex2_submission_special_instructions 'No special instructions were received'
_oxdiff_exptl_absorpt_empirical_details
;
Empirical correction (ABSPACK) includes:
- Absorption correction using spherical harmonics
- Frame scaling
;
_oxdiff_exptl_absorpt_empirical_full_max 1.863
_oxdiff_exptl_absorpt_empirical_full_min 0.777
loop_
_space_group_symop_operation_xyz
'x, y, z'
'-x, -y, -z'
loop_
_atom_site_label
_atom_site_type_symbol
_atom_site_fract_x
_atom_site_fract_y
_atom_site_fract_z
_atom_site_U_iso_or_equiv
_atom_site_adp_type
_atom_site_occupancy
_atom_site_site_symmetry_order
_atom_site_calc_flag
_atom_site_refinement_flags_posn
_atom_site_refinement_flags_adp
_atom_site_refinement_flags_occupancy
_atom_site_disorder_assembly
_atom_site_disorder_group
Cl1 Cl 0.74026(5) 0.92976(5) 0.03758(3) 0.01925(10) Uani 1 1 d . . . . .
Cl2 Cl 0.77755(6) 0.49350(5) 0.07457(3) 0.01985(10) Uani 1 1 d . . . . .
S1 S 0.57774(5) 0.81218(5) 0.29360(3) 0.01503(10) Uani 1 1 d . . . . .
P1 P 0.93931(5) 0.79226(5) 0.16083(3) 0.01577(10) Uani 1 1 d . . . . .
N1 N 0.94548(19) 0.74555(17) 0.41063(12) 0.0154(2) Uani 1 1 d . . . . .
C1 C 0.8271(2) 0.7807(2) 0.29825(14) 0.0146(3) Uani 1 1 d . . . . .
C2 C 0.6328(2) 0.7710(2) 0.45845(13) 0.0144(3) Uani 1 1 d . . . . .
C3 C 0.8376(2) 0.7381(2) 0.50445(14) 0.0140(3) Uani 1 1 d . . . . .
C4 C 0.9176(2) 0.7018(2) 0.63587(14) 0.0164(3) Uani 1 1 d . . . . .
H4 H 1.058(3) 0.678(3) 0.6670(19) 0.017(4) Uiso 1 1 d . . . . .
C5 C 0.7912(2) 0.7000(2) 0.71808(14) 0.0176(3) Uani 1 1 d . . . . .
H5 H 0.841(3) 0.674(3) 0.808(2) 0.018(4) Uiso 1 1 d . . . . .
C6 C 0.5866(2) 0.7326(2) 0.67096(14) 0.0173(3) Uani 1 1 d . . . . .
H6 H 0.506(4) 0.731(3) 0.729(2) 0.027(5) Uiso 1 1 d . . . . .
C7 C 0.5040(2) 0.7674(2) 0.54120(15) 0.0161(3) Uani 1 1 d . . . . .
H7 H 0.369(3) 0.786(3) 0.508(2) 0.022(5) Uiso 1 1 d . . . . .
loop_
_atom_site_aniso_label
_atom_site_aniso_U_11
_atom_site_aniso_U_22
_atom_site_aniso_U_33
_atom_site_aniso_U_23
_atom_site_aniso_U_13
_atom_site_aniso_U_12
Cl1 0.02054(17) 0.02169(18) 0.01635(17) 0.00694(12) 0.00534(13) 0.00839(13)
Cl2 0.02315(17) 0.02063(18) 0.01714(18) 0.00024(13) 0.00594(13) 0.00976(13)
S1 0.01427(17) 0.01885(18) 0.01320(17) 0.00326(12) 0.00352(12) 0.00791(13)
P1 0.01393(17) 0.02020(19) 0.01391(18) 0.00369(13) 0.00510(13) 0.00597(13)
N1 0.0154(5) 0.0147(5) 0.0155(6) 0.0009(4) 0.0041(4) 0.0053(4)
C1 0.0144(6) 0.0146(6) 0.0149(6) 0.0015(5) 0.0048(5) 0.0050(5)
C2 0.0162(6) 0.0123(6) 0.0133(6) 0.0008(5) 0.0031(5) 0.0044(5)
C3 0.0147(6) 0.0112(6) 0.0153(6) 0.0001(5) 0.0043(5) 0.0037(5)
C4 0.0165(6) 0.0156(6) 0.0154(6) 0.0009(5) 0.0023(5) 0.0058(5)
C5 0.0214(7) 0.0151(6) 0.0138(7) 0.0008(5) 0.0041(5) 0.0043(5)
C6 0.0212(7) 0.0147(6) 0.0177(7) 0.0011(5) 0.0097(5) 0.0050(5)
C7 0.0152(6) 0.0150(6) 0.0185(7) 0.0006(5) 0.0052(5) 0.0060(5)
loop_
_atom_type_symbol
_atom_type_description
_atom_type_scat_dispersion_real
_atom_type_scat_dispersion_imag
_atom_type_scat_source
C C 0.0181 0.0091 'International Tables Vol C Tables 4.2.6.8 and 6.1.1.4'
H H 0.0000 0.0000 'International Tables Vol C Tables 4.2.6.8 and 6.1.1.4'
Cl Cl 0.3639 0.7018 'International Tables Vol C Tables 4.2.6.8 and 6.1.1.4'
N N 0.0311 0.0180 'International Tables Vol C Tables 4.2.6.8 and 6.1.1.4'
P P 0.2955 0.4335 'International Tables Vol C Tables 4.2.6.8 and 6.1.1.4'
S S 0.3331 0.5567 'International Tables Vol C Tables 4.2.6.8 and 6.1.1.4'
loop_
_exptl_crystal_face_index_h
_exptl_crystal_face_index_k
_exptl_crystal_face_index_l
_exptl_crystal_face_perp_dist
0 0 1 0.0288
0 0 -1 0.0288
3 -3 -4 0.0380
-3 3 4 0.0380
-3 -1 2 0.0814
3 1 -2 0.0814
-2 4 -3 0.0532
0 -4 3 0.0916
4 -1 2 0.0652
-4 3 -1 0.0636
-2 2 6 0.0344
2 -2 4 0.0487
loop_
_geom_angle_atom_site_label_1
_geom_angle_atom_site_label_2
_geom_angle_atom_site_label_3
_geom_angle
_geom_angle_site_symmetry_1
_geom_angle_site_symmetry_3
_geom_angle_publ_flag
C2 S1 C1 88.40(7) . . ?
Cl1 P1 Cl2 99.727(19) . . ?
C1 P1 Cl1 98.26(5) . . ?
C1 P1 Cl2 98.23(4) . . ?
C1 N1 C3 109.84(11) . . ?
S1 C1 P1 126.38(8) . . ?
N1 C1 S1 117.08(10) . . ?
N1 C1 P1 116.54(10) . . ?
C3 C2 S1 109.89(10) . . ?
C7 C2 S1 128.56(11) . . ?
C7 C2 C3 121.55(13) . . ?
N1 C3 C2 114.79(12) . . ?
N1 C3 C4 125.02(12) . . ?
C4 C3 C2 120.20(13) . . ?
C3 C4 H4 119.9(11) . . ?
C5 C4 C3 118.30(13) . . ?
C5 C4 H4 121.8(11) . . ?
C4 C5 H5 120.1(11) . . ?
C4 C5 C6 121.02(13) . . ?
C6 C5 H5 118.9(11) . . ?
C5 C6 H6 118.9(13) . . ?
C7 C6 C5 121.57(13) . . ?
C7 C6 H6 119.5(13) . . ?
C2 C7 H7 120.0(13) . . ?
C6 C7 C2 117.36(13) . . ?
C6 C7 H7 122.6(13) . . ?
loop_
_geom_bond_atom_site_label_1
_geom_bond_atom_site_label_2
_geom_bond_distance
_geom_bond_site_symmetry_2
_geom_bond_publ_flag
Cl1 P1 2.0623(5) . ?
Cl2 P1 2.0697(5) . ?
S1 C1 1.7427(13) . ?
S1 C2 1.7310(14) . ?
P1 C1 1.8231(14) . ?
N1 C1 1.3015(18) . ?
N1 C3 1.3881(18) . ?
C2 C3 1.4101(19) . ?
C2 C7 1.3998(19) . ?
C3 C4 1.4008(19) . ?
C4 H4 0.97(2) . ?
C4 C5 1.384(2) . ?
C5 H5 0.95(2) . ?
C5 C6 1.409(2) . ?
C6 H6 0.93(2) . ?
C6 C7 1.385(2) . ?
C7 H7 0.92(2) . ?
loop_
_geom_torsion_atom_site_label_1
_geom_torsion_atom_site_label_2
_geom_torsion_atom_site_label_3
_geom_torsion_atom_site_label_4
_geom_torsion
_geom_torsion_site_symmetry_1
_geom_torsion_site_symmetry_2
_geom_torsion_site_symmetry_3
_geom_torsion_site_symmetry_4
_geom_torsion_publ_flag
Cl1 P1 C1 S1 15.67(9) . . . . ?
Cl1 P1 C1 N1 -164.29(10) . . . . ?
Cl2 P1 C1 S1 -85.49(9) . . . . ?
Cl2 P1 C1 N1 94.56(10) . . . . ?
S1 C2 C3 N1 -0.09(15) . . . . ?
S1 C2 C3 C4 179.82(10) . . . . ?
S1 C2 C7 C6 -179.46(11) . . . . ?
N1 C3 C4 C5 179.67(12) . . . . ?
C1 S1 C2 C3 0.48(10) . . . . ?
C1 S1 C2 C7 -179.36(13) . . . . ?
C1 N1 C3 C2 -0.53(17) . . . . ?
C1 N1 C3 C4 179.56(13) . . . . ?
C2 S1 C1 P1 179.19(9) . . . . ?
C2 S1 C1 N1 -0.86(11) . . . . ?
C2 C3 C4 C5 -0.2(2) . . . . ?
C3 N1 C1 S1 0.94(15) . . . . ?
C3 N1 C1 P1 -179.10(9) . . . . ?
C3 C2 C7 C6 0.7(2) . . . . ?
C3 C4 C5 C6 0.4(2) . . . . ?
C4 C5 C6 C7 0.0(2) . . . . ?
C5 C6 C7 C2 -0.6(2) . . . . ?
C7 C2 C3 N1 179.77(12) . . . . ?
C7 C2 C3 C4 -0.3(2) . . . . ?
loop_
_exptl_oxdiff_crystal_face_indexfrac_h
_exptl_oxdiff_crystal_face_indexfrac_k
_exptl_oxdiff_crystal_face_indexfrac_l
_exptl_oxdiff_crystal_face_x
_exptl_oxdiff_crystal_face_y
_exptl_oxdiff_crystal_face_z
0.0006 -0.0015 0.9997 -0.1389 -0.0640 -0.0019
-0.0006 0.0015 -0.9997 0.1389 0.0640 0.0019
2.9946 -2.9966 -4.0077 0.7641 -0.5644 -0.0255
-2.9946 2.9966 4.0077 -0.7641 0.5644 0.0255
-2.9976 -0.9960 1.9960 -0.1629 0.2966 -0.7544
2.9976 0.9960 -1.9960 0.1629 -0.2966 0.7544
-1.9991 4.0042 -2.9873 0.1157 0.9367 0.4196
0.0002 -4.0003 2.9871 -0.0931 -0.5877 -0.7894
3.9987 -1.0099 1.9970 -0.2421 -0.9249 0.5399
-3.9972 3.0062 -0.9912 -0.0585 1.0588 -0.1499
-1.9943 1.9926 6.0043 -0.9723 0.1630 0.0107
2.0006 -2.0079 3.9932 -0.4163 -0.8028 -0.0296
