#------------------------------------------------------------------------------
#$Date: 2020-03-25 02:28:51 +0200 (Wed, 25 Mar 2020) $
#$Revision: 249678 $
#$URL: file:///home/coder/svn-repositories/cod/cif/4/03/81/4038100.cif $
#------------------------------------------------------------------------------
#
# This file is available in the Crystallography Open Database (COD),
# http://www.crystallography.net/
#
# All data on this site have been placed in the public domain by the
# contributors.
#
data_4038100
loop_
_publ_author_name
'Blahun, Oleksandr P.'
'Rozhenko, Alexander B.'
'Rusanov, Eduard'
'Zhersh, Serhii'
'Tolmachev, Andrey A.'
'Volochnyuk, Dmitriy M.'
'Grygorenko, Oleksandr O.'
_publ_section_title
;
 Twisting and turning the sulfonamide bond: synthetic, quantum chemical
 and crystallographic study.
;
_journal_name_full               'The Journal of organic chemistry'
_journal_paper_doi               10.1021/acs.joc.9b03394
_journal_year                    2020
_chemical_formula_moiety         'C5 H9 N O2 S'
_chemical_formula_sum            'C5 H9 N O2 S'
_chemical_formula_weight         147.19
_space_group_crystal_system      monoclinic
_space_group_IT_number           14
_space_group_name_Hall           '-P 2yn'
_space_group_name_H-M_alt        'P 1 21/n 1'
_atom_sites_solution_hydrogens   geom
_audit_creation_method           SHELXL-2016/4
_cell_angle_alpha                90
_cell_angle_beta                 96.211(5)
_cell_angle_gamma                90
_cell_formula_units_Z            4
_cell_length_a                   6.4204(11)
_cell_length_b                   11.0682(19)
_cell_length_c                   8.9552(11)
_cell_measurement_reflns_used    860
_cell_measurement_temperature    173(1)
_cell_measurement_theta_max      26.72
_cell_measurement_theta_min      2.94
_cell_volume                     632.64(17)
_computing_cell_refinement       'Bruker SMART'
_computing_data_collection       'Bruker SMART'
_computing_data_reduction        'Bruker SAINT'
_computing_molecular_graphics    'Bruker SHELXTL'
_computing_publication_material  'Bruker SHELXTL'
_computing_structure_refinement  'SHELXL-2016/4 (Sheldrick, 2016)'
_computing_structure_solution    'Bruker SHELXTL'
_diffrn_ambient_temperature      173(1)
_diffrn_measured_fraction_theta_full 0.999
_diffrn_measured_fraction_theta_max 0.999
_diffrn_measurement_device_type  'CCD area detector'
_diffrn_measurement_method       'phi and omega scans'
_diffrn_radiation_monochromator  graphite
_diffrn_radiation_source         'sealed tube'
_diffrn_radiation_type           MoK\a
_diffrn_radiation_wavelength     0.71073
_diffrn_reflns_av_R_equivalents  0.0262
_diffrn_reflns_av_unetI/netI     0.0199
_diffrn_reflns_Laue_measured_fraction_full 0.999
_diffrn_reflns_Laue_measured_fraction_max 0.999
_diffrn_reflns_limit_h_max       6
_diffrn_reflns_limit_h_min       -7
_diffrn_reflns_limit_k_max       13
_diffrn_reflns_limit_k_min       -13
_diffrn_reflns_limit_l_max       10
_diffrn_reflns_limit_l_min       -11
_diffrn_reflns_number            5573
_diffrn_reflns_point_group_measured_fraction_full 0.999
_diffrn_reflns_point_group_measured_fraction_max 0.999
_diffrn_reflns_theta_full        25.242
_diffrn_reflns_theta_max         25.997
_diffrn_reflns_theta_min         2.936
_exptl_absorpt_coefficient_mu    0.430
_exptl_absorpt_correction_T_max  0.93
_exptl_absorpt_correction_T_min  0.82
_exptl_absorpt_correction_type   multi-scan
_exptl_absorpt_process_details   SADABS
_exptl_crystal_colour            colourless
_exptl_crystal_density_diffrn    1.545
_exptl_crystal_description       prizm
_exptl_crystal_F_000             312
_exptl_crystal_size_max          0.410
_exptl_crystal_size_mid          0.300
_exptl_crystal_size_min          0.170
_refine_diff_density_max         0.293
_refine_diff_density_min         -0.386
_refine_diff_density_rms         0.064
_refine_ls_extinction_method     none
_refine_ls_goodness_of_fit_ref   1.018
_refine_ls_hydrogen_treatment    constr
_refine_ls_matrix_type           full
_refine_ls_number_parameters     82
_refine_ls_number_reflns         1242
_refine_ls_number_restraints     0
_refine_ls_restrained_S_all      1.018
_refine_ls_R_factor_all          0.0339
_refine_ls_R_factor_gt           0.0304
_refine_ls_shift/su_max          0.003
_refine_ls_shift/su_mean         0.001
_refine_ls_structure_factor_coef Fsqd
_refine_ls_weighting_details
'w=1/[\s^2^(Fo^2^)+(0.0536P)^2^+0.3483P] where P=(Fo^2^+2Fc^2^)/3'
_refine_ls_weighting_scheme      calc
_refine_ls_wR_factor_gt          0.0860
_refine_ls_wR_factor_ref         0.0885
_reflns_Friedel_coverage         0.000
_reflns_number_gt                1121
_reflns_number_total             1242
_reflns_threshold_expression     'I > 2\s(I)'
_cod_data_source_file            jo9b03394_si_006.cif
_cod_data_source_block           xr35
_cod_original_sg_symbol_H-M      'P 21/n'
_cod_database_code               4038100
_shelx_shelxl_version_number     2016/4
_shelx_space_group_comment
;
The symmetry employed for this shelxl refinement is uniquely defined
by the following loop, which should always be used as a source of
symmetry information in preference to the above space-group names.
They are only intended as comments.
;
_shelx_estimated_absorpt_t_min   0.843
_shelx_estimated_absorpt_t_max   0.931
_shelx_res_file
;
TITL xr35 in P2(1)/n
 xr35.res created by SHELXL-2016/4 at 16:43:21 on 05-Jul-2018
CELL 0.71073   6.4204  11.0682   8.9552  90.000  96.211  90.000
ZERR    4.00   0.0011   0.0019   0.0011   0.000   0.005   0.000
LATT 1
SYMM 0.5-X, 0.5+Y, 0.5-Z
SFAC C  H  N  O  S
UNIT 20  36  4  8  4
L.S. 4
BOND
omit 0 52
FMAP 2
acta
PLAN 20
SIZE 0.17 0.30 0.41
TEMP 23.000
WGHT    0.053600    0.348300
FVAR       1.05196
MOLE 1
S1    5    0.053378    0.278801    0.193935    11.00000    0.02001    0.01607 =
         0.02047   -0.00072    0.00053   -0.00045
O1    4   -0.138861    0.319078    0.244175    11.00000    0.02638    0.02794 =
         0.04044    0.00117    0.00648    0.00858
O2    4    0.164151    0.360828    0.107144    11.00000    0.03667    0.02093 =
         0.03077    0.00436    0.00579   -0.00503
N1    3    0.214618    0.225929    0.340257    11.00000    0.02295    0.02321 =
         0.01834   -0.00209   -0.00089    0.00034

C1    1    0.382513    0.167198    0.261651    11.00000    0.01624    0.03024 =
         0.03179   -0.00005    0.00256   -0.00021
AFIX  23
H1A   2    0.457491    0.108171    0.327085    11.00000   -1.20000
H1B   2    0.481740    0.227403    0.234795    11.00000   -1.20000
AFIX   0

C2    1    0.275443    0.103961    0.117032    11.00000    0.03194    0.02335 =
         0.02184   -0.00096    0.00870    0.00344
AFIX  23
H2A   2    0.324311    0.138408    0.027513    11.00000   -1.20000
H2B   2    0.304533    0.017943    0.119240    11.00000   -1.20000
AFIX   0
C3    1    0.042127    0.127653    0.120549    11.00000    0.02606    0.01644 =
         0.02217   -0.00238   -0.00468   -0.00209
AFIX  13
H3    2   -0.045369    0.116657    0.024868    11.00000   -1.20000
AFIX   0
C4    1   -0.032110    0.061455    0.255461    11.00000    0.01981    0.02156 =
         0.04020    0.00447    0.00387   -0.00325
AFIX  23
H4A   2    0.004459   -0.023536    0.253963    11.00000   -1.20000
H4B   2   -0.182622    0.068819    0.255688    11.00000   -1.20000
AFIX   0
C5    1    0.085510    0.125696    0.394856    11.00000    0.03006    0.02795 =
         0.02302    0.00557    0.00960    0.00360
AFIX  23
H5A   2   -0.014479    0.157986    0.458241    11.00000   -1.20000
H5B   2    0.175111    0.068519    0.453384    11.00000   -1.20000
AFIX   0
HKLF 4




REM  xr35 in P2(1)/n
REM R1 =  0.0304 for    1121 Fo > 4sig(Fo)  and  0.0339 for all    1242 data
REM     82 parameters refined using      0 restraints

END

WGHT      0.0395      0.3376

REM Highest difference peak  0.293,  deepest hole -0.386,  1-sigma level  0.064
Q1    1   0.3279  0.1405  0.1798  11.00000  0.05    0.29
Q2    1   0.1448  0.2545  0.2807  11.00000  0.05    0.29
Q3    1   0.0047  0.0886  0.1826  11.00000  0.05    0.24
Q4    1   0.0287  0.2021  0.1494  11.00000  0.05    0.22
Q5    1   0.0244  0.0926  0.3211  11.00000  0.05    0.19
Q6    1   0.1083  0.3386  0.1488  11.00000  0.05    0.19
Q7    1   0.2949  0.1983  0.3014  11.00000  0.05    0.19
Q8    1   0.1506  0.1746  0.3709  11.00000  0.05    0.18
Q9    1   0.3186  0.0975  0.0587  11.00000  0.05    0.16
Q10   1   0.1520  0.1221  0.1161  11.00000  0.05    0.16
Q11   1   0.2450  0.2741  0.3936  11.00000  0.05    0.15
Q12   1   0.1379  0.1051  0.6323  11.00000  0.05    0.15
Q13   1  -0.2146  0.3351  0.1570  11.00000  0.05    0.15
Q14   1  -0.2364  0.0561  0.1822  11.00000  0.05    0.14
Q15   1  -0.2005  0.0213  0.4088  11.00000  0.05    0.14
Q16   1   0.2570  0.0945  0.4713  11.00000  0.05    0.14
Q17   1  -0.0049  0.1266  0.0688  11.00000  0.05    0.14
Q18   1   0.1207  0.2075  0.5983  11.00000  0.05    0.13
Q19   1   0.0110  0.0233  0.2467  11.00000  0.05    0.13
Q20   1  -0.1524  0.1231  0.0606  11.00000  0.05    0.13
;
_shelx_res_checksum              65582
_shelx_hkl_file
;
  -1   0   0   -1.34    0.42
  -1   0   0   -0.98    0.19
   1   0   0   -0.88    0.20
  -1   0   0   -1.83    0.31
   1   0   0   -0.64    0.44
  -2   0   0 1040.45   30.39
  -2   0   0 1046.74   29.46
  -2   0   0 1172.12   29.89
   2   0   0 1067.68   29.91
  -3   0   0    0.26    1.07
  -3   0   0   -0.48    0.88
  -4   0   0   -0.32    1.10
  -5   0   0    1.06    1.63
  -6   0   0   38.12    4.91
  -7   0   0    0.41    2.11
  -8   0   0  104.95    8.74
   0  -1   0   -8.36    0.33
   0   1   0   -7.21    0.38
   0   1   0   -6.25    0.38
   0  -1   0   -7.63    0.36
  -1  -1   0  203.47    6.37
   1   1   0  192.41    6.05
  -1  -1   0  195.53    6.10
  -1   1   0  195.95    6.27
   1  -1   0  206.17    6.32
  -1   1   0  208.47    6.09
  -1  -1   0  200.63    5.91
   1   1   0  198.80    6.35
   1  -1   0  202.06    6.09
   1   1   0  194.59    5.84
  -2   1   0  604.44   17.69
  -2  -1   0  581.45   17.45
   2   1   0  601.94   18.10
  -2  -1   0  592.35   18.06
  -2   1   0  653.06   17.20
   2  -1   0  634.23   17.20
   3   1   0 1377.12   41.58
  -3  -1   0 1493.11   40.50
  -3   1   0 1397.09   40.47
  -3   1   0 1594.96   40.05
   3  -1   0 1471.40   39.93
  -3  -1   0 1499.72   41.80
   4  -1   0  716.38   20.42
  -4   1   0  798.59   20.69
  -4  -1   0  702.38   22.49
  -4   1   0  690.45   22.59
  -5   1   0    3.95    2.40
   5  -1   0    4.34    0.89
  -5  -1   0    4.25    2.16
  -6  -1   0  972.25   31.63
  -6   1   0  996.17   31.84
  -7  -1   0    2.65    2.75
  -7   1   0    7.48    3.02
  -8   1   0   20.89    4.77
  -8  -1   0   13.07    4.26
   0  -2   0 6676.47  180.89
   0  -2   0 7187.39  174.23
   0   2   0 6721.02  179.33
   0   2   0 6509.28  173.31
   0  -2   0 6375.07  179.75
   0   2   0 6821.01  181.53
  -1  -2   0 1473.60   41.24
  -1   2   0 1546.46   41.47
  -1  -2   0 1496.08   40.10
   1  -2   0 1528.38   41.54
   1  -2   0 1578.84   40.36
   1   2   0 1523.57   40.05
  -1  -2   0 1541.79   41.71
  -1   2   0 1580.36   40.53
   1   2   0 1467.77   41.67
   1   2   0 1554.93   41.17
  -2  -2   0  110.34    3.59
   2  -2   0  106.18    4.27
  -2   2   0  115.42    4.41
   2   2   0  108.84    3.52
  -2  -2   0  110.35    4.83
  -2   2   0  111.17    4.92
  -2  -2   0  112.17    4.66
   2   2   0  110.26    4.77
  -3  -2   0   20.08    2.42
  -3   2   0   23.04    2.74
  -3  -2   0   20.65    2.48
   3  -2   0   20.50    1.83
   3   2   0   20.34    2.45
  -4  -2   0   40.08    3.86
   4   2   0   39.26    3.50
  -4   2   0   30.98    3.61
   4  -2   0   34.09    2.40
  -5  -2   0    7.95    2.48
  -5   2   0   13.13    3.09
   5  -2   0    6.01    1.35
  -6  -2   0   69.48    5.94
  -6   2   0   62.65    5.75
  -7   2   0  159.71   10.17
  -7  -2   0  193.21   10.92
  -8  -2   0   91.10    8.16
   0   3   0   -0.01    0.65
   0   3   0    0.85    0.73
   0  -3   0    1.09    0.65
   0   3   0    0.42    0.85
   0  -3   0    0.42    0.79
   0  -3   0    0.43    0.71
   1  -3   0 2367.69   64.06
   1  -3   0 2482.72   61.90
   1   3   0 2457.08   63.60
   1   3   0 2395.41   61.63
  -1  -3   0 2266.12   63.62
  -1   3   0 2408.22   62.11
  -1  -3   0 2305.85   64.10
   1   3   0 2360.49   64.24
  -1   3   0 2289.65   64.25
  -2  -3   0  184.92    7.00
   2  -3   0  209.35    7.25
  -2  -3   0  193.88    6.38
   2   3   0  198.89    6.31
  -2  -3   0  198.60    7.51
  -2   3   0  196.64    7.51
   2   3   0  193.30    7.42
   3   3   0  599.51   16.83
  -3  -3   0  639.74   19.47
  -3  -3   0  581.89   18.53
   3   3   0  595.45   19.20
  -3  -3   0  613.35   16.99
  -3   3   0  603.35   19.02
   3  -3   0  633.88   18.39
  -4  -3   0  296.53   11.31
   4  -3   0  286.79    9.94
   4   3   0  288.04   11.43
  -4   3   0  286.44   11.52
  -5   3   0   11.05    3.12
   5   3   0   16.33    3.21
  -5  -3   0   13.70    3.13
   5  -3   0   17.05    2.17
  -6   3   0  766.62   26.67
  -6  -3   0  787.92   26.48
  -7  -3   0   24.22    4.92
  -7   3   0   22.05    4.66
  -8  -3   0    1.53    3.03
  -8   3   0   -1.35    2.41
   0   4   0  931.78   25.21
   0  -4   0  959.28   26.63
   0   4   0  902.47   26.54
   0  -4   0  908.33   26.47
  -1   4   0  226.03    8.34
   1   4   0  223.06    8.23
  -1  -4   0  232.54    7.94
  -1   4   0  227.53    7.94
   1   4   0  232.45    7.61
  -1  -4   0  233.85    8.30
   1  -4   0  225.62    8.25
   2  -4   0  140.61    6.13
  -2   4   0  146.69    6.45
  -2  -4   0  149.96    6.00
  -2  -4   0  144.45    6.38
  -2  -4   0  140.45    5.45
   2   4   0  156.81    6.48
  -3  -4   0    0.69    0.69
   3   4   0   -0.64    1.02
   3  -4   0    1.13    1.07
   3   4   0    0.62    0.66
  -3  -4   0   -0.50    0.94
  -3   4   0    0.27    1.39
  -4   4   0  271.09   11.34
   4  -4   0  271.15   10.09
  -4  -4   0  280.32    8.09
   4   4   0  278.11   11.34
  -4  -4   0  280.17   11.03
  -5  -4   0  362.25   14.29
   5  -4   0  369.24   12.70
   5   4   0  363.41   14.61
  -5   4   0  357.20   14.63
  -6   4   0   42.27    5.48
  -6  -4   0   35.92    5.06
  -7   4   0   61.86    7.06
  -7  -4   0   56.76    6.55
   0  -5   0   -0.92    0.78
   0   5   0    0.11    1.01
   0   5   0    0.92    0.95
   0  -5   0   -1.00    0.72
   1   5   0 3032.28   78.19
  -1   5   0 3039.64   78.62
   1   5   0 3014.67   81.64
  -1  -5   0 2895.65   80.95
  -1   5   0 3061.19   81.81
   1  -5   0 2920.34   81.43
  -2  -5   0  107.93    4.77
   2  -5   0   94.15    5.17
   2   5   0  101.60    5.33
  -2  -5   0  104.96    5.45
  -2   5   0  102.81    5.51
  -2   5   0   97.77    5.39
   3  -5   0  317.29   11.50
  -3  -5   0  318.36   10.33
  -3   5   0  313.53   11.96
  -3  -5   0  319.66   11.42
   3   5   0  311.38   11.89
  -4  -5   0   32.91    3.77
   4   5   0   38.01    4.08
   4  -5   0   40.51    3.75
  -4  -5   0   39.95    2.49
  -4   5   0   46.34    4.83
   5  -5   0  193.77    8.55
  -5   5   0  190.73   10.00
  -5  -5   0  194.24    9.62
   5   5   0  196.27    9.89
  -6   5   0    5.93    3.00
   6  -5   0    3.54    1.95
   6   5   0    2.81    2.44
  -6  -5   0    0.19    2.25
  -7   5   0    6.21    3.18
  -7  -5   0    6.90    3.44
   0   6   0   37.23    2.92
   0   6   0   38.13    3.24
   0  -6   0   38.82    3.30
   1   6   0    3.35    1.30
   1  -6   0    3.34    1.47
   1   6   0    0.81    1.30
  -1  -6   0    3.29    1.36
  -1   6   0    4.77    1.72
  -1   6   0    2.47    1.44
  -2  -6   0   80.42    4.39
   2   6   0   68.28    4.65
  -2   6   0   77.56    5.00
  -2   6   0   84.84    5.18
   2   6   0   80.98    4.37
   2  -6   0   75.77    4.89
  -3   6   0 1195.48   34.85
   3  -6   0 1194.43   35.23
  -3  -6   0 1200.08   33.85
   3   6   0 1155.91   35.66
  -4  -6   0  670.88   21.52
   4  -6   0  667.79   21.47
  -4  -6   0  639.91   19.40
   4   6   0  658.85   22.40
  -4   6   0  640.25   21.97
  -5  -6   0 1357.43   40.24
  -5   6   0 1269.54   40.51
   5   6   0 1396.65   41.89
   5  -6   0 1341.66   39.79
   6  -6   0   60.34    5.04
  -6   6   0   75.35    7.17
   6   6   0   54.10    5.99
  -6  -6   0   68.96    6.17
  -7   6   0  108.18    8.76
  -7  -6   0  108.11    8.51
   0  -7   0    0.13    1.11
   0   7   0    1.07    1.45
   0   7   0    0.13    1.12
   1   7   0  546.33   16.60
   1  -7   0  547.17   18.01
  -1   7   0  525.70   16.86
  -1  -7   0  501.44   17.37
   1   7   0  534.62   17.92
  -1   7   0  523.54   17.98
   2   7   0  998.90   28.70
  -2   7   0 1001.10   30.85
   2  -7   0  992.65   30.50
  -2  -7   0  994.54   29.65
   2   7   0  970.49   30.45
  -2   7   0 1008.39   29.63
   3  -7   0  834.39   26.32
  -3   7   0  854.62   26.15
  -3  -7   0  851.48   25.01
   3   7   0  760.54   26.33
  -3   7   0  786.40   26.68
   3   7   0  857.83   25.11
   4   7   0  141.91    8.12
  -4  -7   0  147.72    6.49
  -4   7   0  129.24    7.99
   4  -7   0  137.92    7.68
   5  -7   0   80.34    5.96
   5   7   0   92.69    6.83
  -5   7   0   83.43    6.80
   6  -7   0    0.24    2.24
   6   7   0   -0.03    2.38
  -6  -7   0    0.83    2.34
  -6   7   0    0.82    2.28
  -7  -7   0  129.51    9.36
  -7   7   0  117.97    9.15
   0  -8   0  194.02    8.95
   0   8   0  181.93    8.80
   0   8   0  193.78    7.99
  -1   8   0   15.51    2.87
  -1  -8   0   15.08    2.76
   1  -8   0   10.53    2.55
   1   8   0   13.81    2.80
   1   8   0   13.37    2.49
  -1   8   0    9.10    2.50
   2   8   0   -0.18    1.50
   2  -8   0    1.22    1.62
  -2   8   0    2.15    2.11
  -2  -8   0    0.27    1.55
  -2   8   0    0.97    1.78
   2   8   0    3.68    1.85
   3   8   0 1259.96   36.88
   3  -8   0 1291.75   39.00
   3   8   0 1330.17   39.47
  -3  -8   0 1249.53   37.45
  -3   8   0 1331.62   38.28
  -3   8   0 1222.18   39.34
  -4   8   0   24.41    4.17
  -4   8   0   23.77    4.26
   4  -8   0   25.26    3.88
   4   8   0   39.07    4.47
  -4  -8   0   30.88    3.13
   4   8   0   31.17    4.31
   5  -8   0  206.81   10.25
  -5   8   0  199.92   11.08
  -5   8   0  203.36   10.81
   5   8   0  188.43   10.62
  -6   8   0   30.51    5.26
   6  -8   0   30.14    4.53
   6   8   0   29.23    5.39
   0  -9   0    1.22    1.47
   0   9   0   -0.64    1.55
   0   9   0   -0.14    1.61
  -1  -9   0  245.98   10.80
  -1   9   0  239.65   10.16
   1  -9   0  219.65   10.75
  -1   9   0  261.57   11.44
   1   9   0  250.58    9.89
   1   9   0  245.18   11.04
  -2   9   0  325.30   13.97
  -2  -9   0  337.80   13.24
  -2   9   0  331.04   13.24
   2   9   0  323.21   13.70
   2   9   0  343.16   12.50
   2  -9   0  341.38   13.89
   3   9   0  450.78   16.09
  -3  -9   0  447.46   16.26
  -3   9   0  472.85   18.15
   3  -9   0  455.35   17.51
  -3   9   0  441.32   16.97
   3   9   0  474.52   17.78
   4  -9   0    5.15    2.64
  -4  -9   0    6.87    2.20
  -4   9   0    5.75    2.79
   4   9   0    6.54    2.80
  -4   9   0    5.30    2.96
   4   9   0    3.76    2.39
   5   9   0   30.95    5.12
  -5   9   0   26.87    4.92
  -5   9   0   25.71    4.83
   5   9   0   20.28    4.11
   5  -9   0   26.92    4.40
  -6   9   0    4.41    3.28
   6  -9   0    5.99    3.22
   6   9   0    1.21    2.80
   0  10   0   -1.15    1.85
   0  10   0    0.48    1.95
   0 -10   0    0.13    1.83
   1  10   0   42.81    4.30
  -1  10   0   45.19    4.73
   1  10   0   48.91    5.10
   1 -10   0   52.32    5.24
  -1 -10   0   31.64    4.28
  -1  10   0   49.13    5.22
   2  10   0    0.69    2.04
  -2  10   0    3.60    2.58
   2  10   0    5.02    2.45
   2 -10   0    2.50    2.21
  -2  10   0    3.23    2.68
  -2 -10   0    1.89    2.04
  -3 -10   0  359.34   14.17
   3  10   0  356.21   13.89
  -3  10   0  348.09   15.57
   3 -10   0  359.59   15.35
  -3  10   0  356.48   14.84
   3  10   0  354.45   15.23
  -4  10   0   14.53    3.87
  -4  10   0   13.91    3.87
   4  10   0   13.95    3.34
   4  10   0   12.22    3.67
   4 -10   0   14.53    3.96
  -5  10   0   -1.20    2.67
   5  10   0   -2.23    2.29
   5 -10   0   -0.52    2.41
  -5  10   0    2.80    2.65
   5  10   0    2.90    2.64
   0  11   0    0.61    2.28
   0  11   0   -1.70    2.03
   0 -11   0   -1.04    1.84
  -1  11   0   45.26    5.44
   1 -11   0   51.80    5.66
   1  11   0   53.23    4.85
   1  11   0   58.79    6.03
  -1  11   0   46.05    5.03
  -1 -11   0   43.47    5.19
  -2  11   0  132.67    8.96
  -2  11   0  145.61    8.56
  -2 -11   0  148.43    8.77
   2  11   0  146.39    8.03
   2 -11   0  137.46    9.01
   2  11   0  158.15    9.26
  -3  11   0   90.27    7.44
   3 -11   0   85.11    7.18
  -3  11   0   82.28    6.66
  -3 -11   0   86.23    6.38
   3  11   0   84.50    6.27
   3  11   0   80.30    6.79
   4 -11   0  286.00   14.10
  -4  11   0  276.33   13.54
  -4  11   0  296.92   14.81
   4  11   0  273.80   13.95
   4  11   0  281.39   12.72
  -5  11   0    2.47    2.77
   5 -11   0    1.44    2.81
   5  11   0    2.72    2.62
   0 -12   0  329.06   15.12
   0  12   0  336.40   15.27
   0  12   0  329.67   13.58
   1  12   0  168.66    8.81
   1 -12   0  151.48    9.81
  -1 -12   0  187.35   10.40
  -1  12   0  160.58    9.09
   1  12   0  174.73   10.26
  -1  12   0  167.72   10.29
  -2 -12   0  146.44    9.16
   2 -12   0  145.73    9.65
  -2  12   0  141.72    9.70
   2  12   0  155.77    8.56
   2  12   0  152.92    9.72
  -2  12   0  143.91    8.86
  -3  12   0  230.59   13.03
   3  12   0  231.66   12.43
  -3 -12   0  243.46   11.79
   3  12   0  220.03   10.92
   3 -12   0  225.02   12.58
  -3  12   0  219.69   11.66
   4  12   0   48.18    5.87
   4 -12   0   44.38    6.37
  -4  12   0   47.56    6.25
   0 -13   0    1.28    2.60
   0  13   0   -0.54    2.75
   0  13   0   -0.64    2.80
   1  13   0  188.58   11.44
  -1  13   0  207.11   12.01
  -1  13   0  191.79   10.61
   1 -13   0  204.19   11.99
   1  13   0  188.26   10.15
  -1 -13   0  195.35   11.48
   2  13   0  366.54   17.21
   2 -13   0  393.73   17.90
  -2 -13   0  386.98   17.06
  -2  13   0  389.44   16.43
   2  13   0  381.81   15.57
   3 -13   0   86.50    8.09
   3  13   0   92.91    7.20
  -3  13   0   93.81    7.83
  -3 -13   0   92.89    7.43
   0 -14   0  204.37   12.36
  -1 -14   0    3.08    3.00
   1 -14   0   -1.72    2.56
  -8   0   1    1.97    2.63
  -7   0   1  102.62    7.91
  -6   0   1    1.71    2.43
  -5   0   1  930.35   29.00
   4   0  -1   -0.47    0.35
  -4   0   1   -0.17    0.44
  -4   0   1   -0.26    1.38
  -3   0   1 1257.02   32.33
  -3   0   1 1182.61   34.07
  -3   0   1 1146.16   33.25
   3   0  -1 1174.15   32.31
   2   0  -1   -1.11    0.35
  -2   0   1   -1.02    0.36
  -2   0   1   -1.23    0.81
  -2   0   1   -2.05    0.46
   1   0  -1 7623.18  195.30
  -1   0   1 7507.02  195.93
   1   0  -1 7135.27  202.52
  -1   0   1 7888.27  201.96
   0   0  -1  -11.79    0.44
   0   0   1   -9.71    0.39
   0   0  -1  -10.31    0.37
   0   0  -1   -9.58    0.44
   0   0   1   -9.61    0.45
  -1   0  -1 1815.01   46.39
   1   0   1 1945.97   47.82
   1   0   1 1862.00   46.29
   1   0   1 1689.66   48.06
  -1   0  -1 1828.92   47.87
  -1   0  -1 1490.57   47.80
   2   0   1   -1.05    0.33
  -2   0  -1   -1.40    0.56
   2   0   1    0.35    0.48
  -2   0  -1   -0.76    0.65
   3   0   1  126.47    4.23
  -3   0  -1  109.93    5.51
  -3   0  -1  129.90    6.10
   3   0   1  127.00    4.24
   4   0   1    0.19    0.51
   4   0   1    0.67    0.60
  -4   0  -1   -0.61    1.02
  -5   0  -1 1098.29   33.44
  -6   0  -1   -0.25    1.82
  -7   0  -1    8.95    3.27
  -8   0  -1   -1.59    1.94
  -8   1   1    1.34    2.49
  -8  -1   1    0.13    2.58
  -7   1   1  428.89   18.16
  -7  -1   1  430.28   18.01
  -6   1   1   67.72    5.92
  -6  -1   1   65.95    5.79
   5  -1  -1    3.52    0.84
  -5  -1   1    1.54    1.84
  -5   1   1   -0.50    1.59
   4  -1  -1  124.86    4.59
  -4  -1   1  121.23    6.38
  -4   1   1  120.23    6.52
  -4   1   1  131.24    4.72
  -3   1   1   87.56    3.57
  -3   1   1   87.02    4.81
   3  -1  -1   84.30    3.45
  -3  -1   1   89.62    4.51
  -3  -1   1   78.50    4.46
  -2   1   1  265.27    9.10
  -2  -1   1  272.64    8.82
   2  -1  -1  268.01    8.29
   2   1  -1  266.41    8.80
  -2  -1   1  267.94    8.75
  -2   1   1  270.09    8.31
  -2  -1   1  276.81    7.85
   1   1  -1 4917.64  133.57
   1   1  -1 4857.54  127.13
  -1   1   1 4781.99  130.98
  -1  -1   1 4915.90  128.23
  -1  -1   1 4835.26  132.00
   1  -1  -1 5001.13  126.11
   1  -1  -1 4677.63  131.66
  -1  -1   1 4821.07  132.51
  -1  -1   1 4961.45  132.53
  -1   1   1 5070.89  127.32
   1   1  -1 5221.80  132.65
   0   1  -1  126.27    4.15
   0   1   1  115.93    4.03
   0   1   1  121.25    4.14
   0  -1  -1  118.36    3.94
   0  -1  -1  114.75    4.11
   0  -1  -1  111.51    3.98
   0  -1   1  120.32    4.13
   0   1   1  119.33    3.96
  -1  -1  -1 7715.61  214.31
   1   1   1 8155.69  223.51
   1   1   1 8640.80  222.67
   1  -1   1 8154.69  222.12
   1  -1   1 8279.49  213.84
  -1   1  -1 8294.51  215.80
  -1   1  -1 8799.93  221.01
  -1  -1  -1 8447.09  223.57
   2   1   1   86.71    3.02
  -2  -1  -1   85.89    4.18
  -2  -1  -1   85.01    2.98
   2   1   1   79.04    4.06
  -2  -1  -1   84.88    3.97
   2  -1   1   86.31    3.43
  -2   1  -1   87.56    3.48
  -2   1  -1   84.18    3.96
   3   1   1  145.86    4.52
  -3  -1  -1  117.74    6.00
  -3   1  -1  155.22    5.35
   3   1   1  136.94    6.46
  -3  -1  -1  143.51    6.56
   3  -1   1  161.55    5.35
   3   1   1  150.37    4.55
   3  -1   1  139.68    5.11
  -3   1  -1  151.50    6.76
  -3   1  -1  138.91    6.31
   4  -1   1  121.04    4.64
  -4   1  -1  121.80    6.36
   4  -1   1  129.86    4.74
  -4  -1  -1  108.02    6.11
  -5  -1  -1  119.98    7.24
   5  -1   1  127.74    4.71
  -5   1  -1  126.49    7.36
  -6  -1  -1   29.65    4.62
  -6   1  -1   32.68    4.89
  -7   1  -1    7.04    3.08
  -7  -1  -1   11.86    3.60
  -8   1  -1   18.88    4.96
  -8  -1  -1   13.92    4.45
  -8   2   1    1.50    2.53
  -8  -2   1   -1.69    2.30
  -7   2   1  112.62    8.32
  -7  -2   1  107.76    8.05
  -6   2   1   19.29    4.06
  -6  -2   1   23.05    4.28
  -5  -2   1  816.85   25.82
  -5   2   1  773.04   26.00
   5  -2  -1  832.90   23.31
  -4   2   1   22.53    3.21
   4  -2  -1   18.30    1.84
  -4  -2   1   17.41    2.80
  -3   2   1  895.24   26.61
  -3  -2   1  852.17   24.99
  -3  -2   1  915.97   26.05
  -3  -2   1  939.00   26.80
  -3  -2   1  946.39   24.97
   3  -2  -1  914.51   25.72
   3   2  -1  900.17   26.68
  -2  -2   1 1722.42   45.85
  -2  -2   1 1715.86   45.29
  -2   2   1 1781.17   46.58
  -2  -2   1 1744.31   46.85
   2   2  -1 1650.52   46.71
  -2  -2   1 1675.14   45.99
   2  -2  -1 1714.34   46.51
  -2   2   1 1655.24   45.95
  -1   2   1 2162.56   56.45
   1  -2  -1 2083.63   56.45
   1   2  -1 2064.79   56.38
  -1   2   1 2085.81   54.95
  -1  -2   1 2111.18   54.35
   1   2  -1 2144.84   56.08
  -1   2   1 2035.81   56.63
   1   2  -1 2055.06   54.14
  -1  -2   1 2091.11   56.22
  -1  -2   1 2087.44   56.33
   0   2  -1  709.05   19.81
   0   2  -1  741.02   20.03
   0  -2  -1  695.23   20.04
   0   2   1  743.31   20.08
   0   2  -1  698.99   19.19
   0  -2   1  704.37   20.03
   0  -2   1  742.93   19.85
   0   2   1  674.51   19.31
   0  -2   1  696.71   19.02
   0   2   1  688.01   20.08
   1   2   1  139.51    4.94
   1   2   1  125.67    5.05
  -1   2  -1  129.79    4.64
  -1  -2  -1  129.17    4.64
   1   2   1  140.01    4.70
   1  -2   1  137.49    4.96
  -1   2  -1  136.31    4.97
   1  -2   1  133.41    4.75
  -1  -2  -1  127.51    5.09
  -2  -2  -1  432.68   13.53
  -2  -2  -1  447.11   14.16
   2   2   1  453.76   12.71
   2  -2   1  445.11   13.38
  -2  -2  -1  445.21   12.75
   2   2   1  435.84   14.11
  -2   2  -1  440.82   13.49
   3   2   1  365.54   10.23
   3   2   1  361.75   12.69
  -3  -2  -1  352.64   10.21
  -3   2  -1  358.85   12.20
   3  -2   1  358.49   11.25
  -3  -2  -1  348.98   12.16
   4  -2   1  529.35   15.71
   4   2   1  507.58   17.81
  -4  -2  -1  535.28   17.51
  -4   2  -1  496.35   17.25
   5  -2   1 1074.34   30.02
  -5   2  -1 1045.67   32.58
  -5  -2  -1 1066.40   32.67
  -6  -2  -1   63.77    5.84
  -6   2  -1   63.29    5.76
  -7  -2  -1  185.60   10.97
  -7   2  -1  185.69   10.98
  -8   2  -1   60.97    7.85
  -8  -2  -1   55.83    7.43
  -8   3   1    7.08    3.32
  -8  -3   1    8.93    3.86
  -7   3   1  216.57   12.14
  -7  -3   1  216.94   11.78
  -6   3   1   17.46    3.96
  -6  -3   1   16.60    3.74
   5  -3  -1   17.18    2.20
  -5   3   1   16.87    3.59
  -5  -3   1   15.65    3.18
   4   3  -1    1.33    1.31
  -4   3   1   -0.14    1.51
   4  -3  -1    1.75    1.08
  -4  -3   1    1.43    1.48
  -3  -3   1  720.19   19.40
  -3  -3   1  724.08   21.49
  -3  -3   1  699.91   20.76
  -3  -3   1  681.50   19.40
   3  -3  -1  683.57   20.66
   3   3  -1  691.01   21.29
  -3   3   1  692.77   21.59
  -2  -3   1    0.53    0.61
  -2  -3   1    0.19    0.74
  -2  -3   1    0.03    0.68
  -2   3   1    1.53    1.23
   2  -3  -1    1.07    0.86
   2   3  -1   -0.16    0.66
   2   3  -1    1.31    0.64
  -1   3   1 1213.36   34.12
   1   3  -1 1288.09   33.57
  -1  -3   1 1235.32   33.64
  -1  -3   1 1203.48   33.53
  -1   3   1 1183.82   33.00
   1   3  -1 1193.94   32.05
   1  -3  -1 1204.81   33.95
   1   3  -1 1210.49   33.66
   0   3  -1  959.84   26.30
   0   3   1  922.00   25.55
   0  -3   1  935.20   26.48
   0   3  -1  928.52   24.90
   0   3   1  883.11   26.54
   0  -3   1  962.39   24.78
   0  -3   1  962.14   26.29
   0  -3  -1  969.69   26.59
   1   3   1   77.69    3.90
  -1  -3  -1   78.39    3.58
   1   3   1   83.26    3.58
   1  -3   1   97.38    3.69
   1   3   1   73.22    3.56
  -1   3  -1   76.26    3.41
   1  -3   1   78.65    3.76
  -1  -3  -1   78.97    3.94
   2   3   1   43.31    3.13
  -2   3  -1   44.83    3.00
   2   3   1   44.06    2.41
  -2  -3  -1   45.84    3.14
  -2  -3  -1   46.76    3.04
   2  -3   1   46.25    2.99
  -2  -3  -1   44.06    2.45
   3   3   1  353.11   12.61
  -3   3  -1  347.32   12.12
  -3  -3  -1  350.96   10.35
  -3  -3  -1  332.01   11.98
   3   3   1  354.39   10.28
   3  -3   1  352.60   11.52
  -4  -3  -1  257.48   10.45
   4   3   1  252.68   10.68
   4  -3   1  255.63    9.14
  -4   3  -1  242.56   10.30
   5   3   1   41.78    4.67
  -5  -3  -1   40.83    4.59
   5  -3   1   45.30    3.36
  -5   3  -1   35.38    4.55
  -6  -3  -1   19.98    4.04
  -6   3  -1   18.77    4.09
  -7  -3  -1  136.79    9.35
  -7   3  -1  139.97    9.54
  -8   4   1   74.21    8.43
  -7  -4   1    4.69    2.96
  -7   4   1   -2.00    2.24
  -6  -4   1   11.89    3.37
  -6   4   1   15.35    3.95
  -5  -4   1   84.32    5.95
   5   4  -1   92.67    6.10
  -5   4   1   90.51    6.72
   5  -4  -1   84.71    4.95
  -4  -4   1    0.73    1.50
  -4   4   1    4.62    2.36
   4   4  -1    1.22    1.41
   4  -4  -1    0.95    1.24
  -4  -4   1    1.34    0.55
  -4  -4   1    2.25    0.68
   3  -4  -1  250.99    9.38
  -3  -4   1  272.50    9.97
  -3  -4   1  239.93    8.14
   3   4  -1  262.10    8.18
  -3   4   1  275.51   10.52
   3   4  -1  246.56    9.60
  -3  -4   1  244.56    9.26
  -2   4   1  194.89    8.02
   2  -4  -1  203.64    7.84
  -2  -4   1  205.18    7.19
  -2  -4   1  205.16    7.76
   2   4  -1  192.52    7.57
  -2   4   1  209.97    8.30
  -2  -4   1  200.44    7.06
  -1   4   1   25.86    2.51
   1  -4  -1   25.80    2.42
   1   4  -1   25.80    1.79
  -1   4   1   25.67    2.45
   1   4  -1   28.50    1.82
  -1  -4   1   25.41    2.21
  -1  -4   1   24.69    2.16
   1  -4  -1   25.78    2.25
   1   4  -1   24.77    2.14
   0  -4  -1 3075.66   80.90
   0   4  -1 2979.50   77.22
   0   4  -1 2872.61   80.46
   0  -4   1 3040.71   76.95
   0  -4   1 3071.64   80.54
   0  -4   1 2897.41   80.55
   0   4   1 2970.05   77.84
   1  -4   1   14.34    1.91
  -1  -4  -1   14.03    1.72
  -1  -4  -1   14.68    1.93
   1   4   1   12.95    1.74
  -1   4  -1   12.95    1.79
   1  -4   1   17.85    1.73
   1   4   1   13.71    1.93
  -1   4  -1   16.52    1.81
  -2   4  -1  961.00   26.85
   2   4   1  900.91   28.02
  -2  -4  -1  940.41   26.84
  -2  -4  -1  977.29   28.23
   2  -4   1  955.74   27.60
   3   4   1   14.34    2.44
  -3   4  -1   14.41    2.48
   3  -4   1   10.35    1.94
  -3  -4  -1   17.53    2.55
  -3  -4  -1   16.10    1.57
  -4  -4  -1   55.26    4.32
  -4   4  -1   43.94    4.39
   4  -4   1   49.04    3.66
   4   4   1   41.42    2.15
  -4  -4  -1   43.78    2.20
   4   4   1   36.09    4.03
   5  -4   1  525.74   17.30
   5   4   1  554.06   19.92
  -5  -4  -1  529.27   19.11
  -5   4  -1  541.66   19.29
  -6  -4  -1   24.91    4.43
   6   4   1   32.68    4.79
  -6   4  -1   32.14    4.92
  -7  -4  -1  165.14   10.32
  -7   4  -1  149.06    9.92
  -7   5   1   32.03    5.58
  -7  -5   1   43.34    5.99
  -6  -5   1   40.47    5.18
   6   5  -1   52.06    5.52
   6  -5  -1   50.00    4.37
  -6   5   1   46.82    5.93
  -5   5   1   20.42    4.00
   5  -5  -1   20.55    2.98
  -5  -5   1   13.36    3.16
   5   5  -1   23.99    3.87
  -4  -5   1 2012.50   53.88
  -4  -5   1 1900.82   52.59
   4  -5  -1 1957.17   54.72
   4   5  -1 1934.62   55.54
  -4   5   1 1905.35   54.90
  -3   5   1   13.27    2.90
  -3  -5   1   18.15    1.90
   3   5  -1   15.38    2.45
   3  -5  -1   11.61    2.20
  -3  -5   1   12.91    2.17
   2  -5  -1   15.24    2.32
  -2   5   1   20.59    2.94
  -2  -5   1   13.60    1.85
  -2  -5   1   15.44    2.24
  -2   5   1   20.00    2.71
   2   5  -1   16.01    2.22
  -1  -5   1 1105.48   31.38
  -1  -5   1 1061.08   31.26
   1  -5  -1 1068.68   31.75
   1  -5  -1 1152.02   31.96
  -1   5   1 1072.35   30.65
  -1   5   1 1092.22   31.96
   1   5  -1 1087.93   29.55
   1   5  -1 1102.09   31.42
   0  -5  -1  415.39   13.78
   0   5  -1  417.46   12.31
   0   5   1  410.03   13.06
   0  -5  -1  423.38   13.89
   0  -5   1  396.24   13.59
   0  -5   1  435.38   13.59
   0   5  -1  424.20   13.55
   0   5   1  419.70   13.93
  -1  -5  -1    2.45    1.30
  -1   5  -1    0.51    1.15
   1  -5   1    3.38    1.32
   1   5   1    1.53    1.26
  -1   5  -1    2.93    1.37
  -1  -5  -1    1.04    0.99
   1   5   1    2.19    1.20
   2   5   1    9.79    2.05
  -2   5  -1   14.18    2.19
   2   5   1   11.64    2.07
   2  -5   1    8.66    1.86
  -2  -5  -1    9.64    1.62
  -3  -5  -1  675.63   19.80
  -3   5  -1  661.00   20.82
   3  -5   1  659.24   21.00
   3   5   1  674.28   21.86
   4   5   1  433.06   16.64
  -4  -5  -1  467.37   13.74
  -4  -5  -1  461.24   16.25
  -4   5  -1  437.04   16.13
   4  -5   1  466.10   15.71
  -5   5  -1   68.16    5.86
   5   5   1   69.86    5.86
  -5  -5  -1   69.09    5.73
   5  -5   1   71.16    4.78
  -6   5  -1  173.15   10.01
  -6  -5  -1  158.87    9.64
   6   5   1  185.49   10.42
  -7   5  -1  115.87    8.82
  -7  -5  -1  114.75    8.75
  -7   6   1   13.69    4.12
  -7  -6   1   12.05    4.04
   6  -6  -1  355.74   14.07
   6   6  -1  375.33   15.96
  -6  -6   1  389.43   15.83
  -6   6   1  383.42   16.73
  -5  -6   1   15.27    3.38
   5  -6  -1   11.01    2.75
  -5   6   1   19.29    4.23
   5   6  -1   16.76    3.47
   4  -6  -1  127.55    7.01
  -4   6   1  141.19    8.22
   4   6  -1  130.75    7.31
  -4  -6   1  151.93    7.46
  -4  -6   1  133.51    5.69
  -3  -6   1  159.56    6.59
   3  -6  -1  161.51    7.69
  -3   6   1  140.59    7.75
   3   6  -1  162.22    7.61
  -3   6   1  163.09    8.33
   2   6  -1 1159.28   33.12
  -2   6   1 1085.95   33.60
   2  -6  -1 1143.36   33.42
  -2   6   1 1093.50   32.59
   2   6  -1 1113.75   31.07
  -2  -6   1 1125.42   32.44
  -1  -6   1  182.16    7.43
  -1  -6   1  165.46    7.23
   1   6  -1  173.85    7.33
   1  -6  -1  175.40    7.68
  -1   6   1  168.71    7.27
  -1   6   1  153.45    7.49
   1   6  -1  166.30    6.26
   0  -6  -1  979.37   29.34
   0   6  -1  983.68   27.15
   0   6   1  994.45   28.06
   0  -6   1 1023.39   29.17
   0   6  -1  973.50   29.04
   0  -6   1  971.58   29.28
   0   6   1  970.25   29.51
  -1   6  -1  138.53    5.94
  -1  -6  -1  138.49    6.38
  -1   6  -1  142.67    6.61
   1  -6   1  127.88    6.52
   1   6   1  139.48    6.14
   1   6   1  139.79    6.81
  -2   6  -1  616.92   18.76
   2   6   1  602.12   19.92
   2  -6   1  604.09   19.60
  -2   6  -1  605.97   19.70
  -2  -6  -1  607.22   18.82
   2   6   1  567.08   18.46
   3  -6   1   87.01    5.41
  -3  -6  -1   72.65    4.30
   3   6   1   77.13    5.38
  -3   6  -1   75.00    5.15
   4  -6   1  129.98    7.09
  -4   6  -1  134.92    7.48
  -4  -6  -1  129.32    5.60
   4   6   1  128.21    7.67
   5  -6   1  188.81    8.91
   5   6   1  190.82   10.21
  -5  -6  -1  189.45    9.82
  -5   6  -1  172.59    9.47
  -6  -6  -1    1.77    2.44
  -6   6  -1    2.67    2.42
   6  -6   1    3.52    2.24
   6   6   1    0.98    2.27
  -7   6  -1   11.43    3.83
  -7  -6  -1    9.34    3.77
   7   7  -1   84.98    7.52
  -7   7   1   79.59    8.60
  -7  -7   1   93.85    7.78
   6  -7  -1  239.23   10.81
  -6  -7   1  221.29   11.43
  -6   7   1  214.04   12.06
   6   7  -1  209.80   11.41
  -5   7   1   53.81    6.03
  -5  -7   1   59.00    5.26
   5   7  -1   62.77    5.60
   5  -7  -1   60.16    5.23
   4  -7  -1 2123.27   60.25
   4   7  -1 2089.82   60.70
  -4  -7   1 2110.06   58.15
  -4   7   1 2104.46   61.58
  -4   7   1 2083.67   59.86
   3  -7  -1   54.37    4.69
  -3   7   1   58.17    5.24
  -3   7   1   60.00    5.15
   3   7  -1   60.08    4.71
  -3  -7   1   63.31    4.20
   2   7  -1  385.99   12.61
  -2   7   1  350.92   14.26
  -2  -7   1  386.01   13.49
  -2   7   1  394.25   14.15
   2   7  -1  381.19   13.83
   2  -7  -1  392.14   14.34
   1   7  -1   22.21    2.40
   1   7  -1   27.86    3.13
  -1   7   1   32.03    3.48
  -1   7   1   35.40    3.72
   1  -7  -1   17.70    2.72
  -1  -7   1   21.21    2.80
   0   7   1   52.38    3.80
   0  -7   1   45.08    3.84
   0   7  -1   48.84    3.29
   0  -7  -1   49.75    3.97
   0   7   1   47.61    4.06
   0   7  -1   42.81    3.64
  -1  -7  -1  181.20    8.15
   1   7   1  192.14    7.93
  -1   7  -1  190.60    8.41
   1  -7   1  195.00    8.67
  -1   7  -1  183.64    7.58
   1   7   1  182.19    8.57
   2   7   1    4.11    1.76
  -2   7  -1    0.38    1.62
  -2  -7  -1    1.58    1.44
  -2   7  -1    2.65    1.85
   2  -7   1    6.26    2.09
   2   7   1    3.53    1.90
  -3   7  -1   48.96    4.67
   3  -7   1   27.24    3.65
  -3  -7  -1   35.61    3.31
   3   7   1   35.42    3.77
   3   7   1   40.20    4.52
  -3   7  -1   28.29    3.82
   4   7   1  720.64   24.58
   4  -7   1  708.74   23.38
  -4   7  -1  675.54   23.09
  -4  -7  -1  701.54   21.45
  -5   7  -1    1.01    1.98
   5  -7   1    1.90    2.15
   5   7   1   -0.05    2.00
   6  -7   1  459.11   17.46
  -6   7  -1  466.41   19.00
   6   7   1  484.81   19.96
  -7   7  -1   20.94    4.77
  -6   8   1  230.53   12.67
   6   8  -1  238.03   12.29
  -6   8   1  216.72   12.55
   6  -8  -1  213.27   10.93
  -5   8   1   60.02    6.47
   5   8  -1   60.73    5.71
  -5   8   1   49.77    5.87
   5  -8  -1   56.10    5.47
   4  -8  -1   64.94    5.46
  -4   8   1   63.60    5.74
  -4   8   1   75.36    6.82
   4   8  -1   61.74    5.29
  -4  -8   1   66.82    4.43
   3  -8  -1  147.90    8.18
   3   8  -1  138.71    6.96
  -3   8   1  146.65    8.50
  -3  -8   1  141.19    7.17
   3   8  -1  139.65    7.80
  -3   8   1  148.41    8.50
  -2   8   1  620.99   21.65
  -2   8   1  719.27   23.23
   2   8  -1  626.59   21.82
   2  -8  -1  676.90   22.59
   2   8  -1  673.74   20.33
  -2  -8   1  685.75   21.78
  -1   8   1  654.22   22.49
   1   8  -1  663.78   19.98
  -1   8   1  698.67   21.49
   1   8  -1  663.06   21.85
   1  -8  -1  666.48   22.34
  -1  -8   1  666.90   21.93
   0   8   1  186.41    8.14
   0   8  -1  184.23    8.49
   0  -8   1  175.57    8.62
   0   8  -1  189.06    7.54
   0  -8  -1  180.29    8.71
   0   8   1  174.25    8.75
   1   8   1  255.74   10.16
  -1   8  -1  244.95    9.67
  -1  -8  -1  258.99   10.65
   1   8   1  240.12   10.85
  -1   8  -1  268.01   10.96
   1  -8   1  246.38   10.79
   2   8   1 1162.52   34.30
  -2  -8  -1 1168.10   35.24
   2   8   1 1187.51   36.51
  -2   8  -1 1240.84   36.47
  -2   8  -1 1186.91   34.39
   2  -8   1 1146.50   36.05
  -3   8  -1   69.99    5.27
   3  -8   1   72.87    5.65
   3   8   1   59.98    5.38
   3   8   1   66.04    5.06
  -3  -8  -1   68.65    4.70
  -3   8  -1   69.35    5.57
   4   8   1   33.92    4.46
   4  -8   1   31.57    4.22
  -4   8  -1   32.97    4.43
   4   8   1   39.50    4.96
  -4   8  -1   34.89    4.64
  -4  -8  -1   36.86    3.44
   5   8   1    9.35    3.19
   5  -8   1    5.05    2.55
  -5   8  -1   10.05    3.48
   6   8   1    5.00    3.21
  -6   8  -1    8.65    3.13
   6  -8   1    1.66    2.55
   6  -9  -1   28.95    4.80
   6   9  -1   20.38    4.51
  -6   9   1   24.41    5.33
   5   9  -1   19.27    3.98
  -5   9   1   26.90    5.13
  -5   9   1   23.62    4.63
   5  -9  -1   32.38    4.82
   5   9  -1   26.34    4.23
   4   9  -1  143.97    7.69
   4   9  -1  140.41    8.40
   4  -9  -1  135.65    8.38
  -4   9   1  147.65    9.21
  -4   9   1  132.19    8.67
  -4  -9   1  144.97    7.27
  -3   9   1    4.40    2.55
   3   9  -1    5.31    2.06
   3  -9  -1    4.92    2.55
   3   9  -1    4.86    2.33
  -3  -9   1    3.32    2.02
  -3   9   1    4.65    2.94
   2   9  -1  230.48    9.15
   2  -9  -1  205.84   10.34
   2   9  -1  220.49   10.29
  -2   9   1  211.78   10.82
  -2  -9   1  238.45   10.30
  -2   9   1  218.49   10.36
   1   9  -1   10.58    2.34
   1   9  -1    9.14    2.62
   1  -9  -1    8.46    2.72
  -1   9   1    7.99    2.79
  -1  -9   1    5.78    2.26
  -1   9   1    9.71    2.92
   0  -9   1   34.79    4.19
   0  -9  -1   37.28    4.30
   0   9   1   56.68    4.87
   0   9  -1   45.71    3.85
   0   9  -1   38.94    4.28
   0   9   1   42.28    4.63
   1  -9   1   10.58    2.81
  -1   9  -1   20.42    3.50
   1   9   1   23.19    3.81
  -1   9  -1   18.70    3.11
   1   9   1   19.72    3.21
  -1  -9  -1   21.91    3.45
  -2   9  -1    6.86    2.48
  -2   9  -1    6.90    2.59
   2   9   1    7.47    2.49
   2   9   1    6.23    2.60
  -2  -9  -1    5.91    2.20
   2  -9   1    4.53    2.42
  -3  -9  -1    0.20    1.67
  -3   9  -1   -2.09    1.84
  -3   9  -1   -0.83    1.94
   3   9   1    0.68    2.12
   3  -9   1    1.02    2.08
   3   9   1    0.87    1.98
   4  -9   1  189.89   10.08
  -4   9  -1  186.59    9.85
  -4   9  -1  192.31   10.63
   4   9   1  196.29   10.76
  -4  -9  -1  202.79    8.86
   4   9   1  182.08    9.58
  -5   9  -1    6.91    2.92
   5   9   1    0.64    2.30
   5   9   1    6.22    2.90
  -5   9  -1    3.02    2.24
   5  -9   1    1.19    2.49
   6  -9   1  107.78    8.04
  -6   9  -1  124.39    8.69
   6   9   1  108.52    8.20
   5  10  -1   60.92    5.53
   5  10  -1   72.49    6.56
  -5  10   1   54.32    6.76
   5 -10  -1   54.56    6.02
  -4  10   1    1.18    2.74
   4  10  -1    0.16    1.92
   4 -10  -1   -0.28    2.12
  -4  10   1   -0.94    2.39
   4  10  -1    0.07    1.96
  -3 -10   1   35.91    4.27
   3 -10  -1   33.96    4.75
  -3  10   1   47.57    5.79
   3  10  -1   54.46    4.83
  -3  10   1   42.82    5.35
  -2 -10   1   72.18    5.64
   2 -10  -1   68.84    6.03
   2  10  -1   78.67    5.98
   2  10  -1   72.09    5.01
  -2  10   1   79.52    6.51
  -2  10   1   66.85    5.98
   1  10  -1    4.67    2.07
   1 -10  -1    4.36    2.26
  -1 -10   1    0.16    1.82
   1  10  -1    5.20    2.45
  -1  10   1    4.48    2.58
  -1  10   1    5.27    2.64
   0  10   1  181.24    9.83
   0 -10  -1  186.08    9.70
   0  10  -1  193.62    9.63
   0  10   1  188.89    9.01
   0 -10   1  164.94    9.36
   0  10  -1  194.33    8.43
  -1  10  -1   -2.23    1.93
   1  10   1   -0.41    1.86
   1 -10   1    0.58    1.88
   1  10   1   -0.91    1.92
  -1 -10  -1   -0.45    1.78
  -1  10  -1    1.69    2.25
  -2  10  -1  898.85   28.48
  -2  10  -1  950.96   30.82
   2  10   1  946.08   31.01
  -2 -10  -1  899.50   29.62
   2 -10   1  949.44   30.83
   2  10   1  897.77   28.62
  -3 -10  -1   16.73    3.39
  -3  10  -1   15.44    3.92
   3  10   1   19.38    3.75
   3  10   1   15.12    3.83
   3 -10   1   19.02    4.02
  -3  10  -1   15.43    3.50
  -4  10  -1   17.98    3.99
   4 -10   1   17.62    4.05
   4  10   1   21.07    4.39
  -4  10  -1   13.32    3.88
   4  10   1   18.55    3.90
   5 -10   1  173.66   10.45
  -5  10  -1  199.85   10.87
   5  10   1  207.24   11.98
   5  10   1  184.13   10.49
   5  11  -1   66.99    6.13
  -5  11   1   68.16    7.55
   5 -11  -1   82.42    7.19
   5  11  -1   84.47    7.31
  -4  11   1  116.34    9.25
   4  11  -1  147.90    8.33
   4  11  -1  145.60    9.23
  -4  11   1  143.35    9.66
   4 -11  -1  133.68    9.16
  -3 -11   1    3.19    2.23
  -3  11   1    3.26    2.83
   3  11  -1    3.09    2.54
  -3  11   1    3.17    3.15
   3  11  -1    6.74    2.78
   3 -11  -1    1.42    2.50
   2  11  -1  110.16    7.56
  -2  11   1  110.38    7.83
   2 -11  -1  110.31    8.01
  -2 -11   1  110.65    7.51
   2  11  -1  116.08    6.66
  -2  11   1  139.13    8.81
  -1 -11   1   41.69    5.13
   1  11  -1   36.62    4.22
   1 -11  -1   29.32    4.55
   1  11  -1   37.41    4.83
  -1  11   1   43.67    5.54
  -1  11   1   40.30    5.01
   0 -11  -1  218.36   11.21
   0  11  -1  191.51   10.55
   0  11   1  242.90   11.90
   0  11   1  225.67   10.57
   0  11  -1  220.12    9.73
   0 -11   1  214.31   11.12
   1 -11   1  102.51    7.37
   1  11   1  102.62    6.76
   1  11   1  101.42    7.57
  -1 -11  -1  107.88    7.43
  -1  11  -1   97.18    6.51
  -1  11  -1   91.89    7.12
  -2  11  -1  221.95   11.77
   2  11   1  245.99   12.29
  -2  11  -1  222.21   10.65
   2 -11   1  201.26   11.41
   2  11   1  248.44   11.09
  -2 -11  -1  239.36   11.48
  -3 -11  -1    0.57    2.04
   3  11   1   12.01    3.35
  -3  11  -1    9.78    3.07
   3 -11   1    4.73    2.80
   3  11   1    3.50    2.80
  -3  11  -1    6.76    3.09
  -4  11  -1  124.72    9.32
   4  11   1  157.38    9.11
   4  11   1  139.92    9.61
   4 -11   1  122.98    8.95
  -4  11  -1  119.03    8.14
   5  11   1   -2.16    2.30
   5 -11   1    3.00    3.10
  -5  11  -1    6.38    2.93
   4 -12  -1    2.22    3.06
   4  12  -1    0.91    2.51
  -4  12   1    1.43    3.29
  -3 -12   1  179.63   10.10
   3 -12  -1  180.66   10.98
   3  12  -1  169.37   10.28
  -3  12   1  183.54   11.39
  -3  12   1  162.72   10.31
   3  12  -1  182.36    9.31
   2  12  -1   -0.47    2.10
  -2 -12   1    1.43    2.55
  -2  12   1   -1.98    2.61
  -2  12   1   -0.15    2.44
   2  12  -1    2.64    2.43
   2 -12  -1    0.58    2.45
  -1 -12   1  155.49    9.68
  -1  12   1  161.40    9.47
   1  12  -1  156.67    9.44
   1 -12  -1  147.32    9.51
  -1  12   1  143.79    9.69
   1  12  -1  144.80    7.98
   0  12  -1   69.42    6.54
   0  12  -1   69.56    5.73
   0  12   1   66.42    5.98
   0  12   1   86.06    7.21
   0 -12  -1   71.53    6.58
   0 -12   1   70.08    6.52
   1  12   1    1.76    2.56
  -1  12  -1   -1.21    2.25
  -1 -12  -1    2.16    2.40
   1 -12   1    0.10    1.94
   1  12   1    4.51    2.64
  -1  12  -1    0.49    2.55
   2 -12   1  201.46   11.42
  -2 -12  -1  196.31   10.77
  -2  12  -1  185.59    9.84
   2  12   1  200.73   10.21
  -2  12  -1  181.32   10.96
   2  12   1  192.64   11.30
  -3  12  -1   49.17    5.67
  -3 -12  -1   63.95    6.27
   3  12   1   58.95    6.22
  -3  12  -1   46.82    6.49
   3 -12   1   59.33    6.79
   3  12   1   53.01    6.59
   4  12   1    8.36    3.53
   4 -12   1    4.53    3.44
  -4  12  -1    6.60    3.15
   3 -13  -1    0.17    2.93
  -3 -13   1    4.94    3.06
  -3  13   1    1.44    3.33
   3  13  -1    5.36    2.94
   2 -13  -1  125.30    9.47
  -2 -13   1  138.80    9.46
  -2  13   1  138.31    9.42
   2  13  -1  136.69    9.25
   1  13  -1  364.77   16.18
  -1  13   1  329.91   15.08
   1 -13  -1  312.62   15.88
  -1  13   1  366.07   17.00
  -1 -13   1  325.35   15.77
   0  13   1   94.24    7.59
   0  13   1   83.62    7.86
   0 -13   1   90.60    7.79
   0 -13  -1   89.93    7.63
   0  13  -1   89.15    7.65
  -1  13  -1  441.75   18.78
  -1 -13  -1  421.69   18.42
   1  13   1  421.28   19.00
   1  13   1  455.80   17.51
   1 -13   1  390.98   18.38
  -2 -13  -1  123.63    8.85
   2  13   1  117.43    8.41
   2 -13   1  139.36    9.78
  -2  13  -1  128.99    9.48
   3 -13   1  143.52   10.36
   3  13   1  146.85    9.49
  -3 -13  -1  161.80    9.87
   1 -14  -1  169.37   11.16
  -1  14   1  138.43    9.87
  -1 -14   1  158.36   10.81
   0 -14  -1   65.84    7.41
   0 -14   1   66.35    7.58
   0  14   1   76.42    7.68
  -1 -14  -1   -0.70    2.45
   1 -14   1    2.23    3.10
   1  14   1    3.28    3.17
  -8   0   2  456.95   20.10
  -7   0   2   -1.56    1.85
  -6   0   2  131.17    8.24
   5   0  -2   -0.13    0.52
  -5   0   2   -1.40    1.65
   4   0  -2  909.09   25.23
  -4   0   2  914.16   25.28
  -4   0   2  912.27   27.37
  -3   0   2   -0.59    0.50
  -3   0   2   -0.09    1.11
  -3   0   2   -0.22    0.71
   3   0  -2   -0.53    0.47
   2   0  -2  271.06    8.57
  -2   0   2  279.59    8.66
  -2   0   2  258.83    9.03
  -1   0   2    1.19    0.96
  -1   0   2   -0.28    0.50
   1   0  -2    0.95    0.85
   1   0  -2   -0.42    0.56
   0   0  -2 9999.85  246.64
   0   0   2 9791.81  247.06
   0   0  -2 9844.16  258.41
   0   0  -2 8859.31  254.20
   0   0   2 9201.44  258.32
   1   0   2   -2.34    0.59
   1   0   2   -2.52    0.57
  -1   0  -2   -2.77    0.57
   1   0   2   -3.41    0.42
  -1   0  -2   -2.92    0.47
  -1   0  -2   -2.00    0.55
   2   0   2 3008.70   76.86
  -2   0  -2 2743.94   74.98
  -2   0  -2 2850.54   76.85
  -2   0  -2 2965.32   78.00
   2   0   2 2775.02   77.89
   3   0   2   -0.78    0.59
  -3   0  -2    0.51    1.10
   3   0   2   -0.31    0.59
   4   0   2  525.92   15.16
  -4   0  -2  499.30   17.24
  -5   0  -2    0.41    1.69
   5   0   2    0.46    0.88
  -6   0  -2   21.23    4.28
  -7   0  -2    2.31    2.70
  -8   1   2   64.79    7.64
  -8  -1   2   42.17    6.20
  -7   1   2   -1.13    2.24
  -7  -1   2    1.27    2.17
  -6   1   2  666.58   23.40
  -6  -1   2  653.58   22.94
  -5   1   2   21.14    3.76
   5  -1  -2   19.84    1.86
  -5  -1   2   17.08    3.32
  -4  -1   2  498.22   16.82
  -4   1   2  510.68   17.27
  -4  -1   2  513.72   14.44
   4  -1  -2  518.55   15.15
  -3  -1   2  683.80   18.67
   3  -1  -2  652.07   19.04
  -3   1   2  652.08   20.17
   3   1  -2  660.49   18.57
  -3  -1   2  656.47   19.78
  -3  -1   2  655.11   19.70
  -2  -1   2   47.95    2.81
   2   1  -2   44.07    2.34
  -2  -1   2   46.87    2.42
   2  -1  -2   41.61    2.50
  -2  -1   2   44.71    2.45
  -2   1   2   47.25    2.67
  -2   1   2   44.04    3.22
   1  -1  -2    0.12    0.61
  -1  -1   2    0.07    0.50
  -1  -1   2    2.83    0.89
  -1   1   2    1.67    0.79
  -1   1   2    2.43    1.18
   1   1  -2    2.01    0.84
   1  -1  -2    2.36    1.00
   1   1  -2    0.82    0.61
  -1   1   2    2.14    0.78
  -1  -1   2    1.57    0.42
   0   1   2 2009.01   55.30
   0  -1  -2 2027.40   55.16
   0  -1  -2 2126.95   53.37
   0   1   2 2185.03   55.46
   0   1   2 2023.45   53.39
   0  -1   2 2040.00   53.84
   0  -1  -2 1945.99   55.29
  -1  -1  -2  155.09    5.86
   1  -1   2  178.18    5.99
  -1   1  -2  171.89    5.89
  -1   1  -2  155.28    5.31
   1   1   2  162.93    5.98
   1   1   2  171.89    5.82
   1  -1   2  162.36    5.86
  -1  -1  -2  168.68    5.80
   1  -1   2  161.42    5.39
   2   1   2 1500.81   42.65
   2  -1   2 1486.75   41.62
  -2  -1  -2 1481.58   41.34
  -2  -1  -2 1488.45   40.97
  -2   1  -2 1637.01   42.79
   2   1   2 1571.80   41.43
  -2   1  -2 1472.56   40.72
  -3   1  -2    9.72    1.91
   3   1   2   10.24    2.05
   3  -1   2    8.07    1.30
  -3  -1  -2   10.28    1.18
   3   1   2    9.38    1.18
  -3  -1  -2    8.10    1.88
  -4  -1  -2  250.92   10.42
   4   1   2  264.62    8.10
   4  -1   2  258.16    8.67
  -4   1  -2  238.39   10.19
   4   1   2  264.13    8.13
  -5  -1  -2  244.18   10.89
  -5   1  -2  230.21   10.63
   5  -1   2  226.50    8.02
  -6   1  -2  456.39   18.08
  -6  -1  -2  470.51   18.31
  -7  -1  -2    0.72    1.99
  -7   1  -2    1.02    2.21
  -8  -2   2  140.34    9.93
  -8   2   2  136.62   10.18
  -7   2   2    5.17    3.05
  -7  -2   2    1.30    2.56
  -6  -2   2  250.20   11.64
  -6   2   2  231.57   11.79
   5  -2  -2  530.77   16.22
  -5   2   2  557.59   19.34
  -5  -2   2  513.39   18.26
  -4  -2   2  875.13   24.44
  -4   2   2  904.68   27.44
   4  -2  -2  885.98   25.63
  -4  -2   2  922.55   24.43
  -4  -2   2  865.71   26.48
  -3  -2   2  859.74   24.65
  -3  -2   2  893.21   25.90
   3  -2  -2  870.82   25.47
  -3  -2   2  898.85   25.49
  -3  -2   2  920.20   24.70
   3   2  -2  914.68   25.96
  -3   2   2  864.20   26.30
  -2  -2   2   95.70    3.96
  -2   2   2  105.00    5.15
   2  -2  -2   96.39    4.36
  -2  -2   2  103.65    4.10
   2   2  -2   98.04    4.04
  -2  -2   2  103.77    3.99
  -2  -2   2  101.70    4.22
  -1   2   2   64.52    3.42
  -1  -2   2   63.07    2.37
  -1  -2   2   59.66    3.01
   1   2  -2   59.14    2.38
   1  -2  -2   60.31    3.18
  -1  -2   2   66.81    3.04
  -1  -2   2   63.01    2.44
   1   2  -2   64.15    2.47
  -1   2   2   62.44    3.07
   0  -2   2 3112.92   83.66
   0   2   2 3012.22   83.70
   0   2  -2 3083.99   84.42
   0   2   2 3176.84   80.93
   0  -2  -2 3215.06   83.65
   0  -2  -2 3119.41   83.71
  -1  -2  -2 1635.29   44.20
  -1   2  -2 1575.41   41.95
   1  -2   2 1607.24   41.93
   1  -2   2 1547.68   43.92
  -1  -2  -2 1590.95   43.79
   1   2   2 1554.80   44.19
   1   2   2 1555.35   42.57
   1   2   2 1751.74   43.93
  -2  -2  -2  432.84   13.87
   2   2   2  403.87   13.82
  -2   2  -2  415.80   12.91
   2  -2   2  429.73   13.23
  -2  -2  -2  397.16   13.20
  -2  -2  -2  438.55   12.82
   2   2   2  440.89   12.83
   3   2   2  602.15   16.63
  -3  -2  -2  574.27   18.03
   3  -2   2  578.89   17.34
  -3   2  -2  570.62   17.75
   3   2   2  529.22   18.55
  -3  -2  -2  575.44   16.53
   4  -2   2  191.00    7.30
  -4  -2  -2  191.41    8.75
   4   2   2  195.07    6.31
   4   2   2  200.51    6.36
   4   2   2  193.62    9.09
  -4   2  -2  175.99    8.37
   5  -2   2  266.71    9.39
  -5  -2  -2  249.76   11.52
  -5   2  -2  274.48   11.72
  -6  -2  -2    2.55    2.16
  -6   2  -2    2.03    2.16
  -7   2  -2  199.92   11.53
  -7  -2  -2  202.96   11.63
  -8   3   2    8.44    3.62
  -8  -3   2    4.40    3.18
  -7   3   2    0.95    2.46
  -7  -3   2   -0.61    1.93
  -6   3   2  148.72    9.05
  -6  -3   2  123.81    7.96
  -5  -3   2  100.81    6.41
  -5   3   2  114.31    7.35
   5  -3  -2  102.58    5.19
   4   3  -2  192.88    8.21
  -4  -3   2  206.44    6.30
   4  -3  -2  193.62    7.64
  -4  -3   2  190.88    8.31
  -4   3   2  200.85    9.31
  -4  -3   2  184.55    6.17
  -3  -3   2  124.61    5.59
  -3  -3   2  121.01    5.58
  -3  -3   2  122.18    4.69
   3   3  -2  121.23    5.49
  -3  -3   2  126.85    4.66
   3  -3  -2  118.82    5.45
  -3   3   2  119.05    6.40
  -2   3   2 4515.36  121.82
  -2  -3   2 4675.57  121.08
  -2   3   2 4527.52  118.30
  -2  -3   2 4592.35  116.90
  -2  -3   2 4546.09  120.79
   2   3  -2 4387.75  120.96
   2  -3  -2 4507.08  121.36
  -1  -3   2  701.45   20.47
  -1   3   2  676.65   20.23
  -1  -3   2  716.61   18.85
   1   3  -2  700.28   18.80
   1   3  -2  699.52   19.86
   1  -3  -2  720.55   20.89
  -1   3   2  707.37   20.75
  -1  -3   2  704.34   19.84
   0   3   2  199.95    7.24
   0   3  -2  190.88    6.48
   0  -3   2  194.24    5.58
   0  -3  -2  198.17    7.27
   0  -3   2  202.52    7.25
   0   3  -2  204.78    5.73
   0   3   2  195.58    7.00
   0  -3  -2  195.00    7.13
   1   3   2 5823.25  159.92
  -1  -3  -2 5998.65  159.29
   1   3   2 6048.85  154.26
  -1   3  -2 6024.47  156.01
   1  -3   2 6065.05  153.49
   1  -3   2 6020.21  159.49
   2   3   2  342.20   12.44
   2  -3   2  369.00   12.06
  -2  -3  -2  372.90   11.51
  -2  -3  -2  374.80   12.66
  -2   3  -2  361.37   11.49
  -3  -3  -2  139.56    5.19
   3   3   2  132.09    6.71
  -3   3  -2  139.92    6.30
  -3  -3  -2  115.18    6.12
   3  -3   2  135.02    5.88
  -4   3  -2  723.31   23.56
  -4  -3  -2  769.07   21.37
   4  -3   2  747.15   22.79
   4   3   2  794.38   21.40
   4   3   2  750.60   24.88
  -4  -3  -2  763.70   24.01
   5  -3   2   70.30    4.30
   5   3   2   69.33    5.71
  -5  -3  -2   62.90    5.37
  -5   3  -2   55.04    5.04
  -6  -3  -2  602.80   22.11
  -6   3  -2  593.17   21.76
  -7   3  -2   14.16    4.16
  -7  -3  -2   16.56    4.21
  -7  -4   2   -1.74    2.15
  -7   4   2    1.09    2.34
  -6   4   2   70.64    6.40
  -6  -4   2   61.84    5.63
  -5   4   2  298.17   13.49
  -5  -4   2  320.67   12.81
   5  -4  -2  321.44   11.63
   5   4  -2  320.04   12.70
  -4  -4   2  132.90    4.78
   4  -4  -2  134.35    6.26
  -4  -4   2  125.47    6.41
  -4   4   2  123.81    7.34
   4   4  -2  108.53    6.04
  -4  -4   2  117.58    4.66
  -3   4   2   -1.04    1.48
  -3  -4   2   -0.15    0.67
  -3  -4   2    0.65    1.17
  -3  -4   2    2.75    1.31
   3  -4  -2   -0.55    0.85
   3   4  -2   -1.58    0.80
   2  -4  -2  278.67   10.24
  -2  -4   2  292.89    9.73
  -2  -4   2  285.23    9.64
  -2   4   2  278.32   10.45
  -2  -4   2  283.08    9.08
  -2   4   2  292.84   10.73
   2   4  -2  283.55    9.62
   1  -4  -2   56.14    3.48
   1   4  -2   53.09    2.95
  -1  -4   2   55.62    3.35
   1   4  -2   57.38    2.40
  -1   4   2   54.02    3.59
  -1  -4   2   57.28    3.04
   1  -4  -2   54.19    3.58
  -1   4   2   60.17    3.78
   1   4  -2   56.49    2.36
   0   4  -2 1426.38   38.06
   0  -4   2 1469.01   37.80
   0  -4   2 1460.96   40.77
   0  -4  -2 1455.55   40.84
   0   4   2 1433.29   39.39
   0   4   2 1463.10   40.95
   0   4  -2 1447.38   40.07
   1   4   2 2006.26   55.49
  -1  -4  -2 2096.67   57.26
  -1  -4  -2 2158.69   57.80
   1  -4   2 1971.16   57.36
  -1   4  -2 2136.04   54.59
   1   4   2 2095.28   57.90
   1  -4   2 2128.82   54.38
  -2   4  -2  128.61    5.52
   2   4   2  137.84    6.61
   2  -4   2  136.25    6.12
  -2  -4  -2  134.97    5.61
  -3  -4  -2    0.08    1.23
  -3  -4  -2    1.02    0.90
   3  -4   2   -0.49    1.05
  -3   4  -2    2.34    1.37
   3   4   2    1.85    1.35
  -4   4  -2  828.15   26.49
   4   4   2  871.10   28.14
  -4  -4  -2  870.42   27.04
   4  -4   2  854.69   26.15
  -4  -4  -2  908.74   24.61
   5  -4   2  220.24    9.11
  -5  -4  -2  219.12   10.60
  -5   4  -2  205.95   10.24
   5   4   2  228.63   11.14
   6   4   2    3.24    2.45
  -6  -4  -2    4.40    2.64
  -6   4  -2    1.70    2.14
  -7   4  -2  103.04    8.32
  -7  -4  -2  107.86    8.48
  -7  -5   2   70.27    7.18
  -7   5   2   71.70    8.01
  -6   5   2  110.53    8.31
  -6  -5   2  122.41    7.83
   6  -5  -2  135.42    7.01
   5  -5  -2  587.84   19.29
  -5   5   2  568.50   21.14
  -5  -5   2  570.23   19.74
   5   5  -2  585.90   20.15
  -4  -5   2   23.61    3.19
   4  -5  -2   23.24    3.20
  -4   5   2   18.89    3.76
   4   5  -2   24.28    3.15
  -4  -5   2   23.40    2.15
  -3  -5   2    1.52    1.23
  -3  -5   2    3.90    1.53
  -3   5   2    4.18    2.25
   3   5  -2    4.86    1.60
  -3   5   2    2.48    1.75
  -3  -5   2    4.84    1.38
   3  -5  -2    2.45    1.52
  -2   5   2 2592.37   70.81
  -2  -5   2 2556.67   69.48
   2  -5  -2 2507.50   70.26
  -2  -5   2 2566.59   69.58
  -2   5   2 2483.08   68.61
   2   5  -2 2561.33   69.57
  -1  -5   2  335.93   10.98
  -1  -5   2  325.77   11.40
   1  -5  -2  342.62   11.88
  -1   5   2  335.14   11.56
  -1   5   2  324.72   11.83
   1   5  -2  324.70   10.90
   1   5  -2  316.49    9.66
   1   5  -2  331.34    9.72
   0  -5   2  192.46    5.87
   0   5  -2  185.69    6.08
   0  -5   2  180.59    7.63
   0   5   2  187.98    7.41
   0  -5  -2  193.29    7.84
   0   5  -2  193.80    7.24
   0   5   2  185.92    7.85
   1   5   2 2403.75   68.70
  -1  -5  -2 2513.65   68.16
  -1   5  -2 2501.76   68.02
  -1   5  -2 2499.50   64.87
   1   5   2 2480.93   66.05
  -2   5  -2   12.92    1.99
   2   5   2   10.48    2.22
   2   5   2    9.49    2.23
  -2  -5  -2    8.73    1.71
   2  -5   2    8.97    2.02
  -3  -5  -2    4.42    1.41
   3  -5   2    3.63    1.53
   3   5   2    2.42    1.60
  -3   5  -2    4.23    1.74
   4  -5   2   66.51    4.69
  -4   5  -2   68.30    5.10
   4   5   2   57.70    5.12
  -4  -5  -2   70.39    5.28
  -4  -5  -2   65.30    3.65
   5   5   2  216.84   11.05
  -5   5  -2  213.76   10.33
  -5  -5  -2  204.09   10.38
   5  -5   2  205.50    9.21
   6   5   2   71.03    7.12
  -6   5  -2   62.20    6.50
  -6  -5  -2   75.15    6.56
  -7   5  -2   25.95    5.08
  -7  -5  -2   34.99    5.93
  -7   6   2    6.86    3.49
  -7  -6   2    7.85    3.30
   6   6  -2    6.16    2.64
   6  -6  -2   10.63    2.80
  -6   6   2    5.11    3.13
  -6  -6   2    6.59    2.69
  -5  -6   2  436.33   16.23
  -5   6   2  442.88   17.84
   5   6  -2  449.01   16.69
   5  -6  -2  436.89   16.03
  -4   6   2    4.48    2.94
  -4  -6   2    7.41    2.36
   4  -6  -2    3.71    2.02
   4   6  -2    2.65    1.79
  -4   6   2    2.61    2.12
  -4  -6   2    3.60    1.51
   3   6  -2 1572.87   44.15
  -3  -6   2 1554.11   42.27
   3  -6  -2 1533.70   44.59
  -3   6   2 1526.69   44.42
  -3   6   2 1481.30   45.17
  -3  -6   2 1527.58   43.28
  -2  -6   2  276.33   10.32
  -2  -6   2  278.34   10.39
   2   6  -2  286.87   10.37
  -2   6   2  278.58   11.29
   2   6  -2  273.74    9.18
   2  -6  -2  277.39   11.01
  -2   6   2  279.93   11.22
   1  -6  -2  253.94   10.11
  -1   6   2  249.24   10.18
   1   6  -2  250.60    8.06
   1   6  -2  248.65    9.28
  -1  -6   2  254.49    9.38
  -1   6   2  250.39    9.83
  -1  -6   2  250.26    9.76
   0  -6   2   18.74    2.61
   0  -6  -2   26.79    3.03
   0   6   2   24.93    2.88
   0   6   2   17.58    2.70
   0   6  -2   25.41    2.62
   0  -6   2   24.64    1.78
   0   6  -2   23.27    1.99
   1   6   2  242.75   10.32
   1   6   2  258.14    9.75
  -1  -6  -2  259.93   10.00
  -1   6  -2  256.83    9.82
  -1   6  -2  263.35    8.80
   1  -6   2  261.70   10.24
   2   6   2   82.39    5.01
   2  -6   2   96.86    5.55
  -2   6  -2   87.57    4.66
  -2  -6  -2   88.09    4.92
  -2   6  -2   90.27    5.26
   2   6   2   77.76    5.33
  -3  -6  -2    3.09    1.40
   3   6   2    6.64    2.29
   3  -6   2    1.36    1.67
  -3   6  -2    1.74    1.62
   3   6   2    4.60    1.88
  -4  -6  -2  935.44   27.35
  -4   6  -2  923.18   28.75
   4  -6   2  914.82   29.15
   4   6   2  986.13   31.07
   5   6   2  226.86   11.51
   5  -6   2  206.34    9.68
  -5   6  -2  200.37   10.17
  -6   6  -2    4.89    2.60
  -6  -6  -2    4.60    3.11
   6   6   2    7.67    3.17
  -7  -6  -2  259.11   14.15
  -7   6  -2  272.20   13.93
  -7   7   2  178.06   11.90
  -7  -7   2  203.52   11.49
   6  -7  -2    0.21    2.24
   6   7  -2    1.14    2.16
  -6   7   2   -0.18    2.38
  -6   7   2    4.19    2.52
  -6  -7   2    0.21    2.40
  -5   7   2  465.60   18.51
   5   7  -2  441.37   17.18
  -5   7   2  462.36   18.56
  -5  -7   2  456.68   16.78
   5  -7  -2  440.01   16.78
   4   7  -2   64.14    4.97
  -4   7   2   61.91    5.57
  -4   7   2   65.66    6.40
   4  -7  -2   66.06    5.35
  -4  -7   2   55.45    4.14
  -3   7   2    4.23    2.53
   3   7  -2    5.11    2.00
  -3  -7   2    5.11    1.81
   3  -7  -2    4.70    2.08
  -3   7   2    6.42    2.50
  -2   7   2  607.07   19.94
   2   7  -2  570.46   19.04
   2   7  -2  592.21   17.52
  -2  -7   2  604.57   19.37
   2  -7  -2  587.09   19.99
  -2   7   2  578.33   20.29
  -1   7   2   90.88    5.77
   1   7  -2   87.91    5.06
   1  -7  -2   81.26    5.36
   1   7  -2   83.03    3.99
  -1  -7   2   82.61    5.17
  -1   7   2   89.68    5.54
   0  -7  -2  105.56    6.18
   0  -7   2  119.31    6.40
   0   7   2  120.26    6.55
   0   7  -2  117.42    5.90
   0   7  -2  111.47    4.85
   0   7   2  111.47    6.02
  -1   7  -2  191.85    8.48
   1  -7   2  195.80    8.82
   1   7   2  195.54    8.50
   1   7   2  197.84    9.18
  -1   7  -2  190.66    7.47
  -1  -7  -2  204.50    8.80
  -2   7  -2  303.79   11.93
  -2   7  -2  297.34   10.81
   2   7   2  315.16   12.64
   2  -7   2  306.40   12.19
  -2  -7  -2  296.25   11.49
   2   7   2  296.19   11.55
  -3   7  -2  185.11    8.33
  -3  -7  -2  184.42    8.10
   3   7   2  180.46    9.51
   3   7   2  192.45    8.89
   3  -7   2  184.28    9.01
  -4   7  -2    4.75    2.24
  -4  -7  -2    2.52    1.46
   4   7   2    1.35    2.06
   4  -7   2    2.40    2.11
   4   7   2    3.10    2.16
  -5   7  -2  336.26   14.23
   5  -7   2  344.24   13.98
   5   7   2  338.49   15.42
   6   7   2    0.42    2.29
  -6   7  -2    1.92    2.41
   6  -7   2   -1.64    2.12
  -6   8   2   32.86    5.76
   6  -8  -2   22.18    4.25
  -6   8   2   30.59    5.37
   6   8  -2   30.95    5.04
  -5   8   2  171.62   10.26
   5   8  -2  159.27    8.92
   5  -8  -2  149.66    8.66
  -5   8   2  145.58    9.54
  -4   8   2   30.85    5.09
   4   8  -2   23.29    3.64
  -4   8   2   26.35    4.55
  -4  -8   2   23.25    3.03
   4  -8  -2   27.05    4.06
  -3  -8   2  988.86   29.14
  -3   8   2  895.30   30.71
  -3   8   2  885.71   29.93
   3  -8  -2  973.09   30.37
   3   8  -2  950.12   27.49
   3   8  -2  947.88   29.52
  -2   8   2   49.76    5.22
   2   8  -2   39.32    3.23
   2   8  -2   42.69    3.87
  -2   8   2   34.45    4.40
   2  -8  -2   48.66    4.78
  -2  -8   2   41.71    4.16
   1   8  -2  753.79   21.73
  -1  -8   2  788.66   24.70
  -1   8   2  764.47   25.23
  -1   8   2  758.53   24.05
   1  -8  -2  767.69   24.89
   1   8  -2  713.49   23.74
   0  -8   2  347.75   13.88
   0   8   2  365.22   13.45
   0  -8  -2  370.50   14.03
   0   8  -2  358.90   11.76
   0   8   2  356.91   14.26
   0   8  -2  374.48   13.48
   1   8   2   24.24    3.69
  -1  -8  -2   39.55    4.04
   1  -8   2   21.34    3.33
   1   8   2   38.05    4.03
  -1   8  -2   26.74    3.02
  -1   8  -2   21.51    3.21
   2   8   2    0.05    1.58
   2   8   2   -0.24    1.70
  -2   8  -2   -1.75    1.38
  -2   8  -2   -0.66    1.66
  -2  -8  -2   -0.54    1.36
   2  -8   2   -1.48    1.56
  -3   8  -2  176.16    9.18
  -3   8  -2  177.76    8.27
   3   8   2  168.25    8.63
   3   8   2  185.62    9.80
   3  -8   2  171.80    9.12
  -3  -8  -2  173.63    8.24
  -4   8  -2   58.74    5.46
   4   8   2   42.91    4.89
  -4   8  -2   53.05    4.65
  -4  -8  -2   54.93    4.07
   4  -8   2   53.38    5.29
   4   8   2   43.57    5.44
   5   8   2   43.71    5.77
   5  -8   2   46.86    5.16
  -5   8  -2   46.89    5.46
   5   8   2   56.23    6.11
  -6   8  -2   -1.64    2.05
   6  -8   2    1.63    2.64
   6  -9  -2   30.37    4.89
  -6   9   2   32.79    5.95
   6   9  -2   28.85    5.00
  -5   9   2   44.11    6.19
  -5   9   2   41.16    5.98
   5  -9  -2   37.90    4.93
   5   9  -2   45.97    5.24
  -4  -9   2   15.25    2.83
   4  -9  -2   14.63    3.62
  -4   9   2   12.28    3.68
  -4   9   2   14.74    4.10
   4   9  -2   11.35    3.09
   4   9  -2   12.27    2.82
  -3  -9   2   56.66    4.64
   3   9  -2   50.90    4.04
   3   9  -2   49.43    4.51
  -3   9   2   50.60    5.88
  -3   9   2   53.90    5.82
   3  -9  -2   46.26    5.11
   2   9  -2   23.53    3.55
   2  -9  -2   21.12    3.68
  -2   9   2   20.66    4.11
   2   9  -2   23.38    2.80
  -2  -9   2   15.69    3.18
  -2   9   2   21.58    4.10
  -1   9   2  121.00    7.70
   1   9  -2  122.64    5.70
   1  -9  -2  114.73    7.16
   1   9  -2  120.62    6.89
  -1  -9   2  114.64    7.14
  -1   9   2  125.30    7.45
   0   9  -2   26.91    3.62
   0   9   2   28.86    3.96
   0   9  -2   34.93    3.26
   0   9   2   28.74    4.22
   0  -9   2   30.88    4.22
   0  -9  -2   32.24    4.08
   1  -9   2  544.43   19.56
  -1  -9  -2  539.99   19.20
  -1   9  -2  551.90   17.21
   1   9   2  533.56   18.44
   1   9   2  487.62   19.44
  -1   9  -2  558.65   19.15
   2   9   2   10.30    3.11
   2  -9   2   14.66    3.38
  -2   9  -2   12.97    3.09
  -2   9  -2    8.41    2.40
   2   9   2   13.78    3.34
  -2  -9  -2    8.63    2.62
  -3  -9  -2 1060.54   32.56
   3   9   2 1125.92   35.11
   3   9   2 1005.55   32.29
  -3   9  -2 1051.38   31.64
   3  -9   2 1022.90   33.74
  -3   9  -2 1054.95   33.95
   4   9   2    1.27    2.33
   4   9   2    3.01    2.40
  -4   9  -2    0.81    1.78
   4  -9   2   -1.94    1.97
  -4   9  -2   -1.01    2.25
   5   9   2  161.61    9.61
   5   9   2  167.14   10.58
  -5   9  -2  163.59    9.33
   5  -9   2  164.37    9.52
  -5   9  -2  149.02    9.96
  -6   9  -2   51.31    6.42
   6   9   2   40.83    5.97
   6  -9   2   38.06    5.31
   5  10  -2   19.37    3.86
  -5  10   2   28.88    5.77
   5 -10  -2   19.93    4.26
   5  10  -2   23.06    4.35
   4  10  -2   88.68    5.88
   4  10  -2   83.14    6.47
   4 -10  -2   85.21    6.98
  -4  10   2   72.43    7.59
  -4 -10   2   85.76    6.05
  -4  10   2   70.03    7.41
   3  10  -2  248.40    9.86
  -3  10   2  242.55   12.17
   3  10  -2  215.65   10.72
   3 -10  -2  224.40   11.50
  -3 -10   2  222.70   10.71
  -3  10   2  243.31   12.45
  -2 -10   2    6.72    2.64
   2  10  -2    8.35    2.25
  -2  10   2    9.52    3.33
   2 -10  -2   11.22    3.25
   2  10  -2   13.07    3.09
  -2  10   2    7.30    3.27
   1 -10  -2  621.94   22.64
  -1  10   2  657.64   23.40
  -1  10   2  617.13   21.74
   1  10  -2  633.79   21.87
  -1 -10   2  643.59   22.48
   1  10  -2  626.18   19.40
   0  10   2    4.11    2.61
   0  10   2    6.00    2.79
   0  10  -2    7.04    2.60
   0 -10  -2    0.17    1.84
   0 -10   2    5.24    2.44
   0  10  -2    5.11    2.25
   1 -10   2   45.56    5.16
   1  10   2   35.15    4.49
  -1  10  -2   35.00    4.41
  -1  10  -2   38.57    3.92
  -1 -10  -2   42.14    4.90
   1  10   2   44.66    5.30
   2 -10   2   20.27    3.97
   2  10   2   15.84    3.79
  -2  10  -2   16.06    3.61
  -2 -10  -2   21.40    3.73
   2  10   2   17.29    3.57
  -2  10  -2   19.52    3.30
   3 -10   2  466.93   18.85
  -3  10  -2  486.30   17.15
  -3 -10  -2  475.55   17.70
  -3  10  -2  497.69   19.09
   3  10   2  477.13   19.47
   3  10   2  455.23   17.68
   4 -10   2   28.03    4.67
   4  10   2   29.01    5.12
   4  10   2   22.27    4.33
  -4  10  -2   35.79    5.41
  -4  10  -2   33.52    4.50
   5 -10   2   30.25    5.24
  -5  10  -2   29.50    4.68
   5  10   2   30.65    5.39
   5 -11  -2   61.92    6.85
   5  11  -2   76.82    6.86
  -5  11   2   77.44    8.29
  -4  11   2  143.81   10.10
   4 -11  -2  141.15    9.50
   4  11  -2  141.94    9.02
  -4  11   2  149.50   10.06
  -3 -11   2   72.10    5.98
   3  11  -2   60.55    5.58
  -3  11   2   59.30    6.76
  -3  11   2   55.49    6.64
   3 -11  -2   71.22    6.63
  -2  11   2  153.35    9.51
   2 -11  -2  158.76    9.61
  -2 -11   2  154.72    9.04
  -2  11   2  157.16    9.94
   2  11  -2  138.87    8.52
   1  11  -2   88.70    6.52
  -1  11   2   86.26    7.11
  -1 -11   2   66.26    6.19
  -1  11   2   73.90    6.38
   1 -11  -2   70.93    6.27
   1  11  -2   84.90    5.21
   0 -11  -2   67.71    6.26
   0  11   2   74.31    6.77
   0 -11   2   82.80    6.65
   0  11   2   83.01    6.61
   0  11  -2   80.63    5.34
   0  11  -2   81.49    6.45
   1  11   2  602.08   22.16
   1 -11   2  559.97   21.32
  -1  11  -2  558.87   18.46
  -1  11  -2  519.05   20.31
   1  11   2  552.57   19.88
  -1 -11  -2  531.46   20.62
  -2 -11  -2   20.31    4.19
  -2  11  -2   23.78    4.36
   2  11   2   29.92    4.73
  -2  11  -2   23.85    3.78
   2  11   2   26.10    4.76
   2 -11   2   20.61    4.43
   3 -11   2  275.65   13.63
   3  11   2  287.03   14.23
  -3  11  -2  290.94   13.89
  -3 -11  -2  257.02   12.29
  -3  11  -2  284.56   12.00
   3  11   2  249.92   12.33
  -4  11  -2   10.78    3.89
   4 -11   2   10.16    4.01
   4  11   2   11.21    3.47
   4 -12  -2    5.55    3.36
  -4  12   2    5.49    4.08
   4  12  -2    0.84    2.51
   3 -12  -2  212.97   12.25
  -3  12   2  216.79   12.37
  -3  12   2  229.84   13.16
   3  12  -2  214.48   11.39
  -3 -12   2  216.66   11.50
  -2 -12   2    1.59    2.55
  -2  12   2   -1.01    3.03
   2  12  -2   -0.70    1.96
  -2  12   2    2.37    2.89
   2 -12  -2   -0.56    2.31
  -1  12   2  299.81   14.65
  -1 -12   2  273.10   13.56
   1 -12  -2  265.97   13.66
   1  12  -2  273.01   13.08
  -1  12   2  281.51   13.52
   0  12  -2    3.13    2.77
   0 -12  -2    3.89    2.86
   0 -12   2    5.09    3.00
   0  12   2    0.31    2.47
   0  12   2   -0.81    2.54
  -1 -12  -2   47.09    5.80
   1  12   2   51.73    6.41
   1  12   2   42.94    5.64
  -1  12  -2   42.96    5.49
   1 -12   2   43.66    5.75
   2  12   2  105.23    7.60
   2 -12   2  109.47    8.47
  -2 -12  -2  107.83    7.97
   2  12   2   93.05    8.15
  -2  12  -2  113.98    8.24
   3  12   2  179.61   10.46
  -3  12  -2  182.42   11.18
   3 -12   2  192.49   11.41
  -3 -12  -2  187.84   10.43
   4  12   2  142.41    9.42
   4 -12   2  151.53   10.37
   3 -13  -2   20.46    5.13
  -3 -13   2   25.24    4.99
  -3  13   2   25.22    5.72
   3  13  -2   20.27    4.38
   2  13  -2  279.85   13.87
  -2 -13   2  279.92   14.28
  -2  13   2  296.72   14.59
   2 -13  -2  295.78   15.11
  -1  13   2    1.07    3.33
   1  13  -2    6.37    3.07
   1 -13  -2    6.74    3.34
  -1 -13   2    2.74    2.61
   0  13   2   85.35    8.07
   0  13  -2   86.42    7.44
   0 -13   2   99.53    8.13
   0 -13  -2   85.25    7.55
   0  13   2   79.77    7.24
  -1  13  -2  236.30   12.59
   1  13   2  245.83   12.36
  -1 -13  -2  215.30   12.40
   1 -13   2  239.77   13.14
   2 -13   2    1.05    2.75
  -2  13  -2    5.30    3.65
   2  13   2    3.29    3.06
  -2 -13  -2   -0.24    2.46
   3  13   2   59.19    6.95
   3 -13   2   40.29    6.19
  -3 -13  -2   69.41    7.03
   1 -14  -2   37.37    6.16
  -1  14   2   29.18    6.13
  -1 -14   2   35.33    6.14
   0 -14  -2   51.10    7.06
   0 -14   2   55.82    7.12
   0  14   2   43.65    6.44
   1  14   2   27.01    5.41
  -8   0   3    1.99    2.79
  -7   0   3   29.57    5.24
  -6   0   3   -0.60    2.02
  -5   0   3    2.45    2.14
   5   0  -3    4.71    1.20
  -4   0   3   -0.76    1.38
  -4   0   3    0.83    1.14
   4   0  -3    0.10    0.75
  -3   0   3  681.25   20.78
   3   0  -3  697.05   20.15
  -3   0   3  691.15   20.41
   2   0  -3   -1.72    0.68
  -2   0   3    4.61    1.56
   1   0  -3   44.56    2.72
   1   0  -3   43.35    2.45
  -1   0   3   44.94    1.82
  -1   0   3   46.92    2.61
   0   0  -3    0.56    0.68
   0   0   3    2.97    0.83
   0   0  -3    0.05    0.47
   0   0   3    0.03    0.44
   0   0  -3   -0.35    0.48
  -1   0  -3 8046.82  216.58
   1   0   3 8051.97  217.63
  -1   0  -3 8336.06  215.68
  -2   0  -3   -0.03    0.69
  -2   0  -3    0.57    0.95
  -2   0  -3    0.68    0.92
   2   0   3    0.17    0.93
   3   0   3  251.24    8.63
  -3   0  -3  233.47    9.25
  -4   0  -3   -1.59    1.24
   4   0   3   -0.01    0.91
   5   0   3  257.32    8.72
  -5   0  -3  233.40   11.10
  -6   0  -3   -0.59    2.15
  -7   0  -3    0.61    2.32
  -8   1   3    0.85    3.18
  -8  -1   3    4.49    3.14
  -7   1   3  289.49   14.42
  -7  -1   3  320.93   14.50
  -6   1   3   27.88    4.56
  -6  -1   3   27.91    4.50
  -5  -1   3  329.36   13.02
   5  -1  -3  326.93   10.68
  -5   1   3  309.95   13.17
  -4  -1   3  284.78   10.62
  -4  -1   3  304.68   11.37
  -4   1   3  302.86   11.76
   4   1  -3  298.75    9.51
   4  -1  -3  289.45    9.94
   3   1  -3  562.34   16.46
   3  -1  -3  547.25   16.75
  -3  -1   3  560.75   16.73
  -3   1   3  550.81   17.65
  -3  -1   3  545.73   17.00
   2   1  -3   85.22    3.94
  -2   1   3   82.28    4.54
  -2  -1   3   82.48    3.94
   2  -1  -3   81.05    4.07
  -2  -1   3   85.40    3.33
  -1   1   3   -0.08    0.58
  -1   1   3   -1.53    0.80
   1   1  -3   -0.67    0.60
   1  -1  -3    1.42    0.86
   1   1  -3    1.38    0.72
  -1  -1   3   -0.97    0.70
   0  -1  -3  156.71    6.05
   0   1  -3  151.13    5.98
   0  -1   3  159.36    4.90
   0   1   3  157.51    5.60
   0   1   3  153.82    5.42
   0   1  -3  151.41    4.86
   0  -1  -3  156.53    5.39
  -1  -1  -3   14.38    1.68
   1  -1   3   17.39    1.56
  -1   1  -3   22.69    1.94
  -1   1  -3   14.75    1.80
   1   1   3   14.87    1.73
   1   1   3   19.18    1.88
  -1   1  -3   13.82    1.38
  -1  -1  -3   11.38    1.60
  -2   1  -3    7.78    1.48
  -2   1  -3    6.68    1.62
   2   1   3    6.41    1.60
  -2  -1  -3    3.67    1.30
  -2  -1  -3    4.83    1.49
   2  -1   3    6.67    1.47
  -2  -1  -3    8.14    1.40
  -3  -1  -3 1394.09   38.41
  -3   1  -3 1405.55   38.59
   3  -1   3 1399.89   38.79
  -3  -1  -3 1367.67   38.72
   3   1   3 1334.85   40.26
   4  -1   3  669.10   20.27
  -4  -1  -3  657.12   21.68
   4   1   3  695.76   19.92
  -4   1  -3  671.60   21.59
   5  -1   3  509.54   15.48
  -5  -1  -3  487.21   17.99
  -5   1  -3  465.05   17.65
  -6  -1  -3   35.09    5.17
  -6   1  -3   33.40    4.87
  -7  -1  -3   95.59    7.90
  -7   1  -3   92.22    7.73
  -8   2   3    7.25    3.66
  -8  -2   3    3.13    3.00
  -7  -2   3    2.22    2.38
  -7   2   3    1.31    2.38
  -6  -2   3  258.80   11.84
  -6   2   3  252.96   12.39
  -5   2   3  133.33    8.08
   5  -2  -3  134.90    6.03
  -5  -2   3  154.26    7.85
  -4  -2   3   42.38    2.72
  -4   2   3   47.94    4.69
  -4  -2   3   45.25    3.78
  -4  -2   3   45.83    3.49
   4  -2  -3   44.73    3.17
  -3   2   3 1139.37   33.69
  -3  -2   3 1178.17   32.72
  -3  -2   3 1203.03   33.01
  -3  -2   3 1165.16   32.52
   3  -2  -3 1155.84   33.27
  -2  -2   3   20.20    1.51
   2  -2  -3   17.57    2.07
  -2   2   3   16.71    2.46
   2   2  -3   24.54    2.09
  -2  -2   3   20.61    1.86
  -2  -2   3   18.48    1.91
  -2   2   3   22.29    2.05
   1   2  -3 1488.63   38.12
  -1  -2   3 1421.96   40.49
   1   2  -3 1481.78   41.16
   1  -2  -3 1428.60   40.70
  -1   2   3 1485.71   39.50
  -1  -2   3 1463.51   38.20
   1   2  -3 1445.34   40.53
  -1   2   3 1459.63   40.21
   1  -2  -3 1452.10   40.00
   0   2   3  565.75   16.47
   0  -2   3  577.34   15.17
   0  -2   3  549.95   17.14
   0   2   3  559.12   16.76
   0  -2   3  570.88   15.19
   0  -2  -3  566.02   16.66
   0  -2  -3  549.61   17.12
   1   2   3  906.11   25.47
   1   2   3  863.42   26.34
  -1  -2  -3  922.15   26.33
   1  -2   3  945.49   24.54
  -1  -2  -3  943.58   26.38
  -1   2  -3  888.96   24.43
   1  -2   3  906.21   26.45
   2   2   3  335.43   12.04
  -2  -2  -3  343.71   11.28
  -2   2  -3  343.78   10.97
  -2   2  -3  359.64   12.04
   2  -2   3  327.58   11.48
  -2  -2  -3  355.63   12.10
   3   2   3   18.53    2.86
  -3  -2  -3   18.07    2.63
  -3   2  -3   21.86    2.71
  -3  -2  -3   19.74    1.97
   3  -2   3   17.17    2.19
  -4  -2  -3   12.92    1.69
   4   2   3   11.18    2.69
  -4  -2  -3   13.40    2.73
  -4   2  -3   17.09    3.03
   4  -2   3   17.22    2.30
  -5  -2  -3  559.08   20.42
  -5   2  -3  591.55   20.44
   5  -2   3  594.41   18.33
  -6   2  -3    0.96    2.17
  -6  -2  -3    3.26    2.54
  -7  -2  -3  102.52    8.35
  -7   2  -3  108.65    8.29
  -8   3   3   97.50    8.75
  -8  -3   3   96.64    8.37
  -7   3   3   89.61    7.76
  -7  -3   3  109.03    7.74
  -6   3   3    0.04    2.20
  -6  -3   3    1.28    2.18
  -5   3   3  565.22   20.18
  -5  -3   3  561.06   18.93
   5  -3  -3  537.67   17.64
   4  -3  -3  403.03   13.79
  -4  -3   3  417.64   14.12
  -4  -3   3  411.01   14.03
  -4  -3   3  397.93   12.72
  -4   3   3  434.80   15.59
  -3  -3   3 1293.87   35.58
  -3  -3   3 1275.97   35.36
   3   3  -3 1261.98   35.48
  -3   3   3 1245.69   36.52
   3  -3  -3 1233.82   36.08
  -3  -3   3 1246.96   34.70
  -2  -3   3   16.68    1.56
  -2   3   3   17.52    2.74
   2   3  -3   18.14    1.78
   2  -3  -3   16.21    2.16
   2   3  -3   17.94    1.54
  -2   3   3   15.58    2.10
  -2  -3   3   18.66    1.63
  -2  -3   3   22.06    2.18
  -1  -3   3 1679.49   47.29
  -1   3   3 1681.59   46.09
   1   3  -3 1793.60   44.69
  -1   3   3 1624.50   47.17
   1  -3  -3 1709.49   47.04
  -1  -3   3 1745.48   44.80
   1  -3  -3 1699.54   47.63
   1   3  -3 1670.68   46.14
  -1  -3   3 1755.51   46.14
   0   3   3 1329.82   37.54
   0   3  -3 1329.28   36.42
   0  -3   3 1337.70   37.72
   0  -3  -3 1293.70   37.65
   0  -3  -3 1369.03   37.44
   0   3   3 1339.22   36.44
   1   3   3   56.93    3.52
   1  -3   3   53.69    2.68
   1   3   3   50.71    3.50
  -1  -3  -3   55.70    3.46
  -1  -3  -3   54.64    3.55
  -1   3  -3   54.49    2.48
   1  -3   3   58.02    3.62
  -2  -3  -3   37.25    2.73
   2   3   3   39.23    3.17
   2  -3   3   35.26    3.00
  -2   3  -3   34.12    2.49
  -3  -3  -3  809.02   25.53
  -3  -3  -3  857.22   24.77
   3   3   3  852.55   26.81
   3  -3   3  893.80   25.73
  -3   3  -3  844.62   24.94
   4  -3   3  561.81   17.95
   4   3   3  556.21   19.83
  -4  -3  -3  572.09   16.82
  -4   3  -3  546.75   18.45
  -4  -3  -3  540.82   18.90
  -5  -3  -3   19.95    3.74
   5  -3   3   27.65    3.07
  -5   3  -3   27.16    4.05
   5   3   3   30.24    4.43
  -6   3  -3   59.37    6.12
  -6  -3  -3   75.69    6.37
  -7  -3  -3   14.68    3.96
  -7   3  -3   12.83    3.89
  -7   4   3    2.57    2.64
  -7  -4   3    0.22    2.12
  -6  -4   3  113.70    7.41
  -6   4   3  119.73    8.33
  -5   4   3   15.01    3.71
  -5  -4   3    8.22    2.83
   5  -4  -3   12.88    2.54
  -4  -4   3   93.84    4.45
   4  -4  -3   88.93    5.32
  -4  -4   3   88.33    5.22
   4   4  -3   86.22    5.00
  -4   4   3   96.60    6.65
  -3   4   3 1204.57   35.23
  -3  -4   3 1215.56   32.97
  -3  -4   3 1206.17   33.93
  -3   4   3 1189.20   35.08
  -3  -4   3 1203.34   33.80
   3  -4  -3 1120.07   34.51
   3   4  -3 1169.07   33.74
   2  -4  -3   48.12    3.64
  -2  -4   3   46.89    2.56
  -2   4   3   45.56    3.77
  -2  -4   3   45.40    3.18
  -2  -4   3   44.63    2.77
  -2   4   3   41.86    3.42
   2   4  -3   44.45    2.66
   1   4  -3 1697.67   45.00
   1   4  -3 1751.24   44.88
  -1  -4   3 1695.84   47.98
  -1   4   3 1644.06   48.06
   1   4  -3 1684.88   46.74
  -1  -4   3 1791.68   46.81
   1  -4  -3 1771.76   47.97
  -1   4   3 1704.48   46.83
   0   4   3  509.36   16.13
   0  -4  -3  500.36   16.18
   0   4   3  491.07   15.55
   0  -4  -3  524.02   16.01
   0  -4   3  481.47   16.00
   0   4  -3  485.55   14.81
   1  -4   3  268.20    8.20
  -1   4  -3  279.21    8.20
   1  -4   3  264.49   10.08
   1   4   3  259.90   10.14
   1   4   3  282.74    9.92
  -1  -4  -3  269.84    9.93
  -1  -4  -3  275.61   10.16
   2   4   3 1045.80   30.36
   2  -4   3 1066.35   31.22
   2   4   3 1030.32   31.76
  -2  -4  -3 1045.30   30.56
  -2   4  -3 1090.19   29.24
   3   4   3    0.49    1.29
  -3  -4  -3    0.09    0.81
  -3   4  -3    0.15    1.19
   3  -4   3   -0.64    1.03
  -4  -4  -3  178.87    9.27
  -4  -4  -3  216.62    7.80
  -4   4  -3  207.19    9.11
   4  -4   3  219.86    8.98
   4   4   3  202.81   10.10
   5  -4   3  341.56   12.46
  -5   4  -3  327.78   13.43
   5   4   3  319.28   14.46
  -5  -4  -3  312.26   13.80
   6   4   3  202.41   11.65
  -6  -4  -3  223.86   11.68
  -6   4  -3  207.74   10.96
  -7  -4  -3  173.28   11.16
  -7   4  -3  179.24   10.83
  -7  -5   3   32.53    5.14
  -7   5   3   29.52    5.65
  -6  -5   3    1.32    1.99
  -6   5   3    0.08    2.12
   6  -5  -3   -1.59    1.57
   5  -5  -3  112.34    6.57
  -5  -5   3  123.27    6.97
   5   5  -3  117.55    6.65
  -5   5   3  115.34    7.83
  -4   5   3  158.23    8.82
  -4  -5   3  157.02    6.47
  -4   5   3  155.04    8.17
   4   5  -3  136.77    6.91
   4  -5  -3  143.87    7.39
  -4  -5   3  160.32    7.30
  -3  -5   3  228.33    8.67
  -3  -5   3  216.09    8.52
  -3   5   3  217.39   10.18
  -3  -5   3  230.39    8.27
   3   5  -3  216.15    8.41
   3  -5  -3  218.91    9.38
  -3   5   3  215.02    9.60
  -2   5   3   19.15    3.20
   2   5  -3   22.92    2.23
  -2  -5   3   23.14    2.30
   2  -5  -3   18.11    2.80
  -2   5   3   27.99    3.19
  -2  -5   3   24.19    2.64
  -1   5   3 1581.18   47.47
   1   5  -3 1748.44   43.60
  -1   5   3 1634.71   46.15
   1   5  -3 1654.14   43.62
  -1  -5   3 1725.53   46.16
   1   5  -3 1669.34   46.11
   1  -5  -3 1641.16   47.66
  -1  -5   3 1731.44   47.48
   0   5   3 1311.73   37.32
   0   5  -3 1307.80   35.88
   0   5   3 1279.70   35.86
   0   5  -3 1316.99   33.81
   0  -5   3 1200.35   36.87
   0  -5  -3 1238.46   37.04
   1  -5   3  880.18   26.91
   1  -5   3  864.28   23.78
  -1   5  -3  876.50   26.02
   1   5   3  899.93   26.13
  -1   5  -3  890.48   23.99
  -1  -5  -3  895.48   26.78
   1   5   3  895.90   27.26
   2   5   3   57.90    4.23
   2  -5   3   59.47    4.28
  -2   5  -3   59.97    3.42
   2   5   3   49.71    4.17
  -2  -5  -3   61.09    3.93
   3   5   3  558.79   19.42
   3   5   3  526.27   18.10
   3  -5   3  524.47   18.15
  -3   5  -3  567.04   17.44
  -3  -5  -3  549.94   17.36
  -4   5  -3   60.47    4.74
   4   5   3   54.10    4.99
   4  -5   3   57.33    4.54
  -4  -5  -3   61.59    3.85
   5   5   3   48.66    5.63
  -5   5  -3   64.85    5.29
   5  -5   3   59.84    4.90
   6   5   3  166.48   10.36
  -6  -5  -3  152.56    9.73
  -6   5  -3  144.81    9.10
  -7  -5  -3   -1.46    2.29
  -7   5  -3    4.53    3.38
  -7   6   3    7.95    3.71
  -7  -6   3    5.65    3.30
   6  -6  -3  150.83    8.21
  -6   6   3  152.19    9.98
  -6  -6   3  157.35    8.90
   5   6  -3   95.08    6.09
  -5  -6   3   86.34    5.89
  -5   6   3   77.53    6.84
  -5   6   3   86.22    6.68
   5  -6  -3   90.80    6.15
  -4   6   3  756.87   26.29
   4   6  -3  786.69   24.63
  -4   6   3  740.91   26.00
  -4  -6   3  842.97   24.16
   4  -6  -3  787.35   25.39
  -4  -6   3  781.93   23.69
  -3  -6   3  373.37   13.07
   3  -6  -3  362.88   13.97
  -3   6   3  381.67   14.53
  -3  -6   3  374.42   12.27
  -3   6   3  361.60   14.62
   3   6  -3  363.07   12.81
   2   6  -3  331.04   10.12
  -2  -6   3  337.23   12.15
   2   6  -3  324.40   11.32
  -2   6   3  286.63   12.39
   2  -6  -3  336.08   12.80
  -2  -6   3  344.61   11.52
  -2   6   3  331.97   12.87
  -1  -6   3   95.72    5.51
   1   6  -3  103.10    3.62
   1  -6  -3   97.75    5.82
   1   6  -3   95.33    3.57
  -1  -6   3  101.63    4.89
   1   6  -3   97.65    4.80
  -1   6   3   95.17    5.68
  -1   6   3   94.96    5.73
   0   6   3   40.24    3.78
   0  -6  -3   46.02    3.82
   0   6  -3   41.78    3.13
   0   6  -3   39.16    2.15
   0  -6   3   39.52    3.54
   0   6   3   43.70    3.71
   1   6   3    1.30    1.41
   1   6   3    1.60    1.41
   1  -6   3    2.97    1.66
  -1  -6  -3    2.68    1.37
  -1   6  -3    1.45    1.36
  -1   6  -3    0.92    0.87
  -2   6  -3   70.12    3.80
   2  -6   3   61.60    4.65
   2   6   3   57.97    4.71
  -2  -6  -3   53.72    4.07
   2   6   3   62.00    4.51
   3  -6   3   19.58    3.13
   3   6   3   28.55    3.79
  -3   6  -3   25.56    3.01
  -3  -6  -3   27.07    2.93
   3   6   3   21.45    3.50
  -4   6  -3  118.47    6.80
  -4  -6  -3  134.95    6.27
   4   6   3  130.32    8.15
   4  -6   3  139.35    7.49
  -5   6  -3    5.23    2.46
   5   6   3    1.21    2.10
   5  -6   3    1.55    2.17
  -6   6  -3  398.15   16.71
   6   6   3  417.39   18.60
  -7   7   3   61.02    7.93
  -7  -7   3   68.12    7.10
  -6  -7   3   26.50    4.55
  -6   7   3    8.39    3.32
  -6   7   3   15.72    4.47
   6  -7  -3   16.66    3.60
   6   7  -3   14.12    3.67
   5  -7  -3   15.85    3.39
  -5   7   3   15.77    3.71
  -5  -7   3   22.07    3.65
   5   7  -3   13.71    3.16
  -5   7   3   15.28    4.21
   4  -7  -3  213.17   10.20
   4   7  -3  208.56    9.31
  -4   7   3  192.77   10.42
  -4  -7   3  234.03    9.33
  -4   7   3  186.12   10.80
  -4  -7   3  221.30    9.05
  -3  -7   3   26.30    3.16
   3   7  -3   31.74    3.38
   3  -7  -3   20.17    3.41
  -3   7   3   22.65    3.91
  -3   7   3   24.12    4.38
  -2  -7   3  733.12   23.16
   2   7  -3  715.70   22.30
   2  -7  -3  756.51   24.04
  -2   7   3  715.69   23.59
   2   7  -3  731.28   20.41
  -2   7   3  674.58   23.84
   1   7  -3  148.65    6.78
  -1   7   3  151.41    7.97
  -1  -7   3  142.07    7.43
   1  -7  -3  147.62    7.84
  -1   7   3  155.45    7.88
   1   7  -3  157.34    5.32
   1   7  -3  151.29    5.30
   0  -7   3  761.10   24.82
   0   7   3  789.48   24.20
   0   7  -3  764.32   21.33
   0   7  -3  781.01   23.79
   0   7   3  783.75   25.32
   0  -7  -3  786.74   25.09
  -1   7  -3   11.56    1.69
   1  -7   3    8.93    2.54
  -1  -7  -3   10.91    2.51
  -1   7  -3   10.14    2.29
   1   7   3   11.59    2.71
   1   7   3   12.60    2.81
   2   7   3   35.35    4.28
  -2   7  -3   50.10    4.18
  -2  -7  -3   44.21    4.19
  -2   7  -3   44.61    3.29
   2   7   3   48.16    4.63
   2  -7   3   40.12    4.25
   3  -7   3   62.42    5.08
  -3   7  -3   69.84    4.56
   3   7   3   59.83    4.97
  -3  -7  -3   56.56    4.27
   3   7   3   57.63    5.27
   4   7   3   57.12    6.00
  -4  -7  -3   48.69    3.84
   4   7   3   43.95    5.18
  -4   7  -3   49.62    4.48
   4  -7   3   61.81    5.15
   5   7   3   23.59    4.49
  -5   7  -3   39.24    4.94
   5   7   3   30.58    4.91
   5  -7   3   32.32    4.48
   6  -7   3  252.45   11.97
  -6   7  -3  256.39   12.58
  -6  -8   3  405.84   16.14
   6  -8  -3  375.48   15.86
  -6   8   3  384.01   17.92
  -6   8   3  368.50   17.46
   6   8  -3  375.45   16.02
  -5   8   3   -2.05    2.30
   5  -8  -3    1.70    2.05
  -5   8   3    1.06    2.30
   5   8  -3    0.32    2.01
  -4   8   3  156.07    9.44
  -4   8   3  159.04    9.78
   4   8  -3  167.15    8.35
  -4  -8   3  156.41    7.80
   4  -8  -3  151.18    8.74
  -3  -8   3   17.60    3.13
  -3   8   3   24.37    4.12
  -3   8   3   17.21    4.21
   3   8  -3   18.48    3.07
   3   8  -3   24.45    2.73
   3  -8  -3   21.30    3.83
   2  -8  -3  199.96    9.94
  -2  -8   3  209.49    9.48
  -2   8   3  184.25    9.97
   2   8  -3  209.83    7.43
   2   8  -3  212.79    8.96
  -2   8   3  188.10    9.96
   1   8  -3    2.31    1.75
  -1   8   3   -2.15    1.94
  -1  -8   3    2.95    2.00
   1   8  -3    2.69    1.27
  -1   8   3    1.39    1.99
   1  -8  -3   -1.37    1.54
   0   8   3  592.59   20.70
   0   8   3  553.14   19.38
   0  -8   3  593.15   20.31
   0   8  -3  589.05   19.15
   0   8  -3  571.80   16.75
   0  -8  -3  580.28   20.28
  -1   8  -3   93.37    5.74
   1   8   3   91.65    6.01
  -1  -8  -3   90.45    5.98
   1   8   3   82.38    6.20
  -1   8  -3   92.95    4.51
   1  -8   3   88.64    6.12
  -2  -8  -3  314.47   12.70
   2  -8   3  308.86   13.19
  -2   8  -3  329.02   11.22
  -2   8  -3  310.35   12.72
   2   8   3  331.83   12.95
   2   8   3  318.22   13.80
   3  -8   3   18.86    3.55
  -3   8  -3   30.81    3.37
   3   8   3   23.66    4.20
  -3   8  -3   20.53    3.63
   3   8   3   29.43    4.19
  -3  -8  -3   24.93    3.43
  -4   8  -3  245.99   10.76
   4  -8   3  257.45   11.86
  -4  -8  -3  237.14   10.11
   4   8   3  243.30   11.65
   4   8   3  254.24   12.84
   5  -8   3   -1.71    2.09
   5   8   3    1.70    2.65
   5   8   3    3.55    2.53
  -5   8  -3    2.51    2.14
   6  -8   3  152.84    9.32
  -6   8  -3  175.58   10.11
   6   8   3  163.92   10.46
   6  -9  -3    6.57    3.01
  -6   9   3    1.91    3.35
   5   9  -3    2.02    2.30
   5  -9  -3   -0.02    2.28
  -5   9   3    0.09    2.97
  -5   9   3    1.72    2.91
   4   9  -3  210.15   10.30
  -4   9   3  218.53   12.02
  -4   9   3  225.20   12.35
   4   9  -3  241.32    9.64
   4  -9  -3  217.41   11.30
  -4  -9   3  221.86   10.10
   3  -9  -3   14.81    3.40
  -3  -9   3   20.50    3.50
   3   9  -3   17.40    3.08
   3   9  -3   23.21    2.78
  -3   9   3   25.95    4.92
  -3   9   3   19.52    4.10
  -2   9   3  415.26   16.99
  -2  -9   3  418.08   15.97
   2  -9  -3  421.75   16.58
   2   9  -3  421.47   13.15
  -2   9   3  407.91   16.46
   2   9  -3  393.14   14.94
  -1   9   3  262.15   12.32
  -1  -9   3  268.11   11.79
   1   9  -3  262.72   10.85
  -1   9   3  256.77   11.75
   1  -9  -3  262.08   12.03
   1   9  -3  251.65    8.82
   0  -9  -3  546.49   19.52
   0   9  -3  515.67   15.75
   0  -9   3  522.76   19.25
   0   9   3  506.59   19.59
   0   9  -3  530.55   18.20
   0   9   3  523.73   18.66
  -1  -9  -3  222.80   10.71
  -1   9  -3  228.19   10.26
   1   9   3  232.54   11.39
   1   9   3  227.22   10.45
  -1   9  -3  216.85    8.30
   1  -9   3  215.77   10.66
   2   9   3   21.26    4.09
  -2  -9  -3   15.09    3.14
  -2   9  -3   16.57    3.21
   2   9   3   16.09    3.46
   2  -9   3   15.53    3.62
  -2   9  -3   19.04    2.67
   3   9   3   43.84    5.49
   3  -9   3   44.24    5.33
  -3   9  -3   49.11    5.30
   3   9   3   43.25    5.11
  -3   9  -3   42.42    3.91
  -3  -9  -3   51.80    4.93
   4  -9   3   26.64    4.49
  -4   9  -3   33.66    4.24
  -4   9  -3   28.49    4.73
   4   9   3   28.74    4.76
   4   9   3   34.56    5.41
   5  -9   3   10.67    3.65
   5   9   3    9.38    3.20
  -5   9  -3    7.37    3.48
  -5   9  -3   18.19    3.78
  -5  10   3   -2.41    2.92
   5 -10  -3    1.51    2.60
  -4 -10   3    8.61    2.83
   4 -10  -3    4.35    2.74
   4  10  -3   10.11    3.12
  -4  10   3    2.20    2.91
  -4  10   3    4.69    3.48
   3 -10  -3   86.93    7.08
  -3 -10   3   89.61    6.53
  -3  10   3  102.04    7.95
   3  10  -3   90.74    6.23
  -3  10   3   88.40    7.61
  -2 -10   3   -0.88    1.59
  -2  10   3   -0.55    2.15
   2  10  -3   -0.33    1.60
   2 -10  -3   -0.40    1.89
  -2  10   3   -5.18    2.33
  -1  10   3    4.07    3.00
   1  10  -3    5.45    2.51
  -1 -10   3    4.77    2.48
   1 -10  -3    3.12    2.22
  -1  10   3    4.61    2.64
   0  10   3  373.31   15.86
   0  10  -3  362.85   14.20
   0  10   3  353.99   14.61
   0 -10  -3  339.20   14.93
   0 -10   3  355.88   15.18
   1  10   3   13.11    3.28
   1 -10   3    4.92    2.61
   1  10   3    9.15    3.16
  -1  10  -3   10.09    2.94
  -1 -10  -3   14.98    3.51
   2  10   3 1088.12   35.38
   2 -10   3 1056.83   34.57
  -2 -10  -3 1043.78   33.61
   2  10   3 1007.11   32.81
  -2  10  -3 1048.82   33.67
   3  10   3    0.28    2.26
  -3 -10  -3    0.52    2.09
   3  10   3   -2.35    1.86
   3 -10   3    1.95    2.52
  -3  10  -3   -1.06    2.06
   4  10   3  218.10   11.53
   4 -10   3  206.42   11.56
   4  10   3  232.41   12.84
  -4  10  -3  222.90   11.99
   5  10   3   15.28    4.33
   5 -10   3   18.37    4.55
   5 -11  -3   22.16    4.77
  -5  11   3   26.09    6.00
   4  11  -3  271.21   12.65
   4 -11  -3  265.69   13.74
  -4  11   3  264.41   14.45
   3 -11  -3  115.69    8.49
  -3  11   3  108.76    8.66
  -3 -11   3  107.32    7.70
  -3  11   3  107.87    8.73
   3  11  -3  111.16    7.31
  -2 -11   3  191.59   10.25
  -2  11   3  170.94   10.46
  -2  11   3  180.58   10.89
   2  11  -3  154.93    8.85
   2 -11  -3  179.34   10.45
  -1 -11   3   27.85    4.73
  -1  11   3   33.09    5.20
   1  11  -3   36.68    4.54
   1 -11  -3   20.93    4.22
  -1  11   3   30.42    5.11
   0  11   3  546.11   19.99
   0  11  -3  517.19   19.34
   0  11   3  556.39   21.54
   0 -11  -3  509.19   20.42
   0 -11   3  513.52   20.46
   1  11   3    5.20    3.00
  -1 -11  -3    5.99    2.84
   1 -11   3    6.62    2.85
   1  11   3    4.92    2.88
  -1  11  -3    5.83    2.71
  -2 -11  -3   19.33    3.90
  -2  11  -3   17.77    3.98
   2  11   3   25.01    4.71
   2  11   3   27.91    4.75
   2 -11   3   21.66    4.34
   3  11   3    0.67    2.58
   3  11   3    0.06    2.46
   3 -11   3   -1.25    2.39
  -3 -11  -3    1.12    2.32
  -3  11  -3   -3.74    2.15
   4  11   3   39.52    5.72
   4 -11   3   59.12    6.84
  -4  12   3   23.51    6.02
   4 -12  -3   27.81    5.51
   3 -12  -3   22.87    5.11
   3  12  -3   21.47    4.21
  -3  12   3   20.79    5.18
  -3 -12   3   17.54    4.02
   2  12  -3    2.30    2.29
  -2  12   3    5.69    3.29
   2 -12  -3    1.18    2.59
  -2 -12   3    4.10    3.18
  -2  12   3    1.42    3.41
   1 -12  -3   33.94    5.50
   1  12  -3   42.72    5.27
  -1  12   3   46.89    6.40
  -1  12   3   53.89    6.82
  -1 -12   3   34.32    5.27
   0  12   3   29.62    5.44
   0 -12  -3   25.57    4.73
   0  12   3   35.85    5.86
   0  12  -3   21.50    4.07
   0 -12   3   39.45    5.63
   1  12   3  191.35   11.50
   1 -12   3  180.12   10.72
  -1 -12  -3  184.56   10.68
   1  12   3  171.35   10.14
  -1  12  -3  154.42    9.60
  -2  12  -3  313.56   14.61
  -2 -12  -3  309.66   14.53
   2 -12   3  314.52   15.36
   2  12   3  310.10   14.30
   2  12   3  295.18   15.44
   3 -12   3   74.81    7.69
   3  12   3   59.76    6.78
  -3 -12  -3   62.14    6.40
  -3  12  -3   55.96    6.63
  -3 -13   3    4.27    3.19
  -3  13   3   10.29    5.07
   3 -13  -3   -0.01    3.03
  -2 -13   3   82.49    7.57
  -2  13   3   67.91    8.02
   2  13  -3   78.01    6.70
   2 -13  -3   90.86    7.88
  -1  13   3    1.70    3.62
   1 -13  -3    0.42    2.82
  -1 -13   3   -0.25    2.40
   1  13  -3    1.92    2.71
   0  13  -3  229.07   12.11
   0  13   3  212.84   12.24
   0 -13  -3  224.59   12.80
   0 -13   3  253.59   13.46
  -1 -13  -3   12.83    4.18
  -1  13  -3   16.70    4.26
   1 -13   3   21.02    4.97
   1  13   3   18.03    4.76
   2  13   3   -1.42    2.74
  -2 -13  -3   -5.15    1.92
   2 -13   3   -0.32    2.57
  -2  13  -3   -0.16    2.74
  -8   0   4    7.64    3.63
  -7   0   4   -0.03    2.30
  -6   0   4   88.83    6.72
  -5   0   4   -0.60    1.91
   5   0  -4    0.08    1.03
  -4   0   4 2643.60   70.95
  -4   0   4 2618.92   71.77
   4   0  -4 2591.56   71.27
  -3   0   4   -0.28    1.29
   3   0  -4    0.62    0.95
  -2   0   4   57.52    2.61
   2   0  -4   58.33    3.54
  -2   0   4   59.98    3.77
  -1   0   4   -0.62    0.44
  -1   0   4    1.17    1.10
   1   0  -4   -0.27    0.85
   0   0   4   94.28    3.92
   0   0   4   91.20    3.56
   0   0  -4   89.83    3.52
   0   0  -4   88.40    4.58
  -1   0  -4    0.04    0.84
  -1   0  -4    0.42    0.84
   1   0   4    1.50    0.99
   1   0   4   -0.56    0.63
  -2   0  -4 1746.82   47.99
  -2   0  -4 1723.88   49.53
   2   0   4 1782.24   50.06
  -2   0  -4 1870.96   50.09
  -3   0  -4    0.23    1.11
   3   0   4   -0.17    1.01
  -3   0  -4    1.74    1.16
  -4   0  -4  536.34   18.27
   4   0   4  535.52   17.06
  -5   0  -4    1.53    2.04
   5   0   4   -0.43    1.14
  -6   0  -4  270.20   13.06
  -7   0  -4    0.31    2.51
  -8  -1   4  199.98   12.03
  -7   1   4    2.23    2.64
  -7  -1   4    0.54    2.44
  -6   1   4   12.77    3.40
  -6  -1   4   15.05    3.70
  -5  -1   4  417.39   15.18
   5   1  -4  399.59   12.82
   5  -1  -4  403.44   13.29
  -5   1   4  381.26   15.37
  -4  -1   4   38.06    3.19
  -4  -1   4   46.89    4.16
  -4   1   4   35.92    4.21
   4  -1  -4   38.55    3.28
   4   1  -4   39.23    3.07
  -3  -1   4    0.46    0.69
   3  -1  -4    0.97    1.01
  -3   1   4   -1.59    1.29
   3   1  -4   -0.37    0.78
  -3  -1   4   -0.98    1.06
  -2  -1   4    8.97    0.84
  -2   1   4   11.56    2.18
  -2  -1   4    8.66    1.68
  -2   1   4    8.86    1.31
   2   1  -4    8.35    1.59
   2  -1  -4    7.66    1.68
   1   1  -4   13.72    1.93
  -1   1   4   15.85    1.47
   1  -1  -4   13.70    1.31
   1  -1  -4   17.39    2.12
   1   1  -4   16.81    1.54
  -1  -1   4   17.48    1.78
  -1   1   4   14.65    2.04
   0   1   4  446.25   13.45
   0   1  -4  440.63   12.71
   0   1  -4  441.02   14.41
   0  -1   4  443.36   12.62
   0  -1  -4  447.45   14.49
   0   1   4  446.97   13.45
   0  -1  -4  447.46   13.32
  -1  -1  -4    7.63    1.50
   1   1   4    7.20    1.56
  -1   1  -4    6.92    1.58
  -1  -1  -4   11.29    1.87
   1   1   4    6.39    1.39
  -1   1  -4    8.20    1.40
   2  -1   4 5782.78  154.61
   2   1   4 5649.95  155.18
  -2   1  -4 5652.97  149.08
  -2   1  -4 6143.90  155.08
  -2   1  -4 5613.64  154.47
  -2  -1  -4 5755.66  154.39
  -2  -1  -4 5891.34  155.06
  -3  -1  -4    3.19    1.21
   3   1   4    3.77    1.70
  -3  -1  -4    1.32    1.41
  -3   1  -4    1.60    1.33
   3  -1   4    1.72    1.26
   4   1   4    1.50    1.36
  -4   1  -4    0.04    1.64
   4  -1   4   -0.52    1.14
  -4  -1  -4    0.87    1.60
  -5  -1  -4   27.40    4.26
  -5   1  -4   33.18    4.46
   5  -1   4   24.64    2.87
  -6  -1  -4  137.92    8.92
  -6   1  -4  147.07    9.08
  -7  -1  -4    0.96    2.68
  -7   1  -4    0.22    2.24
  -8   2   4   20.24    5.01
  -8  -2   4   26.37    5.61
  -7   2   4    1.36    2.45
  -7  -2   4    1.70    2.60
  -6   2   4  192.92   10.48
  -6  -2   4  181.53    9.59
  -5   2   4  911.24   28.86
  -5  -2   4  880.57   25.69
   5  -2  -4  878.10   26.58
  -5  -2   4  894.30   27.67
  -4   2   4 1892.56   52.43
   4  -2  -4 1813.87   51.72
  -4  -2   4 1824.15   51.46
  -4  -2   4 1830.91   51.09
   4   2  -4 1871.10   51.15
  -4  -2   4 1877.18   50.99
   3  -2  -4  108.72    5.40
  -3  -2   4  104.55    5.07
  -3  -2   4  109.48    4.49
   3   2  -4  106.03    5.04
  -3   2   4  104.02    6.15
  -3   2   4  107.46    5.24
  -2  -2   4  129.16    5.06
  -2   2   4  131.34    5.47
   2  -2  -4  137.12    6.13
  -2   2   4  135.61    6.38
  -2  -2   4  126.95    4.18
   2   2  -4  129.57    5.79
  -1  -2   4    7.30    1.08
   1  -2  -4    7.34    1.24
   1  -2  -4    7.65    1.72
  -1   2   4    8.37    1.86
   1   2  -4    7.75    0.95
  -1   2   4    6.72    1.32
   1   2  -4    7.57    1.63
   0  -2  -4   33.59    2.57
   0   2  -4   35.41    1.93
   0  -2   4   36.55    1.84
   0  -2   4   45.37    1.93
   0  -2   4   31.30    2.93
   0   2   4   40.17    2.94
   0   2  -4   33.56    2.90
   0   2   4   38.40    2.66
   0  -2  -4   33.88    2.97
  -1   2  -4   89.48    4.15
   1   2   4   82.89    4.36
  -1  -2  -4   84.17    4.61
   1  -2   4   88.67    3.66
   1   2   4   78.24    4.31
  -1  -2  -4   86.68    4.43
   1  -2   4   81.70    4.60
   2  -2   4  250.22    9.42
  -2   2  -4  235.42    8.32
  -2   2  -4  257.51    9.51
   2   2   4  215.22    9.26
  -2  -2  -4  232.69    8.99
  -3  -2  -4  125.78    5.71
   3   2   4  112.19    6.59
  -3  -2  -4  122.02    6.32
   3  -2   4  119.65    6.01
  -3   2  -4  122.47    5.95
  -4  -2  -4  321.18   10.85
   4   2   4  298.00   12.92
   4  -2   4  302.73   11.36
  -4  -2  -4  302.33   12.38
  -4   2  -4  304.81   12.01
   5  -2   4  510.88   16.77
  -5  -2  -4  507.89   18.77
  -5   2  -4  482.45   18.13
  -6   2  -4   89.19    6.99
  -6  -2  -4   84.87    6.95
  -7  -2  -4   89.59    7.93
  -7   2  -4   82.73    7.53
  -7   3   4    2.57    2.83
  -7  -3   4    6.86    2.96
  -6   3   4    1.48    2.55
  -6  -3   4    0.21    2.10
   5  -3  -4  566.19   18.55
  -5  -3   4  581.25   19.31
  -5  -3   4  567.34   17.38
  -5   3   4  566.42   20.75
  -4   3   4  481.11   17.81
  -4  -3   4  487.25   15.68
  -4  -3   4  507.37   16.02
   4  -3  -4  489.69   16.50
  -4  -3   4  510.95   16.36
  -3  -3   4   48.31    3.28
  -3  -3   4   50.76    3.52
  -3   3   4   56.53    4.68
  -3   3   4   53.28    3.78
   3  -3  -4   53.18    3.87
  -3  -3   4   50.59    3.03
  -2  -3   4 1764.49   45.00
   2   3  -4 1749.11   45.07
  -2   3   4 1649.13   47.07
  -2   3   4 1715.63   47.68
   2  -3  -4 1683.76   48.16
  -2  -3   4 1684.02   45.99
  -2  -3   4 1677.09   47.71
  -1  -3   4  743.54   19.36
   1   3  -4  764.35   19.25
  -1   3   4  718.25   21.56
  -1  -3   4  717.01   22.09
   1   3  -4  707.92   20.01
   1  -3  -4  694.23   22.20
   1  -3  -4  725.66   21.35
  -1   3   4  701.89   21.44
   0  -3  -4  739.35   22.65
   0  -3  -4  742.74   21.99
   0  -3   4  720.09   22.62
   0   3   4  755.16   21.81
   0   3   4  743.29   22.18
   0   3  -4  730.49   20.69
   1  -3   4 1330.86   33.92
  -1  -3  -4 1267.82   36.82
   1   3   4 1268.06   36.88
   1   3   4 1247.58   35.61
   1  -3   4 1268.47   36.99
  -1   3  -4 1247.20   33.76
  -1  -3  -4 1322.32   36.80
   2   3   4  294.10   11.59
   2  -3   4  294.07   11.26
  -2   3  -4  291.73    9.93
  -2   3  -4  346.54   11.69
  -2  -3  -4  312.00   11.10
   2   3   4  305.79   11.15
  -3  -3  -4   98.27    5.13
  -3   3  -4  102.28    5.25
   3   3   4   90.26    5.93
   3  -3   4  108.49    5.73
  -4  -3  -4  190.31    7.59
   4  -3   4  191.21    8.41
  -4   3  -4  187.61    8.65
   4   3   4  174.31    9.43
  -4  -3  -4  189.19    9.29
   5  -3   4   42.31    4.03
   5   3   4   54.08    5.84
  -5   3  -4   48.02    4.99
  -5  -3  -4   50.41    5.64
  -6  -3  -4   66.04    6.85
  -6   3  -4   53.23    5.87
  -7  -3  -4   35.05    6.19
  -7   3  -4   32.71    5.68
  -7  -4   4   63.51    6.43
  -7   4   4   56.72    6.97
  -6  -4   4  106.17    7.19
   6  -4  -4  115.26    6.36
  -6   4   4  112.38    8.24
   5  -4  -4   67.47    4.87
  -5   4   4   73.94    6.52
  -5  -4   4   69.43    5.29
  -4  -4   4  219.20    8.67
  -4  -4   4  237.23    8.98
  -4  -4   4  225.24    9.07
  -4   4   4  211.28   10.70
  -4   4   4  233.96   10.12
   4  -4  -4  221.08    9.54
  -3  -4   4    9.90    1.94
  -3  -4   4    7.37    1.54
   3   4  -4    6.99    1.47
   3  -4  -4    3.83    1.71
  -3   4   4    8.61    2.67
  -3  -4   4   10.11    1.78
  -3   4   4    8.34    2.26
  -2   4   4    3.98    1.61
  -2  -4   4    2.45    0.88
   2   4  -4    2.90    1.09
  -2  -4   4    3.57    1.51
  -2  -4   4    3.15    0.96
  -2   4   4    0.45    1.76
   2  -4  -4    4.15    1.70
   2   4  -4    2.66    0.85
   1  -4  -4    7.13    1.75
  -1  -4   4    7.99    1.89
  -1   4   4    7.99    1.84
   1   4  -4    5.56    0.99
   1  -4  -4    5.96    1.80
  -1   4   4   11.98    2.43
   0   4  -4  862.33   24.84
   0   4   4  868.66   26.51
   0  -4  -4  876.05   26.82
   0  -4  -4  912.78   26.40
   0   4   4  899.15   25.92
   0  -4   4  882.33   26.79
  -1  -4  -4 1550.10   44.22
   1  -4   4 1558.77   44.46
   1   4   4 1564.60   43.02
  -1   4  -4 1583.14   40.58
   1  -4   4 1539.89   40.57
   1   4   4 1494.04   44.36
  -2   4  -4  370.20   11.69
   2   4   4  360.93   13.73
   2  -4   4  394.83   13.66
   2   4   4  363.47   13.14
  -2  -4  -4  373.03   13.05
  -3  -4  -4  272.20   10.28
   3  -4   4  264.02   10.83
   3   4   4  284.69   11.85
  -3   4  -4  272.30   10.09
   4   4   4  363.05   15.65
   4  -4   4  395.20   14.38
  -4  -4  -4  401.78   13.38
  -4   4  -4  404.41   14.38
   5   4   4   22.10    4.44
  -5   4  -4   25.88    3.99
   5  -4   4   21.88    3.25
   6   4   4   75.66    7.00
  -6  -4  -4   59.43    6.66
  -6   4  -4   68.52    6.24
  -7   4  -4   88.65    7.58
  -7  -4  -4   79.28    8.21
  -7   5   4   46.83    6.91
  -7  -5   4   40.18    5.46
  -6   5   4   96.31    7.91
  -6  -5   4   93.01    6.56
   6  -5  -4   89.65    6.09
  -5  -5   4  141.67    7.61
  -5   5   4  141.98    9.08
   5  -5  -4  148.94    7.79
  -5   5   4  143.06    8.42
  -4  -5   4    4.10    1.74
  -4   5   4    0.28    1.69
   4   5  -4    2.82    1.62
  -4   5   4    0.30    2.56
   4  -5  -4    1.88    1.86
  -4  -5   4    3.41    1.59
  -3   5   4 1089.14   34.14
   3  -5  -4 1135.61   34.15
   3   5  -4 1119.23   32.10
  -3  -5   4 1134.95   32.20
  -3  -5   4 1136.87   33.24
  -3   5   4 1102.31   34.16
  -3  -5   4 1163.00   31.28
  -2   5   4 1762.36   49.28
   2  -5  -4 1694.56   49.33
  -2   5   4 1695.54   48.27
   2   5  -4 1700.56   46.97
   2   5  -4 1730.16   44.98
  -2  -5   4 1695.88   48.67
  -2  -5   4 1703.92   46.93
  -1   5   4   11.17    2.36
   1   5  -4    9.08    1.41
   1  -5  -4    7.89    2.01
  -1  -5   4    7.16    1.88
  -1   5   4   10.64    2.60
   0   5   4  335.07   12.09
   0  -5   4  332.38   12.42
   0  -5  -4  332.11   12.42
   0   5  -4  321.23   10.72
   0   5   4  337.91   12.41
   1  -5   4  582.22   16.48
  -1  -5  -4  613.66   19.88
   1   5   4  605.13   19.35
   1  -5   4  623.22   20.18
   1   5   4  624.74   20.27
  -1   5  -4  613.49   18.72
  -1   5  -4  604.97   16.58
   2   5   4   64.65    4.70
  -2   5  -4   65.86    3.54
  -2  -5  -4   65.84    4.44
   2   5   4   70.84    5.21
   2  -5   4   75.12    5.03
   3  -5   4    9.48    2.40
   3   5   4    5.33    2.24
  -3  -5  -4    7.60    1.94
  -3   5  -4    9.02    2.00
   3   5   4   11.03    2.92
   4  -5   4   10.66    2.65
  -4   5  -4   13.49    2.81
   4   5   4   11.45    3.16
  -4  -5  -4   10.97    2.14
   5   5   4  377.58   16.74
  -5   5  -4  388.62   15.08
   5  -5   4  379.89   14.68
  -6   5  -4   20.00    4.32
   6   5   4   12.40    3.57
  -7   6   4   52.49    7.36
  -7   6   4   33.89    5.55
  -7  -6   4   46.84    5.87
  -6   6   4   10.92    3.53
  -6  -6   4   12.87    3.32
   6  -6  -4   13.17    3.27
  -6   6   4   21.94    5.11
  -5   6   4    3.25    2.08
   5  -6  -4    4.82    2.35
   5   6  -4    8.55    2.41
  -5  -6   4    6.45    2.43
  -5   6   4   22.02    4.75
   4   6  -4   13.57    2.50
  -4  -6   4   14.51    2.50
   4  -6  -4   14.57    3.08
  -4   6   4   14.81    3.39
  -4   6   4   11.01    3.83
  -4  -6   4   12.71    2.53
  -3   6   4    0.01    2.03
  -3  -6   4    1.70    1.29
  -3  -6   4    2.93    1.63
   3  -6  -4    0.76    1.76
  -3   6   4    0.23    2.29
  -3  -6   4   -0.33    1.37
   3   6  -4    0.19    1.18
   2   6  -4    3.35    1.38
   2  -6  -4    3.93    1.96
  -2   6   4    3.92    2.10
  -2  -6   4    3.68    1.42
   2   6  -4    3.00    0.95
   2   6  -4    3.69    1.11
  -2   6   4    1.68    2.19
  -2  -6   4    5.27    1.92
   1  -6  -4 1031.90   31.40
  -1   6   4 1003.08   30.28
  -1  -6   4 1022.11   30.96
  -1   6   4  983.15   30.96
   1   6  -4 1012.51   28.96
   0   6  -4  115.86    5.11
   0  -6  -4  107.35    6.24
   0  -6   4   85.61    5.69
   0   6   4   97.80    6.01
   0   6   4   91.32    5.77
  -1   6  -4  875.97   23.02
   1  -6   4  821.51   22.75
   1  -6   4  884.05   27.28
   1   6   4  853.91   26.27
  -1  -6  -4  870.40   26.96
  -1   6  -4  843.81   25.66
   1   6   4  856.26   27.36
   2  -6   4  331.51   13.10
   2   6   4  345.18   13.67
  -2  -6  -4  312.62   12.44
  -2   6  -4  338.79   10.73
   2   6   4  323.42   12.74
  -3   6  -4  111.00    5.62
  -3  -6  -4  105.85    6.01
   3  -6   4  106.24    6.59
   3   6   4  113.85    7.30
   3   6   4  105.51    6.59
   4   6   4  259.81   11.85
  -4   6  -4  267.47   10.82
   4  -6   4  278.12   11.77
  -4  -6  -4  265.10   10.38
   4   6   4  238.64   12.30
   5  -6   4    6.43    2.68
  -5   6  -4    7.14    2.62
   5   6   4    0.89    2.09
  -6   6  -4   88.41    6.97
  -6  -7   4   54.19    5.53
   6  -7  -4   44.55    5.16
  -6   7   4   77.75    8.27
  -6   7   4   46.00    5.87
  -5  -7   4  144.54    7.65
  -5   7   4  135.79    8.90
  -5   7   4  132.10    9.26
   5   7  -4  134.54    7.42
   5  -7  -4  137.20    8.23
  -4   7   4   38.85    4.92
   4  -7  -4   39.93    4.77
  -4   7   4   40.37    5.51
  -4  -7   4   42.89    3.78
   4   7  -4   41.19    3.72
  -4  -7   4   45.89    4.23
  -3  -7   4  798.40   25.15
  -3   7   4  798.51   26.56
   3   7  -4  777.35   23.98
  -3   7   4  762.04   26.23
   3  -7  -4  791.43   26.15
  -2  -7   4  354.11   12.17
   2  -7  -4  343.77   14.07
   2   7  -4  339.45   10.31
  -2   7   4  356.93   14.31
  -2   7   4  364.26   14.34
   2   7  -4  347.44   12.11
  -2  -7   4  357.80   13.61
  -1  -7   4  444.25   16.31
  -1   7   4  453.95   16.69
  -1   7   4  451.08   16.30
   1  -7  -4  439.61   16.64
   1   7  -4  450.94   14.70
   0   7  -4   13.47    2.29
   0  -7  -4   16.84    3.13
   0   7   4   18.33    3.25
   0  -7   4   14.04    2.91
   0   7   4   12.04    2.97
   1  -7   4  129.17    7.45
   1   7   4  127.35    7.60
  -1   7  -4  140.42    4.80
   1   7   4  133.00    7.34
  -1   7  -4  136.94    6.69
  -1  -7  -4  132.08    7.36
   2  -7   4    0.14    1.69
   2   7   4    0.79    2.06
  -2  -7  -4   -0.30    1.44
  -2   7  -4    0.46    1.11
   2   7   4    4.60    2.27
  -2   7  -4    2.49    1.86
   3   7   4   20.35    3.64
   3   7   4   26.69    4.39
   3  -7   4   20.79    3.53
  -3  -7  -4   28.75    3.51
  -3   7  -4   23.24    2.89
  -4   7  -4    5.88    2.23
   4   7   4    3.92    2.23
   4   7   4    4.88    2.67
  -4  -7  -4    6.48    1.91
   4  -7   4    4.67    2.43
   5   7   4  459.26   19.49
  -5   7  -4  450.84   16.82
   5   7   4  423.44   17.79
   5  -7   4  431.10   17.20
  -6   7  -4    5.33    2.75
   6   7   4    8.24    3.56
  -6   8   4    5.12    3.31
  -6   8   4    4.12    3.92
   6  -8  -4    4.95    2.90
   5  -8  -4    1.23    2.22
  -5   8   4    3.98    2.93
  -5   8   4    3.50    3.33
  -4   8   4    0.32    2.00
   4   8  -4    2.73    1.83
   4  -8  -4    3.16    2.26
  -4  -8   4    1.53    1.98
  -4   8   4    1.81    3.09
  -3  -8   4   73.11    5.49
   3   8  -4   67.22    4.65
  -3   8   4   57.74    6.31
   3  -8  -4   71.87    5.92
  -3   8   4   72.54    6.22
  -2  -8   4   22.76    3.61
  -2   8   4   25.66    4.47
   2   8  -4   17.14    2.75
  -2   8   4   19.55    3.82
   2  -8  -4   16.79    3.40
  -1   8   4 1955.03   57.03
   1  -8  -4 1982.56   58.86
  -1   8   4 2053.38   59.24
  -1  -8   4 2056.68   58.59
   1   8  -4 2043.42   56.67
   0   8   4 1206.85   37.46
   0  -8   4 1231.28   37.10
   0   8   4 1175.28   35.82
   0   8  -4 1177.20   35.07
   0  -8  -4 1174.17   36.96
  -1   8  -4   75.72    5.09
   1   8   4   73.25    6.03
  -1  -8  -4   79.93    5.84
   1  -8   4   78.28    5.92
   1   8   4   82.79    6.00
   2   8   4    6.11    2.74
  -2   8  -4    4.82    2.25
   2  -8   4    5.58    2.38
  -2   8  -4    7.54    1.74
   2   8   4    8.92    3.02
  -2  -8  -4    7.61    2.56
  -3  -8  -4   31.28    3.96
   3   8   4   35.29    4.72
   3  -8   4   34.53    4.64
  -3   8  -4   42.55    3.63
   3   8   4   35.09    4.97
  -3   8  -4   42.50    4.76
  -4   8  -4   58.67    4.69
   4   8   4   46.03    5.86
  -4  -8  -4   51.51    4.45
   4  -8   4   58.67    5.80
   4   8   4   62.47    6.43
  -5   8  -4    1.44    1.84
   5  -8   4    1.64    2.54
   5   8   4   -1.48    2.31
   5   8   4    1.71    2.93
   6  -9  -4   36.89    5.38
  -6   9   4   46.23    7.22
  -5   9   4  163.43   11.08
  -5   9   4  165.51   10.82
   5  -9  -4  168.60    9.87
   4  -9  -4   -0.80    1.99
   4   9  -4    0.06    1.64
  -4   9   4   -0.66    2.71
  -4   9   4   -3.10    2.40
  -4  -9   4    0.46    1.89
  -3  -9   4   -0.52    1.56
  -3   9   4    0.89    2.30
  -3   9   4   -0.90    2.64
   3  -9  -4    1.30    2.14
   3   9  -4    0.43    1.62
  -2   9   4    8.49    3.11
  -2  -9   4   17.90    3.53
   2  -9  -4   14.90    3.57
  -2   9   4   15.43    4.06
   2   9  -4    9.75    2.41
  -1  -9   4   19.42    3.69
  -1   9   4   21.67    4.16
   1  -9  -4   25.14    4.14
  -1   9   4   19.41    3.95
   1   9  -4   19.56    3.05
   0   9   4   27.90    4.37
   0   9   4   32.34    4.61
   0  -9   4   36.87    4.59
   0   9  -4   23.26    3.32
   0  -9  -4   20.14    3.70
  -1  -9  -4  384.70   15.64
  -1   9  -4  397.02   14.72
   1   9   4  409.19   15.56
   1  -9   4  358.31   15.57
   1   9   4  376.37   16.17
   2   9   4   45.64    5.47
   2  -9   4   38.23    4.89
  -2   9  -4   33.70    4.15
   2   9   4   31.52    4.65
  -2  -9  -4   43.46    4.77
  -3   9  -4  485.33   18.85
   3   9   4  502.36   19.13
   3  -9   4  509.15   19.69
   3   9   4  516.30   20.76
  -3  -9  -4  513.94   18.63
   4  -9   4    0.26    2.40
   4   9   4    1.10    2.42
  -4   9  -4   -0.98    2.32
   4   9   4    2.53    2.34
   5   9   4  467.42   19.48
   5  -9   4  467.95   19.19
  -5  10   4   32.60    6.49
   5 -10  -4   23.93    4.57
  -4  10   4   42.46    6.22
  -4  10   4   45.19    6.84
  -4 -10   4   42.58    5.00
   4 -10  -4   36.84    5.37
   3 -10  -4  318.70   14.82
  -3  10   4  332.81   15.51
   3  10  -4  303.84   12.81
  -3  10   4  319.28   15.26
  -3 -10   4  320.26   14.01
  -2  10   4   20.66    4.52
  -2 -10   4   21.57    3.98
   2  10  -4   26.01    3.56
   2 -10  -4   22.16    4.27
  -2  10   4   22.82    5.15
  -1  10   4  812.11   27.70
  -1 -10   4  837.10   28.13
  -1  10   4  847.09   29.05
   1  10  -4  785.67   26.09
   1 -10  -4  810.24   28.36
   0 -10   4    0.99    2.14
   0  10   4    0.74    2.39
   0  10  -4    3.58    2.25
   0  10   4    5.85    3.12
   0 -10  -4    4.36    2.75
   1 -10   4   53.44    5.79
   1  10   4   54.42    6.15
  -1 -10  -4   61.08    6.00
  -1  10  -4   51.84    4.79
   1  10   4   46.59    5.43
   2 -10   4    5.51    2.94
   2  10   4    8.90    3.30
  -2 -10  -4   11.58    3.34
  -2  10  -4   10.33    2.97
   2  10   4    7.73    3.21
   3  10   4   -0.26    1.97
  -3 -10  -4    1.03    1.98
   3  10   4    1.62    2.37
   3 -10   4    4.83    2.90
  -3  10  -4   -1.83    2.21
   4  10   4    3.22    3.03
   4 -10   4    4.81    3.16
  -4  10  -4    6.89    3.18
  -4  11   4    4.32    3.77
   4 -11  -4    1.69    2.82
  -3  11   4    6.07    3.88
   3 -11  -4    6.68    3.14
  -3 -11   4    3.75    2.72
  -3  11   4    1.52    2.96
  -2  11   4  102.65    8.34
   2 -11  -4   94.67    7.85
  -2  11   4   93.66    8.07
   2  11  -4   95.50    6.47
  -2 -11   4  110.04    7.93
   1 -11  -4   30.71    4.84
   1  11  -4   30.24    4.17
  -1  11   4   28.66    5.36
  -1 -11   4   36.48    5.26
  -1  11   4   28.89    5.33
   0  11  -4   86.91    6.39
   0  11   4   88.00    7.17
   0 -11   4   92.17    7.43
   0 -11  -4   87.59    7.29
   0  11   4  104.65    8.12
  -1 -11  -4   42.24    5.35
   1 -11   4   53.43    6.08
  -1  11  -4   62.00    5.83
   1  11   4   43.21    5.78
   1  11   4   54.85    6.20
   2  11   4   23.55    4.61
   2  11   4   15.46    4.03
   2 -11   4   11.24    3.75
  -2 -11  -4   16.39    3.94
  -2  11  -4   15.67    3.69
  -3  11  -4  293.03   13.95
   3 -11   4  280.64   14.35
  -3 -11  -4  285.50   13.40
   3  11   4  279.63   13.79
   4 -11   4   -2.61    2.66
   4  11   4   -1.25    2.57
   3 -12  -4  182.79   11.76
  -3 -12   4  206.34   11.45
  -3  12   4  185.63   12.25
  -2 -12   4   48.03    6.02
  -2  12   4   34.52    6.27
  -2  12   4   43.33    6.54
   2 -12  -4   47.37    6.41
  -1  12   4  174.61   11.39
  -1  12   4  170.12   10.96
   1  12  -4  173.40    9.48
   1 -12  -4  176.40   11.08
  -1 -12   4  186.52   11.06
   0 -12   4  167.79   10.36
   0  12  -4  145.77    8.82
   0 -12  -4  152.90    9.97
   0  12   4  140.39    9.65
   0  12   4  156.51   10.66
   1  12   4  182.84   11.28
  -1 -12  -4  151.41   10.02
  -1  12  -4  154.32    9.27
   1 -12   4  152.12   10.21
   1  12   4  159.35   10.05
  -2  12  -4   11.25    3.81
   2  12   4    9.93    3.90
  -2 -12  -4    6.97    3.16
   2 -12   4    7.51    3.70
  -3 -12  -4    0.28    2.17
   3 -12   4    0.67    3.27
   3  12   4    2.40    3.24
  -2 -13   4   59.26    7.15
   2 -13  -4   38.60    6.28
  -2  13   4   31.88    6.58
   1 -13  -4   64.82    7.60
  -1  13   4   59.22    7.50
  -1 -13   4   49.67    6.62
   0  13   4   99.93    8.46
   0 -13  -4   92.83    8.13
   0 -13   4   89.83    8.19
   0  13  -4   93.52    7.42
  -1 -13  -4   15.01    4.05
   1 -13   4    8.40    3.57
  -1  13  -4    8.30    3.46
   1  13   4    5.55    3.96
  -7   0   5  626.65   23.50
  -6   0   5   -1.90    1.68
  -5   0   5  510.51   18.01
   5   0  -5  480.12   16.07
  -4   0   5    1.00    1.95
  -4   0   5   -0.72    1.01
   4   0  -5   -0.68    1.22
  -3   0   5  192.86    6.88
  -3   0   5  195.36    8.34
   3   0  -5  196.12    8.17
  -2   0   5   -0.68    1.26
   2   0  -5   -1.26    0.70
  -2   0   5    0.53    0.59
   1   0  -5    4.41    1.48
  -1   0   5    9.46    0.89
  -1   0   5   10.56    1.85
   0   0   5   -0.37    0.58
   0   0   5    2.70    1.25
   0   0  -5   -0.45    0.83
   0   0  -5    0.99    0.78
  -1   0  -5 3345.58   88.26
   1   0   5 3202.51   88.39
  -1   0  -5 3222.17   89.29
   1   0   5 3308.57   85.40
  -2   0  -5   -0.30    0.97
   3   0   5  371.27   12.91
  -3   0  -5  328.56   12.42
  -3   0  -5  336.40   12.51
   4   0   5    0.21    1.38
  -4   0  -5   -0.16    1.40
  -5   0  -5    4.38    2.43
   5   0   5    3.26    1.87
  -6   0  -5    1.18    2.19
  -7   0  -5    9.33    3.76
  -7  -1   5    1.30    2.56
  -7   1   5    2.31    2.92
  -6  -1   5    1.85    2.37
  -6   1   5   -0.10    2.25
   5   1  -5  606.67   19.17
  -5  -1   5  648.89   21.01
  -5   1   5  600.42   21.26
   5  -1  -5  606.82   19.61
   4  -1  -5  369.27   13.38
  -4  -1   5  391.44   12.62
  -4  -1   5  384.55   13.77
   4   1  -5  385.87   13.24
  -4   1   5  391.72   14.55
  -3   1   5  936.72   27.56
   3  -1  -5  903.61   27.56
  -3   1   5  908.08   26.38
   3   1  -5  906.62   27.33
  -3  -1   5  906.74   25.57
  -3  -1   5  931.42   26.62
   2   1  -5   26.40    2.81
  -2  -1   5   22.92    2.43
  -2   1   5   31.05    3.21
  -2   1   5   23.62    1.86
   2  -1  -5   20.30    2.64
   1  -1  -5   -0.18    1.05
   1  -1  -5    2.25    0.81
   1   1  -5    0.38    1.03
  -1   1   5    2.87    1.49
  -1  -1   5    2.04    1.15
  -1   1   5    2.07    0.82
   0   1  -5   56.79    3.92
   0  -1  -5   56.14    3.03
   0  -1   5   55.92    2.91
   0   1   5   59.79    3.56
   0  -1  -5   49.47    3.73
   0   1  -5   55.42    2.52
   0   1   5   56.26    3.03
  -1  -1  -5  246.56   10.00
   1   1   5  250.52    9.17
   1   1   5  262.01    9.45
  -1   1  -5  255.04   10.07
   1  -1   5  257.25    8.57
  -1   1  -5  267.44    9.04
  -1  -1  -5  263.68    9.33
   2   1   5    6.24    1.83
   2   1   5    9.89    2.16
  -2   1  -5    9.03    2.03
  -2  -1  -5    8.11    1.96
  -2   1  -5    9.96    2.09
   2  -1   5    7.48    2.05
   3   1   5  585.90   20.13
   3  -1   5  605.97   19.44
  -3  -1  -5  584.34   18.99
  -3   1  -5  582.89   18.73
  -4  -1  -5    0.46    1.78
   4  -1   5   -0.48    1.34
  -4   1  -5   -1.29    1.53
   4   1   5    3.63    1.70
   5  -1   5  380.80   13.76
  -5   1  -5  374.65   15.14
  -5  -1  -5  375.53   15.48
  -6   1  -5   45.05    5.79
  -6  -1  -5   37.33    5.61
  -7  -1  -5  178.24   11.35
  -7   1  -5  176.11   11.02
  -7  -2   5   76.26    6.58
  -7   2   5   87.26    7.57
  -6  -2   5   73.88    5.90
  -6   2   5   78.43    6.73
  -5  -2   5   44.83    4.58
  -5  -2   5   38.74    3.47
   5  -2  -5   36.81    3.68
  -5   2   5   37.15    5.07
  -4   2   5  201.19    8.44
   4   2  -5  202.99    8.23
   4  -2  -5  192.86    8.49
  -4   2   5  199.93    9.71
  -4  -2   5  188.28    8.33
  -4  -2   5  193.78    7.48
  -3   2   5  420.04   14.93
  -3   2   5  406.85   13.55
   3   2  -5  413.02   14.07
  -3  -2   5  409.55   13.29
  -3  -2   5  402.20   12.11
   3  -2  -5  415.63   14.44
   2   2  -5   36.69    3.16
  -2   2   5   35.52    3.68
  -2  -2   5   33.84    2.53
  -2   2   5   34.30    2.54
   2  -2  -5   33.38    3.38
   1   2  -5  248.00    7.25
   1   2  -5  223.44    9.16
   1  -2  -5  223.93    9.31
  -1   2   5  241.97    8.97
  -1  -2   5  227.88    7.33
  -1   2   5  219.89    8.05
   1  -2  -5  227.05    7.89
   0  -2  -5   19.62    2.10
   0   2  -5   15.94    1.31
   0  -2   5   17.28    1.57
   0   2   5   16.36    1.95
   0   2   5   16.72    2.46
   0  -2   5   18.42    1.53
   0  -2  -5   12.16    2.19
   0   2  -5   13.03    2.26
   1   2   5 1610.89   46.68
   1   2   5 1649.12   45.29
  -1  -2  -5 1664.35   46.53
  -1   2  -5 1578.67   47.18
   1  -2   5 1645.68   43.78
  -1   2  -5 1776.02   45.99
   1  -2   5 1681.86   47.48
  -1  -2  -5 1639.06   47.19
  -2  -2  -5  295.91   11.31
   2   2   5  293.72   11.52
   2  -2   5  315.91   11.73
  -2   2  -5  303.25   10.20
   2   2   5  299.31   11.09
   3   2   5  140.10    7.69
   3  -2   5  142.75    7.16
  -3   2  -5  143.26    6.68
  -3  -2  -5  152.37    6.99
   4  -2   5  275.53   11.02
   4   2   5  261.53   12.18
  -4   2  -5  275.17   11.25
  -4  -2  -5  272.24   10.45
  -5  -2  -5   13.78    3.59
  -5   2  -5   18.33    3.67
   5  -2   5   16.93    3.00
  -6   2  -5   73.79    6.63
  -6  -2  -5   78.48    6.87
  -7   3   5   23.33    5.20
  -7  -3   5   16.93    4.03
  -6  -3   5   26.92    4.18
  -6   3   5   37.25    5.57
  -5  -3   5  693.64   21.42
  -5  -3   5  681.44   22.29
   5  -3  -5  689.94   22.40
  -5   3   5  705.94   24.30
   4  -3  -5  115.40    6.29
  -4   3   5  113.82    7.40
  -4  -3   5  110.38    5.90
  -4   3   5   96.88    5.88
  -4  -3   5  110.73    5.79
   3  -3  -5  290.41   11.56
  -3   3   5  308.59   12.38
  -3  -3   5  309.90   10.29
  -3   3   5  308.20   11.20
  -3  -3   5  300.68    9.29
  -3  -3   5  295.76   11.22
  -2   3   5  112.60    5.49
   2  -3  -5  118.71    6.33
  -2  -3   5  113.51    6.02
  -2  -3   5  125.58    4.63
  -2   3   5  120.24    6.56
   2   3  -5  119.34    4.65
  -1   3   5  606.18   19.18
   1  -3  -5  639.11   18.80
  -1  -3   5  608.35   19.95
  -1   3   5  602.28   18.94
   1  -3  -5  628.93   20.17
  -1  -3   5  617.69   16.60
   0  -3   5  148.60    4.48
   0  -3  -5  150.17    7.16
   0  -3   5  144.81    4.51
   0   3  -5  159.87    5.28
   0   3   5  139.04    6.60
   0  -3   5  139.86    7.02
   0   3   5  141.42    6.39
   0  -3  -5  148.68    6.41
   1  -3   5   21.92    2.96
   1   3   5   29.73    3.13
   1   3   5   37.07    3.53
  -1  -3  -5   37.66    3.63
   1  -3   5   31.85    2.03
  -1   3  -5   34.68    2.78
   1  -3   5   38.79    2.36
  -2  -3  -5  302.93   11.56
   2   3   5  306.32   11.49
   2   3   5  298.95   11.93
  -2   3  -5  305.20   10.09
   2  -3   5  309.96   11.95
   3   3   5  162.01    8.59
  -3   3  -5  176.48    7.49
   3   3   5  165.85    8.24
   3  -3   5  178.01    8.26
  -3  -3  -5  166.56    7.67
  -4   3  -5   46.30    4.24
   4   3   5   42.62    5.02
   4  -3   5   50.03    4.32
  -4  -3  -5   43.07    3.70
   5   3   5  119.30    8.27
   5  -3   5  112.14    6.67
  -5   3  -5  124.97    7.49
  -6   3  -5   21.21    4.42
  -7   4   5    0.60    2.72
  -7  -4   5   -0.87    2.17
  -6   4   5   83.34    6.41
  -6   4   5   58.18    6.73
  -6  -4   5   74.82    5.96
   6  -4  -5   79.82    5.56
   5  -4  -5    4.23    2.19
  -5  -4   5    4.23    1.93
  -5   4   5   10.40    3.59
  -5  -4   5    5.84    2.32
  -5   4   5    6.91    2.45
  -4   4   5  221.88   11.13
  -4  -4   5  231.08    9.36
   4  -4  -5  226.16    9.97
  -4  -4   5  226.42    9.00
  -4   4   5  227.70   10.05
  -3  -4   5  145.29    5.82
  -3   4   5  133.27    6.83
  -3   4   5  146.33    8.17
  -3  -4   5  138.09    6.80
   3  -4  -5  132.62    7.15
  -3  -4   5  138.16    5.16
   2  -4  -5   99.26    5.98
   2   4  -5  104.11    3.94
  -2  -4   5  108.71    3.90
  -2   4   5   97.30    5.47
  -2  -4   5   97.23    5.64
  -2   4   5   95.73    6.16
   1  -4  -5  434.28   15.17
  -1   4   5  409.79   14.21
  -1   4   5  419.77   14.55
   1   4  -5  418.11   11.94
  -1  -4   5  415.81   14.87
   0   4  -5  110.20    4.33
   0  -4   5  104.38    6.07
   0  -4  -5  106.88    6.08
   0   4   5  106.89    5.67
   0   4   5  113.33    6.01
   1  -4   5  658.49   17.84
  -1  -4  -5  656.80   21.25
   1   4   5  654.58   20.54
   1   4   5  638.88   21.07
   1  -4   5  643.82   21.38
  -2  -4  -5   15.54    2.69
   2  -4   5   15.45    2.86
   2   4   5   19.42    3.22
  -2   4  -5   14.53    1.88
   2   4   5   28.53    3.60
   3   4   5   36.65    4.32
   3   4   5   45.31    4.52
  -3   4  -5   44.75    3.48
  -3  -4  -5   43.02    3.82
   3  -4   5   35.97    3.98
  -4  -4  -5  283.82   10.99
   4   4   5  260.07   12.83
   4  -4   5  302.11   12.10
  -4   4  -5  286.64   11.45
  -5   4  -5    8.76    2.81
   5  -4   5    4.82    2.47
   5   4   5    8.22    3.27
  -6   4  -5  345.99   15.18
  -7   5   5   61.63    6.82
  -7  -5   5   49.78    5.92
  -7   5   5   58.45    7.44
  -6   5   5   21.81    4.14
  -6  -5   5   24.31    4.02
   6  -5  -5   20.52    3.54
  -6   5   5   16.22    4.39
  -5   5   5   93.44    6.79
  -5  -5   5  103.52    6.21
  -5   5   5  102.41    7.90
   5  -5  -5  100.48    6.51
  -4  -5   5  204.04    8.35
  -4   5   5  203.89    9.81
  -4   5   5  210.01   10.93
   4  -5  -5  198.75    9.58
  -4  -5   5  204.47    8.89
   3   5  -5  116.68    4.87
  -3   5   5  106.58    6.47
  -3  -5   5  114.96    6.34
  -3  -5   5  116.53    5.01
  -3   5   5  119.43    7.65
   3  -5  -5  116.54    6.85
  -3  -5   5  116.41    4.91
  -2   5   5  160.21    7.62
  -2  -5   5  141.24    7.32
   2   5  -5  153.42    5.33
   2   5  -5  152.50    4.83
  -2   5   5  143.06    8.02
   2  -5  -5  137.94    7.61
  -1   5   5   62.78    4.83
  -1   5   5   59.44    4.36
   1   5  -5   57.37    2.86
  -1  -5   5   59.60    4.57
   1  -5  -5   57.19    4.68
   0   5   5  656.26   20.62
   0  -5  -5  636.39   21.31
   0   5   5  615.77   20.81
   0   5  -5  640.14   18.77
   0  -5   5  643.18   21.25
   1   5   5  297.02   11.69
  -1  -5  -5  288.26   11.81
   1  -5   5  290.53   12.04
   1   5   5  311.52   12.12
   2   5   5  461.65   16.28
  -2   5  -5  458.66   13.78
  -2  -5  -5  456.41   16.22
   2  -5   5  460.13   16.71
   2   5   5  446.03   16.89
   3   5   5  355.79   14.13
  -3   5  -5  366.63   12.52
   3   5   5  347.05   14.86
   3  -5   5  381.83   14.51
  -3  -5  -5  363.97   13.62
   4   5   5   25.23    4.40
  -4   5  -5   26.32    3.55
   4   5   5   37.49    4.85
  -4  -5  -5   19.83    2.95
   4  -5   5   22.68    3.70
   5  -5   5   41.01    4.64
   5   5   5   40.46    5.64
  -5   5  -5   47.16    5.06
  -6   5  -5   14.75    4.11
  -7   6   5   31.99    5.52
  -7   6   5   34.52    6.21
  -6   6   5   93.38    7.55
  -6  -6   5   82.89    6.25
   6  -6  -5   81.01    6.38
  -6   6   5   73.96    8.07
  -5  -6   5   38.86    4.17
  -5   6   5   27.88    5.29
   5  -6  -5   35.95    4.44
  -5   6   5   28.26    4.47
  -4  -6   5  342.42   13.24
  -4   6   5  331.39   15.15
  -4  -6   5  372.20   12.37
   4   6  -5  363.82   12.36
  -4   6   5  347.51   14.56
   4  -6  -5  335.71   14.09
  -3   6   5   19.32    4.25
   3  -6  -5   15.63    3.32
  -3  -6   5   13.45    2.86
  -3  -6   5   22.42    2.27
  -3   6   5   19.80    3.43
   3   6  -5   21.45    2.30
   2   6  -5 1507.84   41.32
  -2   6   5 1549.76   43.89
  -2  -6   5 1449.07   43.89
   2  -6  -5 1481.20   44.60
  -2   6   5 1478.04   44.16
   1  -6  -5   36.04    4.27
   1   6  -5   34.57    2.64
  -1   6   5   37.34    4.47
  -1   6   5   29.86    3.75
  -1  -6   5   34.92    3.96
   0   6  -5   10.65    1.87
   0   6   5    8.71    2.52
   0   6   5   13.04    2.98
   0  -6  -5   10.01    2.61
   0  -6   5    6.51    2.31
   1   6   5  265.67   11.58
   1  -6   5  273.55   11.74
  -1  -6  -5  277.62   11.54
   1   6   5  269.10   11.34
  -1   6  -5  255.60    9.89
   2  -6   5   38.43    4.38
   2   6   5   39.05    4.47
  -2   6  -5   41.79    2.72
   2   6   5   42.87    4.87
  -2  -6  -5   45.12    4.13
   3   6   5   18.19    3.59
  -3   6  -5   17.90    2.48
   3   6   5   13.98    3.46
   3  -6   5   10.62    2.82
  -3  -6  -5   13.64    2.72
   4   6   5   43.03    5.20
   4  -6   5   38.67    4.74
  -4   6  -5   43.45    3.95
   4   6   5   45.47    5.65
  -4  -6  -5   43.98    4.00
   5   6   5   77.23    7.25
   5  -6   5   67.69    6.10
  -5   6  -5   80.73    5.96
   5   6   5   78.14    6.67
   6   6   5  130.88    9.52
  -6   6  -5  138.13    8.84
  -6   7   5    6.88    3.82
   6  -7  -5    3.59    2.84
  -6   7   5    2.71    2.70
  -5   7   5   22.44    4.56
  -5   7   5   19.07    4.87
   5  -7  -5   19.56    3.75
  -4   7   5   30.24    4.50
  -4  -7   5   28.57    3.73
  -4   7   5   32.62    5.44
   4  -7  -5   26.98    4.16
  -3   7   5  160.26    8.97
  -3  -7   5  153.26    8.13
  -3   7   5  154.19    9.33
   3   7  -5  156.07    6.70
   3  -7  -5  158.84    8.86
   2  -7  -5   97.58    6.76
  -2   7   5   90.62    6.82
  -2  -7   5   80.30    5.89
  -2   7   5  101.53    6.74
   2   7  -5   97.74    4.80
   1   7  -5   49.12    3.47
   1  -7  -5   37.02    4.53
  -1  -7   5   50.32    4.53
  -1   7   5   45.50    4.98
  -1   7   5   36.05    4.38
   0   7  -5 1193.30   34.51
   0  -7   5 1175.20   36.97
   0  -7  -5 1197.58   37.12
   0   7   5 1213.21   37.21
   0   7   5 1210.01   36.02
   1   7   5   73.46    5.79
  -1   7  -5   74.58    4.76
   1  -7   5   76.64    5.86
  -1  -7  -5   73.12    5.58
   1   7   5   72.68    5.46
   2  -7   5  156.91    8.64
   2   7   5  148.81    8.80
  -2   7  -5  149.43    7.48
   2   7   5  145.44    8.19
  -2  -7  -5  145.08    7.93
   3   7   5  107.50    7.65
   3   7   5  109.14    7.15
  -3  -7  -5  121.21    7.00
   3  -7   5  114.03    7.46
  -4  -7  -5   51.96    4.59
   4   7   5   46.99    5.57
   4   7   5   58.33    6.50
   4  -7   5   41.87    4.99
   5   7   5    1.48    2.56
   5  -7   5    0.56    2.47
   5   7   5    1.80    2.59
  -6   8   5  108.96    9.32
   6  -8  -5  108.39    7.93
  -6   8   5  106.19    8.78
   5  -8  -5   42.81    5.47
  -5   8   5   48.47    6.20
  -5   8   5   32.85    6.00
  -4   8   5  167.17   10.74
   4  -8  -5  179.88   10.13
  -4  -8   5  198.74    9.52
  -4   8   5  176.36   10.30
  -3   8   5   43.61    5.84
  -3  -8   5   57.44    5.15
   3  -8  -5   43.08    5.18
  -3   8   5   44.28    5.26
   2   8  -5  788.37   23.64
  -2   8   5  812.63   26.93
   2  -8  -5  785.44   26.84
  -2   8   5  748.72   26.23
  -2  -8   5  743.57   25.81
   1  -8  -5    3.02    2.27
   1   8  -5    6.88    2.11
  -1  -8   5    4.53    2.31
  -1   8   5    1.18    2.72
  -1   8   5    1.13    2.22
   0  -8   5   33.10    4.50
   0   8   5   42.72    5.09
   0   8   5   31.57    4.44
   0  -8  -5   40.50    4.74
   0   8  -5   41.25    3.61
  -1   8  -5    1.15    1.71
   1   8   5    2.97    2.26
   1   8   5    2.45    2.25
   1  -8   5   -1.22    1.77
  -1  -8  -5    0.12    1.77
  -2   8  -5   69.72    5.11
   2  -8   5   59.60    5.61
   2   8   5   68.03    5.70
  -2  -8  -5   63.44    5.49
   2   8   5   71.02    6.21
   3  -8   5    1.56    2.34
   3   8   5    4.57    2.52
  -3  -8  -5    1.58    1.98
  -3   8  -5    1.77    2.15
   3   8   5    3.31    2.50
   4   8   5  275.43   13.28
   4   8   5  275.66   14.31
   4  -8   5  265.68   12.90
   5  -8   5   -3.00    2.21
   5   8   5   -0.77    2.53
   5  -9  -5   13.14    3.90
  -5   9   5    6.62    4.03
  -5   9   5    8.27    3.75
  -4   9   5   17.02    4.65
  -4  -9   5   18.05    3.53
   4  -9  -5   13.95    3.65
  -4   9   5   19.71    4.53
  -3   9   5   22.91    4.43
   3  -9  -5   16.16    3.75
  -3  -9   5   16.52    3.45
  -3   9   5   12.29    4.08
  -2   9   5   84.01    7.11
  -2   9   5   78.11    6.62
   2  -9  -5   85.31    6.93
  -2  -9   5   78.15    6.24
   1   9  -5   13.47    2.61
  -1   9   5   10.84    3.68
   1  -9  -5    7.75    2.99
  -1  -9   5   11.33    3.14
  -1   9   5    4.53    2.92
   0  -9   5  526.84   20.27
   0   9   5  509.35   20.52
   0  -9  -5  574.35   20.90
   0   9  -5  543.46   18.27
   0   9   5  556.49   20.16
  -1   9  -5   87.43    5.80
   1   9   5   73.26    6.53
  -1  -9  -5   84.02    6.63
   1   9   5   80.64    6.46
   1  -9   5   79.66    6.57
  -2   9  -5  162.67    8.54
   2   9   5  132.69    8.66
   2   9   5  157.33    9.72
  -2  -9  -5  152.91    8.90
   2  -9   5  162.96    9.48
   3   9   5   -2.90    2.02
  -3   9  -5   -0.54    2.03
   3  -9   5   -1.36    2.12
  -3  -9  -5   -1.28    1.58
   3   9   5    2.27    2.53
   4  -9   5  237.44   12.52
  -4   9  -5  248.20   12.42
   4   9   5  246.42   12.82
   5 -10  -5   36.86    5.66
  -5  10   5   46.75    7.78
   4 -10  -5  127.13    9.16
  -4  10   5  135.45    9.81
  -4  10   5  119.58    9.85
  -4 -10   5  137.79    8.65
  -3  10   5    3.28    2.70
   3 -10  -5    6.28    3.06
  -3  10   5    5.69    4.05
  -3 -10   5    6.62    2.83
  -2  10   5   99.29    8.27
   2 -10  -5  103.73    7.90
  -2  10   5  102.12    8.16
  -2 -10   5   91.74    7.21
  -1 -10   5   14.13    3.66
   1 -10  -5   15.43    3.82
  -1  10   5   15.66    4.43
  -1  10   5   14.77    3.97
   0  10   5   28.38    5.06
   0  10  -5   21.99    3.43
   0  10   5   29.09    5.03
   0 -10   5   25.15    4.42
   0 -10  -5   19.29    4.12
  -1  10  -5  121.46    7.23
  -1 -10  -5  116.31    8.07
   1  10   5  122.42    8.27
   1  10   5  114.50    8.54
   1 -10   5  107.21    8.00
   2  10   5   72.38    7.42
  -2  10  -5   64.02    5.50
   2 -10   5   70.24    6.52
   2  10   5   53.64    6.13
  -2 -10  -5   49.96    5.70
   3 -10   5   -1.74    2.50
  -3  10  -5   -1.50    2.31
   3  10   5    7.13    3.15
   3  10   5    3.16    2.95
  -3 -10  -5    0.40    2.00
  -4  10  -5  399.32   17.50
   4 -10   5  421.71   18.29
   4  10   5  392.78   17.77
  -4  11   5   12.74    5.04
   4 -11  -5   12.36    3.88
   3 -11  -5  179.49   11.35
  -3 -11   5  198.19   10.97
  -3  11   5  178.65   11.79
  -3  11   5  180.35   11.71
  -2 -11   5  381.01   16.60
  -2  11   5  369.16   17.50
   2 -11  -5  362.69   16.99
  -2  11   5  364.15   17.03
  -1  11   5   47.25    6.48
  -1 -11   5   46.50    5.98
   1 -11  -5   46.91    6.29
  -1  11   5   54.50    6.71
   0 -11  -5   96.02    7.80
   0  11   5  109.84    8.34
   0 -11   5  100.59    7.87
   0  11   5  100.10    8.25
  -1 -11  -5   17.13    4.02
  -1  11  -5   10.47    3.20
   1 -11   5   14.43    3.97
   1  11   5   10.49    3.54
   1  11   5    7.90    3.76
   2 -11   5  159.65   10.36
   2  11   5  150.38    9.86
  -2 -11  -5  163.02    9.91
   2  11   5  186.85   11.41
  -2  11  -5  142.78    8.99
   3  11   5    3.85    3.54
   3 -11   5    3.40    3.26
  -3 -11  -5    1.43    2.34
  -3  11  -5    9.22    3.68
  -3  12   5    1.68    3.86
   3 -12  -5   -3.13    2.58
  -3 -12   5   -0.79    2.65
   2 -12  -5  134.80    9.97
  -2  12   5  130.06   10.13
  -2 -12   5  145.06    9.94
   1 -12  -5    5.00    3.35
  -1  12   5    6.34    4.03
  -1 -12   5   10.25    3.70
   0 -12   5   39.28    5.80
   0  12   5   41.72    6.43
   0 -12  -5   58.95    6.92
   1 -12   5   94.26    8.16
  -1 -12  -5   99.54    8.26
   1  12   5  102.26    8.24
  -2 -12  -5    1.50    2.70
   2 -12   5    0.70    2.75
   2  12   5    1.08    3.13
  -7   0   6    3.59    2.82
  -6   0   6   55.25    5.91
   5   0  -6   -2.86    1.18
  -5   0   6   -1.99    1.93
  -4   0   6 1454.30   41.29
  -4   0   6 1427.14   40.12
   4   0  -6 1411.93   41.61
  -3   0   6    3.13    2.03
   3   0  -6    1.08    1.43
  -3   0   6   -0.56    0.85
  -3   0   6   -0.38    0.70
   2   0  -6  175.84    8.02
  -2   0   6  171.93    5.30
  -2   0   6  159.57    7.22
  -1   0   6    1.56    1.39
   1   0  -6    0.61    1.00
  -1   0   6    0.65    0.51
   0   0   6  206.89    7.54
   0   0   6  198.52    6.98
   0   0  -6  190.86    6.82
   0   0  -6  210.26    9.06
  -1   0  -6   -0.66    0.96
   1   0   6   -0.07    1.09
   1   0   6    0.84    1.09
  -1   0  -6    1.32    1.28
  -2   0  -6  100.72    5.98
   2   0   6  103.88    5.38
   3   0   6   -1.21    1.40
  -3   0  -6   -0.72    1.21
   4   0   6    8.89    2.53
  -5   0  -6    0.53    1.97
   5   0   6   -2.15    1.62
  -6   0  -6  280.46   13.76
  -7  -1   6    7.30    3.33
  -7   1   6   13.68    4.21
  -6  -1   6  236.05   11.32
  -6   1   6  235.62   11.88
  -5  -1   6   88.90    6.08
  -5   1   6   85.28    6.50
   5  -1  -6   87.89    5.60
   5   1  -6   89.28    5.36
  -4   1   6   21.05    3.75
   4   1  -6   20.08    3.04
  -4   1   6   22.42    2.71
  -4  -1   6   24.12    3.38
   4  -1  -6   19.61    3.14
  -3   1   6  163.73    6.34
  -3  -1   6  163.66    7.33
   3   1  -6  163.28    7.79
   3  -1  -6  172.02    7.98
  -3   1   6  171.32    8.14
  -3  -1   6  160.29    5.22
  -2   1   6    3.23    1.94
  -2  -1   6    0.64    1.37
  -2   1   6    0.13    0.78
   2  -1  -6    0.68    1.23
   2   1  -6   -1.42    0.94
   1  -1  -6   62.39    4.59
   1  -1  -6   63.83    3.00
  -1   1   6   66.71    3.18
   1   1  -6   58.08    4.40
  -1   1   6   64.59    4.23
  -1  -1   6   63.98    3.68
   0   1   6  190.25    7.53
   0  -1  -6  185.51    8.57
   0   1   6  189.83    7.08
   0   1  -6  179.44    8.42
   0  -1  -6  190.59    6.94
   0   1  -6  188.70    6.27
   0  -1   6  185.94    6.79
   1   1   6    9.95    2.09
   1  -1   6    7.12    1.63
  -1  -1  -6    8.23    2.18
  -1  -1  -6    9.53    1.89
  -1   1  -6   11.58    2.42
  -1   1  -6    9.76    1.67
   1   1   6    9.75    1.92
  -2   1  -6 1227.83   38.35
  -2  -1  -6 1271.34   38.35
   2  -1   6 1294.31   38.70
   2   1   6 1325.23   36.77
   2   1   6 1297.74   38.22
   2  -1   6 1345.15   36.10
   3  -1   6  150.79    7.78
  -3  -1  -6  147.22    7.38
   3   1   6  134.21    7.64
  -4   1  -6   69.43    5.30
  -4  -1  -6   78.08    5.28
   4  -1   6   80.31    5.58
   4   1   6   79.70    5.52
   5  -1   6   55.05    4.80
  -5   1  -6   48.81    5.51
  -6  -1  -6    1.71    2.57
  -6   1  -6    5.41    2.90
  -7   2   6   34.23    5.79
  -7  -2   6   39.30    5.51
  -6   2   6   45.90    5.98
  -6  -2   6   42.72    5.01
  -5  -2   6    8.54    2.76
  -5   2   6   -0.36    1.46
  -5  -2   6    1.38    1.44
  -5   2   6    0.05    2.39
   5  -2  -6    1.56    1.82
   5   2  -6    1.24    1.64
  -4  -2   6 1115.18   32.81
   4   2  -6 1143.36   33.93
   4  -2  -6 1146.06   34.43
  -4   2   6 1120.63   33.33
  -4   2   6 1157.06   34.71
  -3   2   6   20.99    2.47
  -3   2   6   23.84    3.79
   3   2  -6   16.85    2.75
   3  -2  -6   20.97    3.10
  -3  -2   6   24.23    2.73
   2   2  -6  394.14   14.29
   2  -2  -6  405.42   14.62
  -2  -2   6  390.81   12.27
  -2   2   6  387.82   12.60
  -2   2   6  392.90   14.01
  -1   2   6   -2.41    1.29
   1   2  -6   -0.04    1.01
   1  -2  -6    0.00    0.85
  -1  -2   6    0.04    1.14
   1  -2  -6    1.06    1.30
  -1   2   6   -0.66    0.79
   0   2  -6  320.12    9.60
   0   2  -6  312.90   12.39
   0  -2   6  322.14    9.80
   0   2   6  329.52   11.49
   0  -2  -6  313.36   12.40
   0  -2  -6  332.79   10.97
   0   2   6  309.37   11.05
  -1  -2  -6  144.83    7.41
   1  -2   6  147.84    7.61
  -1   2  -6  156.52    6.14
  -1   2  -6  143.56    7.49
   1  -2   6  141.34    5.58
   1   2   6  138.32    6.70
   1   2   6  143.16    6.76
   2  -2   6   22.49    3.42
  -2  -2  -6   25.89    3.41
   2   2   6   25.73    3.31
   2   2   6   29.80    3.52
   3  -2   6  773.89   25.10
   3   2   6  762.95   25.58
   3   2   6  776.29   24.40
  -3  -2  -6  762.37   24.59
   4   2   6   11.97    3.10
  -4  -2  -6    8.55    2.24
  -4   2  -6    8.09    2.41
   4  -2   6   10.26    2.70
  -5   2  -6    2.04    2.14
   5  -2   6    0.84    1.96
  -6   2  -6  202.35   11.12
  -7   3   6   21.11    5.11
  -7  -3   6   28.44    4.92
  -6   3   6   77.59    5.94
  -6  -3   6   86.88    6.25
  -6   3   6   84.18    7.15
  -5   3   6  164.14    8.18
  -5  -3   6  149.34    7.82
  -5   3   6  152.22    9.26
  -5  -3   6  146.37    7.28
   5  -3  -6  156.84    8.02
  -4   3   6   39.72    5.05
  -4  -3   6   35.58    3.59
  -4  -3   6   37.80    3.77
  -4   3   6   35.52    3.64
   4  -3  -6   29.84    3.75
  -3  -3   6  677.33   22.18
  -3  -3   6  695.31   20.14
  -3   3   6  664.36   21.27
   3  -3  -6  694.57   22.74
  -3   3   6  695.27   22.79
  -2  -3   6   50.09    4.21
  -2   3   6   52.38    4.68
   2   3  -6   51.14    4.27
  -2   3   6   48.06    3.53
   2  -3  -6   50.14    4.38
  -2  -3   6   52.99    2.89
  -1   3   6   58.00    3.83
  -1   3   6   71.05    4.89
   1   3  -6   64.28    4.69
   1  -3  -6   64.42    3.90
   1  -3  -6   59.55    4.66
  -1  -3   6   68.47    4.93
  -1  -3   6   61.08    2.68
   0   3  -6 1372.41   37.22
   0  -3   6 1325.65   40.55
   0  -3  -6 1342.76   40.51
   0   3   6 1335.40   38.55
   0   3   6 1351.03   39.24
   0  -3  -6 1372.82   39.01
   0  -3   6 1458.97   35.90
   0  -3   6 1355.46   35.85
  -1   3  -6   19.13    2.19
  -1  -3  -6   17.59    3.09
   1  -3   6   15.81    2.95
   1  -3   6   17.96    1.80
   1   3   6   20.55    2.82
   1   3   6   17.17    2.94
   2  -3   6  580.11   20.15
   2   3   6  597.40   19.38
  -2  -3  -6  575.71   19.77
   2   3   6  581.87   19.95
   3   3   6   23.84    3.82
  -3   3  -6   24.99    3.00
   3   3   6   23.75    3.84
   3  -3   6   29.58    3.93
  -3  -3  -6   23.40    3.39
  -4   3  -6  146.04    7.66
   4   3   6  158.99    9.32
  -4  -3  -6  159.02    7.85
   4  -3   6  150.49    8.23
   4   3   6  149.90    8.56
   5   3   6  214.26   11.82
  -5   3  -6  204.68   10.26
   5  -3   6  203.53   10.01
  -6   3  -6   12.47    3.82
  -7  -4   6   92.55    7.28
  -7   4   6  102.68    9.58
  -6  -4   6   35.98    4.63
   6  -4  -6   26.76    3.90
  -6   4   6   35.36    5.97
  -6   4   6   39.45    4.87
  -5   4   6   19.24    4.45
  -5   4   6   12.11    3.13
  -5  -4   6   13.75    3.02
  -5  -4   6   11.91    2.54
   5  -4  -6   11.27    2.95
  -4  -4   6   90.78    5.12
  -4  -4   6   91.56    5.66
  -4   4   6   86.79    6.93
   4  -4  -6   90.64    6.11
  -4   4   6   85.66    5.77
  -3   4   6  129.90    6.81
  -3  -4   6  149.17    5.81
   3  -4  -6  142.11    7.74
  -3  -4   6  134.49    7.19
  -3   4   6  121.77    7.89
  -2   4   6  203.99    9.62
  -2  -4   6  210.51    6.38
  -2  -4   6  196.49    9.24
   2  -4  -6  200.53    9.55
  -2   4   6  197.79    8.52
  -1   4   6   39.36    4.26
  -1  -4   6   31.02    3.74
  -1   4   6   38.56    3.40
   1  -4  -6   46.69    4.27
   0   4  -6 1075.00   27.50
   0   4  -6  922.25   27.04
   0  -4  -6  967.32   30.59
   0  -4   6  951.65   30.51
   0   4   6  954.76   29.53
   0   4   6  980.28   29.22
   1  -4   6  379.38   14.81
  -1  -4  -6  383.04   14.60
  -1   4  -6  421.24   13.14
   1  -4   6  374.56   10.97
   1   4   6  393.87   14.42
   1   4   6  354.25   13.82
   2   4   6  178.43    8.79
   2   4   6  165.92    8.34
   2  -4   6  167.76    8.71
  -2  -4  -6  165.58    8.33
   3  -4   6  710.37   24.83
   3   4   6  770.01   24.62
  -3   4  -6  752.39   22.57
   3   4   6  752.41   25.71
  -3  -4  -6  760.84   24.49
  -4  -4  -6  165.93    8.14
   4   4   6  165.01    9.10
   4   4   6  152.26    9.35
   4  -4   6  162.04    8.76
  -4   4  -6  155.62    7.85
   5  -4   6    7.37    2.73
   5   4   6    5.64    3.00
   5   4   6    6.00    3.16
  -5   4  -6    8.02    2.87
  -6   4  -6  272.72   13.17
  -6   5   6  223.11   11.49
  -6   5   6  216.22   12.63
   6  -5  -6  233.96   11.01
  -5   5   6   69.71    5.72
  -5   5   6   75.40    7.46
   5  -5  -6   71.75    5.79
  -4   5   6    9.41    3.44
  -4  -5   6    7.10    2.16
  -4   5   6    8.29    2.69
   4  -5  -6    9.06    2.69
   3  -5  -6  860.03   28.01
  -3   5   6  851.96   27.23
  -3   5   6  854.43   28.12
  -3  -5   6  866.64   27.37
  -2  -5   6   -0.98    1.50
  -2   5   6   -0.62    2.30
  -2   5   6    0.06    1.54
   2  -5  -6   -0.77    1.56
  -1   5   6    0.29    2.20
  -1  -5   6    0.02    1.50
  -1   5   6    0.85    1.64
   1  -5  -6    0.15    1.46
   1   5  -6    0.69    0.62
   0   5  -6  524.26   15.63
   0   5   6  527.30   18.17
   0   5   6  521.39   18.06
   0  -5  -6  522.30   18.77
   0  -5   6  529.71   18.86
  -1  -5  -6    5.76    2.35
  -1   5  -6    1.73    1.43
   1   5   6    0.71    1.89
   1   5   6    2.21    2.29
   1  -5   6    0.73    1.73
   2  -5   6  271.80   12.03
  -2  -5  -6  262.74   11.54
   2   5   6  277.29   11.75
   2   5   6  271.30   12.03
   3   5   6   44.06    5.06
   3  -5   6   54.88    5.12
   3   5   6   58.83    5.16
  -3   5  -6   59.84    3.98
  -3  -5  -6   52.53    4.58
   4   5   6   71.39    6.52
  -4  -5  -6   72.92    5.33
   4  -5   6   74.09    5.90
  -4   5  -6   75.70    5.20
   4   5   6   70.65    6.15
  -5   5  -6   40.13    4.81
   5  -5   6   40.29    5.05
   5   5   6   41.67    6.14
   5   5   6   33.34    5.41
   6   5   6  153.97   10.32
  -6   6   6   74.24    6.73
  -6   6   6   64.81    7.77
   6  -6  -6   69.48    6.27
  -5   6   6   -0.61    2.69
   5  -6  -6    1.38    2.13
  -5   6   6    0.98    2.19
  -4   6   6    8.90    3.90
   4  -6  -6   13.17    3.30
  -4  -6   6   14.79    3.01
  -4   6   6   12.18    3.16
  -3   6   6   48.38    5.73
   3  -6  -6   58.84    5.34
  -3   6   6   60.32    5.16
  -3  -6   6   58.06    5.00
   2  -6  -6   51.44    4.79
  -2   6   6   44.25    5.34
  -2  -6   6   56.31    4.92
  -2   6   6   58.21    4.88
  -1   6   6  361.35   14.13
   1  -6  -6  380.66   14.98
   1   6  -6  363.58   11.18
  -1  -6   6  342.33   14.36
  -1   6   6  370.26   14.49
   0   6  -6  356.96   11.66
   0   6   6  361.08   14.15
   0  -6   6  360.38   14.60
   0   6   6  369.05   14.31
   0  -6  -6  345.70   14.45
   1  -6   6  382.06   15.42
   1   6   6  387.10   14.95
   1   6   6  387.78   15.24
  -1  -6  -6  371.69   15.04
  -1   6  -6  390.41   13.14
   2  -6   6   77.96    6.18
  -2  -6  -6   84.46    6.03
   2   6   6   83.08    6.32
   2   6   6   82.32    6.15
   3   6   6  100.15    7.29
   3  -6   6   94.03    6.82
  -3  -6  -6   91.42    6.32
   3   6   6   96.38    6.84
   4   6   6  107.20    8.12
  -4  -6  -6  101.94    6.63
   4   6   6  114.03    7.84
   4  -6   6  120.40    7.81
   5   6   6   13.41    3.99
   5   6   6   16.00    4.18
   5  -6   6    8.53    3.21
   6  -7  -6  119.38    8.33
  -6   7   6  110.62    9.59
  -6   7   6  125.20    9.15
   5  -7  -6   53.69    5.74
  -5   7   6   48.08    5.76
  -5   7   6   58.93    7.41
  -4  -7   6    2.02    2.04
   4  -7  -6    2.00    2.38
  -4   7   6    1.38    2.27
  -4   7   6    3.70    3.45
  -3   7   6  378.94   15.32
  -3   7   6  367.68   16.00
   3  -7  -6  363.31   15.44
  -3  -7   6  356.93   14.71
  -2   7   6  287.48   13.31
  -2  -7   6  280.70   12.70
   2  -7  -6  311.66   13.57
  -2   7   6  302.25   12.96
  -1   7   6  492.62   18.52
   1  -7  -6  526.72   19.33
  -1   7   6  511.57   18.67
  -1  -7   6  475.77   18.62
   0   7   6    3.51    2.48
   0   7  -6    0.73    1.37
   0   7   6   -2.28    1.61
   0  -7  -6    0.41    1.64
   0  -7   6    2.55    1.81
   1  -7   6   20.18    3.84
   1   7   6   15.24    3.38
  -1   7  -6   14.61    2.53
  -1  -7  -6   13.20    3.22
   1   7   6   17.80    3.74
  -2  -7  -6    0.13    1.68
   2   7   6    1.01    2.12
   2  -7   6    1.02    2.06
  -2   7  -6   -0.11    1.53
   2   7   6   -0.46    1.92
   3   7   6   27.85    4.79
   3   7   6   27.41    4.67
   3  -7   6   32.34    4.61
  -3  -7  -6   31.21    4.16
  -4  -7  -6   17.39    3.31
   4  -7   6   16.16    3.89
   4   7   6   19.49    4.40
   4   7   6   17.85    4.10
   5   7   6   87.08    7.73
   5  -7   6  100.55    7.76
   5  -8  -6  138.12    9.17
  -5   8   6  139.76   10.44
  -5   8   6  125.98    9.13
  -4   8   6    5.40    3.49
  -4   8   6   -0.79    2.32
  -4  -8   6    1.12    2.04
   4  -8  -6    0.91    2.32
   3  -8  -6    1.31    2.19
  -3   8   6    1.10    2.51
  -3  -8   6    0.01    1.77
  -3   8   6   -0.70    2.83
  -2   8   6   -2.76    1.75
  -2   8   6    0.20    2.51
   2  -8  -6    0.26    1.96
  -2  -8   6    1.70    1.96
   1  -8  -6  364.03   15.80
  -1   8   6  361.65   15.55
  -1   8   6  387.17   15.85
  -1  -8   6  384.80   15.78
   0   8   6   36.47    5.09
   0  -8   6   34.72    4.73
   0  -8  -6   47.42    5.44
   0   8  -6   42.06    3.61
   0   8   6   38.42    4.88
   1   8   6  275.23   13.04
  -1  -8  -6  270.20   12.69
   1  -8   6  277.57   13.01
   1   8   6  275.52   12.58
  -1   8  -6  267.70   10.81
   2  -8   6    6.26    2.71
   2   8   6    8.64    3.16
  -2   8  -6    4.88    2.43
   2   8   6   10.22    3.42
  -2  -8  -6   -0.23    1.89
   3  -8   6  185.45   10.62
   3   8   6  199.07   10.75
  -3  -8  -6  183.37    9.85
  -3   8  -6  196.37    9.85
   3   8   6  195.93   11.30
   4   8   6    2.41    2.88
   4  -8   6   -1.69    2.47
  -5   9   6   32.85    6.74
   5  -9  -6   32.28    5.28
  -5   9   6   29.26    5.51
  -4   9   6    8.72    4.35
  -4  -9   6    1.97    2.23
  -4   9   6    1.17    2.80
   4  -9  -6    0.62    2.68
  -3  -9   6  114.84    7.72
   3  -9  -6  113.31    8.29
  -3   9   6  114.27    8.41
  -3   9   6  101.24    8.56
  -2   9   6   52.07    5.96
  -2  -9   6   62.51    5.75
   2  -9  -6   51.44    6.01
  -2   9   6   58.26    6.87
  -1  -9   6  305.26   14.39
  -1   9   6  338.97   15.10
   1  -9  -6  343.38   15.23
  -1   9   6  324.77   14.85
   0   9   6   16.75    4.04
   0   9   6   25.62    4.50
   0  -9  -6   31.61    4.85
   0  -9   6   24.87    4.17
   1   9   6   14.66    3.82
   1   9   6   19.37    4.26
  -1  -9  -6   19.33    4.09
   1  -9   6   13.56    3.58
   2   9   6  102.47    8.15
   2   9   6  104.13    7.81
  -2  -9  -6  110.03    7.68
  -2   9  -6  108.45    6.94
   2  -9   6  110.84    8.12
  -3   9  -6   78.42    6.47
   3  -9   6   81.12    7.16
   3   9   6   84.74    7.90
  -3  -9  -6   74.08    6.24
   3   9   6   89.52    7.63
  -4   9  -6    4.01    2.93
   4   9   6    0.40    2.60
   4  -9   6   -0.68    2.82
  -4  10   6    1.39    3.01
   4 -10  -6    1.90    2.82
  -4 -10   6   -1.40    2.05
  -4  10   6   -1.50    3.10
  -3  10   6    9.40    4.30
  -3 -10   6    7.33    3.03
  -3  10   6   11.25    3.97
   3 -10  -6    5.89    3.08
  -2  10   6  114.76    8.61
  -2 -10   6  102.38    7.80
   2 -10  -6  106.51    8.28
  -2  10   6  107.69    8.69
  -1  10   6  300.22   14.83
  -1  10   6  327.01   15.37
  -1 -10   6  313.40   14.76
   1 -10  -6  314.17   15.08
   0 -10   6   33.91    5.03
   0  10   6   53.23    6.58
   0  10   6   46.53    6.08
   0 -10  -6   50.42    6.00
  -1 -10  -6   84.57    7.12
   1  10   6   87.24    7.31
   1  10   6   99.61    8.10
   1 -10   6   84.66    7.32
   2  10   6    0.44    2.30
   2  10   6   -2.83    2.40
  -2 -10  -6    1.14    2.55
   2 -10   6    1.78    2.39
   3 -10   6  411.43   18.56
   3  10   6  443.33   18.72
  -3 -10  -6  421.79   17.62
  -3  11   6  350.28   17.35
  -3 -11   6  354.12   15.86
   3 -11  -6  291.64   15.79
  -2 -11   6   53.74    6.29
   2 -11  -6   35.01    5.66
  -2  11   6   53.79    6.87
  -2  11   6   53.18    7.51
   1 -11  -6  107.63    8.63
  -1  11   6  111.66    8.87
  -1  11   6  115.08    9.20
  -1 -11   6  101.75    8.32
   0 -11  -6   30.83    5.42
   0  11   6   29.75    5.47
   0 -11   6   19.84    4.49
   0  11   6   23.43    5.37
   1 -11   6  163.15   10.56
  -1 -11  -6  149.90   10.16
   1  11   6  171.83   11.22
   1  11   6  163.39   10.50
   2 -11   6   15.55    4.46
   2  11   6    7.75    4.09
  -2 -11  -6   17.90    4.42
  -2  12   6   16.00    5.66
  -1 -12   6  253.87   14.02
   1 -12  -6  266.51   14.53
  -1  12   6  259.45   14.56
   0  12   6   31.10    6.25
   0 -12  -6   26.89    5.47
   0 -12   6   24.10    5.12
  -1 -12  -6   18.92    4.61
   1  12   6    9.98    4.35
   1 -12   6    4.94    3.19
  -7   0   7  321.72   15.02
  -6   0   7    4.44    2.73
  -5   0   7  132.90    7.87
   5   0  -7  135.90    7.34
   4   0  -7   -1.63    1.54
  -4   0   7    1.26    2.32
  -3   0   7  139.79    7.23
   3   0  -7  132.98    7.42
  -2   0   7    0.79    1.85
   2   0  -7   -0.69    1.33
  -1   0   7  255.55    9.48
   1   0  -7  250.35   10.96
   0   0   7   -1.02    1.32
   0   0  -7    0.22    0.96
   0   0  -7   -2.05    1.01
   1   0   7  170.40    7.23
  -1   0  -7  176.74    7.19
  -1   0  -7  162.49    8.53
   2   0   7   -1.52    1.39
  -2   0  -7   -1.99    1.25
   3   0   7   39.69    4.10
  -3   0  -7   44.54    4.62
   3   0   7   45.29    4.85
   4   0   7   -1.57    1.66
  -7   1   7   28.08    5.43
  -7  -1   7   26.13    4.89
  -6   1   7   -1.52    2.16
  -6  -1   7    2.39    2.44
  -5  -1   7  212.34    9.96
  -5   1   7  213.83   10.66
   5   1  -7  210.21    9.56
   5  -1  -7  210.73    9.82
   4  -1  -7   88.10    6.08
  -4   1   7   83.77    6.21
  -4  -1   7   86.89    5.74
   4   1  -7   91.18    5.96
  -3   1   7  304.37   12.03
   3   1  -7  299.74   12.23
  -3   1   7  289.35    9.61
  -3  -1   7  295.13   11.06
   3  -1  -7  297.68   12.33
  -2  -1   7   11.79    2.38
  -2   1   7   12.64    1.48
  -2   1   7   11.23    2.88
   2  -1  -7   12.11    2.79
   2   1  -7   16.06    2.99
  -1   1   7  161.95    7.31
  -1   1   7  152.36    5.78
   1  -1  -7  152.53    8.00
   1   1  -7  150.70    8.01
  -1  -1   7  154.68    6.48
   1  -1  -7  156.93    5.62
   0   1   7  114.39    5.83
   0  -1   7  113.08    5.24
   0   1   7  120.34    5.29
   0   1  -7  116.16    6.92
   0  -1  -7  117.78    5.16
   0  -1  -7  115.33    6.84
   0   1  -7  118.30    4.50
   1   1   7    6.80    1.78
  -1  -1  -7    6.69    2.32
   1   1   7    8.95    2.35
  -1   1  -7   12.86    2.02
   1  -1   7    5.95    1.80
  -1   1  -7   13.34    2.81
   2  -1   7   16.52    3.33
   2  -1   7   25.03    2.96
   2   1   7   22.36    3.20
  -2   1  -7   22.95    3.54
  -2  -1  -7   21.08    3.43
   2   1   7   22.17    3.14
   3   1   7   19.07    3.40
   3  -1   7   15.87    2.96
  -3  -1  -7   14.39    3.01
   3  -1   7   16.92    3.35
   4   1   7   88.45    6.38
   4  -1   7   87.00    6.27
  -4  -1  -7   81.56    5.92
   4   1   7   89.98    6.34
   5  -1   7  103.57    7.03
  -7  -2   7  143.76    9.19
  -7   2   7  132.49    9.62
  -6  -2   7   72.76    5.89
  -6   2   7   75.48    7.37
   5   2  -7  121.31    6.93
   5  -2  -7  119.44    7.16
  -5   2   7  119.83    8.05
  -5  -2   7  124.39    7.08
  -5  -2   7  116.29    6.67
   4  -2  -7  275.54   11.74
   4   2  -7  277.20   11.57
  -4  -2   7  273.62   10.69
  -4   2   7  257.07   10.06
  -4   2   7  281.63   12.31
  -3  -2   7   17.84    2.63
   3   2  -7   22.02    3.34
  -3   2   7   18.69    2.30
  -3   2   7   25.34    3.98
   3  -2  -7   20.41    3.54
  -2   2   7  216.87    8.06
  -2   2   7  215.28    9.71
   2   2  -7  216.60   10.02
   2  -2  -7  238.61   10.46
  -2  -2   7  223.68    8.11
   1  -2  -7   25.70    2.35
   1   2  -7   25.30    3.65
   1  -2  -7   22.50    3.45
  -1   2   7   27.32    2.45
  -1  -2   7   27.72    2.57
  -1   2   7   22.22    3.28
   0  -2  -7  183.99    9.15
   0  -2   7  188.78    6.76
   0  -2  -7  185.03    7.47
   0   2  -7  178.82    9.07
   0   2  -7  184.02    6.04
   0   2   7  191.20    7.71
   0   2   7  181.27    8.19
  -1   2  -7  773.50   26.40
   1  -2   7  810.21   23.02
  -1  -2  -7  780.64   26.33
   1   2   7  837.18   25.28
  -1   2  -7  863.23   24.03
   1  -2   7  799.24   26.66
   1   2   7  799.68   24.73
   2   2   7  199.62    9.01
   2   2   7  204.55    9.37
   2  -2   7  210.25   10.11
   2  -2   7  193.19    7.80
  -2  -2  -7  187.71    9.41
  -3  -2  -7  103.52    6.57
   3  -2   7   91.05    6.53
   3   2   7  102.00    6.44
   3   2   7   99.98    6.76
   4   2   7    4.87    2.60
   4  -2   7    1.47    1.96
  -4  -2  -7    1.40    2.01
  -5   2  -7  159.50    9.05
   5  -2   7  155.01    8.96
  -6   3   7   80.82    7.94
  -6  -3   7   75.37    5.96
  -5   3   7  134.80    8.86
  -5  -3   7  135.42    7.37
  -5  -3   7  131.14    7.23
   5  -3  -7  137.24    7.92
  -4   3   7  358.49   13.22
  -4  -3   7  389.30   13.08
  -4   3   7  345.16   15.04
  -4  -3   7  356.23   14.07
   4  -3  -7  379.26   14.85
   3  -3  -7  271.27   11.67
  -3   3   7  256.34   11.63
  -3  -3   7  259.31    9.14
  -3  -3   7  244.24   10.98
  -3   3   7  254.59    9.79
   3   3  -7  248.54   11.08
  -2   3   7    3.93    1.62
   2   3  -7    1.70    1.85
  -2   3   7   -0.51    2.34
   2  -3  -7    3.32    2.00
  -2  -3   7    1.62    1.66
  -2  -3   7    5.11    1.33
  -1  -3   7 1522.29   40.03
   1  -3  -7 1468.27   45.34
   1  -3  -7 1544.51   42.88
  -1   3   7 1537.54   43.37
  -1   3   7 1532.39   43.28
   0   3   7  181.69    7.94
   0  -3  -7  176.68    9.05
   0  -3   7  179.37    6.01
   0   3   7  173.72    8.40
   0  -3   7  168.57    9.03
   1  -3   7  249.94    8.02
  -1  -3  -7  223.85   10.61
   1   3   7  229.48    9.97
   1  -3   7  232.83   10.97
   1   3   7  230.97   10.07
  -2  -3  -7  252.69   11.46
   2  -3   7  259.01    9.22
   2  -3   7  265.06   11.98
   2   3   7  266.63   11.47
   2   3   7  263.78   11.17
   3  -3   7   13.39    3.37
   3   3   7   16.79    3.55
  -3  -3  -7   20.04    3.54
   3   3   7   23.80    3.95
   4   3   7  189.56   10.75
  -4  -3  -7  197.05    9.72
   4   3   7  209.70   10.54
   4  -3   7  198.26   10.27
  -5   3  -7  124.72    7.87
   5  -3   7  120.65    8.12
   5   3   7  136.36    8.89
  -6   4   7   -2.81    2.64
   6  -4  -7    0.06    2.20
   5  -4  -7  152.30    8.56
  -5  -4   7  146.84    7.90
  -5   4   7  150.93    9.64
  -4  -4   7   76.40    5.59
  -4   4   7   79.53    6.77
   4  -4  -7   81.17    6.08
  -4   4   7   73.33    5.27
  -3   4   7   61.79    6.03
  -3  -4   7   41.01    4.40
  -3   4   7   45.07    4.00
   3  -4  -7   42.44    4.81
  -2   4   7  246.48    9.79
  -2  -4   7  230.71   10.77
   2  -4  -7  245.13   11.25
  -2   4   7  224.98   10.73
  -1   4   7   84.41    6.05
  -1  -4   7   76.50    5.83
   1  -4  -7   72.65    5.78
  -1   4   7   73.29    4.85
   0   4   7    1.14    1.64
   0  -4  -7    0.02    1.79
   0  -4   7    1.71    1.84
   0   4   7    5.05    2.47
   0   4  -7    2.15    0.88
   1  -4   7 1266.70   38.61
   1   4   7 1191.16   36.48
  -1  -4  -7 1222.08   38.18
   1   4   7 1265.91   37.49
  -2  -4  -7  102.92    6.80
   2  -4   7  105.55    7.10
   2   4   7   99.66    6.57
   2   4   7  101.83    6.75
   3   4   7  343.42   14.38
  -3  -4  -7  352.90   14.32
   3  -4   7  348.91   14.84
   3   4   7  374.33   15.47
  -4  -4  -7  100.09    6.70
   4   4   7  102.63    7.38
   4   4   7  101.87    7.74
   4  -4   7  111.96    7.64
   5  -4   7  211.42   10.97
   5   4   7  201.79   12.09
   5   4   7  207.42   11.51
  -6   5   7   73.51    8.18
   6  -5  -7   67.72    6.20
   5  -5  -7   60.76    5.66
  -5   5   7   59.66    7.06
  -5   5   7   67.35    5.64
  -4   5   7   37.06    5.59
  -4   5   7   57.84    4.89
  -4  -5   7   43.26    4.54
   4  -5  -7   56.99    5.58
  -3  -5   7   23.89    3.61
   3  -5  -7   22.00    3.94
  -3   5   7   25.64    3.53
  -3   5   7   30.48    5.00
  -2   5   7    0.87    2.65
  -2   5   7    3.24    2.03
   2  -5  -7    4.78    2.32
  -2  -5   7    3.72    2.27
   1  -5  -7  618.33   22.54
  -1   5   7  661.40   21.43
  -1  -5   7  629.25   22.44
  -1   5   7  651.86   21.84
   0  -5  -7   37.90    4.54
   0   5   7   45.26    4.98
   0  -5   7   39.06    4.60
   0   5   7   40.99    4.24
   1   5   7   59.76    5.11
   1  -5   7   36.43    4.66
  -1   5  -7   61.87    3.72
  -1  -5  -7   56.29    5.12
   1   5   7   50.73    5.21
   2   5   7  342.41   14.08
   2  -5   7  354.31   14.86
   2   5   7  339.95   14.50
  -2  -5  -7  345.65   14.42
  -3  -5  -7   81.88    6.24
   3  -5   7   85.34    6.80
   3   5   7   96.76    7.15
   3   5   7  102.90    7.15
   4   5   7    7.06    2.99
   4  -5   7    4.02    2.74
   4   5   7    3.59    2.88
  -4  -5  -7    4.99    2.26
   5   5   7   47.41    6.36
   5  -5   7   42.56    5.44
  -6   6   7   55.21    7.57
   6  -6  -7   49.95    5.85
  -5   6   7   17.04    4.81
   5  -6  -7   15.93    3.74
  -5   6   7   18.34    4.11
  -4   6   7  110.04    7.16
  -4  -6   7  106.33    6.97
   4  -6  -7  104.43    7.37
  -4   6   7   89.45    7.86
  -3  -6   7   35.75    4.51
  -3   6   7   30.25    5.09
  -3   6   7   27.48    3.90
   3  -6  -7   35.07    4.81
  -2  -6   7  258.57   12.03
   2  -6  -7  278.48   12.68
  -2   6   7  269.64   12.52
  -2   6   7  257.81   11.48
  -1   6   7    1.61    2.60
  -1   6   7    0.97    1.77
   1  -6  -7    9.27    2.81
  -1  -6   7    0.51    1.68
   0   6   7   42.79    5.02
   0  -6   7   38.05    4.63
   0  -6  -7   41.15    4.88
   0   6   7   41.60    4.58
   1   6   7   77.36    6.13
   1  -6   7   77.46    6.33
   1   6   7   78.28    6.15
  -1  -6  -7   72.30    6.01
  -2  -6  -7   59.21    5.48
   2   6   7   64.56    5.76
   2  -6   7   75.15    6.23
   2   6   7   70.92    6.01
   3   6   7  153.29    9.26
   3   6   7  106.38    7.86
   3  -6   7  126.27    8.48
  -3  -6  -7  141.06    8.14
  -4  -6  -7   57.24    5.27
   4   6   7   49.46    6.19
   4   6   7   57.32    6.87
   4  -6   7   56.96    6.21
   5  -6   7   62.38    6.48
   5   6   7   65.42    7.48
   5  -7  -7   44.65    5.67
  -5   7   7   40.57    6.79
  -5   7   7   40.39    5.40
   4  -7  -7    9.64    3.22
  -4  -7   7    2.03    2.15
  -4   7   7    3.44    2.79
  -4   7   7    9.27    4.07
  -3   7   7   13.14    4.39
   3  -7  -7    7.45    2.96
  -3  -7   7    7.33    2.87
  -3   7   7   12.50    3.10
   2  -7  -7    3.56    2.44
  -2   7   7    5.54    3.35
  -2  -7   7    4.60    2.52
  -2   7   7    4.26    2.46
   1  -7  -7   26.06    4.44
  -1   7   7   24.88    4.02
  -1  -7   7   17.87    3.75
  -1   7   7   22.89    4.44
   0  -7  -7   37.05    4.91
   0   7   7   49.22    5.15
   0   7   7   47.93    5.58
   0  -7   7   45.63    5.24
   1   7   7   -0.91    2.07
   1  -7   7   -0.76    1.65
   1   7   7    1.90    1.99
  -1  -7  -7   -1.46    1.43
   2   7   7  304.89   14.33
   2  -7   7  323.46   14.71
   2   7   7  322.33   14.28
  -2  -7  -7  316.01   14.07
   3   7   7   25.08    4.87
   3   7   7   19.09    4.25
  -3  -7  -7   20.63    4.07
   3  -7   7   21.13    4.27
   4   7   7   41.76    6.17
   4  -7   7   29.63    4.89
  -5   8   7    1.13    2.87
   5  -8  -7    6.46    3.18
  -5   8   7    7.29    4.08
  -4   8   7  234.37   13.47
  -4   8   7  242.09   12.52
   4  -8  -7  230.53   12.51
  -4  -8   7  244.82   11.85
  -3   8   7   53.47    5.87
  -3   8   7   57.95    7.23
   3  -8  -7   55.40    6.24
  -3  -8   7   40.37    5.01
  -2  -8   7  183.36   10.46
  -2   8   7  201.05   10.71
   2  -8  -7  210.67   11.39
  -2   8   7  210.63   11.59
  -1   8   7   72.70    6.24
   1  -8  -7   67.55    6.19
  -1  -8   7   49.61    5.73
  -1   8   7   68.75    7.07
   0   8   7  263.82   12.59
   0   8   7  246.19   12.37
   0  -8  -7  254.11   12.54
   0  -8   7  245.00   12.59
  -1  -8  -7  102.79    7.66
   1   8   7  102.69    7.57
   1  -8   7  100.35    7.72
   1   8   7  104.50    7.71
   2  -8   7    5.46    3.02
   2   8   7    8.28    3.06
  -2  -8  -7    0.72    2.14
   2   8   7    1.86    2.50
   3  -8   7   26.81    4.92
  -3  -8  -7   32.13    4.82
   3   8   7   50.55    6.59
   3   8   7   43.12    6.08
   4  -8   7   83.17    7.52
   4   8   7   88.68    8.50
  -4  -9   7  270.40   13.15
  -4   9   7  280.70   14.28
  -4   9   7  264.74   15.03
   4  -9  -7  275.21   14.25
  -3   9   7    5.17    4.28
  -3   9   7    4.09    2.95
   3  -9  -7    5.16    3.05
  -3  -9   7    6.94    2.88
   2  -9  -7    0.68    2.51
  -2  -9   7   -0.53    2.19
  -2   9   7   -2.53    2.12
  -2   9   7   -1.20    3.33
  -1   9   7   32.87    5.20
  -1  -9   7   26.95    4.57
   1  -9  -7   18.73    4.29
  -1   9   7   38.95    6.11
   0  -9   7   61.42    6.50
   0  -9  -7   57.59    6.37
   0   9   7   53.52    6.18
   0   9   7   45.41    6.09
   1  -9   7   34.76    5.28
   1   9   7   49.43    5.99
   1   9   7   43.91    5.83
  -1  -9  -7   41.97    5.62
  -2  -9  -7  401.94   17.52
   2  -9   7  422.01   18.46
   2   9   7  434.79   18.99
   2   9   7  418.84   17.98
  -3  -9  -7    5.35    2.73
   3   9   7    6.02    3.73
   3  -9   7    4.71    3.26
  -3  10   7   16.98    4.75
  -3  10   7   25.43    6.20
  -3 -10   7   12.09    3.92
   3 -10  -7   16.21    4.75
  -2  10   7  452.15   19.72
   2 -10  -7  465.92   20.08
  -2  10   7  464.12   20.18
  -2 -10   7  455.60   19.29
   1 -10  -7   -2.62    2.23
  -1  10   7    0.07    2.57
  -1 -10   7    0.96    2.60
  -1  10   7    0.12    3.47
   0  10   7  167.69   10.82
   0 -10  -7  184.85   11.15
   0 -10   7  173.89   10.91
   0  10   7  184.15   11.16
   1  10   7   23.38    4.90
  -1 -10  -7   21.09    4.60
   1 -10   7   17.20    4.27
   1  10   7   16.12    4.69
   2 -10   7   51.18    6.64
  -2 -10  -7   30.98    5.28
   2  10   7   38.54    6.30
  -2 -11   7   59.78    6.95
   2 -11  -7   55.43    7.16
  -2  11   7   41.80    7.24
   1 -11  -7    9.47    3.88
  -1 -11   7   16.52    4.51
  -1  11   7    9.02    4.55
   0 -11   7   25.69    5.27
   0 -11  -7   42.10    6.49
   0  11   7   39.56    6.74
  -1 -11  -7    6.74    3.48
   1  11   7    4.85    3.62
   1 -11   7    2.01    3.08
  -6   0   8    2.55    2.55
   5   0  -8    0.20    1.82
  -5   0   8   -0.60    2.23
   4   0  -8   43.99    4.80
  -4   0   8   33.32    4.36
   3   0  -8    0.48    1.97
  -3   0   8   -0.76    2.10
  -2   0   8  526.34   17.30
   2   0  -8  514.84   19.10
  -1   0   8   -0.09    1.88
   1   0  -8   -0.51    1.37
   0   0  -8   60.48    5.30
   0   0   8   63.59    4.38
   1   0   8    1.72    1.71
  -1   0  -8   -1.02    1.35
   2   0   8   12.65    2.74
  -2   0  -8   13.83    3.27
   3   0   8   -0.41    2.05
  -3   0  -8    2.10    2.00
   3   0   8   -0.19    1.88
   4   0   8   41.85    5.30
   4   0   8   39.04    4.76
   5   0   8    0.53    2.52
  -6   1   8   62.72    6.74
  -6  -1   8   54.88    5.95
   5  -1  -8    7.99    2.89
   5   1  -8   11.46    2.91
  -5   1   8   11.21    3.51
  -5  -1   8    6.47    2.81
   4   1  -8   52.64    5.05
  -4   1   8   55.82    5.61
   4  -1  -8   45.78    4.92
  -4  -1   8   38.83    4.43
   3  -1  -8  375.94   15.19
   3   1  -8  380.67   15.16
  -3  -1   8  369.56   13.43
  -3   1   8  394.16   14.70
   2  -1  -8  408.37   16.54
   2   1  -8  455.49   16.93
  -2  -1   8  421.48   14.39
  -2   1   8  450.61   15.62
  -1   1   8   88.22    5.64
   1   1  -8   82.36    6.18
  -1  -1   8   94.12    5.11
   1  -1  -8   94.85    6.54
   0   1   8  233.41    8.56
   0  -1   8  226.19    8.61
   0  -1  -8  230.56   10.98
   0   1  -8  216.15   10.79
   0   1   8  238.69    9.56
   1   1   8   35.49    3.44
  -1   1  -8   23.04    3.75
   1   1   8   35.37    3.81
  -1  -1  -8   33.54    4.47
   1  -1   8   34.87    3.35
   2  -1   8  131.65    8.25
  -2  -1  -8  124.15    7.77
   2   1   8  118.88    6.76
  -2   1  -8  123.82    7.87
   2  -1   8  137.19    6.63
  -3  -1  -8   42.21    4.91
   3  -1   8   52.12    4.45
   3   1   8   53.17    5.19
   3  -1   8   64.90    5.76
   4   1   8  308.59   13.52
   4  -1   8  344.73   14.73
   4  -1   8  333.85   13.33
   4   1   8  321.01   14.38
   5   1   8   10.43    3.78
  -6   2   8    2.74    2.95
  -5  -2   8   66.18    5.28
   5  -2  -8   69.66    5.94
  -5   2   8   79.75    6.79
   5   2  -8   73.99    5.71
  -4   2   8  134.42    8.42
   4  -2  -8  147.89    8.51
  -4  -2   8  150.36    7.42
   4   2  -8  149.66    8.34
   3   2  -8  169.57    9.04
  -3   2   8  155.49    8.65
   3  -2  -8  160.85    8.99
  -3  -2   8  169.05    7.33
  -2   2   8  519.90   18.23
  -2  -2   8  517.88   16.04
   2  -2  -8  515.73   19.33
   2   2  -8  537.17   19.38
  -1   2   8   11.40    1.93
  -1  -2   8    9.02    2.08
   1  -2  -8    8.27    2.66
   1   2  -8   12.39    2.97
  -1   2   8    8.02    2.76
   0   2  -8  399.44   15.78
   0  -2   8  390.53   15.73
   0  -2   8  369.22   12.12
   0   2   8  396.55   13.30
   0   2   8  364.60   13.81
   0  -2  -8  379.26   15.48
   1   2   8  270.91   11.31
   1   2   8  283.66   11.32
   1  -2   8  290.95    9.93
  -1  -2  -8  285.05   12.74
   1  -2   8  295.82   13.14
  -1   2  -8  285.75   12.89
   2   2   8   63.91    5.11
   2  -2   8   73.30    4.50
  -2  -2  -8   66.09    5.66
   2   2   8   72.25    5.32
   2  -2   8   69.48    6.07
   3   2   8   74.00    5.66
   3   2   8   69.66    5.81
   3  -2   8   70.69    4.93
   3  -2   8   72.54    6.22
  -3  -2  -8   66.65    5.72
  -4  -2  -8   63.89    5.83
   4  -2   8   70.58    6.28
   4  -2   8   77.66    5.64
   4   2   8   70.68    5.98
   5   2   8   39.61    5.59
   5  -2   8   62.35    6.31
  -6   3   8  111.84    8.66
  -5   3   8    1.48    2.87
  -5  -3   8    1.71    1.86
   5  -3  -8    1.47    2.14
  -4   3   8  178.43   10.11
  -4  -3   8  184.80    9.42
   4  -3  -8  175.97    9.60
  -3  -3   8  513.20   19.22
   3   3  -8  541.20   19.51
   3  -3  -8  520.25   19.61
  -3   3   8  522.64   19.26
  -2   3   8  106.59    7.02
  -2  -3   8  100.88    6.85
   2  -3  -8  104.44    7.15
  -2   3   8   98.36    5.22
   2   3  -8   92.82    6.83
  -1  -3   8   84.65    6.39
   1   3  -8   74.62    6.07
  -1   3   8   82.57    5.95
   1  -3  -8   83.62    6.29
  -1   3   8   80.81    4.76
   0   3   8  111.36    6.19
   0   3   8  125.20    7.18
   0  -3  -8  123.96    7.78
   0  -3   8  122.75    7.86
   1   3   8    3.54    2.50
   1  -3   8    8.47    2.88
  -1  -3  -8    4.47    2.21
   1   3   8    6.16    2.23
   2  -3   8  301.61   13.73
   2   3   8  303.49   12.84
  -2  -3  -8  299.95   13.20
   2   3   8  280.21   12.21
   3  -3   8   27.77    4.45
   3   3   8   22.71    3.96
  -3  -3  -8   35.76    4.59
   3   3   8   24.93    4.23
   4   3   8  262.88   12.70
   4  -3   8  275.21   13.07
   4   3   8  275.55   13.68
  -4  -3  -8  262.18   12.24
   5   3   8    1.12    2.98
   5  -3   8   -2.71    2.51
  -6   4   8    1.82    3.36
   5  -4  -8   51.40    5.67
  -5   4   8   65.33    7.12
  -5  -4   8   63.53    5.35
  -4  -4   8   60.50    5.34
   4  -4  -8   55.26    5.68
  -4   4   8   37.63    5.65
  -3  -4   8  286.11   12.90
  -3   4   8  306.96   13.58
   3  -4  -8  292.90   13.41
  -2  -4   8  173.17    9.49
   2  -4  -8  168.45    9.55
  -2   4   8  170.33    7.94
  -2   4   8  193.12    9.82
  -1   4   8   23.23    4.19
   1  -4  -8   21.13    3.84
  -1  -4   8   18.17    3.54
  -1   4   8   25.47    3.20
   0   4   8  997.51   30.83
   0  -4  -8  984.67   32.57
   0   4   8 1009.08   30.85
   0  -4   8  987.63   32.75
   1  -4   8  100.71    7.24
   1   4   8   82.28    6.17
  -1  -4  -8   91.21    6.70
   1   4   8   85.08    5.88
   2   4   8   48.20    5.06
  -2  -4  -8   56.29    5.64
   2  -4   8   35.92    4.87
   2   4   8   44.65    5.01
   3   4   8  381.67   15.49
  -3  -4  -8  365.39   15.29
   3   4   8  371.86   15.96
   3  -4   8  343.64   15.65
   4  -4   8   -1.15    2.41
  -4  -4  -8    1.81    2.10
   4   4   8    2.05    2.59
   4   4   8    1.31    2.75
  -5   5   8   70.62    7.99
   5  -5  -8   72.09    6.81
  -4  -5   8  129.79    7.96
   4  -5  -8  125.81    8.39
  -4   5   8  141.56    9.53
   3  -5  -8   88.06    6.92
  -3   5   8   88.21    7.29
  -3  -5   8   86.52    6.60
  -2  -5   8   47.15    5.27
  -2   5   8   47.86    4.29
  -2   5   8   46.72    5.68
   2  -5  -8   51.79    5.64
  -1   5   8   27.55    4.66
  -1   5   8   25.32    3.55
  -1  -5   8   15.66    3.40
   1  -5  -8   25.88    4.18
   0   5   8   33.50    4.69
   0   5   8   37.75    4.17
   0  -5  -8   35.72    4.82
   0  -5   8   38.40    4.92
  -1  -5  -8   82.01    6.48
   1   5   8   76.12    5.76
   1  -5   8   83.10    6.72
   1   5   8   73.13    6.07
   2  -5   8  122.06    8.22
   2   5   8  101.57    7.39
  -2  -5  -8  111.12    7.62
   2   5   8  117.63    7.66
   3   5   8   -0.44    2.54
  -3  -5  -8    3.86    2.58
   3  -5   8    3.58    2.85
   3   5   8    0.05    2.11
  -4  -5  -8  163.15    9.48
   4   5   8  149.60    9.85
   4  -5   8  164.26   10.26
   4   5   8  173.73   10.85
   5  -6  -8   13.40    3.68
  -5   6   8   14.37    4.88
   4  -6  -8   11.62    3.59
  -4  -6   8   16.78    3.50
  -4   6   8   16.96    4.81
  -3  -6   8    3.83    2.29
   3  -6  -8    1.73    2.17
  -3   6   8    1.98    3.03
  -3   6   8    1.09    1.94
  -2  -6   8   49.48    5.50
  -2   6   8   38.75    4.49
   2  -6  -8   39.49    5.21
  -2   6   8   46.38    5.87
  -1   6   8   11.82    3.86
  -1  -6   8    5.83    2.69
   1  -6  -8   10.11    3.14
  -1   6   8    5.72    2.27
   0   6   8  150.94    8.35
   0  -6   8  150.41    9.22
   0   6   8  165.18    9.25
   0  -6  -8  136.37    8.93
   1  -6   8   21.11    4.35
   1   6   8   17.16    3.96
  -1  -6  -8   17.72    4.01
   1   6   8   26.89    4.12
   2   6   8   27.81    4.64
   2   6   8   28.27    5.00
  -2  -6  -8   28.48    4.64
   2  -6   8   27.88    4.97
  -3  -6  -8  284.63   13.22
   3  -6   8  266.41   13.75
   3   6   8  275.96   13.84
   3   6   8  272.73   13.39
   4  -6   8   44.51    5.93
   4   6   8   49.95    6.57
   5  -7  -8   12.85    4.03
  -5   7   8   13.58    5.19
   4  -7  -8    9.25    3.51
  -4   7   8   13.15    4.96
  -4  -7   8   14.21    3.64
   3  -7  -8  102.24    7.75
  -3  -7   8   87.76    6.98
  -3   7   8   94.50    8.18
  -3   7   8   82.98    6.53
  -2   7   8    5.22    2.36
  -2   7   8    4.23    3.60
   2  -7  -8   14.65    3.81
  -2  -7   8    9.19    3.20
  -1   7   8   78.91    6.15
  -1  -7   8   45.63    5.60
  -1   7   8   59.28    6.66
   1  -7  -8   81.63    6.71
   0   7   8   31.82    5.20
   0  -7  -8   20.05    4.06
   0  -7   8   22.67    4.43
   0   7   8   30.44    4.49
   1  -7   8  487.83   20.28
   1   7   8  510.71   19.88
  -1  -7  -8  507.31   20.21
   1   7   8  500.99   19.52
   2   7   8   50.02    6.33
   2  -7   8   37.84    5.71
  -2  -7  -8   32.83    5.08
   2   7   8   48.66    5.87
   3   7   8    4.72    3.10
   3  -7   8    1.01    2.74
  -3  -7  -8   -0.57    2.09
   3   7   8    2.60    2.69
  -4  -8   8   28.25    4.75
   4  -8  -8   32.80    5.75
  -4   8   8   29.74    6.25
   3  -8  -8   -1.35    2.26
  -3   8   8   -0.26    2.26
  -3  -8   8    0.86    2.23
  -3   8   8   -2.09    3.36
  -2   8   8   -2.46    3.33
  -2  -8   8    3.22    2.45
  -2   8   8    5.81    2.71
   2  -8  -8    4.85    3.11
  -1   8   8    4.55    3.59
  -1   8   8    6.77    2.82
   1  -8  -8    1.28    2.34
  -1  -8   8   10.91    3.52
   0  -8   8   -0.82    2.06
   0   8   8    0.85    2.30
   0   8   8   -3.43    2.75
   0  -8  -8   -3.22    1.83
  -1  -8  -8  121.08    8.63
   1  -8   8  115.67    8.74
   1   8   8  116.80    8.53
   1   8   8  108.49    8.16
  -2  -8  -8    3.59    2.89
   2   8   8    2.57    2.76
   2   8   8   -2.90    2.78
   2  -8   8   -2.39    2.40
   3   8   8  194.96   11.60
   3  -8   8  181.48   11.51
  -3  -8  -8  190.75   10.93
  -3   9   8  213.55   11.88
   3  -9  -8  210.64   12.38
  -3  -9   8  189.58   11.26
  -3   9   8  207.63   12.94
   2  -9  -8   25.03    5.06
  -2   9   8   36.98    6.68
  -2   9   8   33.98    5.15
  -2  -9   8   25.15    4.75
  -1  -9   8  197.45   11.40
  -1   9   8  171.69   11.27
   1  -9  -8  179.14   11.15
  -1   9   8  183.68   10.78
   0   9   8    0.88    3.41
   0   9   8    0.52    2.70
   0  -9   8    2.00    2.49
   0  -9  -8    0.60    2.53
   1   9   8  392.01   17.83
  -1  -9  -8  414.20   18.08
   1   9   8  388.28   17.56
   1  -9   8  390.78   18.12
   2   9   8   55.05    7.16
   2  -9   8   63.76    7.36
  -2  -9  -8   50.10    6.12
   2 -10  -8   10.58    3.75
  -2  10   8   15.85    4.53
  -2  10   8   24.98    6.34
  -2 -10   8   19.69    4.36
  -1  10   8   12.91    5.00
  -1  10   8   16.28    4.30
  -1 -10   8   17.98    4.58
   1 -10  -8   17.58    4.82
   0  10   8   20.32    5.05
   0 -10   8    8.46    3.63
   0  10   8   11.89    4.67
   0 -10  -8   15.39    4.10
   1  10   8   59.11    7.44
  -1 -10  -8   53.04    6.69
   1 -10   8   52.77    7.01
   5   0  -9   59.42    5.59
  -5   0   9   75.08    6.13
   4   0  -9   -1.70    1.78
  -4   0   9   -1.16    2.30
  -3   0   9  661.16   21.93
   3   0  -9  685.16   24.12
   2   0  -9    3.66    2.25
  -2   0   9   -0.76    2.22
  -1   0   9    4.71    2.45
   1   0  -9    4.53    2.67
   0   0   9   -0.84    1.87
   0   0  -9   -1.53    1.55
   1   0   9   93.20    5.72
  -1   0  -9   93.27    6.99
  -2   0  -9   -1.27    1.75
   2   0   9   -1.17    1.85
   3   0   9  147.14    9.39
  -3   0  -9  139.30    9.03
   3   0   9  138.97    7.86
   4   0   9    1.21    2.38
   4   0   9    0.92    2.83
   5   1  -9    0.68    2.16
   5  -1  -9    3.65    2.67
  -5   1   9    5.90    3.01
   4  -1  -9   62.26    5.82
  -4   1   9   69.04    6.10
   4   1  -9   68.08    5.92
  -3   1   9    6.87    2.88
   3   1  -9    1.60    2.37
   3  -1  -9    0.82    2.27
  -2   1   9   -0.53    2.35
   2   1  -9    1.38    2.16
   2  -1  -9   -0.70    1.98
   1   1  -9  558.41   20.94
  -1   1   9  561.83   18.73
   1  -1  -9  547.84   20.89
   0   1  -9    0.62    1.91
   0  -1  -9    1.87    2.04
   0   1   9    0.76    2.13
   1   1   9   64.96    5.10
  -1   1  -9   72.91    6.24
  -1  -1  -9   71.03    6.05
  -2  -1  -9   12.17    3.48
   2  -1   9   10.11    3.43
   2   1   9   15.49    3.40
  -2   1  -9   12.20    3.39
  -3  -1  -9  214.69   11.51
   3  -1   9  229.69   12.10
   3   1   9  223.45   10.61
   4  -1   9   21.97    4.64
   4   1   9   22.18    4.54
   4   1   9   24.23    4.34
  -5  -2   9   42.34    5.04
  -5   2   9   50.49    6.26
   5  -2  -9   43.28    5.31
   5   2  -9   49.97    5.54
  -4   2   9   -0.80    2.50
   4   2  -9    1.06    2.29
  -4  -2   9   -1.02    1.58
   4  -2  -9    1.85    2.33
   3   2  -9  332.30   14.63
   3  -2  -9  335.53   14.80
  -3   2   9  339.54   14.16
   2  -2  -9  107.69    7.58
  -2   2   9   93.55    6.78
   2   2  -9  100.70    7.32
   1  -2  -9    2.93    2.20
  -1   2   9    4.73    2.75
   1   2  -9    6.76    2.85
   0  -2   9  169.77    9.82
   0  -2  -9  160.92    9.47
   0   2  -9  181.45    9.99
   0   2   9  154.04    8.15
   1   2   9   65.23    5.29
  -1  -2  -9   77.93    6.47
  -1   2  -9   71.83    6.31
   1  -2   9   71.47    6.51
   2   2   9   28.27    3.80
   2  -2   9   24.78    4.64
  -2  -2  -9   24.15    4.40
   2   2   9   16.65    3.59
   3   2   9   77.84    6.23
   3  -2   9   60.05    6.56
  -3  -2  -9   68.81    6.32
  -4  -2  -9   68.65    6.61
   4   2   9   63.02    6.73
   4  -2   9   85.80    7.42
   4   2   9   61.54    6.42
   5  -3  -9    4.30    2.75
  -5  -3   9   -0.60    1.97
  -5   3   9    0.46    3.09
  -4   3   9  238.42   12.14
   4  -3  -9  225.55   11.85
  -4  -3   9  234.62   11.56
  -3   3   9  222.32   11.18
  -3  -3   9  196.15   10.68
   3  -3  -9  207.45   11.09
  -2  -3   9   70.21    6.04
  -2   3   9   56.05    5.98
   2   3  -9   65.24    6.09
   2  -3  -9   52.28    5.79
  -1  -3   9  231.83   11.84
   1  -3  -9  236.57   11.90
  -1   3   9  223.44   10.83
   0   3   9    7.36    3.20
   0  -3   9    7.79    3.02
   0  -3  -9   15.23    3.80
   1  -3   9  345.96   15.53
  -1  -3  -9  341.60   15.13
   1   3   9  338.36   13.76
   2   3   9   53.67    4.92
   2   3   9   45.08    5.26
   2  -3   9   38.83    5.37
  -2  -3  -9   48.33    5.70
   3   3   9  187.59   10.08
   3   3   9  170.06    9.99
  -3  -3  -9  180.93   10.30
   3  -3   9  189.32   11.03
  -4  -3  -9    0.40    1.98
   4   3   9    4.64    3.13
   4  -3   9    0.84    2.68
  -5   4   9  107.20    8.64
   5  -4  -9  122.03    8.43
  -4  -4   9    8.86    2.86
  -4   4   9    6.99    3.61
   4  -4  -9    7.41    3.17
  -3   4   9  136.70    9.06
   3  -4  -9  151.03    9.36
  -3  -4   9  147.50    8.97
  -2   4   9   11.71    3.76
  -2  -4   9   11.45    3.13
   2  -4  -9   17.45    3.84
  -1  -4   9   25.22    4.49
   1  -4  -9   34.29    4.97
  -1   4   9   25.51    4.42
   0  -4  -9   91.80    7.26
   0   4   9   81.02    6.52
   0  -4   9   91.94    7.28
   1   4   9    4.24    1.88
  -1  -4  -9    1.06    2.19
   1  -4   9    3.58    2.72
   1   4   9    2.79    2.63
  -2  -4  -9   89.69    7.27
   2   4   9   96.28    6.97
   2   4   9   98.82    7.13
   2  -4   9   89.80    7.61
  -3  -4  -9   73.29    6.71
   3   4   9   75.36    6.73
   3  -4   9   79.51    7.22
   3   4   9   90.72    7.27
   4   4   9    4.36    2.66
   5  -5  -9    3.82    2.93
  -5   5   9    1.39    3.59
   4  -5  -9   37.63    5.52
  -4  -5   9   40.20    5.04
  -4   5   9   38.83    6.30
   3  -5  -9   45.71    5.72
  -3   5   9   33.32    5.59
  -3  -5   9   34.79    4.87
   2  -5  -9  139.31    9.19
  -2  -5   9  137.59    8.95
  -2   5   9  134.00    9.02
   1  -5  -9   76.71    6.69
  -1   5   9   78.23    6.76
  -1  -5   9   83.69    6.88
   0  -5  -9   -1.98    1.53
   0   5   9   -2.93    2.27
   0  -5   9   -0.44    1.87
  -1  -5  -9   25.70    4.71
   1   5   9   25.68    4.56
   1  -5   9   18.41    4.07
   1   5   9   33.03    4.47
   2  -5   9  101.71    8.21
  -2  -5  -9   99.33    7.82
   2   5   9  107.17    7.79
   2   5   9  112.39    7.68
   3  -5   9   44.77    6.18
   3   5   9   44.69    5.95
   3   5   9   48.23    6.18
  -3  -5  -9   37.80    5.46
  -4   6   9   68.41    7.87
  -4  -6   9   49.35    5.66
   4  -6  -9   83.77    7.27
   3  -6  -9   49.81    6.06
  -3  -6   9   37.65    5.24
  -3   6   9   54.12    7.04
   2  -6  -9   20.96    4.26
  -2   6   9   22.89    5.26
  -2  -6   9   15.72    3.75
  -1   6   9   16.46    4.48
   1  -6  -9   11.20    3.58
  -1  -6   9    7.55    3.04
   0  -6   9  212.76   11.97
   0   6   9  217.47   10.84
   0   6   9  216.06   11.55
   0  -6  -9  236.01   12.41
  -1  -6  -9   15.53    4.18
   1  -6   9    7.64    3.40
   1   6   9    6.36    3.47
   1   6   9   15.14    3.43
   2  -6   9  293.74   15.07
   2   6   9  298.93   14.27
  -2  -6  -9  310.92   14.75
   2   6   9  314.17   14.52
  -3  -6  -9   84.67    7.20
   3   6   9   77.13    7.82
   3   6   9   80.16    7.42
   3  -6   9  100.18    8.52
   4  -7  -9   59.06    7.17
  -4  -7   9   56.25    6.30
  -4   7   9   63.28    8.30
  -3  -7   9   -0.31    2.20
   3  -7  -9   -1.58    2.22
  -3   7   9    2.49    3.78
   2  -7  -9    8.41    3.47
  -2  -7   9   10.44    3.65
  -2   7   9   11.17    4.73
  -1  -7   9  153.22    9.91
  -1   7   9  133.70    9.58
   1  -7  -9  153.07    9.99
   0   7   9   49.93    6.46
   0   7   9   65.93    5.86
   0  -7  -9   62.35    6.87
   0  -7   9   43.94    6.01
   1   7   9    3.47    2.49
   1   7   9    5.44    3.56
  -1  -7  -9    3.06    2.82
   1  -7   9   -0.61    2.44
  -2  -7  -9  237.07   12.70
   2  -7   9  220.37   12.96
   2   7   9  224.45   12.41
   2   7   9  218.22   12.24
  -3   8   9   -1.14    3.77
  -3  -8   9    0.29    2.30
   3  -8  -9    0.25    2.67
  -2  -8   9   57.49    6.63
   2  -8  -9   60.97    7.18
  -2   8   9   70.01    8.26
  -1   8   9    4.78    4.40
   1  -8  -9    9.39    3.67
  -1  -8   9    9.43    3.58
   0   8   9  241.86   13.20
   0  -8  -9  233.77   13.19
   0   8   9  222.53   11.94
  -1  -8  -9   -0.68    2.24
   1   8   9   -0.14    3.30
   1   8   9    2.96    2.71
   1  -8   9   -0.21    2.45
   1  -9  -9   10.12    3.91
  -1  -9   9    6.16    3.29
  -1   9   9   10.72    4.70
   0   9   9   77.57    7.07
   0   9   9   82.10    8.67
   4   0 -10    1.25    2.39
   3   0 -10    3.08    2.76
   2   0 -10  142.22    9.30
   1   0 -10    0.21    2.14
   0   0 -10  195.48   11.04
  -1   0 -10   -2.13    1.87
   2   0  10  145.02    9.82
  -2   0 -10  127.45    9.16
   3   0  10    4.96    3.01
   4  -1 -10  173.37   10.27
   4   1 -10  174.62   10.22
   3  -1 -10    7.52    3.12
   3   1 -10    7.61    3.27
  -3   1  10   12.39    3.72
  -2   1  10  692.64   23.07
   2  -1 -10  679.28   25.37
   2   1 -10  705.50   25.50
   1   1 -10    1.81    2.42
   1  -1 -10    1.92    2.37
  -1   1  10   -0.22    2.54
   0  -1 -10    0.97    2.07
   0   1 -10    0.92    2.03
   0   1  10    0.79    2.30
   1   1  10   24.45    4.01
  -1  -1 -10   23.82    4.76
  -1   1 -10   17.86    4.10
   1  -1  10   23.23    4.63
   2  -1  10   81.30    7.72
   2   1  10   70.26    5.82
  -2  -1 -10   45.88    5.83
  -3  -1 -10    2.02    2.58
   3   1  10   -0.71    2.51
   3  -1  10    3.33    3.06
  -4   2  10   10.57    3.82
  -4  -2  10    3.00    2.48
   4   2 -10    6.31    3.27
   4  -2 -10   10.54    3.63
  -3   2  10   44.97    5.60
   3  -2 -10   60.92    6.37
  -3  -2  10   37.15    5.09
   3   2 -10   49.72    5.87
   2   2 -10  213.92   11.71
   2  -2 -10  208.40   11.52
  -2  -2  10  203.17   11.26
  -2   2  10  199.58   10.45
  -1  -2  10   46.86    5.83
   1   2 -10   50.84    5.98
  -1   2  10   63.78    6.08
   1  -2 -10   70.41    6.44
   0  -2 -10  101.48    7.94
   0   2 -10   90.83    7.58
   0   2  10  110.11    7.17
   0  -2  10  106.36    8.12
  -1  -2 -10    1.86    2.32
   1  -2  10   -0.62    2.32
   1   2  10   -0.15    2.26
   2   2  10  282.95   12.75
  -2  -2 -10  280.90   14.08
   2  -2  10  312.64   15.09
   3   2  10   -0.18    2.84
  -3  -2 -10    1.54    2.49
   3  -2  10    1.79    2.99
  -4  -3  10  102.25    7.72
   4  -3 -10  116.80    8.54
  -4   3  10  107.42    8.46
   3  -3 -10    5.43    2.84
  -3  -3  10    1.59    2.40
  -3   3  10    2.14    3.37
   2  -3 -10   34.80    5.37
  -2  -3  10   33.19    5.10
  -2   3  10   35.87    5.31
   1  -3 -10   -2.58    1.76
  -1  -3  10   -1.13    2.25
  -1   3  10   -3.04    2.53
   0  -3  10   64.20    6.72
   0   3  10   54.06    5.80
   0  -3 -10   43.32    5.76
   1   3  10    7.32    3.21
  -1  -3 -10   14.42    3.67
   1  -3  10   11.08    3.74
  -2  -3 -10   -2.16    2.15
   2   3  10    1.44    2.74
   2  -3  10    7.81    3.62
   3   3  10    4.25    3.41
   3  -3  10    5.96    3.58
  -3  -3 -10    5.09    3.06
   4  -4 -10   43.03    6.03
  -4   4  10   35.60    6.20
  -4  -4  10   31.42    4.98
   3  -4 -10  102.23    8.22
  -3   4  10  103.02    8.19
  -3  -4  10  105.31    7.87
  -2   4  10   51.77    6.25
   2  -4 -10   57.84    6.59
  -2  -4  10   55.51    6.36
  -1  -4  10  258.59   13.61
   1  -4 -10  262.16   13.65
  -1   4  10  276.51   12.95
   0   4  10   -2.10    2.59
   0  -4 -10    2.06    2.58
   0  -4  10   -1.89    2.24
   1  -4  10   12.44    3.79
   1   4  10   21.74    4.40
  -1  -4 -10   14.28    4.11
   2  -4  10  211.25   12.50
  -2  -4 -10  195.25   11.57
   2   4  10  214.98   11.37
  -3   5  10    8.92    4.26
  -3  -5  10   11.70    3.45
   3  -5 -10   18.19    4.24
   2  -5 -10    2.84    2.82
  -2  -5  10    3.06    2.87
  -2   5  10    3.46    3.58
  -1  -5  10   78.63    7.32
   1  -5 -10   91.63    7.68
  -1   5  10   94.63    7.85
   0   5  10   15.17    4.38
   0  -5  10   22.70    4.77
   0  -5 -10   20.03    4.72
   1   5  10  102.48    7.82
   1  -5  10   85.84    7.94
  -1  -5 -10  102.51    8.18
   2  -5  10   46.70    6.50
  -2  -5 -10   63.71    6.94
   2   5  10   56.43    6.54
  -3   6  10   40.10    6.61
  -3  -6  10   51.25    6.27
   3  -6 -10   36.95    6.01
  -2  -6  10    3.95    2.64
   2  -6 -10    2.35    2.70
  -2   6  10    0.16    3.54
   1  -6 -10  114.32    8.98
  -1   6  10  131.92    9.32
  -1  -6  10  113.01    8.86
   0  -6 -10   39.03    5.91
   0  -6  10   36.84    5.78
   0   6  10   23.16    5.18
   1   6  10   23.39    5.13
   1  -6  10   17.16    4.34
  -1  -6 -10   28.11    5.43
   2  -7 -10    9.31    3.74
  -1  -7  10  105.35    8.73
   1  -7 -10  108.98    8.77
  -1   7  10   99.16    8.92
   0  -7  10   26.13    5.23
   0   7  10   37.90    6.58
   0  -7 -10   26.67    5.52
   3   0 -11  309.10   15.21
   2   0 -11    1.90    2.51
   1   0 -11  211.85   12.20
   0   0 -11    3.33    2.69
  -1   0 -11    3.37    2.93
   3  -1 -11    0.74    2.83
   3   1 -11   -0.67    2.70
   2   1 -11   -1.69    2.16
   2  -1 -11   -0.64    2.49
   1  -1 -11   81.82    7.42
   1   1 -11   78.61    7.86
   0  -1 -11   10.92    3.81
   0  -1  11   11.35    4.04
   0   1 -11   15.11    3.92
   1  -1  11  273.91   14.62
  -1   1 -11  262.40   14.12
  -1  -1 -11  258.90   13.97
   3   2 -11  222.12   12.48
   3  -2 -11  232.98   12.73
  -3  -2  11  188.29   11.54
   2   2 -11   43.10    6.02
   2  -2 -11   42.25    6.11
  -2  -2  11   30.04    5.00
   1  -2 -11   43.23    6.21
  -1  -2  11   38.13    6.09
   1   2 -11   44.75    6.31
   0  -2  11   -0.13    2.26
   0  -2 -11   -1.58    2.28
   1  -2  11   49.02    6.71
  -1  -2 -11   51.31    6.56
   2  -3 -11   82.43    7.46
  -2  -3  11   57.89    6.81
  -2   3  11   67.97    7.17
  -1   3  11   -2.85    2.91
   1  -3 -11    1.83    2.57
  -1  -3  11    2.04    2.88
   0  -3 -11   55.09    6.88
   0  -3  11   55.05    7.01
   0   3  11   40.38    5.74
   1   3  11   60.51    6.44
  -1  -3 -11   66.88    7.48
   1  -3  11   67.10    7.66
  -2  -4  11   32.11    5.51
   2  -4 -11   38.04    5.86
   1  -4 -11    0.90    2.56
  -1   4  11   -2.47    3.14
  -1  -4  11    3.27    3.01
   0  -4  11   56.46    7.01
   0   4  11   62.99    6.79
   0  -4 -11   58.52    7.03
   0   0   0    0.00    0.00
;
_shelx_hkl_checksum              4831
loop_
_space_group_symop_operation_xyz
'x, y, z'
'-x+1/2, y+1/2, -z+1/2'
'-x, -y, -z'
'x-1/2, -y-1/2, z-1/2'
loop_
_atom_site_label
_atom_site_type_symbol
_atom_site_fract_x
_atom_site_fract_y
_atom_site_fract_z
_atom_site_U_iso_or_equiv
_atom_site_adp_type
_atom_site_occupancy
_atom_site_site_symmetry_order
_atom_site_calc_flag
_atom_site_refinement_flags_posn
_atom_site_refinement_flags_adp
_atom_site_refinement_flags_occupancy
_atom_site_disorder_assembly
_atom_site_disorder_group
S1 S 0.05338(6) 0.27880(3) 0.19394(4) 0.01897(17) Uani 1 1 d . . . . .
O1 O -0.1389(2) 0.31908(12) 0.24417(15) 0.0314(3) Uani 1 1 d . . . . .
O2 O 0.1642(2) 0.36083(11) 0.10714(14) 0.0293(3) Uani 1 1 d . . . . .
N1 N 0.2146(2) 0.22593(12) 0.34026(16) 0.0217(3) Uani 1 1 d . . . . .
C1 C 0.3825(3) 0.16720(17) 0.2617(2) 0.0261(4) Uani 1 1 d . . . . .
H1A H 0.457491 0.108171 0.327085 0.031 Uiso 1 1 calc R U . . .
H1B H 0.481740 0.227403 0.234795 0.031 Uiso 1 1 calc R U . . .
C2 C 0.2754(3) 0.10396(15) 0.11703(19) 0.0253(4) Uani 1 1 d . . . . .
H2A H 0.324311 0.138408 0.027513 0.030 Uiso 1 1 calc R U . . .
H2B H 0.304533 0.017943 0.119240 0.030 Uiso 1 1 calc R U . . .
C3 C 0.0421(3) 0.12765(14) 0.12055(18) 0.0221(4) Uani 1 1 d . . . . .
H3 H -0.045369 0.116657 0.024868 0.027 Uiso 1 1 calc R U . . .
C4 C -0.0321(3) 0.06146(16) 0.2555(2) 0.0271(4) Uani 1 1 d . . . . .
H4A H 0.004459 -0.023536 0.253963 0.033 Uiso 1 1 calc R U . . .
H4B H -0.182622 0.068819 0.255688 0.033 Uiso 1 1 calc R U . . .
C5 C 0.0855(3) 0.12570(16) 0.3949(2) 0.0265(4) Uani 1 1 d . . . . .
H5A H -0.014479 0.157986 0.458241 0.032 Uiso 1 1 calc R U . . .
H5B H 0.175111 0.068519 0.453384 0.032 Uiso 1 1 calc R U . . .
loop_
_atom_site_aniso_label
_atom_site_aniso_U_11
_atom_site_aniso_U_22
_atom_site_aniso_U_33
_atom_site_aniso_U_23
_atom_site_aniso_U_13
_atom_site_aniso_U_12
S1 0.0200(3) 0.0161(2) 0.0205(2) -0.00072(14) 0.00053(16) -0.00045(14)
O1 0.0264(7) 0.0279(7) 0.0404(8) 0.0012(6) 0.0065(6) 0.0086(5)
O2 0.0367(8) 0.0209(6) 0.0308(7) 0.0044(5) 0.0058(6) -0.0050(5)
N1 0.0230(8) 0.0232(7) 0.0183(7) -0.0021(5) -0.0009(6) 0.0003(6)
C1 0.0162(9) 0.0302(9) 0.0318(9) -0.0001(7) 0.0026(7) -0.0002(7)
C2 0.0319(10) 0.0233(8) 0.0218(8) -0.0010(7) 0.0087(7) 0.0034(7)
C3 0.0261(10) 0.0164(8) 0.0222(8) -0.0024(6) -0.0047(7) -0.0021(6)
C4 0.0198(9) 0.0216(9) 0.0402(10) 0.0045(7) 0.0039(7) -0.0032(7)
C5 0.0301(10) 0.0279(9) 0.0230(9) 0.0056(7) 0.0096(7) 0.0036(7)
loop_
_atom_type_symbol
_atom_type_description
_atom_type_scat_dispersion_real
_atom_type_scat_dispersion_imag
_atom_type_scat_source
C C 0.0033 0.0016 'International Tables Vol C Tables 4.2.6.8 and 6.1.1.4'
H H 0.0000 0.0000 'International Tables Vol C Tables 4.2.6.8 and 6.1.1.4'
N N 0.0061 0.0033 'International Tables Vol C Tables 4.2.6.8 and 6.1.1.4'
O O 0.0106 0.0060 'International Tables Vol C Tables 4.2.6.8 and 6.1.1.4'
S S 0.1246 0.1234 'International Tables Vol C Tables 4.2.6.8 and 6.1.1.4'
loop_
_geom_angle_atom_site_label_1
_geom_angle_atom_site_label_2
_geom_angle_atom_site_label_3
_geom_angle
_geom_angle_site_symmetry_1
_geom_angle_site_symmetry_3
_geom_angle_publ_flag
O1 S1 O2 117.97(8) . . ?
O1 S1 N1 110.02(8) . . ?
O2 S1 N1 110.04(8) . . ?
O1 S1 C3 113.80(8) . . ?
O2 S1 C3 113.22(8) . . ?
N1 S1 C3 87.60(7) . . ?
C5 N1 C1 106.48(13) . . ?
C5 N1 S1 101.30(11) . . ?
C1 N1 S1 101.43(10) . . ?
N1 C1 C2 108.00(13) . . ?
C3 C2 C1 104.52(13) . . ?
C2 C3 C4 108.92(13) . . ?
C2 C3 S1 99.62(11) . . ?
C4 C3 S1 99.24(11) . . ?
C3 C4 C5 104.37(13) . . ?
N1 C5 C4 108.28(13) . . ?
loop_
_geom_bond_atom_site_label_1
_geom_bond_atom_site_label_2
_geom_bond_distance
_geom_bond_site_symmetry_2
_geom_bond_publ_flag
S1 O1 1.4299(13) . ?
S1 O2 1.4331(12) . ?
S1 N1 1.6845(14) . ?
S1 C3 1.7960(16) . ?
N1 C5 1.498(2) . ?
N1 C1 1.498(2) . ?
C1 C2 1.564(2) . ?
C2 C3 1.524(3) . ?
C3 C4 1.532(2) . ?
C4 C5 1.559(3) . ?
