#------------------------------------------------------------------------------
#$Date: 2020-03-14 02:23:38 +0200 (Sat, 14 Mar 2020) $
#$Revision: 249371 $
#$URL: file:///home/coder/svn-repositories/cod/cif/4/03/80/4038058.cif $
#------------------------------------------------------------------------------
#
# This file is available in the Crystallography Open Database (COD),
# http://www.crystallography.net/
#
# All data on this site have been placed in the public domain by the
# contributors.
#
data_4038058
loop_
_publ_author_name
'Arthurs, Ross A.'
'Hughes, David L.'
'Richards, Christopher John'
_publ_section_title
;
 Stereoselective Synthesis of all Possible Phosferrox Ligand
 Diastereoisomers Displaying Three Elements of Chirality: Stereochemical
 Optimization for Asymmetric Catalysis.
;
_journal_name_full               'The Journal of organic chemistry'
_journal_paper_doi               10.1021/acs.joc.9b03342
_journal_year                    2020
_chemical_absolute_configuration rmad
_chemical_formula_moiety         'C27 H26 Fe N O P'
_chemical_formula_structural     'Cp Fe C5H3-(cyclo-CNCHMeCH2O),2-PPh(tol)'
_chemical_formula_sum            'C27 H26 Fe N O P'
_chemical_formula_weight         467.31
_space_group_crystal_system      triclinic
_space_group_IT_number           1
_space_group_name_Hall           'P 1'
_space_group_name_H-M_alt        'P 1'
_atom_sites_solution_hydrogens   geom
_atom_sites_solution_primary     dual
_audit_creation_method           SHELXL-2014/7
_audit_update_record
;
2019-05-17 deposited with the CCDC.	2020-01-06 downloaded from the CCDC.
;
_cell_angle_alpha                74.336(3)
_cell_angle_beta                 74.502(4)
_cell_angle_gamma                87.802(3)
_cell_formula_units_Z            1
_cell_length_a                   8.0680(3)
_cell_length_b                   8.1779(3)
_cell_length_c                   9.0160(4)
_cell_measurement_reflns_used    6383
_cell_measurement_temperature    140.0(8)
_cell_measurement_theta_max      32.5720
_cell_measurement_theta_min      3.6770
_cell_volume                     551.58(4)
_computing_cell_refinement       'CrysAlisPro 1.171.39.46 (Rigaku OD, 2018)'
_computing_data_collection       'CrysAlisPro 1.171.39.46 (Rigaku OD, 2018)'
_computing_data_reduction        'CrysAlisPro 1.171.39.46 (Rigaku OD, 2018)'
_computing_molecular_graphics    'ORTEP (Johnson, 1976 and Farrugia, 2012)'
_computing_publication_material
'SHELXL-2014/7 (Sheldrick, 2015b) and WINGX (Farrugia, 2012)'
_computing_structure_refinement  'SHELXL-2014/7 (Sheldrick, 2015b)'
_computing_structure_solution    'SHELXT (Sheldrick, 2015a)'
_diffrn_ambient_temperature      140(1)
_diffrn_detector_area_resol_mean 16.0050
_diffrn_measured_fraction_theta_full 0.998
_diffrn_measured_fraction_theta_max 0.998
_diffrn_measurement_device_type  'Oxford Diffraction Xcalibur 3/Sapphire3 CCD'
_diffrn_measurement_method       'Thin slice \f and \w scans'
_diffrn_radiation_monochromator  graphite
_diffrn_radiation_source         'Enhance (Mo) X-ray Source'
_diffrn_radiation_type           Mo-K\a
_diffrn_radiation_wavelength     0.71073
_diffrn_reflns_av_R_equivalents  0.0223
_diffrn_reflns_av_unetI/netI     0.0391
_diffrn_reflns_Laue_measured_fraction_full 0.998
_diffrn_reflns_Laue_measured_fraction_max 0.998
_diffrn_reflns_limit_h_max       10
_diffrn_reflns_limit_h_min       -10
_diffrn_reflns_limit_k_max       10
_diffrn_reflns_limit_k_min       -10
_diffrn_reflns_limit_l_max       11
_diffrn_reflns_limit_l_min       -11
_diffrn_reflns_number            8378
_diffrn_reflns_point_group_measured_fraction_full 0.985
_diffrn_reflns_point_group_measured_fraction_max 0.986
_diffrn_reflns_theta_full        25.242
_diffrn_reflns_theta_max         27.497
_diffrn_reflns_theta_min         3.038
_exptl_absorpt_coefficient_mu    0.776
_exptl_absorpt_correction_T_max  1.000
_exptl_absorpt_correction_T_min  0.881
_exptl_absorpt_correction_type   multi-scan
_exptl_absorpt_process_details
;
 CrysAlisPro, Agilent Technologies, Version 1.171.37.35 
 Empirical absorption correction using spherical harmonics,
  implemented in SCALE3 ABSPACK scaling algorithm.
;
_exptl_crystal_colour            orange-red
_exptl_crystal_density_diffrn    1.407
_exptl_crystal_description       block
_exptl_crystal_F_000             244
_exptl_crystal_size_max          0.29
_exptl_crystal_size_mid          0.19
_exptl_crystal_size_min          0.17
_refine_diff_density_max         0.323
_refine_diff_density_min         -0.370
_refine_diff_density_rms         0.054
_refine_ls_abs_structure_details
;
 Flack x determined using 2238 quotients [(I+)-(I-)]/[(I+)+(I-)]
 (Parsons, Flack and Wagner, Acta Cryst. B69 (2013) 249-259).
;
_refine_ls_abs_structure_Flack   -0.013(13)
_refine_ls_extinction_method     none
_refine_ls_goodness_of_fit_ref   1.126
_refine_ls_hydrogen_treatment    constr
_refine_ls_matrix_type           full
_refine_ls_number_parameters     281
_refine_ls_number_reflns         5019
_refine_ls_number_restraints     3
_refine_ls_restrained_S_all      1.126
_refine_ls_R_factor_all          0.0352
_refine_ls_R_factor_gt           0.0329
_refine_ls_shift/su_max          0.000
_refine_ls_shift/su_mean         0.000
_refine_ls_structure_factor_coef Fsqd
_refine_ls_weighting_details
'w=1/[\s^2^(Fo^2^)+(0.0282P)^2^+0.4338P] where P=(Fo^2^+2Fc^2^)/3'
_refine_ls_weighting_scheme      calc
_refine_ls_wR_factor_gt          0.0814
_refine_ls_wR_factor_ref         0.0823
_reflns_Friedel_coverage         0.975
_reflns_Friedel_fraction_full    0.973
_reflns_Friedel_fraction_max     0.974
_reflns_number_gt                4852
_reflns_number_total             5019
_reflns_threshold_expression     'I > 2\s(I)'
_cod_data_source_file            jo9b03342_si_002.cif
_cod_data_source_block           rossa21
_cod_database_code               4038058
_shelx_shelxl_version_number     2014/7
_shelx_space_group_comment
;
The symmetry employed for this shelxl refinement is uniquely defined
by the following loop, which should always be used as a source of
symmetry information in preference to the above space-group names.
They are only intended as comments.
;
_shelx_res_file
;

    shelx.res created by SHELXL-2014/7

TITL shelxt_a.res in P1
CELL  0.71073   8.0680   8.1779   9.0160   74.336   74.502   87.802
ZERR     1.00   0.0003   0.0003   0.0004    0.003    0.004    0.003
LATT  -1
SFAC  C    H    N    O    P    FE
UNIT  27 26 1 1 1 1

MERG   2
OMIT     0.00  55.00
MPLA 5 C1 C2 C3 C4 C5 P C21 FE
MPLA 5 C6 C7 C8 C9 C10 FE
MPLA 5 C21 N22 C23 C24 O25 C2 C231
MPLA 6 C31 C32 C33 C34 C35 C36
MPLA 6 C41 C42 C43 C44 C45 C46 C47
FMAP   2
PLAN  -5
ACTA
BOND   $H
CONF
HTAB 2.

L.S.   5
WGHT    0.028200    0.433800
FVAR      10.54413
FE    6    0.538413    0.814372    0.317097    11.00000    0.01651    0.01212 =
         0.01609   -0.00242   -0.00466   -0.00111
C1    1    0.442858    0.590486    0.485038    11.00000    0.01514    0.01271 =
         0.01692   -0.00212   -0.00321   -0.00152
C2    1    0.344323    0.638997    0.369085    11.00000    0.01635    0.01342 =
         0.01779   -0.00243   -0.00512   -0.00018
C3    1    0.277472    0.803408    0.371959    11.00000    0.01838    0.01796 =
         0.02285   -0.00652   -0.00603    0.00228
AFIX  43
H3    2    0.210222    0.864604    0.308287    11.00000   -1.20000
AFIX   0
C4    1    0.332068    0.855721    0.488806    11.00000    0.01962    0.01808 =
         0.02685   -0.00967   -0.00644    0.00336
AFIX  43
H4    2    0.306532    0.957686    0.515570    11.00000   -1.20000
AFIX   0
C5    1    0.432419    0.726693    0.558574    11.00000    0.01926    0.01790 =
         0.01957   -0.00605   -0.00439    0.00073
AFIX  43
H5    2    0.483178    0.730057    0.639021    11.00000   -1.20000
AFIX   0
C6    1    0.786161    0.782781    0.197299    11.00000    0.01733    0.02306 =
         0.02108    0.00136   -0.00003    0.00040
AFIX  43
H6    2    0.844790    0.681923    0.208807    11.00000   -1.20000
AFIX   0
C7    1    0.685860    0.843894    0.087957    11.00000    0.02472    0.02137 =
         0.01296   -0.00061   -0.00110   -0.00231
AFIX  43
H7    2    0.666375    0.789663    0.015496    11.00000   -1.20000
AFIX   0
C8    1    0.620439    1.001806    0.108109    11.00000    0.02787    0.01985 =
         0.01844    0.00265   -0.00616   -0.00161
AFIX  43
H8    2    0.550529    1.069337    0.051118    11.00000   -1.20000
AFIX   0
C9    1    0.679762    1.039270    0.229991    11.00000    0.03263    0.01513 =
         0.02851   -0.00151   -0.00556   -0.00803
AFIX  43
H9    2    0.656453    1.135846    0.266670    11.00000   -1.20000
AFIX   0
C10   1    0.781233    0.902945    0.286186    11.00000    0.02247    0.02381 =
         0.02578   -0.00012   -0.00698   -0.01037
AFIX  43
H10   2    0.835084    0.893958    0.367137    11.00000   -1.20000
AFIX   0
C21   1    0.301780    0.533692    0.275986    11.00000    0.01401    0.01686 =
         0.01829   -0.00216   -0.00323   -0.00239
N22   3    0.329644    0.377622    0.292882    11.00000    0.01963    0.01822 =
         0.02705   -0.00720   -0.01020   -0.00001
C23   1    0.235776    0.322556    0.193410    11.00000    0.01972    0.02269 =
         0.03193   -0.01363   -0.01063    0.00339
AFIX  13
H23   2    0.309793    0.255934    0.128113    11.00000   -1.20000
AFIX   0
C231  1    0.075319    0.218507    0.300526    11.00000    0.02643    0.02490 =
         0.05476   -0.01273   -0.01270   -0.00323
AFIX  33
H23A  2    0.014370    0.182750    0.235995    11.00000   -1.50000
H23B  2    0.107639    0.120463    0.372079    11.00000   -1.50000
H23C  2    0.002492    0.286518    0.361232    11.00000   -1.50000
AFIX   0
C24   1    0.193059    0.489304    0.087401    11.00000    0.03292    0.02724 =
         0.03061   -0.01196   -0.01780    0.00218
AFIX  23
H24A  2    0.272337    0.515318   -0.018537    11.00000   -1.20000
H24B  2    0.076466    0.484619    0.077960    11.00000   -1.20000
AFIX   0
O25   4    0.211783    0.613277    0.169975    11.00000    0.03415    0.01858 =
         0.02730   -0.00665   -0.01854    0.00454
P     5    0.572205    0.402031    0.515691    11.00000    0.01494    0.01371 =
         0.01609   -0.00204   -0.00358   -0.00055
C31   1    0.682957    0.458374    0.651295    11.00000    0.01626    0.01459 =
         0.01798   -0.00259   -0.00544    0.00158
C32   1    0.843182    0.543554    0.585795    11.00000    0.01520    0.02339 =
         0.02136   -0.00529   -0.00405    0.00226
AFIX  43
H32   2    0.895640    0.563242    0.477027    11.00000   -1.20000
AFIX   0
C33   1    0.924863    0.599057    0.681015    11.00000    0.01434    0.02864 =
         0.03619   -0.01037   -0.00957    0.00245
AFIX  43
H33   2    1.030051    0.658782    0.635207    11.00000   -1.20000
AFIX   0
C34   1    0.851535    0.566521    0.843405    11.00000    0.02527    0.02797 =
         0.03317   -0.01297   -0.01790    0.00683
AFIX  43
H34   2    0.906860    0.604454    0.906803    11.00000   -1.20000
AFIX   0
C35   1    0.694379    0.476667    0.911911    11.00000    0.03394    0.02534 =
         0.01819   -0.00496   -0.00762    0.00306
AFIX  43
H35   2    0.645215    0.451879    1.021611    11.00000   -1.20000
AFIX   0
C36   1    0.612113    0.424652    0.815444    11.00000    0.02421    0.02002 =
         0.02050   -0.00335   -0.00424   -0.00098
AFIX  43
H36   2    0.506609    0.365546    0.861491    11.00000   -1.20000
AFIX   0
C41   1    0.415859    0.240885    0.663798    11.00000    0.01913    0.01582 =
         0.01667   -0.00146   -0.00270   -0.00483
C42   1    0.475781    0.081668    0.730126    11.00000    0.02279    0.01684 =
         0.01784   -0.00476   -0.00809   -0.00244
C43   1    0.358269   -0.038124    0.846859    11.00000    0.03156    0.01634 =
         0.02053    0.00056   -0.00953   -0.00451
AFIX  43
H43   2    0.396823   -0.143291    0.892994    11.00000   -1.20000
AFIX   0
C44   1    0.185995   -0.004376    0.895630    11.00000    0.02819    0.02750 =
         0.02806    0.00108   -0.00213   -0.01379
AFIX  43
H44   2    0.110366   -0.086055    0.974176    11.00000   -1.20000
AFIX   0
C45   1    0.126298    0.150519    0.827739    11.00000    0.01899    0.03409 =
         0.03562   -0.00202   -0.00183   -0.00384
AFIX  43
H45   2    0.010151    0.173115    0.858658    11.00000   -1.20000
AFIX   0
C46   1    0.241666    0.272634    0.712497    11.00000    0.01998    0.02242 =
         0.03252   -0.00162   -0.00448   -0.00195
AFIX  43
H46   2    0.201674    0.377367    0.667184    11.00000   -1.20000
AFIX   0
C47   1    0.662627    0.040147    0.680135    11.00000    0.02527    0.01883 =
         0.02434   -0.00246   -0.00850    0.00401
AFIX 137
H47A  2    0.728085    0.095470    0.728496    11.00000   -1.50000
H47B  2    0.704749    0.079078    0.565915    11.00000   -1.50000
H47C  2    0.674070   -0.080555    0.714152    11.00000   -1.50000
AFIX   0
HKLF    4

REM  shelxt_a.res in P1
REM R1 =  0.0329 for    4852 Fo > 4sig(Fo)  and  0.0352 for all    5019 data
REM    281 parameters refined using      3 restraints

END

WGHT      0.0282      0.4338

REM No hydrogen bonds found for HTAB generation

REM Highest difference peak  0.323,  deepest hole -0.370,  1-sigma level  0.054
Q1    1   0.6321  0.3770  0.4023  11.00000  0.05    0.32
Q2    1   0.4467  0.8920  0.3269  11.00000  0.05    0.31
Q3    1   0.5687  0.7103  0.2994  11.00000  0.05    0.30
Q4    1   0.5026  0.9141  0.3373  11.00000  0.05    0.30
Q5    1   0.6353  0.7439  0.3119  11.00000  0.05    0.29
;
_shelx_res_checksum              51620
_shelx_hkl_file
;
 -12  -1  -3 7092.88 871.508   3
 -12   0  -2 11904.6 1101.94   3
 -11  -5  -7 2996.97 604.895   5
 -11  -5  -6 300.369 284.560   5
 -11  -5  -5 396.809 349.294   7
 -11  -4  -4 1623.08 532.068   7
 -11  -4  -3 8977.31 999.602   7
 -11  -3  -7-550.141 463.959   3
 -11  -3  -6 1503.74 435.189   3
 -11  -3  -5 7254.08 846.440   3
 -11  -3  -4 4637.90 665.557   3
 -11  -3  -3 867.025 334.171   3
 -11  -3  -3 1769.03 537.954   7
 -11  -3  -2 749.949 451.503   7
 -11  -2  -7 4964.97 790.750   3
 -11  -2  -6 7006.60 888.451   3
 -11  -2  -5 3511.21 684.520   3
 -11  -2  -4 2697.05 622.296   3
 -11  -2  -3 7760.51 852.251   3
 -11  -2  -2 5750.55 735.299   3
 -11  -2  -2 3931.13 699.711   7
 -11  -2  -1 9335.94 1046.44   7
 -11  -1  -7 4762.80 799.450   3
 -11  -1  -6 12731.5 1159.26   3
 -11  -1  -5 17574.9 1317.26   3
 -11  -1  -4 9489.17 1025.62   3
 -11  -1  -3 14382.5 1166.41   3
 -11  -1  -2 11700.0 1062.05   3
 -11  -1  -1 7551.01 942.426   7
 -11  -1   0 10691.4 1115.33   7
 -11   0  -6 11000.6 1219.55   3
 -11   0  -5 13822.5 1161.20   3
 -11   0  -4 3411.85 747.642   3
 -11   0  -3 1925.00 664.486   3
 -11   0  -2 2007.49 680.228   3
 -11   0  -1 1565.32 618.972   3
 -11   0   0 571.902 419.598   7
 -11   1  -6 866.038 687.572   3
 -11   1  -5 1922.17 807.054   3
 -11   1  -4 2010.16 854.118   3
 -11   1  -3 2209.83 835.288   3
 -11   1  -2 16337.4 1438.50   3
 -11   1  -1 3413.98 970.641   3
 -11   1   0 8353.96 1117.55   3
 -11   1   1 3248.95 678.862   7
 -11   2  -5 2865.26 980.592   3
 -11   2  -4 9836.54 1311.75   3
 -11   2  -3 10082.0 1453.22   3
 -11   2  -2 6344.46 1399.97   3
 -11   2  -1 7332.58 1684.23   3
 -11   2   0 5722.08 1368.99   3
 -11   2   1 5517.15 811.002   7
 -11   3  -3 1809.86 1399.19   3
 -10  -7  -4 5416.38 729.989   7
 -10  -7  -3 10986.8 1044.24   7
 -10  -6  -8 597.073 379.215   5
 -10  -6  -7 1662.19 454.607   5
 -10  -6  -6 5646.71 812.485   5
 -10  -6  -6 5159.55 720.406   7
 -10  -6  -5 4810.19 742.319   5
 -10  -6  -5 4334.16 663.106   7
 -10  -6  -4 4391.66 669.232   7
 -10  -6  -3 1505.58 454.044   7
 -10  -6  -2 6910.25 862.327   7
 -10  -5  -9 2318.70 537.086   5
 -10  -5  -8 3608.99 633.175   5
 -10  -5  -7 618.887 363.880   5
 -10  -5  -6 2139.33 527.976   5
 -10  -5  -5 1605.15 461.879   7
 -10  -5  -5 1612.42 471.335   5
 -10  -5  -4 10328.8 1008.95   7
 -10  -5  -3 4956.08 748.518   7
 -10  -5  -2 427.244 332.076   7
 -10  -5  -1 1963.70 499.437   7
 -10  -4 -10 4615.39 711.104   5
 -10  -4  -9 874.275 361.452   5
 -10  -4  -8 3732.12 610.589   5
 -10  -4  -7 4733.28 674.656   5
 -10  -4  -6 12041.5 1027.75   5
 -10  -4  -5 6452.05 773.100   5
 -10  -4  -3 2087.88 535.459   7
 -10  -4  -2 6545.84 817.712   7
 -10  -4  -1 2523.00 532.598   7
 -10  -4   0 4269.66 698.290   7
 -10  -3  -8 3763.51 588.676   5
 -10  -3  -7 216.442 294.669   5
 -10  -3  -7-386.074 404.355   3
 -10  -3  -6 1084.72 373.464   5
 -10  -3  -6 836.083 370.054   3
 -10  -3  -5 4031.90 611.524   3
 -10  -3  -5 4340.86 605.615   5
 -10  -3  -4 12910.7 1046.17   3
 -10  -3  -3 3924.61 594.485   3
 -10  -3  -2 2759.48 480.901   3
 -10  -3  -2 2865.58 584.003   7
 -10  -3  -1 804.473 407.082   7
 -10  -3   0 2854.24 614.303   7
 -10  -3   1 8813.15 958.941   7
 -10  -2  -9 3578.44 685.613   3
 -10  -2  -8 6626.67 859.555   3
 -10  -2  -7 13756.0 1192.82   3
 -10  -2  -6 6855.06 848.509   3
 -10  -2  -5 3164.04 629.750   3
 -10  -2  -4 6526.26 799.378   3
 -10  -2  -3 12537.3 999.082   3
 -10  -2  -2 18216.9 1133.43   3
 -10  -2  -1 9905.63 1008.35   7
 -10  -2  -1 13220.9 965.313   3
 -10  -2   0 3803.30 657.555   7
 -10  -2   1 7265.45 876.640   7
 -10  -2   2 9325.82 988.816   7
 -10  -1  -9 3170.87 667.676   3
 -10  -1  -8 1902.26 614.549   3
 -10  -1  -7 3444.51 710.663   3
 -10  -1  -6 20643.6 1407.73   3
 -10  -1  -5 22728.7 1449.93   3
 -10  -1  -4 13275.6 1138.52   3
 -10  -1  -3 8342.49 885.009   3
 -10  -1  -2 13200.2 1086.57   3
 -10  -1  -1 11061.0 960.134   3
 -10  -1   0 2966.26 624.003   7
 -10  -1   1 7727.17 906.293   7
 -10  -1   2 1715.87 508.470   7
 -10  -1   3 1354.15 469.947   7
 -10   0  -9 3608.34 692.933   3
 -10   0  -8 8425.69 1037.53   3
 -10   0  -7 12742.3 1266.27   3
 -10   0  -6 13342.3 1272.25   3
 -10   0  -5 1263.13 629.255   3
 -10   0  -4 7851.79 956.912   3
 -10   0  -3 4110.58 835.726   3
 -10   0  -2 1472.97 733.040   3
 -10   0  -1 3030.68 800.460   3
 -10   0   0 2183.97 689.601   3
 -10   0   1 7309.02 888.488   7
 -10   0   2 5755.26 804.805   7
 -10   0   3 1760.40 513.822   7
 -10   1  -8 12596.7 1256.80   3
 -10   1  -7 7626.57 1110.35   3
 -10   1  -6 6935.42 992.714   3
 -10   1  -5 10717.1 1210.10   3
 -10   1  -4 1776.64 855.736   3
 -10   1  -3 10637.7 1350.38   3
 -10   1  -2 17986.6 1736.87   3
 -10   1  -1 12495.1 1699.43   3
 -10   1   0 8281.03 1456.11   3
 -10   1   1 2580.12 586.181   7
 -10   1   1 4840.58 1154.75   3
 -10   1   2 2443.33 573.226   7
 -10   1   3 6177.12 824.839   7
 -10   1   4 5035.07 752.863   7
 -10   2  -8 19662.7 1523.80   3
 -10   2  -7 2034.64 766.004   3
 -10   2  -6 3494.94 1011.54   3
 -10   2  -5 11634.7 1407.04   3
 -10   2  -4 7662.15 1528.17   3
 -10   2  -3 9462.36 1640.06   3
 -10   2   2 2898.04 615.152   7
 -10   2   3 1720.89 504.279   7
 -10   2   4 1376.02 440.958   7
 -10   3  -7 18195.1 1582.56   3
 -10   3  -6 18824.0 1692.18   3
 -10   3  -5 3108.03 1253.10   3
 -10   3  -4 2348.64 1406.06   3
 -10   3   2 4660.66 714.261   7
 -10   3   3 4677.46 716.601   7
 -10   3   4 8437.73 929.019   7
 -10   4  -5 2280.93 1346.15   3
 -10   4   0 4734.04 875.101   3
 -10   4   1 9320.90 1138.16   3
 -10   4   2 695.315 325.115   3
 -10   4   3 2233.03 537.761   7
 -10   5  -2 864.156 652.809   3
 -10   5  -1-1138.77 781.421   3
 -10   5   0 1200.88 401.695   3
 -10   5   1 5127.61 838.612   3
 -10   5   2 8749.49 1046.81   3
 -10   5   3 5024.67 784.349   3
  -9  -8  -2 3590.34 637.972   7
  -9  -7  -8 6829.53 864.455   5
  -9  -7  -7 4413.62 721.224   5
  -9  -7  -6 4987.84 766.746   5
  -9  -7  -5 505.542 381.967   5
  -9  -7  -4 5190.88 668.732   7
  -9  -7  -3 14093.9 1115.55   7
  -9  -7  -2 6234.44 781.194   7
  -9  -7  -1 6419.06 829.849   7
  -9  -6  -9 3512.95 667.449   5
  -9  -6  -8 3650.79 646.761   5
  -9  -6  -7 11048.5 1036.76   5
  -9  -6  -6 1743.56 467.532   5
  -9  -6  -6 1233.26 373.329   7
  -9  -6  -5 11587.2 1072.67   5
  -9  -6  -5 11182.1 950.547   7
  -9  -6  -4 434.408 353.821   7
  -9  -6  -4 188.939 336.623   5
  -9  -6  -3 2592.28 518.242   7
  -9  -6  -2 7901.26 845.315   7
  -9  -6  -1 3807.96 638.826   7
  -9  -6   0 2538.89 541.594   7
  -9  -5 -10 5623.92 783.611   5
  -9  -5  -9 8014.03 897.026   5
  -9  -5  -8 7847.96 859.895   5
  -9  -5  -7 5964.24 757.555   5
  -9  -5  -6 4616.70 672.290   5
  -9  -5  -5 5724.69 739.082   5
  -9  -5  -4 5501.90 709.924   5
  -9  -5  -4 5084.29 684.391   7
  -9  -5  -3 3611.17 601.789   7
  -9  -5  -2 7727.59 835.783   7
  -9  -5  -1-50.3362 249.353   7
  -9  -5   0 1167.73 421.080   7
  -9  -5   1 7348.59 882.186   7
  -9  -4 -11 3436.85 635.416   5
  -9  -4 -10 9745.83 966.210   5
  -9  -4  -9 2051.42 484.871   5
  -9  -4  -8 4489.39 646.946   5
  -9  -4  -7 6276.13 737.374   5
  -9  -4  -6 9428.96 869.212   5
  -9  -4  -5 617.469 315.590   5
  -9  -4  -4 5141.02 668.909   5
  -9  -4  -3 3757.53 617.157   7
  -9  -4  -2 12645.1 1041.41   7
  -9  -4  -1 6359.26 777.391   7
  -9  -4   0 1612.51 439.108   7
  -9  -4   1 2264.80 517.128   7
  -9  -4   2 3509.81 673.297   7
  -9  -3 -11 5592.48 758.797   5
  -9  -3 -10 4018.32 637.898   5
  -9  -3  -9 14432.2 1094.04   5
  -9  -3  -8 7055.48 755.519   5
  -9  -3  -7 559.076 296.127   5
  -9  -3  -7-213.909 396.053   3
  -9  -3  -6 12238.4 1008.18   3
  -9  -3  -6 12039.1 917.420   5
  -9  -3  -5 15598.4 1046.50   5
  -9  -3  -5 15952.9 1133.23   3
  -9  -3  -4 18430.2 1125.79   5
  -9  -3  -4 17444.8 1144.16   3
  -9  -3  -3 21662.5 1227.93   3
  -9  -3  -2 3147.35 486.566   3
  -9  -3  -1 9376.53 923.778   7
  -9  -3  -1 8732.54 733.897   3
  -9  -3   0 12431.7 1063.31   7
  -9  -3   1 11099.1 1005.52   7
  -9  -3   2 1750.68 490.675   7
  -9  -3   3 1363.77 474.008   7
  -9  -2 -10 9170.45 877.486   5
  -9  -2  -9 10439.7 1026.44   3
  -9  -2  -9 12350.9 973.698   5
  -9  -2  -8 9812.13 966.376   3
  -9  -2  -8 9028.51 818.227   5
  -9  -2  -7 13705.4 960.325   5
  -9  -2  -7 15108.8 1161.67   3
  -9  -2  -6 7078.83 677.297   5
  -9  -2  -6 7489.57 839.242   3
  -9  -2  -5 11538.9 994.110   3
  -9  -2  -5 7753.06 703.940   5
  -9  -2  -4 14374.3 938.588   5
  -9  -2  -4 19198.4 1209.54   3
  -9  -2  -3 17660.1 1126.91   3
  -9  -2  -2 23864.5 1239.16   3
  -9  -2  -1 7739.49 742.176   3
  -9  -2   0 1361.51 431.343   7
  -9  -2   0 4749.83 583.328   3
  -9  -2   1 1765.74 499.645   7
  -9  -2   2 4479.18 674.102   7
  -9  -2   3 3501.86 650.704   7
  -9  -2   4 1217.27 467.856   7
  -9  -1 -10 9498.98 1009.39   3
  -9  -1  -9 131.307 333.891   3
  -9  -1  -8 3063.52 663.012   3
  -9  -1  -7 11819.3 1074.64   3
  -9  -1  -6 24624.9 1466.57   3
  -9  -1  -6 16625.9 951.799   5
  -9  -1  -5 31653.2 1284.77   5
  -9  -1  -5 43521.7 1815.14   3
  -9  -1  -4 1571.05 321.256   5
  -9  -1  -4 8885.70 907.321   3
  -9  -1  -3-184.940 629.196   3
  -9  -1  -2 3020.81 630.036   3
  -9  -1  -1 12706.7 964.037   3
  -9  -1   0 8979.25 831.227   3
  -9  -1   0 9795.79 950.282   7
  -9  -1   1 8409.35 890.617   7
  -9  -1   2 1649.88 469.854   7
  -9  -1   3 3920.26 648.411   7
  -9  -1   4 2782.90 589.057   7
  -9   0 -10-350.393 454.957   3
  -9   0  -9 13544.8 1191.03   3
  -9   0  -8 17046.0 1319.51   3
  -9   0  -7 10683.6 1139.32   3
  -9   0  -6-763.949 550.382   3
  -9   0  -5 8165.07 950.494   3
  -9   0  -4 33774.8 1710.86   3
  -9   0  -3 20866.3 1382.44   3
  -9   0  -2 9232.41 1077.29   3
  -9   0  -1 7201.37 1010.40   3
  -9   0   0 22308.5 1455.88   3
  -9   0   1 32446.7 1657.28   3
  -9   0   1 25507.7 1479.41   7
  -9   0   2 3446.05 593.684   7
  -9   0   3 3565.07 623.038   7
  -9   0   4 944.428 395.947   7
  -9   0   5 2222.70 572.845   7
  -9   1 -10 4790.23 797.643   3
  -9   1  -9 8740.84 1068.94   3
  -9   1  -8 18189.4 1368.35   3
  -9   1  -7 11393.3 1071.53   3
  -9   1  -6 10770.8 1152.28   3
  -9   1  -5 4751.79 1004.78   3
  -9   1  -4 12404.5 1331.79   3
  -9   1  -3 4713.18 1205.33   3
  -9   1  -2 4083.49 1193.58   3
  -9   1   2 5400.87 736.702   7
  -9   1   3 1919.36 502.417   7
  -9   1   4 7096.13 831.338   7
  -9   1   5 2218.28 537.070   7
  -9   2  -9 26486.0 1637.24   3
  -9   2  -8 3052.87 523.299   1
  -9   2  -8 1325.02 705.903   3
  -9   2  -7 3559.62 909.814   3
  -9   2  -6 9013.29 1208.26   3
  -9   2  -5 17087.1 1728.46   3
  -9   2  -4 5609.89 1504.53   3
  -9   2   2 3975.76 630.858   7
  -9   2   3 1111.04 416.941   7
  -9   2   4 3782.05 625.074   7
  -9   2   5 7918.68 890.832   7
  -9   2   6 5244.95 749.177   7
  -9   3  -9 18100.8 1444.53   3
  -9   3  -9 2167.44 503.277   1
  -9   3  -8 9336.08 916.494   1
  -9   3  -8 11636.9 1227.01   3
  -9   3  -7 9249.09 1203.38   3
  -9   3  -6 14460.1 1572.04   3
  -9   3  -5 79.2138 1432.19   3
  -9   3  -1 8904.93 1068.12   3
  -9   3   0-160.810 574.267   3
  -9   3   1-512.845 549.495   3
  -9   3   2 7299.83 859.316   3
  -9   3   3 4937.89 701.424   7
  -9   3   3 3768.85 599.087   3
  -9   3   4 4346.25 654.966   7
  -9   3   5 211.299 288.999   7
  -9   4  -8 119.452 284.679   1
  -9   4  -8 1772.81 818.301   3
  -9   4  -7 3733.92 1179.88   3
  -9   4  -6 13870.9 2003.52   3
  -9   4  -2 8837.67 1061.18   3
  -9   4  -1 18279.2 1450.98   3
  -9   4   0 26807.5 1640.64   3
  -9   4   1 8802.10 909.644   3
  -9   4   2 4196.86 638.913   3
  -9   4   3 2271.68 506.702   7
  -9   4   3 1407.22 393.674   3
  -9   4   4 5901.99 735.846   7
  -9   5  -7 5218.18 759.443   1
  -9   5  -3 10373.1 1301.18   3
  -9   5  -2 7689.03 984.507   3
  -9   5  -1-601.062 481.905   3
  -9   5   0 6577.19 815.721   3
  -9   5   1 5280.94 732.715   3
  -9   5   2 7306.13 837.130   3
  -9   5   3 5222.73 711.200   3
  -9   5   3 4418.18 654.131   7
  -9   5   4 1839.40 465.488   3
  -9   6  -3-297.773 649.781   3
  -9   6  -2 5246.28 801.272   3
  -9   6  -1 12752.6 1197.58   3
  -9   6   0 2479.21 563.197   3
  -9   6   1 520.894 368.136   3
  -9   6   2 1223.53 441.464   3
  -9   6   3 2259.44 543.635   3
  -9   6   4 9649.69 1028.96   2
  -9   6   4 9663.30 984.028   3
  -9   7  -1 4941.32 774.825   3
  -9   7   0 2060.56 530.902   3
  -8  -8  -8 639.948 390.581   5
  -8  -8  -7 1179.78 445.145   5
  -8  -8  -6 5366.49 796.787   5
  -8  -8  -5 4332.89 705.220   5
  -8  -8  -3 202.947 231.634   7
  -8  -8  -2 1791.43 438.922   7
  -8  -8  -1 6690.68 823.277   7
  -8  -8   0 2264.96 529.579   7
  -8  -7  -9 9183.46 998.468   5
  -8  -7  -8 13845.3 1200.35   5
  -8  -7  -7 5705.00 750.116   5
  -8  -7  -6 8762.96 939.720   5
  -8  -7  -5 3255.94 511.615   7
  -8  -7  -5 4199.53 679.520   5
  -8  -7  -4 12614.7 933.843   7
  -8  -7  -4 12854.3 1126.86   5
  -8  -7  -3 7600.78 768.597   7
  -8  -7  -2 8757.30 867.051   7
  -8  -7  -1 6036.98 751.363   7
  -8  -7   0 802.592 376.856   7
  -8  -7   1 10071.1 1022.87   7
  -8  -6 -10 2163.01 541.628   5
  -8  -6  -9 2618.00 571.980   5
  -8  -6  -8 834.698 410.101   5
  -8  -6  -7 9600.45 938.713   5
  -8  -6  -6 14960.9 1134.76   5
  -8  -6  -6 15379.6 1019.09   7
  -8  -6  -5 5760.14 660.755   7
  -8  -6  -5 6358.09 776.519   5
  -8  -6  -4 388.605 280.231   7
  -8  -6  -4 15.3686 302.118   5
  -8  -6  -3 760.434 320.897   7
  -8  -6  -2 6229.46 709.055   7
  -8  -6  -1 12964.4 1044.75   7
  -8  -6   0 4436.90 655.499   7
  -8  -6   1 5969.00 786.675   7
  -8  -6   2 565.627 383.502   7
  -8  -5 -11 9454.42 1000.05   5
  -8  -5 -10 3528.56 633.019   5
  -8  -5  -9 12591.9 1074.69   5
  -8  -5  -8 10604.5 965.499   5
  -8  -5  -7 5993.25 736.343   5
  -8  -5  -6 13116.6 1012.17   5
  -8  -5  -5 25496.5 1395.27   5
  -8  -5  -4 2226.39 436.908   7
  -8  -5  -4 2036.01 462.582   5
  -8  -5  -3 29716.1 1509.56   5
  -8  -5  -3 28268.6 1402.40   7
  -8  -5  -2 4730.89 626.767   7
  -8  -5  -1 2629.57 493.661   7
  -8  -5   0 10878.9 962.541   7
  -8  -5   1 9472.82 945.008   7
  -8  -5   2 1682.16 466.680   7
  -8  -5   3 1218.02 460.726   7
  -8  -4 -11 1222.70 431.044   5
  -8  -4 -10 2210.43 516.401   5
  -8  -4  -9 2814.99 543.613   5
  -8  -4  -8 1614.49 431.839   5
  -8  -4  -7 9162.71 847.646   5
  -8  -4  -6 13913.8 997.723   5
  -8  -4  -5 5692.44 652.373   5
  -8  -4  -4 17810.0 1120.71   5
  -8  -4  -3 11020.1 890.313   5
  -8  -4  -2 25838.0 1371.43   7
  -8  -4  -1 18738.7 1180.32   7
  -8  -4   0 7618.48 786.596   7
  -8  -4   1 1159.87 413.583   7
  -8  -4   2 17233.6 1244.61   7
  -8  -4   3 11336.6 1064.82   7
  -8  -4   4 4533.00 712.410   7
  -8  -3 -12 390.592 342.532   5
  -8  -3 -11 2135.83 497.758   5
  -8  -3 -10 11428.0 992.938   5
  -8  -3  -9 16748.3 1145.73   5
  -8  -3  -8 5229.37 637.060   5
  -8  -3  -7 711.546 328.298   3
  -8  -3  -7 865.326 340.246   5
  -8  -3  -6 21884.2 1271.27   3
  -8  -3  -6 21260.2 1167.80   5
  -8  -3  -5 40808.7 1554.77   5
  -8  -3  -5 40900.3 1694.56   3
  -8  -3  -4 17547.1 1075.81   3
  -8  -3  -4 16595.5 1016.62   5
  -8  -3  -3 813.795 337.096   3
  -8  -3  -3 686.033 294.075   5
  -8  -3  -2 12913.0 867.264   3
  -8  -3  -1 20590.1 1045.18   3
  -8  -3  -1 20961.4 1242.92   7
  -8  -3   0 21541.2 1007.86   3
  -8  -3   0 20523.1 1241.06   7
  -8  -3   1 10594.1 922.697   7
  -8  -3   2 1906.05 500.009   7
  -8  -3   3 8096.14 881.568   7
  -8  -3   4 2099.47 527.432   7
  -8  -3   5 1262.39 451.821   7
  -8  -2 -12 4744.92 694.275   5
  -8  -2 -11 2928.62 552.236   5
  -8  -2 -10 2265.44 481.178   5
  -8  -2  -9 4766.98 706.025   3
  -8  -2  -9 7574.79 769.749   5
  -8  -2  -8 15054.8 1133.16   3
  -8  -2  -8 14202.0 969.371   5
  -8  -2  -7 21899.0 1337.88   3
  -8  -2  -7 20986.8 1132.34   5
  -8  -2  -6 6742.63 641.916   5
  -8  -2  -6 8742.97 873.822   3
  -8  -2  -5 17353.8 973.076   5
  -8  -2  -5 20165.1 1224.17   3
  -8  -2  -4 40375.8 1627.21   3
  -8  -2  -4 39270.7 1442.16   5
  -8  -2  -3 8224.90 677.533   5
  -8  -2  -3 15263.0 1027.29   3
  -8  -2  -2 16871.8 1078.15   3
  -8  -2  -1 16069.5 985.977   3
  -8  -2   0 2537.71 511.403   7
  -8  -2   0 8738.53 710.316   3
  -8  -2   1 10113.6 902.798   7
  -8  -2   2 12452.4 1002.56   7
  -8  -2   3 9190.86 919.762   7
  -8  -2   4 6007.98 780.494   7
  -8  -2   5 784.349 396.462   7
  -8  -1 -11 450.753 300.675   5
  -8  -1 -10 14303.4 1049.10   5
  -8  -1 -10 13467.8 1136.43   3
  -8  -1  -9 7463.54 845.252   3
  -8  -1  -9 7688.42 749.079   5
  -8  -1  -8 4622.67 564.607   5
  -8  -1  -8 5047.40 744.017   3
  -8  -1  -7 3465.14 468.575   5
  -8  -1  -7 8906.89 921.695   3
  -8  -1  -6 14374.8 1135.87   3
  -8  -1  -6 4379.42 502.252   5
  -8  -1  -5 17060.8 897.747   5
  -8  -1  -5 30659.8 1494.16   3
  -8  -1  -4 6902.20 581.898   5
  -8  -1  -4 5006.61 653.430   3
  -8  -1  -3 6142.32 742.879   3
  -8  -1  -3 6634.27 560.850   5
  -8  -1  -2 6862.74 762.835   3
  -8  -1  -1 25726.4 1256.02   3
  -8  -1   0 56542.0 1768.59   3
  -8  -1   1 10560.9 921.081   7
  -8  -1   1 11108.8 834.949   3
  -8  -1   2 3186.54 575.022   7
  -8  -1   3 2021.22 460.616   7
  -8  -1   4 16832.7 1225.49   7
  -8  -1   5 14597.0 1187.02   7
  -8  -1   6 4678.69 723.835   7
  -8   0 -10 1757.01 519.143   3
  -8   0  -9 19650.3 1336.56   3
  -8   0  -8 29904.3 1581.30   3
  -8   0  -8 24336.2 1169.74   5
  -8   0  -7 490.860 229.188   1
  -8   0  -7 831.621 278.928   5
  -8   0  -6 3189.33 404.052   5
  -8   0  -6 2134.61 592.567   3
  -8   0  -5 21093.1 1337.23   3
  -8   0  -5 21902.0 945.839   5
  -8   0  -4 11856.3 682.129   5
  -8   0  -4 12009.6 1104.17   3
  -8   0  -3 62325.9 1516.88   5
  -8   0  -3 69389.5 2304.27   3
  -8   0  -2 22904.0 1644.34   3
  -8   0  -1 7849.07 1263.30   3
  -8   0   0 18672.5 1518.85   3
  -8   0   1 20110.7 1581.81   3
  -8   0   2 7992.79 1038.52   3
  -8   0   2 10814.4 931.175   7
  -8   0   3 5899.58 725.523   7
  -8   0   4 187.237 296.804   7
  -8   0   5 10562.6 996.496   7
  -8   0   6 3767.04 646.741   7
  -8   1 -11 1688.91 438.808   3
  -8   1 -10 3903.29 673.283   3
  -8   1  -9 5789.06 897.523   3
  -8   1  -8 4694.82 575.449   1
  -8   1  -8 15788.6 1255.85   3
  -8   1  -7 17156.7 1276.12   3
  -8   1  -7 16023.9 983.372   1
  -8   1  -6 6000.15 952.795   3
  -8   1  -5 3088.02 885.393   3
  -8   1  -4 15823.3 1504.35   3
  -8   1  -3 2071.78 1175.91   3
  -8   1   2 10647.7 923.778   7
  -8   1   3 16931.9 1136.55   7
  -8   1   4 4065.43 609.083   7
  -8   1   5 3736.19 609.253   7
  -8   1   6 534.305 350.908   7
  -8   1   7 2808.76 583.455   7
  -8   2 -11-231.918 454.291   3
  -8   2 -10 7626.97 939.293   3
  -8   2  -9 5468.47 674.048   1
  -8   2  -9 14591.6 1244.28   3
  -8   2  -8-693.504 750.077   3
  -8   2  -8 257.475 255.317   1
  -8   2  -7 3864.01 862.550   3
  -8   2  -6 10529.7 1316.57   3
  -8   2  -5 15089.4 1577.99   3
  -8   2   0 27328.4 1592.02   3
  -8   2   1 13931.3 1070.49   3
  -8   2   2 15878.8 1099.17   3
  -8   2   3 1840.46 459.376   7
  -8   2   3 1514.35 344.758   3
  -8   2   4 6217.59 725.573   7
  -8   2   5 4336.75 632.886   7
  -8   2   6 2387.70 508.323   7
  -8   2   7 4722.76 692.267   7
  -8   3 -10 5806.65 865.502   3
  -8   3 -10 468.322 316.945   1
  -8   3  -9 676.803 342.719   1
  -8   3  -9 11325.3 1183.94   3
  -8   3  -8 3776.78 585.629   1
  -8   3  -8 4457.63 897.034   3
  -8   3  -7 10397.2 1257.00   3
  -8   3  -7 5788.71 685.170   1
  -8   3  -6 8330.22 1439.92   3
  -8   3  -2 27766.9 1778.32   3
  -8   3  -1 31373.8 1668.25   3
  -8   3   0 10848.0 931.482   3
  -8   3   1 17383.3 1124.54   3
  -8   3   2 12901.4 949.801   3
  -8   3   3 7972.87 748.504   3
  -8   3   3 8531.90 811.644   7
  -8   3   4 8152.74 803.429   7
  -8   3   4 9134.60 783.916   3
  -8   3   5 781.556 340.213   7
  -8   3   6 3226.56 553.400   7
  -8   4  -9 3856.73 652.506   1
  -8   4  -9 2800.59 726.012   3
  -8   4  -8 833.610 705.164   3
  -8   4  -8 236.301 286.372   1
  -8   4  -7 4658.16 1169.61   3
  -8   4  -7 873.597 341.190   1
  -8   4  -6 3084.27 1305.64   3
  -8   4  -3-299.037 772.765   3
  -8   4  -2 10108.2 973.417   3
  -8   4  -1 26695.5 1489.80   3
  -8   4   0 14886.7 1074.14   3
  -8   4   1 13046.3 993.448   3
  -8   4   2 1951.25 441.524   3
  -8   4   3 2495.93 515.207   2
  -8   4   3 3026.10 523.151   3
  -8   4   4 3255.04 544.246   7
  -8   4   4 3833.25 569.586   3
  -8   4   4 3214.06 588.633   2
  -8   4   5 6375.30 827.382   2
  -8   4   5 5892.30 678.190   7
  -8   4   6 6939.09 912.124   2
  -8   5  -8 5144.06 757.581   1
  -8   5  -8 7287.57 1150.21   3
  -8   5  -7 3813.10 1360.71   3
  -8   5  -7 2988.53 597.164   1
  -8   5  -4 4307.47 695.738   3
  -8   5  -3 7628.21 895.722   3
  -8   5  -2 3248.97 570.491   3
  -8   5  -1 732.312 314.731   3
  -8   5   0 10045.5 931.026   3
  -8   5   1 7762.25 819.978   3
  -8   5   2 6854.91 772.692   3
  -8   5   2 6167.94 706.331   2
  -8   5   3 10592.9 953.500   2
  -8   5   3 10270.7 917.718   3
  -8   5   4 11386.6 1035.38   2
  -8   5   4 12673.9 1004.70   3
  -8   5   5 4240.51 619.817   3
  -8   5   5 3426.49 658.463   2
  -8   5   6 6734.99 877.938   2
  -8   6  -7 917.228 1084.53   3
  -8   6  -4 1784.17 435.940   3
  -8   6  -3 3251.71 611.828   3
  -8   6  -2 11177.6 1046.14   3
  -8   6  -1 12594.7 1078.87   3
  -8   6   0 11998.9 1047.96   3
  -8   6   1 1649.32 474.059   3
  -8   6   1 197.132 214.448   2
  -8   6   2 7223.03 815.148   3
  -8   6   2 4058.45 574.373   2
  -8   6   3 8672.36 894.876   3
  -8   6   3 7019.17 797.290   2
  -8   6   4 21644.6 1418.04   2
  -8   6   4 21566.2 1372.23   3
  -8   6   5 3602.56 649.863   2
  -8   6   5 4469.32 657.811   3
  -8   7  -4 5890.11 945.656   3
  -8   7  -3 4829.09 756.935   3
  -8   7  -2 2000.83 518.087   3
  -8   7  -1 9722.72 998.427   3
  -8   7   0 5171.79 746.829   3
  -8   7   1 13258.9 1136.22   3
  -8   7   2 3326.03 613.832   3
  -8   7   2 1797.66 433.078   2
  -8   7   3 301.762 309.049   2
  -8   7   3 1525.57 489.948   3
  -8   7   4 2377.27 514.237   2
  -8   7   4 3434.09 628.061   3
  -8   7   5 1397.04 472.873   2
  -8   7   5 1814.00 485.702   3
  -8   8  -2 7694.05 946.847   3
  -8   8  -1 10249.1 1061.47   3
  -8   8   0 7319.30 903.324   3
  -8   8   1 3191.42 615.993   3
  -8   8   4 3390.21 604.122   2
  -7  -9  -7 776.967 414.736   5
  -7  -9  -6 2651.96 583.900   5
  -7  -9  -5 427.074 405.761   5
  -7  -9  -4 4646.09 769.484   5
  -7  -9  -1 912.016 347.242  10
  -7  -9   0 4063.81 641.121   7
  -7  -8  -9 9192.96 1009.09   5
  -7  -8  -8 2484.18 580.263   5
  -7  -8  -7 2347.12 569.304   5
  -7  -8  -6 13215.1 1146.00   5
  -7  -8  -5 10676.4 1038.79   5
  -7  -8  -4 3539.60 659.647   5
  -7  -8  -3 826.769 307.365   7
  -7  -8  -2 2128.49 446.918   7
  -7  -8  -1 18957.5 1244.56   7
  -7  -8   0 14943.2 1157.69   7
  -7  -8   1 3035.77 574.939   7
  -7  -7 -10 5631.99 804.854   5
  -7  -7  -9 11280.6 1080.58   5
  -7  -7  -8 6625.90 829.065   5
  -7  -7  -7 7052.53 827.001   5
  -7  -7  -6 1892.38 478.622   5
  -7  -7  -5 4229.38 651.122   5
  -7  -7  -5 4259.64 505.200   7
  -7  -7  -4 6113.10 770.930   5
  -7  -7  -4 5963.69 606.541   7
  -7  -7  -3 8555.36 896.511   5
  -7  -7  -3 8806.76 771.643   7
  -7  -7  -2 8647.81 802.464   7
  -7  -7  -1 393.739 241.152   7
  -7  -7   0 2512.54 510.075   7
  -7  -7   1 5003.71 713.055   7
  -7  -7   2 2350.17 531.612   7
  -7  -6 -11 1698.72 490.359   5
  -7  -6 -10 7668.30 881.497   5
  -7  -6  -9 2973.87 591.657   5
  -7  -6  -8 1610.55 445.953   5
  -7  -6  -7 14330.6 1093.91   5
  -7  -6  -6 30065.8 1526.93   5
  -7  -6  -5 11961.1 972.436   5
  -7  -6  -5 12197.7 838.392   7
  -7  -6  -4 8310.74 720.028   7
  -7  -6  -4 7850.39 808.554   5
  -7  -6  -3 4126.99 612.508   5
  -7  -6  -3 4363.49 543.483   7
  -7  -6  -2 26502.9 1293.31   7
  -7  -6  -1 20160.5 1194.67   7
  -7  -6   0 9264.68 857.554   7
  -7  -6   1 1408.28 395.432   7
  -7  -6   2 3048.76 578.204   7
  -7  -6   3 5100.75 735.119   7
  -7  -5 -11 3039.36 625.418   5
  -7  -5 -10 4655.80 703.762   5
  -7  -5  -9 6608.18 777.079   5
  -7  -5  -8 6875.15 767.680   5
  -7  -5  -7 3941.95 582.367   5
  -7  -5  -6 1972.19 437.105   5
  -7  -5  -5 38228.7 1609.87   5
  -7  -5  -4 37943.6 1612.51   5
  -7  -5  -3 14861.9 946.779   7
  -7  -5  -3 15353.2 1064.67   5
  -7  -5  -2 3822.79 540.468   7
  -7  -5  -1 10494.2 834.407   7
  -7  -5   0 14474.8 1023.73   7
  -7  -5   1 22216.2 1306.96   7
  -7  -5   2 4911.86 678.317   7
  -7  -5   3 5905.88 774.387   7
  -7  -5   4 2703.84 595.364   7
  -7  -4 -12 3667.11 648.932   5
  -7  -4 -11 4030.36 664.179   5
  -7  -4 -10 2580.39 528.618   5
  -7  -4  -9 5155.42 683.335   5
  -7  -4  -8 6028.62 681.453   5
  -7  -4  -7 16829.7 1080.98   5
  -7  -4  -6 19237.9 1111.69   5
  -7  -4  -5 2170.29 427.578   5
  -7  -4  -4 31786.5 1382.86   5
  -7  -4  -3 22641.0 1207.14   5
  -7  -4  -2 7695.28 729.269   7
  -7  -4  -2 6273.48 668.169   5
  -7  -4  -1 44296.7 1657.81   7
  -7  -4   0 11863.1 897.511   7
  -7  -4   1 2107.24 466.341   7
  -7  -4   2 30589.0 1536.72   7
  -7  -4   3 18625.7 1266.56   7
  -7  -4   4 13716.1 1147.74   7
  -7  -4   5 2782.24 587.059   7
  -7  -3 -12 939.882 392.586   5
  -7  -3 -11 2789.67 546.977   5
  -7  -3 -10 7221.41 779.845   5
  -7  -3  -9 12885.2 971.275   5
  -7  -3  -8 4566.61 589.583   5
  -7  -3  -7 12226.9 889.910   5
  -7  -3  -6 6992.24 697.665   3
  -7  -3  -6 6906.63 657.768   5
  -7  -3  -5 27039.8 1293.72   3
  -7  -3  -5 25835.0 1199.79   5
  -7  -3  -4 8706.99 739.922   3
  -7  -3  -4 7613.36 666.949   5
  -7  -3  -3 5461.65 585.610   5
  -7  -3  -3 5919.85 598.989   3
  -7  -3  -2 28261.4 1186.45   3
  -7  -3  -2 26158.5 1202.27   5
  -7  -3  -1 20580.0 967.998   3
  -7  -3  -1 18920.2 1105.88   7
  -7  -3   0 36736.3 1213.91   3
  -7  -3   0 33748.5 1476.14   7
  -7  -3   1 20380.1 1178.80   7
  -7  -3   2 2657.55 511.224   7
  -7  -3   3 7644.57 809.433   7
  -7  -3   4 29496.6 1589.94   7
  -7  -3   5 20252.4 1387.18   7
  -7  -3   6 6454.70 854.758   7
  -7  -2 -12 2236.52 528.492   5
  -7  -2 -11 2483.38 505.012   5
  -7  -2 -10 1089.79 373.553   5
  -7  -2  -9 4011.16 558.654   5
  -7  -2  -8 19996.4 1112.77   5
  -7  -2  -8 18757.2 1188.56   3
  -7  -2  -7 9085.69 835.829   3
  -7  -2  -7 9315.47 749.731   5
  -7  -2  -6 5316.30 555.929   5
  -7  -2  -6 6073.79 718.221   3
  -7  -2  -5 1009.08 300.293   5
  -7  -2  -5 3737.77 646.425   3
  -7  -2  -4 7909.07 858.066   3
  -7  -2  -4 3239.83 418.774   5
  -7  -2  -3 23947.4 1153.32   3
  -7  -2  -3 15810.4 874.939   5
  -7  -2  -2 38468.9 1374.94   3
  -7  -2  -2 32798.6 1249.49   5
  -7  -2  -1 12535.6 835.805   3
  -7  -2   0 19363.5 933.164   3
  -7  -2   0 12294.8 908.571   7
  -7  -2   1 13211.4 953.724   7
  -7  -2   1 18073.5 831.159   3
  -7  -2   2 14509.5 1008.09   7
  -7  -2   3 18601.6 1178.05   7
  -7  -2   4 17424.3 1205.83   7
  -7  -2   5 9266.43 926.778   7
  -7  -2   6 6612.70 825.422   7
  -7  -2   7 7017.18 897.166   7
  -7  -1 -12 4794.19 689.929   5
  -7  -1 -11 5521.60 716.565   5
  -7  -1 -10 13493.6 999.203   5
  -7  -1  -9 4511.06 635.146   3
  -7  -1  -9 4841.71 574.186   5
  -7  -1  -8 7013.16 793.361   3
  -7  -1  -8 7048.72 648.127   5
  -7  -1  -7 10756.3 655.379   1
  -7  -1  -7 11345.2 778.150   5
  -7  -1  -6 17957.7 924.513   5
  -7  -1  -6 16952.9 771.950   1
  -7  -1  -5 42612.0 1616.54   3
  -7  -1  -5 27845.1 1100.20   5
  -7  -1  -4 48580.5 1392.83   5
  -7  -1  -4 45573.9 1631.85   3
  -7  -1  -3 150.096 547.745   3
  -7  -1  -3 932.434 251.716   5
  -7  -1  -2 40565.3 1280.01   5
  -7  -1  -2 40088.6 1494.86   3
  -7  -1  -1 39520.5 1438.08   3
  -7  -1   0 26758.6 1216.00   3
  -7  -1   1 7782.96 753.032   7
  -7  -1   1 10441.8 869.274   3
  -7  -1   2 4678.90 541.215   3
  -7  -1   2 3917.63 568.229   7
  -7  -1   3 18347.7 1115.23   7
  -7  -1   4 29644.4 1492.96   7
  -7  -1   5 13069.9 1054.59   7
  -7  -1   6 975.388 403.366   7
  -7  -1   7 582.189 364.960   7
  -7   0 -12 1067.96 398.398   5
  -7   0 -11 4118.40 616.265   5
  -7   0 -10 2622.42 505.762   3
  -7   0 -10 3877.83 562.851   5
  -7   0  -9 9467.32 780.047   5
  -7   0  -9 9882.23 929.736   3
  -7   0  -9 8944.66 740.453   1
  -7   0  -8 17332.1 957.803   1
  -7   0  -8 17322.4 964.311   5
  -7   0  -7 2235.59 356.566   1
  -7   0  -7 2549.93 379.464   5
  -7   0  -6 2849.41 590.639   3
  -7   0  -6 4823.47 472.302   5
  -7   0  -5 3896.61 783.878   3
  -7   0  -5 2607.81 342.865   5
  -7   0  -4 25251.6 928.988   5
  -7   0  -4 26829.6 1443.92   3
  -7   0  -3 50870.7 1291.64   5
  -7   0  -3 57665.9 2091.42   3
  -7   0  -2 14252.2 1413.10   3
  -7   0   2 27853.2 1345.64   7
  -7   0   3 5076.89 621.171   7
  -7   0   4 217.777 263.102   7
  -7   0   5 2261.23 483.298   7
  -7   0   6 4373.08 650.641   7
  -7   0   7 4384.59 669.140   7
  -7   0   8 2981.45 586.924   7
  -7   1 -11 1280.51 387.630   3
  -7   1 -10 139.299 294.787   3
  -7   1 -10-423.857 338.745   1
  -7   1  -9 1760.52 411.170   1
  -7   1  -9 2227.46 403.269   5
  -7   1  -8 6104.60 633.162   1
  -7   1  -8 6577.70 600.552   5
  -7   1  -7 17459.0 877.827   5
  -7   1  -7 16718.4 974.538   1
  -7   1  -7 15583.4 1167.06   3
  -7   1  -6 28623.6 1522.42   3
  -7   1  -6 28375.5 1025.34   5
  -7   1  -5 1547.33 257.827   5
  -7   1  -5 10076.0 1405.33   3
  -7   1  -4 5442.49 400.643   5
  -7   1  -4 3218.00 1019.66   3
  -7   1  -3 30234.9 877.661   5
  -7   1   0 2738.24 356.312   3
  -7   1   1 8520.14 790.471   3
  -7   1   2 19528.4 1161.95   3
  -7   1   2 17074.3 1060.66   7
  -7   1   3 22420.3 1185.02   3
  -7   1   3 20013.9 1141.01   7
  -7   1   4 20382.3 1162.98   7
  -7   1   5 4676.89 625.014   7
  -7   1   6 1108.17 378.199   7
  -7   1   7 2161.31 502.032   7
  -7   1   8 7692.68 870.912   7
  -7   2 -11-25.5497 377.987   1
  -7   2 -10 7571.13 812.686   1
  -7   2 -10 5627.07 744.032   3
  -7   2  -9 12453.7 1091.83   3
  -7   2  -9 5498.90 687.230   1
  -7   2  -8 2307.62 656.926   3
  -7   2  -8 2094.88 433.908   1
  -7   2  -7 6101.39 640.964   1
  -7   2  -7 7087.97 966.551   3
  -7   2  -6 5712.52 996.135   3
  -7   2  -5 31088.7 2318.30   3
  -7   2  -2-499.011 811.182   3
  -7   2  -1 20243.5 1199.17   3
  -7   2   0 32182.7 1411.89   3
  -7   2   1 25715.2 1204.54   3
  -7   2   2 3736.32 471.291   3
  -7   2   3 14757.4 971.744   7
  -7   2   3 15454.2 902.764   3
  -7   2   4 5082.49 527.632   3
  -7   2   4 5186.42 623.472   7
  -7   2   5 18713.7 1142.02   7
  -7   2   6 4678.44 623.191   7
  -7   2   7 9841.16 917.670   7
  -7   3 -10 2102.05 512.909   1
  -7   3 -10 4187.79 720.863   3
  -7   3  -9 6068.94 808.590   3
  -7   3  -9 1951.67 481.156   1
  -7   3  -8 7527.55 947.942   3
  -7   3  -8 6730.09 744.474   1
  -7   3  -7 5729.76 676.175   1
  -7   3  -7 7365.75 1036.44   3
  -7   3  -6 121.736 1097.11   3
  -7   3  -3 28801.9 1712.63   3
  -7   3  -2 18818.0 1181.37   3
  -7   3  -1 1929.76 385.641   3
  -7   3   0 9672.29 780.161   3
  -7   3   1 10674.0 803.792   3
  -7   3   2 18650.7 1046.77   3
  -7   3   2 19444.0 1108.29   2
  -7   3   3 13361.0 926.887   7
  -7   3   3 13668.0 887.863   3
  -7   3   3 12321.3 948.633   2
  -7   3   4 23173.6 1152.82   3
  -7   3   4 22749.9 1199.56   7
  -7   3   4 23826.0 1340.91   2
  -7   3   5 143.787 228.787   7
  -7   3   5 324.681 326.462   2
  -7   3   6 9062.03 810.316   7
  -7   3   6 9594.31 967.992   2
  -7   3   7 8589.29 968.736   2
  -7   4  -9 10879.3 1032.65   1
  -7   4  -9 8896.84 971.956   3
  -7   4  -8 3947.23 635.395   1
  -7   4  -8 3849.93 804.781   3
  -7   4  -7 6950.63 1313.65   3
  -7   4  -7 4056.08 619.560   1
  -7   4  -4 8645.64 975.392   3
  -7   4  -3 2331.80 439.337   3
  -7   4  -2 15436.0 1050.14   3
  -7   4  -1 3040.65 511.890   3
  -7   4   0 13674.0 964.632   3
  -7   4   1 14218.4 922.281   2
  -7   4   1 14396.3 974.765   3
  -7   4   2 7899.91 739.631   3
  -7   4   2 7737.35 722.241   2
  -7   4   3 4798.62 614.559   2
  -7   4   3 5100.05 600.957   3
  -7   4   4 14775.8 978.988   3
  -7   4   4 14219.7 944.201   7
  -7   4   4 15090.6 1088.11   2
  -7   4   5 3449.72 501.895   7
  -7   4   5 3430.73 591.090   2
  -7   4   5 3955.33 540.944   3
  -7   4   6 1192.56 442.024   2
  -7   4   7-82.0610 343.428   2
  -7   5  -8 4806.07 721.692   1
  -7   5  -8 7392.18 1060.62   3
  -7   5  -7 1329.18 1217.63   3
  -7   5  -7 141.926 257.941   1
  -7   5  -4 12337.9 1128.98   3
  -7   5  -3 20167.9 1301.96   3
  -7   5  -2 6470.64 717.832   3
  -7   5  -1 2553.84 517.585   3
  -7   5   0 1049.87 308.717   2
  -7   5   0 1846.88 450.439   3
  -7   5   1 17301.4 1122.77   3
  -7   5   1 17243.0 1011.72   2
  -7   5   2 24145.0 1315.48   3
  -7   5   2 22791.2 1211.14   2
  -7   5   3 27602.3 1390.72   3
  -7   5   3 27306.0 1409.01   2
  -7   5   4 251.452 285.241   2
  -7   5   4 274.774 281.891   3
  -7   5   4 578.622 288.952   7
  -7   5   5 5087.11 713.202   2
  -7   5   5 4909.52 619.160   3
  -7   5   6 7111.87 859.555   2
  -7   5   6 5754.23 672.761   3
  -7   5   7 6411.09 860.524   2
  -7   6  -7 4576.06 1342.94   3
  -7   6  -7 12427.7 1139.20   1
  -7   6  -5 1187.35 566.205   3
  -7   6  -4 2550.43 513.528   3
  -7   6  -3 5365.70 703.419   3
  -7   6  -2 19337.8 1257.68   3
  -7   6  -1 12326.5 1020.66   3
  -7   6   0 16424.5 1146.33   3
  -7   6   0 16264.7 929.628   2
  -7   6   1 1257.84 327.595   2
  -7   6   1 2791.19 550.833   3
  -7   6   2 20787.2 1198.11   2
  -7   6   2 20178.4 1256.28   3
  -7   6   3 21515.3 1267.05   2
  -7   6   3 20230.3 1259.00   3
  -7   6   4 6000.82 718.162   3
  -7   6   4 6182.30 749.721   2
  -7   6   5 321.943 285.214   3
  -7   6   5 367.422 328.939   2
  -7   6   6 138.442 313.906   2
  -7   6   6 174.823 250.995   3
  -7   7  -6 5265.34 792.141   1
  -7   7  -5 4769.87 842.909   3
  -7   7  -4 15418.1 1322.99   3
  -7   7  -3 4095.63 666.357   3
  -7   7  -2 2230.23 506.995   3
  -7   7  -1 9409.53 938.531   3
  -7   7   0 19996.9 1335.83   3
  -7   7   1 17499.0 1234.46   3
  -7   7   2 3312.29 591.504   3
  -7   7   2 2603.12 483.184   2
  -7   7   3 457.654 315.429   3
  -7   7   3 127.767 205.183   2
  -7   7   4 6315.31 777.164   3
  -7   7   4 6463.04 782.398   2
  -7   7   5 3035.57 568.987   3
  -7   7   5 3197.78 610.670   2
  -7   7   6 6258.75 843.383   2
  -7   7   6 5900.57 766.049   3
  -7   8  -4 2843.26 619.250   3
  -7   8  -3 5454.87 792.754   3
  -7   8  -2 4751.62 740.500   3
  -7   8  -1 7000.29 837.507   3
  -7   8   0 6329.64 823.711   3
  -7   8   1 11298.8 1056.43   3
  -7   8   2 5086.32 724.049   3
  -7   8   3 10455.5 936.307   2
  -7   8   3 10283.3 1012.18   3
  -7   8   4 3319.41 601.244   2
  -7   8   4 3819.43 646.257   3
  -7   8   5 1510.10 483.966   2
  -7   8   5 2333.98 540.346   3
  -7   9  -1 4425.13 724.464   3
  -7   9   0 11335.7 1096.33   3
  -7   9   1 8311.14 964.647   3
  -6 -10  -7 1160.44 490.645   5
  -6 -10  -6 5180.21 805.700   5
  -6 -10  -5 6247.90 859.053   5
  -6 -10  -2 1209.47 432.190  10
  -6 -10  -1 6429.07 807.493  10
  -6 -10   0 8337.54 913.375  10
  -6  -9  -9 5928.75 842.398   5
  -6  -9  -8 4133.69 705.094   5
  -6  -9  -7 5183.19 746.939   5
  -6  -9  -6 6337.54 852.350   5
  -6  -9  -5 1199.99 444.708   5
  -6  -9  -4 1346.67 459.031   5
  -6  -9  -1 6578.50 726.198   7
  -6  -9  -1 6550.35 764.653  10
  -6  -9   0 2452.62 493.979  10
  -6  -9   0 2696.12 516.789   7
  -6  -9   1 8905.09 930.968   7
  -6  -8 -10 25685.3 1645.17   5
  -6  -8  -9 19169.1 1391.83   5
  -6  -8  -8 2953.21 606.921   5
  -6  -8  -7 2010.86 519.799   5
  -6  -8  -6 16181.0 1197.58   5
  -6  -8  -5 15642.4 1188.76   5
  -6  -8  -4 2995.03 562.396   5
  -6  -8  -3 487.177 357.385   5
  -6  -8  -3 780.413 273.096   7
  -6  -8  -2 10108.4 821.664   7
  -6  -8  -1 17885.9 1137.46   7
  -6  -8   0 5260.96 647.570  10
  -6  -8   0 5477.49 689.680   7
  -6  -8   1 2130.67 496.804   7
  -6  -8   2 3384.43 627.130   7
  -6  -7 -11 4559.34 736.191   5
  -6  -7 -10 337.690 309.630   5
  -6  -7  -9 8262.87 915.659   5
  -6  -7  -8 13882.1 1121.95   5
  -6  -7  -7 7240.52 801.821   5
  -6  -7  -6 4034.14 614.924   5
  -6  -7  -5 7877.26 804.541   5
  -6  -7  -4 27224.0 1484.31   5
  -6  -7  -4 26474.2 1141.10   7
  -6  -7  -3 4789.42 657.097   5
  -6  -7  -3 5360.74 558.860   7
  -6  -7  -2 3446.20 483.712   7
  -6  -7  -1 640.808 261.293   7
  -6  -7   0 3105.65 510.952   7
  -6  -7   1 11022.6 956.759   7
  -6  -7   1 11084.4 833.030  10
  -6  -7   2 7476.13 827.940   7
  -6  -7   3 1010.90 417.776   7
  -6  -7   4 8043.48 933.499   7
  -6  -6 -11 4229.19 688.163   5
  -6  -6 -10 7997.83 883.251   5
  -6  -6  -9 608.891 374.810   5
  -6  -6  -8 1271.34 380.335   5
  -6  -6  -7 12362.8 984.031   5
  -6  -6  -6 17759.8 1146.24   5
  -6  -6  -5 36464.5 1593.12   5
  -6  -6  -5 36257.3 1286.10   7
  -6  -6  -4 7743.55 625.486   7
  -6  -6  -4 7565.92 759.852   5
  -6  -6  -3 7064.12 614.201   7
  -6  -6  -3 7407.65 775.480   5
  -6  -6  -2 18094.8 995.252   7
  -6  -6  -2 20517.0 1233.77   5
  -6  -6  -1 19382.0 1088.00   7
  -6  -6   0 36503.9 1550.45   7
  -6  -6   1 1074.55 383.130   7
  -6  -6   1 1431.43 333.395  10
  -6  -6   2 3356.93 561.874   7
  -6  -6   3 11794.6 1027.18   7
  -6  -6   4 1290.56 406.702   7
  -6  -5 -12 940.428 444.283   5
  -6  -5 -11 1176.15 411.935   5
  -6  -5 -10 7532.10 827.990   5
  -6  -5  -9 10348.9 928.967   5
  -6  -5  -8 9011.50 840.131   5
  -6  -5  -7 314.188 273.028   5
  -6  -5  -6 11060.4 876.004   5
  -6  -5  -5 36705.7 1517.54   5
  -6  -5  -4 12311.5 895.022   5
  -6  -5  -3 8736.66 777.017   5
  -6  -5  -3 8020.68 652.650   7
  -6  -5  -2 5052.36 606.118   5
  -6  -5  -2 4942.83 551.187   7
  -6  -5  -1 14437.1 881.187   7
  -6  -5   0 29361.5 1334.87   7
  -6  -5   1 31165.7 1437.20   7
  -6  -5   2 6621.57 734.856   7
  -6  -5   3 4417.47 642.662   7
  -6  -5   4 2796.48 547.926   7
  -6  -5   5 7021.40 863.772   7
  -6  -4 -12 14530.5 1192.20   5
  -6  -4 -11 6483.17 791.641   5
  -6  -4 -10 3368.38 570.695   5
  -6  -4  -9 4494.73 620.620   5
  -6  -4  -8 29166.8 1407.01   5
  -6  -4  -7 12045.4 884.230   5
  -6  -4  -6 6943.60 667.278   5
  -6  -4  -5 1199.72 362.935   5
  -6  -4  -4 14499.1 905.687   5
  -6  -4  -3 11050.9 796.111   5
  -6  -4  -2 47266.8 1544.36   7
  -6  -4  -2 49248.7 1658.02   5
  -6  -4  -1 25102.4 1153.46   7
  -6  -4   0 6860.30 643.114   7
  -6  -4   1 8523.85 749.634   7
  -6  -4   2 10649.3 874.749   7
  -6  -4   3 23558.3 1338.62   7
  -6  -4   4 29450.9 1559.54   7
  -6  -4   5 7406.41 860.342   7
  -6  -4   6 5585.40 796.082   7
  -6  -3 -12 4584.82 696.253   5
  -6  -3 -11 5099.57 700.948   5
  -6  -3 -10 6286.99 722.096   5
  -6  -3  -9 9555.01 828.296   5
  -6  -3  -8 1372.25 375.076   5
  -6  -3  -7 7310.08 684.605   5
  -6  -3  -6 7414.13 652.879   5
  -6  -3  -5 13027.3 828.370   5
  -6  -3  -5 13328.0 873.951   3
  -6  -3  -4 20687.6 1035.09   3
  -6  -3  -4 19656.9 996.625   5
  -6  -3  -3 4670.16 502.098   3
  -6  -3  -3 4129.21 479.636   5
  -6  -3  -2 45482.4 1505.17   5
  -6  -3  -2 46642.1 1400.06   3
  -6  -3  -1 28460.0 1221.20   7
  -6  -3  -1 29760.3 1064.87   3
  -6  -3   0 7102.60 497.903   3
  -6  -3   0 6710.96 644.406   7
  -6  -3   1 13934.0 912.412   7
  -6  -3   2 4782.13 596.356   7
  -6  -3   3 815.959 339.359   7
  -6  -3   4 46738.9 1879.99   7
  -6  -3   5 36617.7 1737.55   7
  -6  -3   6 5789.93 768.032   7
  -6  -3   7 1621.29 505.894   7
  -6  -2 -12 2583.97 573.050   5
  -6  -2 -11 7292.34 815.585   5
  -6  -2 -10 317.169 286.114   5
  -6  -2  -9 12312.3 911.722   5
  -6  -2  -8 10884.0 816.875   5
  -6  -2  -7 18032.9 976.519   5
  -6  -2  -7 17856.5 1073.52   3
  -6  -2  -7 16966.9 697.696   1
  -6  -2  -6 23433.1 740.780   1
  -6  -2  -6 26512.1 1251.04   3
  -6  -2  -6 25010.1 1099.79   5
  -6  -2  -5 40950.0 907.815   1
  -6  -2  -5 43045.9 1382.65   5
  -6  -2  -4 7974.72 597.206   5
  -6  -2  -4 10843.1 853.192   3
  -6  -2  -3 86609.1 1949.80   3
  -6  -2  -3 87999.0 1861.21   5
  -6  -2  -2 33556.6 1166.00   3
  -6  -2  -2 28761.3 1103.41   5
  -6  -2  -1 12463.2 754.567   3
  -6  -2   0 49765.6 1289.67   3
  -6  -2   0 43061.4 1520.94   7
  -6  -2   1 26359.8 1224.89   7
  -6  -2   1 31701.0 991.333   3
  -6  -2   2 10842.1 810.220   7
  -6  -2   2 12707.6 592.130   3
  -6  -2   3 11142.6 859.099   7
  -6  -2   4 6420.49 700.937   7
  -6  -2   5 16570.6 1147.17   7
  -6  -2   6 22654.7 1389.73   7
  -6  -2   7 6645.68 824.274   7
  -6  -2   8 4582.10 732.326   7
  -6  -1 -12 15469.8 1212.89   5
  -6  -1 -11 16007.5 1158.51   5
  -6  -1 -10 7658.65 779.115   5
  -6  -1  -9-83.7706 219.049   1
  -6  -1  -9 41.6845 252.891   3
  -6  -1  -9 460.681 267.712   5
  -6  -1  -8 9932.41 756.615   5
  -6  -1  -8 9048.15 818.732   3
  -6  -1  -8 9698.81 649.346   1
  -6  -1  -7 19605.8 851.719   1
  -6  -1  -7 21029.7 1169.89   3
  -6  -1  -7 19558.0 972.294   5
  -6  -1  -6 47740.9 1633.86   3
  -6  -1  -6 45968.5 1393.99   5
  -6  -1  -6 42526.4 1164.23   1
  -6  -1  -5 32761.6 1136.05   5
  -6  -1  -5 36879.5 1492.93   3
  -6  -1  -4 8683.56 754.538   3
  -6  -1  -4 9413.92 589.103   5
  -6  -1  -3 14214.9 916.714   3
  -6  -1  -3 14240.8 703.734   5
  -6  -1  -2 21689.2 1067.10   3
  -6  -1  -2 20303.5 847.027   5
  -6  -1  -1 6378.14 675.413   3
  -6  -1   0 39886.3 1382.06   3
  -6  -1   1 5368.23 720.683   3
  -6  -1   1 82.5098 290.969   7
  -6  -1   2 18109.8 872.821   3
  -6  -1   2 13712.0 891.181   7
  -6  -1   3 2425.40 429.717   7
  -6  -1   4 7621.94 741.692   7
  -6  -1   5 7608.95 766.058   7
  -6  -1   6 3252.67 555.206   7
  -6  -1   7 618.893 347.081   7
  -6  -1   8 2305.44 514.318   7
  -6   0 -12 2320.64 524.046   5
  -6   0 -11 3076.63 538.102   5
  -6   0 -10 5138.60 607.038   1
  -6   0 -10 6233.16 689.368   5
  -6   0 -10 3920.79 599.142   3
  -6   0  -9 15115.8 1060.31   3
  -6   0  -9 15971.1 1005.04   5
  -6   0  -9 13736.8 904.006   1
  -6   0  -8 19325.4 1029.26   5
  -6   0  -8 18960.1 985.664   1
  -6   0  -8 21184.3 1219.19   3
  -6   0  -7 7648.34 610.029   5
  -6   0  -7 7482.37 593.462   1
  -6   0  -6 5156.29 469.627   5
  -6   0  -6 5312.93 483.130   1
  -6   0  -5 7371.80 817.100   3
  -6   0  -5 7753.98 534.396   5
  -6   0  -4 31973.5 987.464   5
  -6   0  -4 34595.6 1497.12   3
  -6   0  -3 23801.5 1355.87   3
  -6   0  -3 25385.3 847.957   5
  -6   0  -2 10605.0 560.900   5
  -6   0   2 12896.3 863.362   7
  -6   0   3 7136.17 675.401   7
  -6   0   4 4738.12 571.242   7
  -6   0   5 18180.9 1111.55   7
  -6   0   6 10774.3 904.157   7
  -6   0   7 11433.1 974.816   7
  -6   0   8-24.2923 270.705   7
  -6   0   9 1788.03 463.200   7
  -6   1 -12 3699.61 627.111   5
  -6   1 -11 5424.01 698.710   1
  -6   1 -11 6800.50 771.224   5
  -6   1 -10-390.002 343.830   3
  -6   1 -10 27.7517 308.443   1
  -6   1 -10 454.910 313.298   5
  -6   1  -9 2396.08 425.432   5
  -6   1  -9 1710.48 387.881   1
  -6   1  -8 13118.4 886.771   1
  -6   1  -8 13432.3 841.431   5
  -6   1  -7 30993.4 1171.02   5
  -6   1  -7 27851.0 1209.56   1
  -6   1  -7 26749.6 1348.09   3
  -6   1  -6 47942.9 1815.10   3
  -6   1  -6 50760.3 1356.11   5
  -6   1  -5 1950.59 280.008   5
  -6   1  -5 3337.50 838.844   3
  -6   1  -4 20004.6 720.229   5
  -6   1  -4 5768.52 1076.21   3
  -6   1  -3 28653.5 790.122   5
  -6   1  -2 65167.0 1139.55   5
  -6   1  -1 37831.6 1609.45   3
  -6   1   0 3179.53 307.688   3
  -6   1   1 1193.03 253.293   3
  -6   1   2 22946.9 975.108   3
  -6   1   3 29046.7 1262.47   7
  -6   1   3 32401.3 1131.69   3
  -6   1   4 53089.6 1716.32   7
  -6   1   4 62835.9 1548.32   3
  -6   1   5 5229.27 599.375   7
  -6   1   6 1683.76 407.188   7
  -6   1   7 4100.07 603.944   7
  -6   1   8 4691.02 661.061   7
  -6   1   9 2423.83 525.796   7
  -6   2 -11 2279.03 513.880   1
  -6   2 -10 13430.4 990.922   5
  -6   2 -10 13257.8 1018.06   3
  -6   2 -10 12053.2 1008.53   1
  -6   2  -9 9540.19 860.965   1
  -6   2  -9 8794.47 742.823   5
  -6   2  -8 572.301 304.130   1
  -6   2  -8 489.615 234.237   5
  -6   2  -7 7363.58 886.217   3
  -6   2  -7 6165.60 640.448   1
  -6   2  -7 6291.45 528.671   5
  -6   2  -6 8909.85 562.383   5
  -6   2  -6 16373.8 1444.20   3
  -6   2  -5 11852.8 565.718   5
  -6   2  -4 39873.2 902.613   5
  -6   2  -3 5737.16 305.811   5
  -6   2  -3-1235.21 923.665   3
  -6   2  -2 37116.6 1518.59   3
  -6   2  -1 21602.6 1057.93   3
  -6   2   0 4097.68 465.367   3
  -6   2   1 17646.9 933.700   2
  -6   2   1 18960.8 932.210   3
  -6   2   2 147.317 236.910   2
  -6   2   2 569.434 274.099   3
  -6   2   3-25.6773 230.378   7
  -6   2   3 241.584 276.985   2
  -6   2   4 21704.9 966.049   3
  -6   2   4 20275.0 1157.09   2
  -6   2   4 18920.9 1021.11   7
  -6   2   5 31341.0 1152.90   3
  -6   2   5 31111.2 1494.05   2
  -6   2   5 29409.3 1299.33   7
  -6   2   6 11688.1 991.901   2
  -6   2   6 11431.1 874.461   7
  -6   2   7 1393.98 433.470   2
  -6   2   7 1333.70 371.716   7
  -6   2   8 224.290 255.329   7
  -6   2   8 234.296 342.465   2
  -6   3 -11 715.645 347.913   1
  -6   3 -10 2116.78 518.458   1
  -6   3  -9 10044.7 940.607   1
  -6   3  -9 10381.6 949.332   3
  -6   3  -8 24793.0 1424.48   3
  -6   3  -8 25221.2 1384.02   1
  -6   3  -7 8996.34 1033.76   3
  -6   3  -7 6883.76 718.304   1
  -6   3  -6 7612.73 1295.53   3
  -6   3  -4 1572.13 661.355   3
  -6   3  -3 128991. 3031.21   3
  -6   3  -2 3429.42 456.913   3
  -6   3  -1 2947.22 452.983   3
  -6   3   0 7309.28 582.704   2
  -6   3   0 7057.64 642.248   3
  -6   3   1 17587.5 949.360   3
  -6   3   1 17977.4 931.725   2
  -6   3   2 41659.4 1479.47   2
  -6   3   2 42236.6 1439.51   3
  -6   3   3 44171.7 1625.69   2
  -6   3   3 45412.9 1484.80   3
  -6   3   4 1113.65 322.672   7
  -6   3   4 1517.31 414.367   2
  -6   3   4 877.616 285.524   3
  -6   3   5 17393.5 1131.60   2
  -6   3   5 17114.0 930.990   3
  -6   3   5 16020.0 929.735   7
  -6   3   6 13461.2 1058.05   2
  -6   3   6 12218.7 868.840   7
  -6   3   7 8524.82 901.200   2
  -6   3   7 7404.65 714.585   7
  -6   3   8 3761.40 673.029   2
  -6   4 -10 6405.00 848.142   1
  -6   4  -9 2104.98 516.204   1
  -6   4  -8 3198.35 664.448   3
  -6   4  -8 4998.65 680.672   1
  -6   4  -7 2902.00 931.117   3
  -6   4  -7 1466.55 404.094   1
  -6   4  -4 7434.64 768.586   3
  -6   4  -3 366.608 292.574   3
  -6   4  -2 5757.78 619.825   3
  -6   4  -1 19391.5 858.519   2
  -6   4  -1 20741.1 1087.24   3
  -6   4   0 15535.7 818.479   2
  -6   4   0 15504.2 967.009   3
  -6   4   1 6017.74 631.902   3
  -6   4   1 6236.05 583.365   2
  -6   4   2 6175.50 619.684   3
  -6   4   2 6001.48 607.255   2
  -6   4   3 12049.2 828.861   3
  -6   4   3 12485.4 878.591   2
  -6   4   4 26467.7 1220.75   3
  -6   4   4 26810.4 1344.86   2
  -6   4   4 26060.1 1161.12   7
  -6   4   5 2913.62 416.098   7
  -6   4   5 2811.29 520.863   2
  -6   4   5 2692.81 435.739   3
  -6   4   6 2522.78 418.583   3
  -6   4   6 3131.35 450.758   7
  -6   4   6 2941.50 549.878   2
  -6   4   7 3025.41 575.331   2
  -6   4   8 6570.75 851.758   2
  -6   5  -9 11857.3 1120.06   1
  -6   5  -8 15825.9 1305.94   3
  -6   5  -8 14126.5 1168.68   1
  -6   5  -7 26665.4 1529.82   1
  -6   5  -7 15845.1 1640.29   3
  -6   5  -6 1920.53 455.236   1
  -6   5  -5 2884.05 428.744   3
  -6   5  -4 36972.0 1752.85   3
  -6   5  -3 36035.3 1577.84   3
  -6   5  -2 16043.9 1042.98   3
  -6   5  -1 4366.49 591.173   3
  -6   5  -1 3741.50 399.680   2
  -6   5   0 5967.67 536.879   2
  -6   5   0 7299.18 710.582   3
  -6   5   1 27796.8 1173.21   2
  -6   5   1 27365.9 1303.99   3
  -6   5   2 33158.5 1355.08   2
  -6   5   2 32129.8 1423.28   3
  -6   5   3 9890.75 809.170   3
  -6   5   3 10019.5 811.381   2
  -6   5   4 6374.81 658.646   3
  -6   5   4 6395.00 695.639   2
  -6   5   4 7060.16 610.192   7
  -6   5   5 4830.11 636.252   2
  -6   5   5 5281.98 621.735   3
  -6   5   6 10330.0 963.518   2
  -6   5   6 9152.97 791.348   3
  -6   5   7 8123.57 900.787   2
  -6   5   8 1647.36 517.841   2
  -6   6  -8 2322.99 560.349   1
  -6   6  -7 25624.1 1588.46   1
  -6   6  -7 7443.03 1200.64   3
  -6   6  -6 7059.26 822.234   1
  -6   6  -5 816.495 510.228   3
  -6   6  -4 1332.23 342.316   3
  -6   6  -3 10540.2 903.686   3
  -6   6  -2 32385.4 1516.38   3
  -6   6  -1 23032.6 1275.88   3
  -6   6   0 6889.04 740.501   3
  -6   6   0 6935.05 577.188   2
  -6   6   1 1264.51 298.983   2
  -6   6   1 1243.08 385.857   3
  -6   6   2 3793.16 560.042   3
  -6   6   2 3825.52 508.182   2
  -6   6   3 11606.8 928.451   3
  -6   6   3 11855.7 890.628   2
  -6   6   4 12014.0 945.591   3
  -6   6   4 12532.1 967.844   2
  -6   6   5 9190.33 871.034   2
  -6   6   5 8610.04 814.297   3
  -6   6   6 167.220 259.811   3
  -6   6   6 238.055 286.901   2
  -6   6   7 1929.08 552.583   2
  -6   6   7 1441.94 399.794   3
  -6   6   8 3874.76 669.040   2
  -6   7  -6 4442.89 704.469   1
  -6   7  -5 17332.8 1478.32   3
  -6   7  -4 11404.2 1022.92   3
  -6   7  -3 2233.37 479.231   3
  -6   7  -2 1664.96 461.589   3
  -6   7  -1 4021.42 621.632   3
  -6   7   0 11565.3 972.886   3
  -6   7   1 15011.7 1092.90   3
  -6   7   1 13367.2 856.818   2
  -6   7   2 7467.31 694.650   2
  -6   7   2 6894.50 756.884   3
  -6   7   3 3865.55 584.178   3
  -6   7   3 3627.47 536.803   2
  -6   7   4 11336.1 975.202   3
  -6   7   4 10795.1 927.227   2
  -6   7   5 7093.11 792.234   3
  -6   7   5 6841.74 791.264   2
  -6   7   6 4766.17 705.122   2
  -6   7   6 4825.29 663.491   3
  -6   7   7 5947.81 817.200   2
  -6   7   7 4699.21 667.885   3
  -6   8  -5 479.185 368.917   1
  -6   8  -4 10489.4 1024.57   3
  -6   8  -3 13105.0 1103.46   3
  -6   8  -2 7519.15 834.115   3
  -6   8  -1 2957.34 578.044   3
  -6   8   0 3530.85 610.171   3
  -6   8   1 11183.8 1009.73   3
  -6   8   2 15622.7 1177.63   3
  -6   8   2 15844.1 1025.89   2
  -6   8   3 16166.4 1200.82   3
  -6   8   3 9850.37 861.562   2
  -6   8   4 2688.44 508.662   2
  -6   8   4 2411.98 523.648   3
  -6   8   5 1852.97 485.369   3
  -6   8   5 1681.76 467.355   2
  -6   8   6 3000.12 602.570   2
  -6   8   6 2410.63 523.207   3
  -6   8   7 6596.01 832.861   3
  -6   9  -4 4088.75 693.030   3
  -6   9  -3 952.243 399.990   3
  -6   9  -2 1430.82 476.961   3
  -6   9  -1 2969.67 614.734   3
  -6   9   0 6448.03 813.717   3
  -6   9   1 11504.3 1057.65   3
  -6   9   2 2212.58 544.398   3
  -6   9   3 6200.23 815.012   3
  -6   9   4 4412.10 651.191   2
  -6   9   4 4814.96 719.276   3
  -6   9   5 5495.93 773.665   3
  -6   9   5 5425.08 760.086   2
  -5 -10  -8 2663.89 596.105   5
  -5 -10  -7 135.774 278.506   5
  -5 -10  -6 1294.49 429.359   5
  -5 -10  -5 10370.1 1050.86   5
  -5 -10  -4 8290.47 936.134   5
  -5 -10  -2 153.123 292.549  10
  -5 -10  -1 5184.62 723.744  10
  -5 -10   0 6959.73 830.530  10
  -5 -10   1 4473.23 685.247  10
  -5  -9 -10 7656.31 947.995   5
  -5  -9  -9 16498.8 1306.32   5
  -5  -9  -8 9456.16 973.183   5
  -5  -9  -7 15638.9 1217.07   5
  -5  -9  -6 2894.97 570.423   5
  -5  -9  -5 6492.13 805.206   5
  -5  -9  -4 11610.2 1065.56   5
  -5  -9  -3 9555.83 964.835   5
  -5  -9  -1 3605.31 514.030   7
  -5  -9  -1 4253.02 644.287  10
  -5  -9   0 971.660 374.292  10
  -5  -9   0 588.806 275.933   7
  -5  -9   1 7474.53 808.314   7
  -5  -9   1 8577.98 854.233  10
  -5  -9   2 7644.11 865.249   7
  -5  -8 -11 5111.52 802.038   5
  -5  -8 -10 12042.6 1125.85   5
  -5  -8  -9 6255.57 801.331   5
  -5  -8  -8 997.546 371.514   5
  -5  -8  -7 10649.9 978.543   5
  -5  -8  -6 14459.3 1095.96   5
  -5  -8  -5 27661.2 1480.37   5
  -5  -8  -4 6680.79 779.478   5
  -5  -8  -3 3061.30 417.346   7
  -5  -8  -3 3215.53 572.878   5
  -5  -8  -2 1665.86 359.941   7
  -5  -8  -1 8439.45 734.906   7
  -5  -8   0 16072.5 1060.70   7
  -5  -8   0 15627.1 1055.01  10
  -5  -8   1 6076.49 678.716  10
  -5  -8   1 5934.37 697.033   7
  -5  -8   2 583.842 342.643   7
  -5  -8   2 409.054 254.702  10
  -5  -8   3 3559.07 617.546   7
  -5  -7 -11 1118.64 463.194   5
  -5  -7 -10-77.6548 339.323   5
  -5  -7  -9 9815.05 952.938   5
  -5  -7  -8 19862.0 1284.53   5
  -5  -7  -7 3206.37 563.898   5
  -5  -7  -6 2832.21 525.939   5
  -5  -7  -5 11817.5 945.387   5
  -5  -7  -4 28226.1 1069.73   7
  -5  -7  -4 26282.7 1368.48   5
  -5  -7  -3 12531.0 982.427   5
  -5  -7  -3 13220.7 784.201   7
  -5  -7  -2 12833.2 820.061   7
  -5  -7  -2 12998.2 994.018   5
  -5  -7  -1 17720.7 1006.72   7
  -5  -7   0 9051.72 771.130   7
  -5  -7   1 36330.1 1585.20   7
  -5  -7   1 34957.2 1450.00  10
  -5  -7   2 6710.25 742.691   7
  -5  -7   2 6390.82 639.605  10
  -5  -7   3 1385.72 414.841   7
  -5  -7   4 2483.32 534.036   7
  -5  -6 -12 9447.57 1026.75   5
  -5  -6 -11 8326.62 911.586   5
  -5  -6 -10 1645.83 462.761   5
  -5  -6  -9 3293.83 588.417   5
  -5  -6  -8 6964.40 763.801   5
  -5  -6  -7 13765.2 998.345   5
  -5  -6  -6 25001.5 1296.50   5
  -5  -6  -6 24839.3 926.272   7
  -5  -6  -5 3528.66 537.485   5
  -5  -6  -5 4068.84 400.957   7
  -5  -6  -4 26214.9 1290.54   5
  -5  -6  -4 25192.9 983.579   7
  -5  -6  -3 5758.20 505.796   7
  -5  -6  -3 6335.27 683.828   5
  -5  -6  -2 39774.6 1354.04   7
  -5  -6  -2 39861.7 1610.79   5
  -5  -6  -1 23557.6 1106.18   7
  -5  -6   0 28919.2 1289.08   7
  -5  -6   1 896.211 329.332   7
  -5  -6   1 1064.24 287.543  10
  -5  -6   2 13685.9 837.740  10
  -5  -6   2 13396.8 983.524   7
  -5  -6   3 7697.19 794.334   7
  -5  -6   4 8891.99 910.121   7
  -5  -6   5-38.4048 251.691   7
  -5  -5 -12 357.711 312.482   5
  -5  -5 -11 2311.44 534.593   5
  -5  -5 -10 13149.6 1055.91   5
  -5  -5  -9 19861.8 1222.34   5
  -5  -5  -8 8875.53 814.700   5
  -5  -5  -7 5764.39 649.867   5
  -5  -5  -6 6521.26 662.839   5
  -5  -5  -5 9691.75 767.832   5
  -5  -5  -4 11132.9 806.083   5
  -5  -5  -3 64584.6 1871.80   5
  -5  -5  -3 65354.7 1598.15   7
  -5  -5  -2 10648.8 811.133   5
  -5  -5  -2 10464.3 675.970   7
  -5  -5  -1 8097.23 632.697   7
  -5  -5   0 33082.6 1309.96   7
  -5  -5   1 19570.9 1067.17   7
  -5  -5   2 17458.6 848.984  10
  -5  -5   2 16238.3 1033.97   7
  -5  -5   3 2862.88 494.862   7
  -5  -5   4 1467.98 430.198   7
  -5  -5   5 24042.7 1450.26   7
  -5  -5   6 3742.29 651.597   7
  -5  -4 -12 11403.2 1077.56   5
  -5  -4 -11 5692.91 764.767   5
  -5  -4 -10 3596.10 572.611   5
  -5  -4  -9 16779.3 1090.32   5
  -5  -4  -8 32938.4 1437.98   5
  -5  -4  -7 9149.10 760.884   5
  -5  -4  -6 8862.28 727.518   5
  -5  -4  -5 8296.71 687.124   5
  -5  -4  -4 13425.4 827.397   5
  -5  -4  -3 55808.5 1615.36   5
  -5  -4  -2 21038.3 948.654   7
  -5  -4  -2 20620.9 1026.97   5
  -5  -4  -1 5180.27 559.587   5
  -5  -4  -1 5575.60 544.417   7
  -5  -4   0 336.344 247.966   7
  -5  -4   1 11084.6 784.793   7
  -5  -4   2 5911.48 615.168   7
  -5  -4   2 6029.99 459.951  10
  -5  -4   3 16112.3 1054.80   7
  -5  -4   4 18393.7 1171.22   7
  -5  -4   5 3424.84 585.833   7
  -5  -4   6 4960.01 707.950   7
  -5  -4   7 6240.56 831.779   7
  -5  -3 -12 3096.29 592.064   5
  -5  -3 -11 5295.47 712.447   5
  -5  -3 -10 17903.7 1178.01   5
  -5  -3  -9 2184.85 431.053   5
  -5  -3  -8 3913.69 531.695   5
  -5  -3  -7 11452.4 503.347   1
  -5  -3  -7 8351.76 684.068   5
  -5  -3  -6 33338.5 1266.84   5
  -5  -3  -6 34115.5 668.497   1
  -5  -3  -5 40602.4 1356.51   5
  -5  -3  -5 40480.0 495.216   1
  -5  -3  -4 54384.8 1519.10   5
  -5  -3  -4 54038.4 1531.06   3
  -5  -3  -3 12371.3 744.276   5
  -5  -3  -3 12243.9 715.331   3
  -5  -3  -3 11934.1 292.109   1
  -5  -3  -2 8198.12 614.971   5
  -5  -3  -2 7292.93 321.998   1
  -5  -3  -1 30947.1 991.911   3
  -5  -3  -1 31842.0 1161.27   7
  -5  -3  -1 31592.3 1177.64   5
  -5  -3   0 62121.2 1653.92   7
  -5  -3   1 16459.1 888.076   7
  -5  -3   2 2929.26 473.335   7
  -5  -3   3 1551.87 373.715   7
  -5  -3   4 8156.63 774.531   7
  -5  -3   5 27780.2 1431.24   7
  -5  -3   6 11288.4 984.976   7
  -5  -3   7 2595.54 572.515   7
  -5  -3   8 4987.39 742.981   7
  -5  -2 -12 6788.54 849.151   5
  -5  -2 -11 8630.86 880.025   5
  -5  -2 -10 1562.07 435.846   5
  -5  -2  -9 15732.5 1032.94   5
  -5  -2  -9 17520.0 882.158   1
  -5  -2  -8 22936.9 897.340   1
  -5  -2  -8 23326.8 1162.68   5
  -5  -2  -7 36718.7 1354.32   5
  -5  -2  -7 34859.6 999.108   1
  -5  -2  -7 37279.9 1435.43   3
  -5  -2  -6 7924.42 674.213   3
  -5  -2  -6 7628.58 604.075   5
  -5  -2  -6 7970.15 437.546   1
  -5  -2  -5 30367.8 1216.68   3
  -5  -2  -5 28607.4 705.247   1
  -5  -2  -5 30057.0 1105.12   5
  -5  -2  -4 67702.5 1573.12   5
  -5  -2  -4 65577.2 1693.70   3
  -5  -2  -3 92128.6 1223.56   1
  -5  -2  -3 96759.6 1832.93   5
  -5  -2  -3 98787.1 1898.14   3
  -5  -2  -2 15974.5 773.564   5
  -5  -2  -2 20139.4 877.972   3
  -5  -2  -1 440.062 215.897   5
  -5  -2  -1 5584.70 526.034   3
  -5  -2   0 30762.7 1157.42   7
  -5  -2   0 34486.0 977.356   3
  -5  -2   1 82185.2 1380.50   3
  -5  -2   1 78185.0 1870.38   7
  -5  -2   2 1068.60 336.637   7
  -5  -2   2 1995.49 266.262   3
  -5  -2   3 60.4081 266.075   7
  -5  -2   4 10083.8 808.936   7
  -5  -2   5 3330.62 530.363   7
  -5  -2   6 20313.8 1243.48   7
  -5  -2   7 9281.09 907.607   7
  -5  -2   8 1017.32 413.432   7
  -5  -1 -12 8812.38 943.117   5
  -5  -1 -11 16334.6 1100.04   1
  -5  -1 -11 15453.8 1154.05   5
  -5  -1 -10 6844.78 739.228   5
  -5  -1 -10 7182.83 690.901   1
  -5  -1  -9 9842.81 813.406   5
  -5  -1  -9 7768.84 643.967   1
  -5  -1  -8 29281.9 1263.04   5
  -5  -1  -8 27633.0 1080.95   1
  -5  -1  -8 27104.7 1273.86   3
  -5  -1  -7 64560.2 1880.24   3
  -5  -1  -7 66145.4 1763.23   5
  -5  -1  -7 65464.8 1521.73   1
  -5  -1  -6 40188.8 1443.40   3
  -5  -1  -6 39923.2 1089.21   1
  -5  -1  -6 40567.2 1284.97   5
  -5  -1  -5 10601.0 528.996   1
  -5  -1  -5 11021.7 627.566   5
  -5  -1  -4 683.362 227.998   5
  -5  -1  -4-397.161 482.243   3
  -5  -1  -3 50994.6 1457.13   3
  -5  -1  -3 53157.6 1251.24   5
  -5  -1  -2 20485.5 951.344   3
  -5  -1  -2 19396.7 742.740   5
  -5  -1  -1 69878.2 1609.02   3
  -5  -1  -1 64815.7 1391.24   5
  -5  -1   0 40296.0 1342.68   3
  -5  -1   1 8552.07 658.212   7
  -5  -1   1 8608.46 717.548   3
  -5  -1   2 31974.7 1231.89   7
  -5  -1   2 36337.7 1225.48   3
  -5  -1   3 14260.0 703.146   3
  -5  -1   3 11094.3 764.280   7
  -5  -1   4 10436.9 783.410   7
  -5  -1   5 21034.2 1160.29   7
  -5  -1   6 3594.95 551.603   7
  -5  -1   7 4537.84 632.885   7
  -5  -1   8 10384.9 963.021   7
  -5  -1   9 1462.38 427.976   7
  -5   0 -12 6314.08 807.956   1
  -5   0 -12 1620.59 465.872   5
  -5   0 -11 1895.56 472.132   5
  -5   0 -11 3366.48 604.277   1
  -5   0 -10 12784.8 983.474   5
  -5   0 -10 11598.4 883.962   1
  -5   0  -9 12296.2 853.471   1
  -5   0  -9 14186.9 956.154   5
  -5   0  -9 12540.4 901.810   3
  -5   0  -8 7271.88 695.188   3
  -5   0  -8 6445.20 611.501   5
  -5   0  -8 6541.24 601.480   1
  -5   0  -7 1871.54 344.770   1
  -5   0  -7 2059.79 357.079   5
  -5   0  -6 7565.21 543.252   1
  -5   0  -6 8220.36 579.483   5
  -5   0  -5 19770.5 1050.65   3
  -5   0  -5 20316.7 806.599   5
  -5   0  -4 46772.5 1124.54   5
  -5   0  -4 48888.8 1592.82   3
  -5   0  -3 93921.9 1500.65   5
  -5   0  -3 88811.9 2432.45   3
  -5   0  -2 38859.2 925.382   5
  -5   0   1 30603.7 1185.51   3
  -5   0   2 85385.9 1933.63   7
  -5   0   2 103813. 1988.84   3
  -5   0   3 19425.9 809.154   3
  -5   0   3 17038.9 910.017   7
  -5   0   4 16819.4 948.000   7
  -5   0   4 20504.9 825.624   3
  -5   0   5 26677.8 1243.05   7
  -5   0   6 26769.0 1322.38   7
  -5   0   7 6139.51 683.129   7
  -5   0   8 281.273 270.672   7
  -5   0   9 3203.46 584.601   7
  -5   0  10 1881.67 470.575   7
  -5   1 -12 10873.6 1030.41   1
  -5   1 -12 9338.33 959.534   5
  -5   1 -11 8901.82 877.819   1
  -5   1 -10 756.177 353.501   1
  -5   1 -10 630.828 275.293   3
  -5   1  -9 3721.40 527.865   1
  -5   1  -9 3129.62 517.446   3
  -5   1  -8 20306.4 1085.22   1
  -5   1  -8 21048.1 1070.72   5
  -5   1  -7 29404.6 1210.66   1
  -5   1  -7 32109.7 1201.98   5
  -5   1  -6 36522.8 1172.88   5
  -5   1  -6 34604.9 1237.74   1
  -5   1  -6 33773.7 1420.87   3
  -5   1  -5 14377.2 1096.10   3
  -5   1  -5 11850.0 609.537   5
  -5   1  -4 2853.91 282.477   5
  -5   1  -3 86311.9 1276.09   5
  -5   1  -2 114752. 2830.79   3
  -5   1  -2 138026. 1489.95   5
  -5   1  -1 16653.5 851.165   3
  -5   1   0 19757.2 847.663   3
  -5   1   1 4927.24 419.521   3
  -5   1   2 22378.1 862.194   3
  -5   1   2 22556.5 1015.25   2
  -5   1   2 21591.7 503.083  10
  -5   1   3 63595.2 1409.06   3
  -5   1   3 60559.1 1646.52   7
  -5   1   3 62424.7 1767.29   2
  -5   1   4 29692.2 950.130   3
  -5   1   4 27360.5 1120.01   7
  -5   1   4 30560.9 1302.22   2
  -5   1   5 9238.54 525.345   3
  -5   1   5 8377.34 753.669   2
  -5   1   5 8706.57 708.580   7
  -5   1   6 4042.66 573.746   2
  -5   1   6 4032.85 521.369   7
  -5   1   7 7722.86 748.450   7
  -5   1   7 8051.39 816.990   2
  -5   1   8 918.572 363.441   2
  -5   1   8 1325.13 392.033   7
  -5   1   9 3431.93 559.183   7
  -5   2 -11 8174.66 899.778   1
  -5   2 -10 8418.77 851.239   1
  -5   2  -9 8778.67 818.827   3
  -5   2  -9 8127.92 803.024   1
  -5   2  -8 10014.2 875.373   3
  -5   2  -8 1534.01 387.059   1
  -5   2  -7 7617.36 689.652   1
  -5   2  -7 7087.85 786.005   3
  -5   2  -6 23656.3 925.512   5
  -5   2  -6 23237.9 1100.99   1
  -5   2  -5 60881.3 1304.43   5
  -5   2  -4 89668.5 1360.52   5
  -5   2  -3 1015.96 150.677   5
  -5   2  -2 50738.5 1538.69   3
  -5   2  -2 47470.1 661.764   5
  -5   2  -1 23932.1 1000.46   3
  -5   2   0 60704.0 1517.95   3
  -5   2   0 60334.3 1430.64   2
  -5   2   1 51597.6 1393.42   3
  -5   2   1 53949.5 1443.64   2
  -5   2   2 2729.26 409.197   2
  -5   2   2 2833.00 373.967   3
  -5   2   3 4368.74 492.820   7
  -5   2   3 5253.04 554.862   2
  -5   2   3 4331.01 424.210   3
  -5   2   4 37873.0 1172.70   3
  -5   2   4 36260.5 1273.34   7
  -5   2   4 38124.2 1457.86   2
  -5   2   5 30096.9 1051.86   3
  -5   2   5 30505.8 1385.33   2
  -5   2   5 30220.6 1214.60   7
  -5   2   6 18209.7 1135.63   2
  -5   2   6 17795.1 985.420   7
  -5   2   7 4583.98 633.511   2
  -5   2   7 5020.26 576.421   7
  -5   2   8 503.176 252.317   7
  -5   2   8 779.115 369.701   2
  -5   2   9 4282.70 678.243   2
  -5   2  10 11420.8 1117.92   2
  -5   3 -11 19.4480 365.961   1
  -5   3 -10 2233.60 517.032   1
  -5   3  -9 13815.7 986.214   3
  -5   3  -9 11352.5 984.128   1
  -5   3  -8 7388.70 784.434   3
  -5   3  -8 7114.70 752.821   1
  -5   3  -7 17931.8 1183.68   3
  -5   3  -7 16506.0 1057.02   1
  -5   3  -6 6960.20 1394.84   3
  -5   3  -6 4881.61 579.497   1
  -5   3  -4 5593.61 470.283   3
  -5   3  -4 8676.35 410.490   5
  -5   3  -3 30575.1 1272.37   3
  -5   3  -3 29135.7 537.962   5
  -5   3  -2 52969.1 1566.12   3
  -5   3  -1 8146.22 639.911   3
  -5   3  -1 7372.56 477.226   2
  -5   3   0 15991.7 752.760   2
  -5   3   0 16129.2 860.888   3
  -5   3   1 28052.0 1050.22   2
  -5   3   1 27964.0 1099.04   3
  -5   3   2 21604.9 960.843   3
  -5   3   2 21971.5 991.440   2
  -5   3   3 13941.1 788.360   3
  -5   3   3 14616.3 865.791   2
  -5   3   4 5154.51 501.871   3
  -5   3   4 4335.26 534.901   2
  -5   3   4 4911.52 487.222   7
  -5   3   5 3696.44 431.133   3
  -5   3   5 3223.68 516.111   2
  -5   3   5 3610.08 426.409   7
  -5   3   6 11928.8 941.201   2
  -5   3   6 12362.9 798.208   7
  -5   3   6 11744.2 739.671   3
  -5   3   7 14093.3 1071.13   2
  -5   3   7 13525.0 883.707   7
  -5   3   8 8525.94 902.270   2
  -5   3   9 778.864 410.740   2
  -5   4 -10 1345.25 461.118   1
  -5   4  -9 1406.60 472.125   1
  -5   4  -8 8720.47 866.090   1
  -5   4  -8 7360.05 848.912   3
  -5   4  -7 12556.6 985.900   1
  -5   4  -7 14732.0 1188.66   3
  -5   4  -6 28801.4 1394.64   1
  -5   4  -4 25003.5 1283.27   3
  -5   4  -3 39549.1 1463.44   3
  -5   4  -2 17430.6 966.941   3
  -5   4  -1 96264.6 2191.56   3
  -5   4  -1 97347.6 1667.62   2
  -5   4   0 62379.7 1739.93   3
  -5   4   0 62266.5 1456.38   2
  -5   4   1 6343.99 584.467   3
  -5   4   1 7782.39 592.778   2
  -5   4   2 10832.9 723.107   2
  -5   4   2 10602.7 737.224   3
  -5   4   3 17621.5 938.023   3
  -5   4   3 17705.4 961.248   2
  -5   4   4 24394.0 1197.62   2
  -5   4   4 26217.1 1040.78   7
  -5   4   4 25571.3 1129.73   3
  -5   4   5 30535.9 1410.30   2
  -5   4   5 28878.4 1084.99   7
  -5   4   5 30327.4 1249.14   3
  -5   4   6 3457.93 456.679   3
  -5   4   6 4015.39 445.200   7
  -5   4   6 3715.20 577.990   2
  -5   4   7 10644.0 944.754   2
  -5   4   7 9694.34 740.204   3
  -5   4   8 8665.30 906.537   2
  -5   4   9 3797.93 675.287   2
  -5   5  -9 8075.40 937.966   1
  -5   5  -8 16203.9 1225.34   1
  -5   5  -7 8147.24 1232.03   3
  -5   5  -7 9157.88 906.106   1
  -5   5  -6 1096.52 374.529   1
  -5   5  -5 14370.6 1182.07   3
  -5   5  -4 44354.1 1693.71   3
  -5   5  -3 33840.7 1414.01   3
  -5   5  -2 20909.3 1099.75   3
  -5   5  -2 21861.8 704.768   2
  -5   5  -1 14177.2 911.207   3
  -5   5  -1 14775.9 669.704   2
  -5   5   0 10748.3 793.058   3
  -5   5   0 9505.68 597.945   2
  -5   5   1 43171.9 1347.62   2
  -5   5   1 43758.6 1535.77   3
  -5   5   2 4594.37 548.342   3
  -5   5   2 5218.73 538.967   2
  -5   5   3 8346.66 703.447   3
  -5   5   3 8921.83 728.198   2
  -5   5   4 7863.27 570.505   7
  -5   5   4 7810.99 715.992   2
  -5   5   4 7840.41 694.770   3
  -5   5   5 3084.00 465.882   3
  -5   5   5 3661.80 555.467   2
  -5   5   5 4023.04 410.776   7
  -5   5   6 9736.64 784.768   3
  -5   5   6 10060.6 896.472   2
  -5   5   7 2875.68 472.716   3
  -5   5   7 3214.89 578.191   2
  -5   5   8 401.059 323.865   2
  -5   5   9 310.121 325.056   2
  -5   6  -8 3948.79 706.746   1
  -5   6  -7 11438.6 1054.05   1
  -5   6  -6 8887.29 905.006   1
  -5   6  -5 2997.86 484.325   3
  -5   6  -4 4964.75 617.366   3
  -5   6  -3 17280.8 1071.81   3
  -5   6  -2 31841.3 1427.68   3
  -5   6  -1 5540.42 428.461   2
  -5   6  -1 5294.06 606.710   3
  -5   6   0 7811.54 566.182   2
  -5   6   0 7192.53 703.009   3
  -5   6   1 14943.8 970.621   3
  -5   6   1 12607.0 766.271   2
  -5   6   2 2786.71 473.944   3
  -5   6   2 2643.71 416.271   2
  -5   6   3 18651.5 1054.37   2
  -5   6   3 18754.9 1103.97   3
  -5   6   4 27439.1 1333.41   2
  -5   6   4 27181.2 1340.81   3
  -5   6   5 7586.08 771.783   2
  -5   6   5 6175.75 679.640   3
  -5   6   6 3768.97 608.254   2
  -5   6   6 4161.30 568.553   3
  -5   6   7 1461.68 465.957   2
  -5   6   7 1821.90 414.710   3
  -5   6   8 8566.98 945.403   2
  -5   6   8 8148.57 789.930   3
  -5   6   9 4801.98 760.384   2
  -5   7  -7 1716.82 505.926   1
  -5   7  -6 3471.52 613.654   1
  -5   7  -5 15140.3 1212.52   3
  -5   7  -5 19920.8 1336.36   1
  -5   7  -4 6590.24 723.324   3
  -5   7  -3 7601.65 760.104   3
  -5   7  -2 5700.04 672.222   3
  -5   7  -1 4133.68 584.569   3
  -5   7   0 30830.8 1461.10   3
  -5   7   0 29780.0 1110.79   2
  -5   7   1 36206.9 1323.47   2
  -5   7   1 37769.6 1613.02   3
  -5   7   2 13972.0 885.668   2
  -5   7   2 14677.6 1024.46   3
  -5   7   3 3073.91 467.713   2
  -5   7   3 3424.27 536.365   3
  -5   7   4 13113.8 1000.67   3
  -5   7   4 12654.3 943.476   2
  -5   7   5 11139.6 944.588   3
  -5   7   5 11541.0 959.868   2
  -5   7   6 12746.6 1057.02   2
  -5   7   6 12700.8 1010.82   3
  -5   7   7 5655.58 710.332   3
  -5   7   7 5658.44 762.795   2
  -5   7   8 1574.17 465.352   2
  -5   7   8 1366.79 405.639   3
  -5   8  -5-94.0128 330.615   1
  -5   8  -4 7433.22 804.981   3
  -5   8  -3 17101.9 1185.32   3
  -5   8  -2 4702.59 662.355   3
  -5   8  -1 3680.48 565.640   3
  -5   8   0 2114.83 479.027   3
  -5   8   1 8775.60 853.483   3
  -5   8   1 7473.33 640.610   2
  -5   8   2 13592.0 1053.38   3
  -5   8   2 13066.0 888.749   2
  -5   8   3 8174.07 843.573   3
  -5   8   3 8324.67 760.135   2
  -5   8   4 607.728 322.176   2
  -5   8   4 868.260 384.481   3
  -5   8   5 1692.13 467.437   3
  -5   8   5 1866.24 467.331   2
  -5   8   6 2310.43 510.482   2
  -5   8   6 2357.00 524.757   3
  -5   8   7 5880.81 820.122   2
  -5   8   7 5354.54 742.370   3
  -5   8   8 1754.32 467.225   3
  -5   9  -4 12181.0 1080.03   3
  -5   9  -4 11585.9 1099.74   1
  -5   9  -3 1687.24 453.654   3
  -5   9  -2 10153.0 958.091   3
  -5   9  -1 7342.39 841.553   3
  -5   9   0 11502.4 1008.83   3
  -5   9   1 1076.11 403.377   3
  -5   9   2 1046.20 419.782   3
  -5   9   3 7907.82 869.091   3
  -5   9   3 6665.84 721.140   2
  -5   9   4 6325.81 807.258   3
  -5   9   4 3817.24 576.077   2
  -5   9   5 6183.89 797.765   3
  -5   9   5 5927.37 754.381   2
  -5   9   6 2785.67 586.016   2
  -5   9   6 2644.66 573.825   3
  -5   9   7 2135.66 552.506   2
  -5  10  -3 16725.5 1290.02   3
  -5  10  -2 12772.9 1117.15   3
  -5  10  -1 1622.05 452.453   3
  -5  10   0 2617.94 559.221   3
  -5  10   1 4970.58 728.074   3
  -5  10   2 7233.01 873.301   3
  -5  10   3 4679.31 736.383   3
  -5  10   4 293.165 298.160   2
  -5  10   4 200.157 293.353   3
  -5  10   5 1055.52 402.321   2
  -4 -11  -7 777.966 396.308   5
  -4 -11  -6 4032.50 689.827   5
  -4 -11  -5 6924.97 883.424   5
  -4 -11  -4 1263.91 448.543  10
  -4 -11  -3 7865.02 932.573  10
  -4 -11  -2 12540.8 1156.43  10
  -4 -10  -9 10436.9 1064.26   5
  -4 -10  -8 4582.61 719.389   5
  -4 -10  -7 786.483 382.178   5
  -4 -10  -6 19065.8 1348.24   5
  -4 -10  -5 9818.81 990.027   5
  -4 -10  -4 10348.2 1005.87   5
  -4 -10  -2 372.825 323.560  10
  -4 -10  -1 9397.15 936.016  10
  -4 -10   0 5101.83 717.593  10
  -4 -10   1 7417.67 844.414  10
  -4 -10   2 2289.83 501.095  10
  -4 -10   2 2750.97 541.721   7
  -4  -9 -10 2916.43 611.360   5
  -4  -9  -9 8765.84 966.352   5
  -4  -9  -8 16188.5 1230.44   5
  -4  -9  -7 15207.6 1164.31   5
  -4  -9  -6 1498.29 430.470   5
  -4  -9  -5 10321.8 946.769   5
  -4  -9  -4 15893.1 1164.34   5
  -4  -9  -3 10930.2 979.466   5
  -4  -9  -1 11271.1 829.447   7
  -4  -9  -1 10593.8 934.127  10
  -4  -9   0 1965.98 464.518  10
  -4  -9   0 1956.24 408.482   7
  -4  -9   1 4267.46 617.941  10
  -4  -9   1 3993.18 582.367   7
  -4  -9   2 5497.57 712.760   7
  -4  -9   2 6049.06 726.534  10
  -4  -9   3 6228.14 809.003   7
  -4  -8 -11 1097.79 457.373   5
  -4  -8 -10 364.973 298.261   5
  -4  -8  -9 876.454 394.642   5
  -4  -8  -8 2343.92 532.549   5
  -4  -8  -7 12987.5 1039.40   5
  -4  -8  -6 5519.80 677.984   5
  -4  -8  -5 12525.4 975.854   5
  -4  -8  -4 3777.30 576.556   5
  -4  -8  -3 2580.25 493.612   5
  -4  -8  -2 4631.60 487.144   7
  -4  -8  -2 4409.62 629.470   5
  -4  -8  -1 18172.8 994.961   7
  -4  -8   0 39512.4 1547.89   7
  -4  -8   0 39756.2 1644.06  10
  -4  -8   1 8032.60 760.424  10
  -4  -8   1 8204.75 763.758   7
  -4  -8   2 1190.45 355.145  10
  -4  -8   2 1128.40 352.352   7
  -4  -8   3 1976.10 428.805  10
  -4  -8   3 1829.50 481.929   7
  -4  -8   4 8646.28 931.220   7
  -4  -7 -11 1171.94 437.015   5
  -4  -7 -10 1580.36 468.989   5
  -4  -7  -9 11019.6 976.198   5
  -4  -7  -8 15352.1 1097.53   5
  -4  -7  -7 1676.62 411.505   5
  -4  -7  -6 1949.29 441.914   5
  -4  -7  -5 24328.5 1275.58   5
  -4  -7  -4 21058.2 811.079   7
  -4  -7  -4 19097.7 1117.22   5
  -4  -7  -3 77771.7 2233.34   5
  -4  -7  -3 79287.2 1704.64   7
  -4  -7  -2 17233.8 867.502   7
  -4  -7  -2 17339.5 1083.64   5
  -4  -7  -1 11949.1 772.902   7
  -4  -7   0 22811.5 1124.45   7
  -4  -7   0 23690.0 1178.22  10
  -4  -7   1 38358.6 1536.49   7
  -4  -7   1 38455.4 1493.37  10
  -4  -7   2 12858.3 883.008  10
  -4  -7   2 12692.1 948.499   7
  -4  -7   3 5536.78 688.164   7
  -4  -7   3 6118.33 622.256  10
  -4  -7   4 62.7475 314.697   7
  -4  -7   5 2895.29 565.105   7
  -4  -6 -12 6657.95 857.948   5
  -4  -6 -11 11145.2 1039.02   5
  -4  -6 -10 390.431 336.201   5
  -4  -6  -9 3292.41 549.602   5
  -4  -6  -8 10148.2 879.856   5
  -4  -6  -7 9550.52 820.577   5
  -4  -6  -6 16058.6 1011.38   5
  -4  -6  -5 152.606 132.171   7
  -4  -6  -5 36.5154 283.532   5
  -4  -6  -4 6585.48 442.433   7
  -4  -6  -4 7217.21 694.375   5
  -4  -6  -3 8400.90 544.007   7
  -4  -6  -3 8172.25 728.236   5
  -4  -6  -2 23931.9 957.307   7
  -4  -6  -2 24143.8 1205.32   5
  -4  -6  -1 3744.08 434.512   7
  -4  -6   0 5332.87 549.399   7
  -4  -6   1 8791.55 676.452  10
  -4  -6   1 8620.30 714.958   7
  -4  -6   2 11780.4 772.391  10
  -4  -6   2 11558.0 869.264   7
  -4  -6   3 17786.8 1124.37   7
  -4  -6   3 18446.4 957.949  10
  -4  -6   4 8480.80 836.999   7
  -4  -6   5 5419.92 724.819   7
  -4  -6   6 550.677 367.575   7
  -4  -5 -12 4001.61 674.310   5
  -4  -5 -11 1927.86 520.844   5
  -4  -5 -10 26949.8 1466.81   5
  -4  -5  -9 29521.9 1450.32   5
  -4  -5  -8 3277.25 525.364   5
  -4  -5  -7 10173.4 796.009   5
  -4  -5  -6 4139.53 524.429   5
  -4  -5  -5 31944.5 1308.75   5
  -4  -5  -4 101722. 1714.11   7
  -4  -5  -4 99310.2 2212.77   5
  -4  -5  -3 12326.7 807.183   5
  -4  -5  -3 12644.9 637.640   7
  -4  -5  -2 4400.35 408.544   7
  -4  -5  -2 4462.31 531.771   5
  -4  -5  -1 3451.31 506.296   5
  -4  -5  -1 3031.07 392.850   7
  -4  -5   0 37019.2 1277.16   7
  -4  -5   1 23650.5 1097.56   7
  -4  -5   2 22839.6 1153.95   7
  -4  -5   2 24776.8 1000.47  10
  -4  -5   3 5487.80 614.369   7
  -4  -5   3 5811.44 498.850  10
  -4  -5   4 16447.7 1095.19   7
  -4  -5   5 17123.5 1174.24   7
  -4  -5   6 4745.42 699.845   7
  -4  -5   7 921.200 382.064   7
  -4  -4 -12 2855.06 615.984   5
  -4  -4 -11 3177.74 583.144   5
  -4  -4 -10 98.8590 312.842   5
  -4  -4  -9 3413.84 543.460   5
  -4  -4  -8 37911.4 1523.11   5
  -4  -4  -7 38408.5 1436.34   5
  -4  -4  -6 33925.6 1302.20   5
  -4  -4  -5 18776.4 959.234   5
  -4  -4  -4 28175.9 1107.98   5
  -4  -4  -3 64133.5 1651.11   5
  -4  -4  -2 46017.8 1220.35   7
  -4  -4  -2 44705.3 1380.02   5
  -4  -4  -1 20252.6 537.247   6
  -4  -4  -1 23119.4 896.915   7
  -4  -4  -1 22920.2 1035.60   5
  -4  -4   0 4486.54 460.165   7
  -4  -4   1 26244.7 1092.43   7
  -4  -4   2 30929.7 994.034  10
  -4  -4   2 30424.9 1257.97   7
  -4  -4   3 5909.08 442.365  10
  -4  -4   3 5999.45 623.931   7
  -4  -4   4 17792.7 1088.11   7
  -4  -4   5 305.875 307.928   7
  -4  -4   6 1361.15 408.350   7
  -4  -4   7 12198.5 1063.76   7
  -4  -4   8 2284.61 549.065   7
  -4  -3 -12 2264.97 566.450   5
  -4  -3 -11 8486.32 882.493   5
  -4  -3 -10 15022.8 1086.17   5
  -4  -3  -9 6118.91 680.585   5
  -4  -3  -9 10754.8 694.752   1
  -4  -3  -8 11214.2 633.507   1
  -4  -3  -8 7397.31 700.951   5
  -4  -3  -7 37886.9 940.696   1
  -4  -3  -7 34105.1 1324.30   5
  -4  -3  -6 52649.7 1544.61   5
  -4  -3  -6 55633.8 929.809   1
  -4  -3  -5 40041.5 1270.86   5
  -4  -3  -5 39812.4 563.201   1
  -4  -3  -4 32596.2 1115.46   5
  -4  -3  -3 38804.9 1187.55   5
  -4  -3  -2 53667.6 1378.14   5
  -4  -3  -2 53417.7 647.989   1
  -4  -3  -1 81273.4 1754.58   5
  -4  -3  -1 77221.6 1599.00   7
  -4  -3   0 45549.8 1281.21   7
  -4  -3   1 48824.1 1384.72   7
  -4  -3   2 4601.53 514.977   7
  -4  -3   3 1271.03 337.106   7
  -4  -3   3 1028.45 182.024  10
  -4  -3   4 2643.26 462.431   7
  -4  -3   5 26167.4 1319.92   7
  -4  -3   6 11151.1 931.454   7
  -4  -3   7 536.222 322.184   7
  -4  -3   8 4858.01 725.910   7
  -4  -3   9 5161.92 773.212   7
  -4  -2 -12 2749.47 583.333   5
  -4  -2 -11 396.538 332.334   5
  -4  -2 -11 5593.53 698.967   1
  -4  -2 -10 5333.09 669.879   5
  -4  -2 -10 9889.83 832.120   1
  -4  -2  -9 26372.9 1101.16   1
  -4  -2  -9 23117.4 1232.33   5
  -4  -2  -8 46791.0 1310.53   1
  -4  -2  -8 44372.8 1574.54   5
  -4  -2  -7 18252.5 966.031   5
  -4  -2  -7 19124.1 754.754   1
  -4  -2  -6 16573.0 619.563   1
  -4  -2  -6 17082.4 862.577   5
  -4  -2  -5 37315.9 1233.05   3
  -4  -2  -5 36550.3 1147.97   5
  -4  -2  -5 36453.3 776.816   1
  -4  -2  -4 78077.1 1711.63   3
  -4  -2  -4 76650.7 1561.64   5
  -4  -2  -3 109473. 1803.66   5
  -4  -2  -3 106840. 1874.88   3
  -4  -2  -2 61284.1 1338.50   3
  -4  -2  -2 59524.4 841.373   1
  -4  -2  -2 61214.2 1339.02   5
  -4  -2  -1 7906.17 524.249   5
  -4  -2  -1 10734.1 574.415   3
  -4  -2   0 66633.3 1182.53   3
  -4  -2   0 66829.7 1503.89   7
  -4  -2   1 120880. 2089.39   7
  -4  -2   1 119815. 1470.63   3
  -4  -2   2 80180.0 1064.52   3
  -4  -2   2 74504.6 1720.83   7
  -4  -2   3 19202.3 526.661  10
  -4  -2   3 19135.9 961.453   7
  -4  -2   4 21713.8 1091.71   7
  -4  -2   5 13740.4 918.203   7
  -4  -2   6 10717.5 872.317   7
  -4  -2   7 13970.0 1042.14   7
  -4  -2   8 2248.79 501.845   7
  -4  -2   9 2088.11 526.786   7
  -4  -1 -12 10585.3 986.996   1
  -4  -1 -12 4577.51 723.284   5
  -4  -1 -11 17824.0 1142.63   1
  -4  -1 -11 12012.9 1035.29   5
  -4  -1 -10 7612.11 767.788   1
  -4  -1 -10 4345.89 614.746   5
  -4  -1  -9 400.102 309.540   5
  -4  -1  -9 2580.90 443.343   1
  -4  -1  -8 3544.28 508.876   5
  -4  -1  -8 2933.32 388.356   1
  -4  -1  -7 14385.2 858.376   5
  -4  -1  -7 12616.8 681.423   1
  -4  -1  -7 13210.8 813.387   3
  -4  -1  -6 9425.42 694.386   3
  -4  -1  -6 8465.81 607.054   5
  -4  -1  -6 8673.43 528.644   1
  -4  -1  -5 782.369 179.907   1
  -4  -1  -5 527.988 217.108   5
  -4  -1  -4 26556.2 864.005   5
  -4  -1  -4 34686.2 1158.11   3
  -4  -1  -3 27664.0 985.514   3
  -4  -1  -3 30889.1 889.333   5
  -4  -1  -2 119280. 1674.09   5
  -4  -1  -2 119842. 1890.21   3
  -4  -1  -1 33011.0 906.938   5
  -4  -1  -1 37400.5 1142.65   3
  -4  -1   0 43565.8 1241.17   3
  -4  -1   1 40759.3 1194.86   7
  -4  -1   1 40046.9 1286.82   3
  -4  -1   2 58803.0 1479.38   7
  -4  -1   2 40403.2 1131.37   3
  -4  -1   3 87080.7 1930.11   7
  -4  -1   3 95833.6 1493.10   3
  -4  -1   4 38794.2 625.405   3
  -4  -1   4 41248.1 1409.62   7
  -4  -1   5 6596.57 633.787   7
  -4  -1   6 3403.09 507.499   7
  -4  -1   7 9635.09 838.617   7
  -4  -1   8 8524.11 830.469   7
  -4  -1   9 3031.07 565.613   7
  -4  -1  10 3560.74 627.546   7
  -4   0 -13 9612.95 1036.91   1
  -4   0 -12 13721.3 1143.86   1
  -4   0 -11 10711.8 966.917   1
  -4   0 -10 11253.9 888.102   1
  -4   0  -9 26046.1 1235.39   1
  -4   0  -8 3626.76 472.812   3
  -4   0  -8 3482.99 453.562   1
  -4   0  -7 44381.1 1383.08   1
  -4   0  -7 43701.7 1452.83   3
  -4   0  -6 30120.0 1082.28   5
  -4   0  -6 27878.2 1003.28   1
  -4   0  -6 31512.1 1190.49   3
  -4   0  -5 50812.0 1259.11   5
  -4   0  -5 50142.1 1220.78   1
  -4   0  -5 46675.3 1373.04   3
  -4   0  -4 83382.7 1840.79   3
  -4   0  -4 87602.1 1482.81   5
  -4   0  -3 73361.9 1905.78   3
  -4   0  -3 71154.7 1204.87   5
  -4   0  -2-1407.13 834.611   3
  -4   0  -2 35155.2 804.201   5
  -4   0  -1 130510. 1549.80   5
  -4   0   0 12833.3 672.884   3
  -4   0   1 264226. 2650.23   3
  -4   0   2 152229. 1844.99   3
  -4   0   2 138635. 2197.02   7
  -4   0   3 5624.68 349.494   3
  -4   0   3 5944.87 531.397   2
  -4   0   3 6158.17 517.537   7
  -4   0   4 91650.0 1992.25   7
  -4   0   4 95997.8 2120.24   2
  -4   0   4 97499.0 1357.37   3
  -4   0   5 18465.8 570.585   3
  -4   0   5 18889.4 1011.98   2
  -4   0   5 20153.3 1004.38   7
  -4   0   6 16466.6 973.990   7
  -4   0   6 17589.3 1041.71   2
  -4   0   7 12677.6 944.716   2
  -4   0   7 12584.3 900.049   7
  -4   0   8 1391.56 398.524   7
  -4   0   9 3038.10 546.105   7
  -4   0  10 7104.65 824.104   7
  -4   1 -12 9319.26 1010.23   1
  -4   1 -11 6176.71 786.453   1
  -4   1 -10 181.170 287.736   1
  -4   1  -9 3591.78 520.516   1
  -4   1  -9 4482.57 516.909   3
  -4   1  -8 5093.88 574.254   1
  -4   1  -8 6459.47 628.864   3
  -4   1  -7 15053.4 880.563   1
  -4   1  -7 19495.6 1058.63   3
  -4   1  -6 37404.4 1264.64   1
  -4   1  -6 36375.9 1304.54   3
  -4   1  -5 7781.10 552.359   1
  -4   1  -5 9233.09 803.912   3
  -4   1  -4 2263.86 259.744   5
  -4   1  -3 29141.7 703.035   5
  -4   1  -2 57415.0 1642.91   3
  -4   1  -2 52497.1 825.244   5
  -4   1  -1 77991.2 962.246   5
  -4   1  -1 87397.4 1663.60   3
  -4   1   0 14173.1 647.254   3
  -4   1   1 20859.7 748.982   3
  -4   1   1 21771.3 827.569   2
  -4   1   2 22414.1 904.979   2
  -4   1   2 22020.0 765.373   3
  -4   1   2 21579.6 430.423  10
  -4   1   3 30949.9 1051.88   7
  -4   1   3 29562.4 869.554   3
  -4   1   3 29635.3 1109.91   2
  -4   1   4 42693.9 1422.56   2
  -4   1   4 42881.3 1033.47   3
  -4   1   4 40893.5 1263.67   7
  -4   1   5 271.735 241.359   7
  -4   1   5 653.148 172.294   3
  -4   1   5 782.749 298.858   2
  -4   1   6 32175.5 1384.59   2
  -4   1   6 34764.7 1320.52   7
  -4   1   7 10010.4 846.665   2
  -4   1   7 10999.8 810.161   7
  -4   1   8 17666.6 1069.53   7
  -4   1   8 17272.3 1146.88   2
  -4   1   9 7320.93 746.314   7
  -4   1   9 7749.03 840.665   2
  -4   1  10-102.159 323.959   2
  -4   1  10 313.362 269.904   7
  -4   2 -11 4776.02 714.957   1
  -4   2 -10 9897.14 929.043   1
  -4   2  -9 3236.41 463.443   3
  -4   2  -9 3055.19 521.187   1
  -4   2  -8 5953.25 655.559   1
  -4   2  -8 8366.31 762.343   3
  -4   2  -7 2923.48 456.855   1
  -4   2  -7 2511.62 479.659   3
  -4   2  -6 58123.3 1777.11   3
  -4   2  -6 54150.4 1628.61   1
  -4   2  -3 6814.77 328.715   5
  -4   2  -3 4973.26 411.574   3
  -4   2  -2 19936.5 850.659   3
  -4   2  -2 20509.3 411.411   5
  -4   2  -1 89086.9 1719.09   3
  -4   2  -1 91448.7 1410.01   2
  -4   2   0 216527. 1656.00   4
  -4   2   0 220933. 2399.15   2
  -4   2   0 221415. 2627.42   3
  -4   2   1 37808.9 1076.35   3
  -4   2   1 38363.0 1089.52   2
  -4   2   2 13302.3 646.294   3
  -4   2   2 12755.4 697.794   2
  -4   2   3 4213.73 386.672   3
  -4   2   3 3819.78 452.559   2
  -4   2   3 4661.95 440.114   7
  -4   2   4 7151.91 494.015   3
  -4   2   4 6839.09 611.305   2
  -4   2   4 6820.66 516.755   7
  -4   2   5 23297.8 1119.83   2
  -4   2   5 23736.3 877.234   3
  -4   2   5 23529.4 976.270   7
  -4   2   6 28231.9 964.224   3
  -4   2   6 28020.8 1136.70   7
  -4   2   6 27492.7 1296.45   2
  -4   2   7 10455.0 743.995   7
  -4   2   7 11580.3 909.037   2
  -4   2   8 3019.55 448.070   7
  -4   2   8 3053.08 537.566   2
  -4   2   9 4316.08 648.497   2
  -4   2   9 4275.30 551.006   7
  -4   2  10 10384.3 1003.63   2
  -4   3 -11 315.111 362.629   1
  -4   3 -10 1693.11 464.221   1
  -4   3  -9 7882.51 821.711   1
  -4   3  -8 17365.5 1034.20   3
  -4   3  -8 12047.0 946.519   1
  -4   3  -7 7012.48 702.992   1
  -4   3  -7 8128.35 787.018   3
  -4   3  -6 4929.91 908.717   3
  -4   3  -6 7117.75 659.136   1
  -4   3  -4 24507.3 1191.23   3
  -4   3  -3 82305.7 1861.29   3
  -4   3  -2 58877.4 1499.86   3
  -4   3  -2 47862.4 467.734   5
  -4   3  -1 7585.89 349.608   4
  -4   3  -1 9295.70 624.636   3
  -4   3  -1 8567.39 440.381   2
  -4   3   0 30291.6 1076.65   3
  -4   3   0 31271.2 915.991   2
  -4   3   0 31853.6 499.614   4
  -4   3   1 51224.1 1361.87   3
  -4   3   1 52309.9 1277.46   2
  -4   3   2 47944.5 1312.55   3
  -4   3   2 46623.0 1320.73   2
  -4   3   3 29075.0 1119.52   2
  -4   3   3 28347.1 1026.62   3
  -4   3   4 13207.5 727.855   3
  -4   3   4 13395.8 827.334   2
  -4   3   4 13704.3 688.194   7
  -4   3   5 4667.24 551.739   2
  -4   3   5 4539.28 459.260   3
  -4   3   5 4682.99 432.319   7
  -4   3   6 19773.5 905.402   3
  -4   3   6 19647.3 911.019   7
  -4   3   6 19248.2 1091.14   2
  -4   3   7 33567.9 1513.83   2
  -4   3   7 33814.5 1240.08   7
  -4   3   7 33406.6 1192.45   3
  -4   3   8 4470.69 622.166   2
  -4   3   8 4367.87 494.966   7
  -4   3   9 1456.31 444.472   2
  -4   3  10 495.829 305.982   2
  -4   4 -10 4808.52 724.678   1
  -4   4  -9 1370.16 421.292   1
  -4   4  -8 1369.44 432.193   1
  -4   4  -7 18421.8 1169.10   3
  -4   4  -7 16239.3 1088.05   1
  -4   4  -6 17603.0 1083.28   1
  -4   4  -5 3323.27 510.798   3
  -4   4  -4 6374.84 577.251   3
  -4   4  -3 17922.8 912.874   3
  -4   4  -2 44624.1 860.151   2
  -4   4  -2 46246.7 1409.58   3
  -4   4  -1 29967.6 1133.87   3
  -4   4  -1 27884.6 790.552   2
  -4   4   0 73943.2 622.130   4
  -4   4   0 77209.4 1797.88   3
  -4   4   0 76108.3 1459.67   2
  -4   4   1 11427.6 728.051   3
  -4   4   1 11290.2 627.421   2
  -4   4   2 34982.0 1227.07   3
  -4   4   2 34877.1 1160.50   2
  -4   4   3 29722.9 1139.21   3
  -4   4   3 30249.4 1161.51   2
  -4   4   4 39546.4 1130.88   7
  -4   4   4 38605.9 1392.56   2
  -4   4   4 38453.7 1307.96   3
  -4   4   5 21804.9 1020.24   3
  -4   4   5 22144.5 1133.98   2
  -4   4   5 21860.7 848.221   7
  -4   4   6 3127.13 422.059   3
  -4   4   6 3631.48 394.424   7
  -4   4   6 3544.00 539.559   2
  -4   4   7 639.302 336.453   2
  -4   4   7 407.496 225.130   3
  -4   4   8 7837.84 826.733   2
  -4   4   9 4630.46 677.518   2
  -4   4  10 4924.33 737.739   2
  -4   5  -9 7493.05 902.527   1
  -4   5  -8 5032.04 725.353   1
  -4   5  -7 1376.93 399.240   1
  -4   5  -7 1335.04 610.369   3
  -4   5  -6 3512.69 575.488   1
  -4   5  -5 37920.5 1746.50   3
  -4   5  -5 31100.3 1441.00   1
  -4   5  -4 23272.7 1127.84   3
  -4   5  -3 7928.38 663.657   3
  -4   5  -2 17218.8 939.359   3
  -4   5  -2 16901.1 545.251   2
  -4   5  -1 38299.9 1362.09   3
  -4   5  -1 38049.3 959.281   2
  -4   5   0 20930.0 1018.23   3
  -4   5   0 20188.9 781.881   2
  -4   5   0 19277.1 349.555   4
  -4   5   1 59262.7 1687.42   3
  -4   5   1 58966.7 1442.82   2
  -4   5   2 22770.9 1074.91   3
  -4   5   2 23714.4 998.605   2
  -4   5   3 1876.44 360.027   2
  -4   5   3 1603.86 351.626   3
  -4   5   4 7329.77 490.942   7
  -4   5   4 7925.12 664.134   3
  -4   5   4 7718.48 673.090   2
  -4   5   5 7528.98 662.502   3
  -4   5   5 7390.33 692.552   2
  -4   5   5 7812.74 476.244   7
  -4   5   6 15690.5 1038.70   2
  -4   5   7 34436.7 1606.48   2
  -4   5   8-16.2648 199.510   3
  -4   5   8 335.279 272.770   2
  -4   5   9 1276.57 434.254   2
  -4   5  10 3098.36 645.282   2
  -4   6  -8 1607.37 480.864   1
  -4   6  -7 14025.1 1149.28   1
  -4   6  -6 8904.11 884.257   1
  -4   6  -5-100.735 294.955   1
  -4   6  -5-264.612 423.150   3
  -4   6  -4 1101.40 325.909   3
  -4   6  -3 5602.17 626.361   3
  -4   6  -2 17389.9 1003.85   3
  -4   6  -1 28447.2 1255.91   3
  -4   6  -1 29091.2 886.225   2
  -4   6   0 22776.7 1125.59   3
  -4   6   0 21556.4 849.642   2
  -4   6   1 14426.7 911.240   3
  -4   6   1 14139.8 756.218   2
  -4   6   2 12993.5 876.873   3
  -4   6   2 12717.4 780.128   2
  -4   6   3 51030.4 1604.79   2
  -4   6   3 51979.4 1723.44   3
  -4   6   4 2501.58 431.952   2
  -4   6   4 2898.88 475.389   3
  -4   6   5 15898.7 1028.15   2
  -4   6   6 14222.0 1017.43   2
  -4   6   7 7534.51 792.458   2
  -4   6   8 19114.0 1310.34   2
  -4   6   9 5126.63 754.293   2
  -4   7  -7 1225.38 405.513   1
  -4   7  -6 8551.32 918.909   1
  -4   7  -5 11517.3 972.502   3
  -4   7  -5 10807.5 976.157   1
  -4   7  -4 7468.27 726.076   3
  -4   7  -3 11213.9 861.131   3
  -4   7  -2 3565.21 524.323   3
  -4   7  -1 21380.5 1158.63   3
  -4   7   0 89012.8 2350.07   3
  -4   7   0 85580.8 1770.70   2
  -4   7   1 7164.98 694.601   3
  -4   7   1 6995.17 570.158   2
  -4   7   2 2098.50 430.261   3
  -4   7   2 1612.80 348.608   2
  -4   7   3 7077.33 714.566   3
  -4   7   3 6375.12 629.608   2
  -4   7   4 14476.3 1006.98   3
  -4   7   4 15124.7 988.382   2
  -4   7   5 13302.0 980.573   3
  -4   7   5 13114.8 972.689   2
  -4   7   6 14413.7 1058.44   2
  -4   7   7 618.527 341.763   2
  -4   7   8 1149.46 399.195   2
  -4   7   9 1776.48 447.091   3
  -4   7   9 1948.15 539.770   2
  -4   8  -6 1374.43 482.860   1
  -4   8  -5 2506.35 531.966   1
  -4   8  -4 5060.97 707.758   1
  -4   8  -4 4997.40 641.943   3
  -4   8  -3 22495.0 1284.66   3
  -4   8  -2 15514.2 1065.52   3
  -4   8  -1 11102.1 897.521   3
  -4   8   0 5356.00 655.907   3
  -4   8   1 9924.08 861.651   3
  -4   8   1 8679.53 657.484   2
  -4   8   2 18353.8 1166.64   3
  -4   8   2 17753.0 989.545   2
  -4   8   3 9208.47 867.189   3
  -4   8   3 8942.93 752.705   2
  -4   8   4 6646.09 750.020   3
  -4   8   4 6490.84 697.137   2
  -4   8   5 750.237 333.665   2
  -4   8   5 605.010 329.353   3
  -4   8   6 3447.68 605.147   2
  -4   8   6 3948.87 611.986   3
  -4   8   7 4815.91 708.461   2
  -4   8   8 1616.84 504.420   2
  -4   8   8 1267.99 397.650   3
  -4   8   9 1961.51 470.418   3
  -4   9  -4 5416.25 752.055   1
  -4   9  -3 2003.24 442.866   3
  -4   9  -2 28185.4 1510.91   3
  -4   9  -1 23493.9 1387.05   3
  -4   9   0 5540.63 700.757   3
  -4   9   1 953.047 393.088   3
  -4   9   2 3467.04 492.377   2
  -4   9   2 3033.56 563.878   3
  -4   9   3 4612.32 658.056   3
  -4   9   3 4484.90 577.580   2
  -4   9   4 8983.01 843.887   2
  -4   9   4 10187.1 952.932   3
  -4   9   5 13012.4 1049.00   2
  -4   9   5 12978.3 1095.19   3
  -4   9   6 7267.13 847.719   3
  -4   9   6 6232.88 780.576   2
  -4   9   7 224.121 361.535   2
  -4   9   7 176.349 259.664   3
  -4   9   8 3173.44 600.613   3
  -4  10  -3 4603.45 732.402   1
  -4  10  -2 14768.0 1156.85   3
  -4  10  -1 521.343 358.970   3
  -4  10   0 11176.4 1018.23   3
  -4  10   1 11273.5 1034.98   3
  -4  10   2 9931.06 977.326   3
  -4  10   3 8395.09 812.985   2
  -4  10   3 8202.14 906.415   3
  -4  10   4 1532.65 473.749   3
  -4  10   4 1346.23 404.750   2
  -4  10   5 3836.41 664.780   3
  -4  10   5 4229.75 660.768   2
  -4  10   6 5276.75 756.452   2
  -4  10   6 5062.74 754.103   3
  -4  11  -1 19563.5 1395.15   3
  -4  11   0 7222.56 860.496   3
  -4  11   1 2902.21 592.099   3
  -4  11   2 7408.55 917.239   3
  -4  11   5 3888.78 647.425   2
  -3 -12  -5 5396.11 787.257   5
  -3 -11  -8 2435.64 568.623   5
  -3 -11  -7 9998.47 1004.65   5
  -3 -11  -6 3454.05 611.242   5
  -3 -11  -5 3632.54 644.617  10
  -3 -11  -5 3502.16 641.527   5
  -3 -11  -4 1519.35 454.166  10
  -3 -11  -4 1478.83 431.237   5
  -3 -11  -3 1555.94 476.106  10
  -3 -11  -2 7376.00 873.804  10
  -3 -11  -1 2513.13 573.471  10
  -3 -11   0 2678.65 580.579  10
  -3 -10  -9 8167.14 930.079   5
  -3 -10  -8 2969.86 613.348   5
  -3 -10  -7 4018.83 638.701   5
  -3 -10  -6 11282.8 1003.41   5
  -3 -10  -5 3055.74 553.792   5
  -3 -10  -4 4277.38 658.138   5
  -3 -10  -3 6349.09 756.896  10
  -3 -10  -3 6905.56 797.394   5
  -3 -10  -2 455.157 308.180  10
  -3 -10  -1 7016.27 811.924  10
  -3 -10   0 13532.7 1112.71  10
  -3 -10   1 2253.01 507.011  10
  -3 -10   2 441.605 284.593   7
  -3 -10   2 377.285 308.930  10
  -3 -10   3 1019.77 422.731   7
  -3  -9 -10 1622.24 480.373   5
  -3  -9  -9 4805.21 695.195   5
  -3  -9  -8 14667.4 1146.37   5
  -3  -9  -7 3662.74 599.421   5
  -3  -9  -6 1330.63 369.364   5
  -3  -9  -5 9621.99 864.755   5
  -3  -9  -4 15683.6 1107.24   5
  -3  -9  -3 21914.8 1310.51   5
  -3  -9  -2 17670.7 1168.07  10
  -3  -9  -1 1606.42 417.231  10
  -3  -9   0 189.590 256.753  10
  -3  -9   0 3.96697 194.198   7
  -3  -9   1 10333.3 859.417   7
  -3  -9   1 9863.16 895.461  10
  -3  -9   2 2491.07 501.080   7
  -3  -9   2 2449.17 495.071  10
  -3  -9   3 6093.07 742.983  10
  -3  -9   3 5639.66 737.264   7
  -3  -9   4 11137.7 1054.90   7
  -3  -8 -11 2892.14 587.461   5
  -3  -8 -10 4919.96 715.756   5
  -3  -8  -9 437.320 343.759   5
  -3  -8  -8 4833.80 655.918   5
  -3  -8  -7 3131.33 537.854   5
  -3  -8  -6 5549.80 654.175   5
  -3  -8  -5 16192.7 1058.48   5
  -3  -8  -4 16166.1 1036.10   5
  -3  -8  -3 9535.17 824.244   5
  -3  -8  -2 38954.3 1238.71   7
  -3  -8  -2 38829.7 1621.96   5
  -3  -8  -1 39721.8 1614.63  10
  -3  -8  -1 41170.9 1382.48   7
  -3  -8   0 22942.7 1116.16   7
  -3  -8   0 23872.9 1254.47  10
  -3  -8   1 6872.75 714.029  10
  -3  -8   1 6532.13 653.254   7
  -3  -8   2 2747.18 478.023   7
  -3  -8   2 2813.49 481.229  10
  -3  -8   3 8755.68 855.724   7
  -3  -8   3 9620.06 842.903  10
  -3  -8   4 13460.2 1099.50   7
  -3  -8   5 12913.5 1136.40   7
  -3  -7 -12 8937.90 991.526   5
  -3  -7 -11 3533.61 608.857   5
  -3  -7 -10 6391.28 759.318   5
  -3  -7  -9 7293.53 792.673   5
  -3  -7  -8 10508.7 896.672   5
  -3  -7  -7 6431.22 707.303   5
  -3  -7  -6 1299.59 375.249   5
  -3  -7  -5 14143.2 951.417   5
  -3  -7  -4 30938.4 1344.15   5
  -3  -7  -4 32265.7 845.870   7
  -3  -7  -3 51278.3 1211.53   7
  -3  -7  -3 50376.7 1697.14   5
  -3  -7  -2 17986.8 1056.22   5
  -3  -7  -2 18115.4 801.466   7
  -3  -7  -1 15031.4 797.608   7
  -3  -7   0 11744.5 827.587  10
  -3  -7   0 12356.7 782.996   7
  -3  -7   1 22122.2 1127.95  10
  -3  -7   1 21099.1 1078.37   7
  -3  -7   2 21232.4 1113.59  10
  -3  -7   2 21115.1 1153.26   7
  -3  -7   3 798.249 324.608   7
  -3  -7   3 796.699 289.455  10
  -3  -7   4 2578.94 505.618   7
  -3  -7   5 3397.79 588.812   7
  -3  -7   6 3498.75 632.264   7
  -3  -6 -12 8478.56 952.832   5
  -3  -6 -11 15789.3 1216.31   5
  -3  -6 -10 4710.34 665.289   5
  -3  -6  -9 6316.56 711.634   5
  -3  -6  -8 16377.7 1057.98   5
  -3  -6  -7 16455.8 1017.23   5
  -3  -6  -6 18654.5 1049.69   5
  -3  -6  -5 1715.76 376.523   5
  -3  -6  -5 1347.50 168.590   7
  -3  -6  -4 5924.54 605.346   5
  -3  -6  -4 5631.44 355.468   7
  -3  -6  -3 37914.9 984.477   7
  -3  -6  -3 37562.1 1371.17   5
  -3  -6  -2 21042.5 1062.81   5
  -3  -6  -2 23462.9 858.852   7
  -3  -6  -1 12586.1 835.821   5
  -3  -6  -1 13181.6 706.111   7
  -3  -6   0 2665.27 381.597   7
  -3  -6   1 9034.20 669.334  10
  -3  -6   1 9372.03 689.126   7
  -3  -6   2 27973.3 1169.74  10
  -3  -6   2 26204.7 1211.52   7
  -3  -6   3 26498.2 1292.69   7
  -3  -6   3 28391.0 1196.85  10
  -3  -6   4 25304.5 1345.89   7
  -3  -6   5 4871.19 668.265   7
  -3  -6   6 1039.75 398.829   7
  -3  -6   7 6314.68 836.658   7
  -3  -5 -12 1614.02 489.374   5
  -3  -5 -11 2361.44 546.769   5
  -3  -5 -10 10752.7 957.355   5
  -3  -5  -9 19272.5 1181.20   5
  -3  -5  -8 8983.44 785.632   5
  -3  -5  -7 35937.0 1415.07   5
  -3  -5  -6 17289.5 968.378   5
  -3  -5  -5 42719.1 1428.99   5
  -3  -5  -4 36867.2 1295.19   5
  -3  -5  -4 36854.6 857.224   7
  -3  -5  -3 8048.68 615.668   5
  -3  -5  -3 8271.68 433.918   7
  -3  -5  -2 22954.1 1008.90   5
  -3  -5  -2 23199.7 798.535   7
  -3  -5  -1 21373.9 828.895   7
  -3  -5  -1 22445.9 1032.21   5
  -3  -5   0 14524.2 311.087   6
  -3  -5   0 14189.2 298.837   6
  -3  -5   0 15151.3 764.230   7
  -3  -5   1 22740.3 947.983  10
  -3  -5   1 23067.5 1002.55   7
  -3  -5   2 10493.6 740.726   7
  -3  -5   2 10426.6 656.136  10
  -3  -5   3 17671.4 1004.23   7
  -3  -5   3 16895.7 830.728  10
  -3  -5   3 17337.7 659.772   9
  -3  -5   4 19389.6 1127.46   7
  -3  -5   5 35879.2 1612.35   7
  -3  -5   5 35832.2 1302.39   6
  -3  -5   6 7894.49 689.801   6
  -3  -5   6 7143.56 790.744   7
  -3  -5   7 359.218 290.500   7
  -3  -5   8 5072.69 761.696   7
  -3  -4 -12 4112.43 715.017   5
  -3  -4 -11 3276.11 595.749   5
  -3  -4 -10 379.900 312.760   5
  -3  -4  -9 742.979 233.832   1
  -3  -4  -9 1556.42 438.049   5
  -3  -4  -8 54334.0 1804.53   5
  -3  -4  -8 56056.0 1371.23   1
  -3  -4  -7 61550.5 1799.66   5
  -3  -4  -7 62815.8 1247.89   1
  -3  -4  -6 1937.19 371.201   5
  -3  -4  -5 4403.20 488.933   5
  -3  -4  -4 16005.8 819.810   5
  -3  -4  -3 94630.6 1865.11   5
  -3  -4  -2 162287. 2406.61   5
  -3  -4  -2 161976. 1962.67   7
  -3  -4  -1 3129.59 140.631   6
  -3  -4  -1 3363.13 409.616   5
  -3  -4  -1 3380.72 338.690   7
  -3  -4   0 36896.8 1096.12   7
  -3  -4   1 16110.9 792.711   7
  -3  -4   2 31534.0 1196.87   7
  -3  -4   2 32854.8 1010.21  10
  -3  -4   3 15660.7 711.581  10
  -3  -4   3 14493.4 875.105   7
  -3  -4   3 14376.5 510.853   9
  -3  -4   4 19977.5 1086.52   7
  -3  -4   5 580.051 301.928   7
  -3  -4   6 15955.0 1099.79   7
  -3  -4   7 8547.80 872.511   7
  -3  -4   8 1302.36 443.060   7
  -3  -4   8 674.718 285.431   6
  -3  -4   9 986.993 369.469   6
  -3  -3 -12 2863.77 623.384   5
  -3  -3 -11 15101.3 1000.96   1
  -3  -3 -11 18424.3 1275.21   5
  -3  -3 -10 10582.3 794.550   1
  -3  -3 -10 11131.4 947.102   5
  -3  -3  -9 6499.62 701.312   5
  -3  -3  -9 8198.76 657.440   1
  -3  -3  -8 7270.48 681.533   5
  -3  -3  -8 10613.1 699.994   1
  -3  -3  -7 4448.70 532.479   5
  -3  -3  -7 6672.76 488.634   1
  -3  -3  -6 83891.4 1900.65   5
  -3  -3  -6 81896.1 1311.46   1
  -3  -3  -5 38224.2 1194.72   5
  -3  -3  -5 35766.5 682.763   1
  -3  -3  -4 112683. 1925.94   5
  -3  -3  -3 66369.2 1450.56   5
  -3  -3  -2 70442.1 899.377   6
  -3  -3  -2 72641.2 1481.70   5
  -3  -3  -1 82342.7 963.977   1
  -3  -3  -1 84534.2 1642.19   5
  -3  -3  -1 81242.3 1426.53   7
  -3  -3   0 47834.2 1142.58   7
  -3  -3   1 70464.8 1543.58   7
  -3  -3   2 33362.9 1139.74   7
  -3  -3   2 33513.2 884.852  10
  -3  -3   3 18806.5 944.131   7
  -3  -3   3 18464.2 661.871  10
  -3  -3   3 18018.3 449.734   9
  -3  -3   4 71868.1 1908.60   7
  -3  -3   4 70920.3 945.589   9
  -3  -3   5 10989.3 829.085   7
  -3  -3   6 14004.3 988.525   7
  -3  -3   7 667.004 325.985   7
  -3  -3   8 826.277 376.177   7
  -3  -3   9 6641.74 827.705   7
  -3  -3  10 4742.73 711.368   6
  -3  -2 -12 2582.07 582.291   1
  -3  -2 -12 1584.83 489.704   5
  -3  -2 -11 3385.52 636.353   1
  -3  -2 -10 14797.6 981.207   1
  -3  -2  -9 21553.6 1068.94   1
  -3  -2  -8 4483.57 560.276   5
  -3  -2  -8 9465.58 701.390   1
  -3  -2  -7 6607.32 517.265   1
  -3  -2  -7 4163.28 504.601   5
  -3  -2  -6 1220.24 304.416   1
  -3  -2  -6 328.515 270.015   5
  -3  -2  -5 22684.5 631.728   1
  -3  -2  -5 23139.9 909.241   5
  -3  -2  -4 28715.0 928.603   5
  -3  -2  -4 30086.9 573.257   1
  -3  -2  -4 29761.3 966.186   3
  -3  -2  -3 83015.1 1523.32   3
  -3  -2  -3 82544.1 653.379   1
  -3  -2  -3 83096.7 1459.58   5
  -3  -2  -2 8306.16 469.817   3
  -3  -2  -2 7807.44 456.630   5
  -3  -2  -2 9208.40 219.513   1
  -3  -2  -1 8864.30 444.079   3
  -3  -2  -1 8030.30 347.453   6
  -3  -2  -1 8592.47 484.270   5
  -3  -2   0 9722.54 418.181   3
  -3  -2   0 9746.36 531.284   7
  -3  -2   1 144298. 2015.96   7
  -3  -2   1 151563. 1395.69   3
  -3  -2   2 174631. 2445.86   7
  -3  -2   2 182186. 1699.85  10
  -3  -2   3 94571.8 1953.79   7
  -3  -2   3 100044. 1229.24  10
  -3  -2   4 7194.91 616.311   7
  -3  -2   4 7060.57 225.355   9
  -3  -2   5 21139.3 1065.98   7
  -3  -2   6 10446.3 818.143   7
  -3  -2   7 21841.5 1219.48   7
  -3  -2   8 6995.31 762.258   7
  -3  -2   9 2084.63 493.137   7
  -3  -2  10 1570.29 462.081   7
  -3  -1 -13 3316.73 720.295   1
  -3  -1 -12 15493.8 1205.48   1
  -3  -1 -11 8811.91 907.594   1
  -3  -1 -10 9694.70 862.404   1
  -3  -1  -9 5931.71 656.430   1
  -3  -1  -8 45428.6 1416.77   1
  -3  -1  -7 15332.5 762.724   1
  -3  -1  -6 93487.8 1868.51   3
  -3  -1  -6 93466.1 1662.70   1
  -3  -1  -5 17973.6 798.868   3
  -3  -1  -5 18744.1 791.662   5
  -3  -1  -5 18777.2 661.824   1
  -3  -1  -4 317.927 182.466   5
  -3  -1  -4 246.583 124.520   1
  -3  -1  -3 99051.4 1450.88   5
  -3  -1  -3 98463.7 1584.67   3
  -3  -1  -2 128626. 1560.31   5
  -3  -1  -2 122834. 1663.45   3
  -3  -1  -1 53878.5 1080.76   3
  -3  -1  -1 53200.5 997.493   5
  -3  -1   0 148722. 1724.44   3
  -3  -1   1 25493.7 772.425   3
  -3  -1   1 23488.1 807.447   7
  -3  -1   2 211762. 2144.85   3
  -3  -1   2 296815. 2881.44   7
  -3  -1   3 283975. 3133.92   7
  -3  -1   3 268910. 1838.38   3
  -3  -1   4 64499.6 1622.58   7
  -3  -1   5 9743.50 709.407   7
  -3  -1   6 5717.84 598.191   7
  -3  -1   7 22708.2 1185.52   7
  -3  -1   8 10421.2 869.770   7
  -3  -1   9 11960.1 989.003   7
  -3  -1  10 6163.96 763.285   7
  -3   0 -12 5935.83 882.951   1
  -3   0 -11 11608.9 1047.69   1
  -3   0 -10 23220.4 1286.26   1
  -3   0  -9 15817.3 1004.96   1
  -3   0  -8 17311.5 947.569   1
  -3   0  -7 23113.5 979.039   3
  -3   0  -7 22718.5 991.889   1
  -3   0  -6 20122.9 866.160   3
  -3   0  -6 20559.7 871.584   1
  -3   0  -5 73657.5 1563.36   3
  -3   0  -5 73502.7 1456.51   1
  -3   0  -4 20469.3 851.354   3
  -3   0  -4 21310.1 711.657   1
  -3   0  -3 15438.9 784.440   3
  -3   0  -3 14048.8 518.710   5
  -3   0  -2 9043.98 374.188   5
  -3   0  -1 29578.7 626.856   5
  -3   0   0 67385.1 1220.82   3
  -3   0   1 23508.3 632.068   3
  -3   0   1 23087.0 770.834   2
  -3   0   2 6700.49 331.401   3
  -3   0   2 5889.73 440.319   2
  -3   0   2 5896.10 422.023   7
  -3   0   3 4670.09 275.766   3
  -3   0   3 4297.81 145.094   9
  -3   0   3 4167.34 389.983   7
  -3   0   3 4321.48 429.606   2
  -3   0   4 13707.6 729.728   7
  -3   0   4 13887.9 450.475   3
  -3   0   4 13526.9 738.054   2
  -3   0   4 13419.7 341.215   9
  -3   0   5 17297.9 891.016   2
  -3   0   5 17159.4 487.375   3
  -3   0   5 17613.2 875.723   7
  -3   0   6 18878.8 988.635   2
  -3   0   6 19039.9 965.374   7
  -3   0   7 26920.6 1219.02   7
  -3   0   7 26851.1 1244.27   2
  -3   0   8 4750.99 595.569   2
  -3   0   8 4371.86 561.032   7
  -3   0   9 2930.56 500.161   7
  -3   0   9 2857.18 500.652   2
  -3   0  10 7437.68 791.056   7
  -3   0  11 10187.3 971.756   7
  -3   1 -12 11169.4 1116.02   1
  -3   1 -11 11019.2 1058.28   1
  -3   1 -10 3497.61 599.465   1
  -3   1  -9 13835.6 978.236   1
  -3   1  -8 2092.29 394.776   1
  -3   1  -8 2105.06 339.760   3
  -3   1  -7 38430.7 1240.83   3
  -3   1  -7 39348.0 1395.49   1
  -3   1  -6 7815.28 601.278   1
  -3   1  -6 14012.5 778.541   3
  -3   1  -5 17374.1 862.198   3
  -3   1  -5 18023.7 811.366   1
  -3   1  -4 14756.4 1053.79   3
  -3   1  -2 74105.7 1540.78   3
  -3   1  -2 65166.4 845.370   5
  -3   1  -1 79902.6 1052.87   4
  -3   1  -1 82994.5 776.198   5
  -3   1  -1 79374.8 1357.92   3
  -3   1   0 6493.43 283.459   4
  -3   1   0 6849.91 382.390   2
  -3   1   0 7549.49 425.146   3
  -3   1   1 60826.2 1203.65   2
  -3   1   1 59695.7 1094.19   3
  -3   1   2 11839.2 495.605   3
  -3   1   2 12453.0 607.017   2
  -3   1   3 102359. 1836.06   2
  -3   1   3 103663. 1437.22   3
  -3   1   3 101535. 1099.99   9
  -3   1   3 100604. 1654.48   7
  -3   1   4 37708.7 1206.71   2
  -3   1   4 36438.9 879.635   3
  -3   1   4 37904.8 1098.75   7
  -3   1   5 3211.65 380.694   7
  -3   1   5 3107.23 417.257   2
  -3   1   5 3102.22 280.093   3
  -3   1   6 27353.6 1093.55   7
  -3   1   6 27683.6 1194.29   2
  -3   1   6 27899.0 799.043   3
  -3   1   7 22284.2 1148.46   2
  -3   1   7 22991.1 1068.59   7
  -3   1   8 27978.9 1359.20   2
  -3   1   8 26868.1 1228.84   7
  -3   1   9 14898.8 1054.95   2
  -3   1   9 14586.1 980.304   7
  -3   1  10 1920.38 457.654   2
  -3   1  10 2267.77 461.539   7
  -3   1  11 11028.2 1024.99   2
  -3   2 -11 8993.75 974.078   1
  -3   2 -10 11991.6 1016.13   1
  -3   2  -9 18158.1 1159.13   1
  -3   2  -8 601.015 296.781   1
  -3   2  -8 792.228 268.340   3
  -3   2  -7 19866.9 950.754   3
  -3   2  -7 15321.8 949.024   1
  -3   2  -6 34443.3 1287.25   1
  -3   2  -6 32847.6 1170.64   3
  -3   2  -5 23454.7 993.889   1
  -3   2  -5 17566.8 1102.08   3
  -3   2  -3 33262.5 1094.49   3
  -3   2  -2 27705.8 887.807   3
  -3   2  -1 45499.2 817.173   2
  -3   2  -1 44974.0 1099.66   3
  -3   2  -1 43067.9 740.776   4
  -3   2   0 126336. 1774.57   3
  -3   2   0 127724. 983.368   4
  -3   2   1 110536. 1653.62   3
  -3   2   1 108337. 1603.19   2
  -3   2   2 50472.6 1124.89   3
  -3   2   2 50031.3 1209.96   2
  -3   2   3 22394.5 761.606   7
  -3   2   3 20804.4 747.867   3
  -3   2   3 21404.9 867.053   2
  -3   2   4 23200.7 805.775   7
  -3   2   4 23892.4 985.090   2
  -3   2   5 16983.9 909.886   2
  -3   2   5 18161.2 774.685   7
  -3   2   6 24414.3 973.963   7
  -3   2   6 24745.8 1144.43   2
  -3   2   7 49.7975 243.136   2
  -3   2   7 275.288 199.705   7
  -3   2   8 12426.9 927.710   2
  -3   2   8 12744.5 819.568   7
  -3   2   9 1816.18 435.594   2
  -3   2   9 2430.85 412.268   7
  -3   2  10 13921.7 1102.69   2
  -3   2  11 454.702 309.913   2
  -3   3 -11 2313.37 608.649   1
  -3   3 -10 3201.43 606.431   1
  -3   3  -9 8797.16 870.299   1
  -3   3  -8 19308.7 922.751   3
  -3   3  -8 17257.9 1136.64   1
  -3   3  -7 7474.65 664.735   3
  -3   3  -7 7898.92 739.883   1
  -3   3  -6 1692.26 548.468   3
  -3   3  -6 1461.51 366.388   1
  -3   3  -5 34164.3 1284.64   1
  -3   3  -4 86603.7 2060.01   3
  -3   3  -3 37083.7 1135.37   3
  -3   3  -2 4219.09 392.703   3
  -3   3  -2 4235.33 205.666   2
  -3   3  -1 6619.97 474.361   3
  -3   3  -1 6323.01 305.236   4
  -3   3  -1 6752.11 326.712   2
  -3   3   0 4144.28 166.706   4
  -3   3   0 4430.82 394.629   3
  -3   3   0 3995.02 299.998   2
  -3   3   1 60334.5 1354.45   3
  -3   3   1 60283.7 1216.68   2
  -3   3   2 160545. 2220.04   3
  -3   3   2 154791. 2154.82   2
  -3   3   3 49512.3 1316.62   2
  -3   3   4 7059.88 576.519   2
  -3   3   4 7564.74 452.240   7
  -3   3   5 974.565 317.608   2
  -3   3   5 1278.48 226.714   7
  -3   3   6 2896.21 461.832   2
  -3   3   6 2801.22 338.813   7
  -3   3   7 29875.1 1360.16   2
  -3   3   7 30383.9 1075.70   7
  -3   3   8 28039.1 1102.21   7
  -3   3   8 27356.6 1380.33   2
  -3   3   9 657.433 336.850   2
  -3   3  10 363.212 283.333   2
  -3   3  11 4588.92 717.128   2
  -3   4 -10 7475.99 902.587   1
  -3   4  -9 1241.09 406.023   1
  -3   4  -8 5756.60 709.273   1
  -3   4  -7 24061.6 1312.42   1
  -3   4  -7 24072.9 1118.30   3
  -3   4  -6 36030.8 1501.37   1
  -3   4  -5 10243.8 784.461   1
  -3   4  -5 3295.90 1026.79   3
  -3   4  -4 15019.1 803.556   3
  -3   4  -3 7474.45 559.826   3
  -3   4  -2 23901.8 519.219   2
  -3   4  -2 22879.4 925.675   3
  -3   4  -2 22822.9 592.236   5
  -3   4  -1 57646.8 659.591   5
  -3   4  -1 57567.8 1001.92   2
  -3   4  -1 58197.3 1455.75   3
  -3   4   0 76111.5 1646.33   3
  -3   4   0 74815.2 807.583   4
  -3   4   0 72992.8 1282.74   2
  -3   4   1 3394.46 340.005   2
  -3   4   1 2915.96 387.071   3
  -3   4   2 33025.0 1042.05   2
  -3   4   3 109938. 2059.33   2
  -3   4   4 32690.6 862.891   7
  -3   4   4 30990.5 1171.93   2
  -3   4   5 5649.39 384.058   7
  -3   4   5 5179.86 552.574   2
  -3   4   6 17773.3 709.110   7
  -3   4   6 17918.3 1019.17   2
  -3   4   7 6818.65 697.123   2
  -3   4   7 7211.06 486.418   7
  -3   4   8 26150.3 1381.44   2
  -3   4   9 15599.8 1140.34   2
  -3   4  10 5011.44 713.174   2
  -3   4  11 536.201 325.976   2
  -3   5  -9-230.165 431.484   1
  -3   5  -8 9566.58 959.239   1
  -3   5  -7 5602.93 705.849   1
  -3   5  -6 7361.31 752.824   1
  -3   5  -5 12213.4 901.905   1
  -3   5  -5 15179.6 1004.16   3
  -3   5  -4 1994.92 337.520   3
  -3   5  -3 11145.4 713.870   3
  -3   5  -2 3325.52 229.797   2
  -3   5  -2 3047.01 425.656   3
  -3   5  -1 1302.06 152.142   5
  -3   5  -1 1449.83 310.881   3
  -3   5  -1 1541.20 208.391   2
  -3   5   0 76654.0 1414.18   2
  -3   5   0 77040.7 1798.55   3
  -3   5   1 44358.6 1179.97   2
  -3   5   1 43201.2 1363.53   3
  -3   5   2 38918.7 1196.42   2
  -3   5   3 1702.88 347.274   2
  -3   5   4 20239.8 999.299   2
  -3   5   4 20542.0 655.679   7
  -3   5   5 12477.0 850.645   2
  -3   5   5 13011.5 525.510   7
  -3   5   6 36736.0 1496.49   2
  -3   5   7 32342.2 1485.24   2
  -3   5   8 2215.83 484.188   2
  -3   5   9 3001.75 556.042   2
  -3   5  10 4605.82 711.432   2
  -3   5  11 3692.00 676.823   2
  -3   6  -8 4265.53 677.345   1
  -3   6  -7 15998.9 1208.00   1
  -3   6  -6 13500.6 1039.85   1
  -3   6  -5 3896.07 512.128   3
  -3   6  -5 4705.48 628.370   1
  -3   6  -4 5029.30 543.387   3
  -3   6  -4 4199.63 552.684   1
  -3   6  -3 10142.6 732.200   3
  -3   6  -2 43073.5 883.278   2
  -3   6  -2 41739.3 1429.53   3
  -3   6  -1 57776.6 1674.54   3
  -3   6  -1 55359.6 1178.53   2
  -3   6   0 16079.4 708.160   2
  -3   6   0 15867.5 908.674   3
  -3   6   1 63645.3 1510.31   2
  -3   6   1 63625.4 746.996   4
  -3   6   1 66871.2 1819.64   3
  -3   6   2 15051.6 790.588   2
  -3   6   3 35491.6 1295.30   2
  -3   6   4 3295.66 466.396   2
  -3   6   5 16237.9 998.589   2
  -3   6   6 7734.51 743.143   2
  -3   6   7 11108.1 921.545   2
  -3   6   8 14001.6 1077.74   2
  -3   6   9 8313.61 898.216   2
  -3   6  10-67.6074 286.742   2
  -3   7  -7 2507.09 549.171   1
  -3   7  -6 9798.47 962.530   1
  -3   7  -5 18488.3 1240.52   1
  -3   7  -5 22955.0 1269.17   3
  -3   7  -4 15196.7 938.977   3
  -3   7  -4 12772.5 998.490   1
  -3   7  -3 6782.08 636.397   3
  -3   7  -2 494.581 280.908   3
  -3   7  -1 35286.7 1410.85   3
  -3   7  -1 35095.5 1004.56   2
  -3   7   0 29676.6 1021.27   2
  -3   7   0 31066.0 1337.91   3
  -3   7   1 4646.43 563.496   3
  -3   7   1 4863.68 464.787   2
  -3   7   2 8299.97 722.545   3
  -3   7   2 7970.43 629.627   2
  -3   7   3 8094.06 666.760   2
  -3   7   4 24042.5 1188.33   2
  -3   7   5 27805.4 1338.40   2
  -3   7   6 1520.92 410.347   2
  -3   7   7 2908.55 550.687   2
  -3   7   8 1376.19 434.893   2
  -3   7   9 1061.64 422.690   2
  -3   7  10 10550.5 1062.94   2
  -3   8  -6 2016.19 513.610   1
  -3   8  -5 858.599 375.527   1
  -3   8  -4 10677.9 841.937   3
  -3   8  -4 9371.70 914.531   1
  -3   8  -3 20121.5 1149.19   3
  -3   8  -2 8486.03 752.328   3
  -3   8  -1 6703.04 684.847   3
  -3   8   0 3499.88 395.401   2
  -3   8   0 3411.10 502.302   3
  -3   8   1 23618.0 1047.13   2
  -3   8   1 23824.6 1267.35   3
  -3   8   2 32419.1 1297.09   2
  -3   8   2 32635.4 1487.27   3
  -3   8   3 5749.06 607.372   2
  -3   8   4 6787.89 695.430   2
  -3   8   5 319.101 292.077   2
  -3   8   6 11606.7 977.355   2
  -3   8   7 19875.2 1302.01   2
  -3   8   8 5893.26 787.767   2
  -3   8   9 1706.19 489.047   2
  -3   9  -5 5538.49 784.970   1
  -3   9  -4 1298.95 449.842   1
  -3   9  -3 5396.50 656.962   3
  -3   9  -3 4065.13 609.373   1
  -3   9  -2 7616.33 752.721   3
  -3   9  -1 19955.9 1209.16   3
  -3   9   0 11631.0 947.091   3
  -3   9   1 6275.01 591.089   2
  -3   9   1 6424.64 707.108   3
  -3   9   2 7168.95 776.676   3
  -3   9   2 7112.18 670.850   2
  -3   9   3 8390.19 753.347   2
  -3   9   3 7600.30 793.818   3
  -3   9   4 19398.1 1175.76   2
  -3   9   5 11592.8 957.597   2
  -3   9   6 18155.8 1245.71   2
  -3   9   7-2.35627 277.373   2
  -3   9   8 6699.15 865.731   2
  -3  10  -3 3158.24 599.254   1
  -3  10  -2 7475.31 794.262   3
  -3  10  -2 7138.22 823.137   1
  -3  10  -1 3220.67 535.320   3
  -3  10   0 24165.7 1426.23   3
  -3  10   1 12803.6 1061.78   3
  -3  10   2 3939.42 620.094   3
  -3  10   3 3284.07 508.335   2
  -3  10   3 3736.55 627.855   3
  -3  10   4 442.490 249.994   2
  -3  10   4 673.919 372.845   3
  -3  10   5 5188.19 705.821   2
  -3  10   6 21973.7 1438.71   2
  -3  10   7 23884.3 1551.35   2
  -3  11  -1 6766.18 809.801   3
  -3  11  -1 6922.14 832.813   1
  -3  11   0 4793.97 686.891   3
  -3  11   1 2605.99 528.346   3
  -3  11   2 6255.24 812.661   3
  -3  11   3 9677.76 1007.76   3
  -3  11   4 4805.93 664.046   2
  -3  11   4 5020.29 759.804   3
  -3  11   5 4047.49 652.013   2
  -3  11   6 1165.01 466.813   2
  -2 -11  -9 2385.45 527.489   5
  -2 -11  -8 8698.24 936.680   5
  -2 -11  -7 6326.96 786.215   5
  -2 -11  -6 3088.87 578.615   5
  -2 -11  -6 2139.90 516.325  10
  -2 -11  -5 1133.61 386.279   5
  -2 -11  -5 591.200 312.507  10
  -2 -11  -4 1141.45 430.864  10
  -2 -11  -4 786.655 365.946   5
  -2 -11  -3 451.393 360.362  10
  -2 -11  -2 5849.55 799.568  10
  -2 -11  -1 5532.83 767.062  10
  -2 -11   0-109.642 339.954  10
  -2 -10 -10 7215.82 877.148   5
  -2 -10  -9 8776.38 948.701   5
  -2 -10  -8 1077.82 401.316   5
  -2 -10  -7 4365.10 654.983   5
  -2 -10  -6 5634.60 706.807   5
  -2 -10  -5 15846.9 1126.95   5
  -2 -10  -4 10075.7 954.644  10
  -2 -10  -4 11273.8 962.965   5
  -2 -10  -3 6475.14 779.296  10
  -2 -10  -3 5776.40 697.974   5
  -2 -10  -2 10410.0 971.064  10
  -2 -10  -1 15151.6 1168.76  10
  -2 -10   0 13747.5 1100.64  10
  -2 -10   1 1722.74 455.647  10
  -2 -10   2 396.914 272.316   7
  -2 -10   2-5.38802 251.929  10
  -2 -10   3 1255.58 406.203   7
  -2  -9 -11 3721.68 677.093   5
  -2  -9 -10 376.179 339.088   5
  -2  -9  -9 6555.20 797.969   5
  -2  -9  -8 3634.16 603.278   5
  -2  -9  -7 6273.81 720.579   5
  -2  -9  -6 4225.12 593.549   5
  -2  -9  -5 485.896 304.130   5
  -2  -9  -4 9043.96 812.790   5
  -2  -9  -3 20114.9 1192.75   5
  -2  -9  -2 8658.36 818.295  10
  -2  -9  -1 1856.22 441.733  10
  -2  -9   0 7267.51 651.803   7
  -2  -9   0 7256.73 752.987  10
  -2  -9   1 11500.4 961.407  10
  -2  -9   1 10757.2 839.262   7
  -2  -9   2 7394.64 802.897  10
  -2  -9   2 6852.11 714.085   7
  -2  -9   3 2186.19 472.508   7
  -2  -9   4 2419.34 546.173   7
  -2  -8 -11 10079.7 1010.17   5
  -2  -8 -10 10263.4 982.837   5
  -2  -8  -9 858.285 365.231   5
  -2  -8  -8 8973.06 858.468   5
  -2  -8  -7 9716.97 842.287   5
  -2  -8  -6 24950.4 1286.32   5
  -2  -8  -5 21137.7 1164.79   5
  -2  -8  -4 16625.5 1003.31   5
  -2  -8  -3 25786.2 1262.73   5
  -2  -8  -2 47664.5 1704.68   5
  -2  -8  -2 49299.0 1279.95   7
  -2  -8  -1 16685.3 1043.52  10
  -2  -8  -1 18317.1 878.472   7
  -2  -8   0 23329.3 1233.19  10
  -2  -8   0 23596.4 1084.59   7
  -2  -8   1 5452.76 584.588   7
  -2  -8   1 6147.46 667.205  10
  -2  -8   2 6180.20 655.580   7
  -2  -8   2 6936.55 711.968  10
  -2  -8   3 19567.4 1187.75  10
  -2  -8   3 19716.8 1206.32   7
  -2  -8   4 3911.04 604.203   7
  -2  -8   5 6896.33 824.092   7
  -2  -7 -12 4769.55 744.769   5
  -2  -7 -11 2718.84 567.159   5
  -2  -7 -10 9976.93 945.571   5
  -2  -7  -9 13993.9 1040.53   5
  -2  -7  -8 16959.9 1099.03   5
  -2  -7  -7 4554.77 585.518   5
  -2  -7  -6 7440.75 694.995   5
  -2  -7  -5 6800.02 643.557   5
  -2  -7  -4 11173.8 791.856   5
  -2  -7  -3 26157.9 760.498   7
  -2  -7  -3 25435.3 1147.30   5
  -2  -7  -2 8654.17 715.299   5
  -2  -7  -2 9127.83 519.646   7
  -2  -7  -1 19651.8 1042.30   5
  -2  -7  -1 18674.0 820.044   7
  -2  -7   0 12807.7 746.079   7
  -2  -7   0 12150.8 831.582  10
  -2  -7   1 30579.7 1233.22   7
  -2  -7   1 28582.3 1276.22  10
  -2  -7   2 15815.7 964.656  10
  -2  -7   2 15890.9 957.490   7
  -2  -7   2 16584.9 863.161   9
  -2  -7   3 2828.47 473.408   7
  -2  -7   3 2936.90 387.566   9
  -2  -7   3 3126.58 472.936  10
  -2  -7   4 5429.31 665.142   7
  -2  -7   5 14944.6 1128.03   7
  -2  -7   6 6719.38 801.111   7
  -2  -6 -12 3962.94 689.312   5
  -2  -6 -11 14224.7 1155.57   5
  -2  -6 -10 1990.28 515.186   5
  -2  -6  -9 1800.79 430.313   5
  -2  -6  -8 13856.7 964.962   5
  -2  -6  -7 37177.7 1468.76   5
  -2  -6  -6 42471.4 1502.93   5
  -2  -6  -5 420.440 261.284   5
  -2  -6  -4 2913.33 189.635   7
  -2  -6  -4 2646.25 407.586   5
  -2  -6  -3 31009.0 1187.06   5
  -2  -6  -3 32036.8 758.770   7
  -2  -6  -2 67632.8 1275.14   7
  -2  -6  -2 66649.3 1737.78   5
  -2  -6  -1 46557.5 1189.39   7
  -2  -6  -1 47053.3 1478.53   5
  -2  -6   0 4740.07 506.812  10
  -2  -6   0 4835.94 451.157   7
  -2  -6   1 3554.72 436.910  10
  -2  -6   1 3456.52 418.498   7
  -2  -6   1 3325.48 372.359   9
  -2  -6   2 9889.36 715.763   7
  -2  -6   2 10129.1 717.065  10
  -2  -6   2 10750.4 642.839   9
  -2  -6   3 28977.3 1203.82  10
  -2  -6   3 30546.2 1333.09   7
  -2  -6   3 28984.9 1046.62   9
  -2  -6   4 46571.1 1348.55   9
  -2  -6   4 44729.7 1711.13   7
  -2  -6   5 1300.13 391.602   7
  -2  -6   6 11240.7 1001.00   7
  -2  -6   7 15442.5 1215.71   7
  -2  -5 -12 788.877 435.379   5
  -2  -5 -11 6593.52 805.035   5
  -2  -5 -10 13414.1 1053.93   5
  -2  -5  -9 13856.5 1006.28   5
  -2  -5  -9 14572.7 809.323   1
  -2  -5  -8 2866.31 484.310   5
  -2  -5  -7 30592.2 1290.48   5
  -2  -5  -6 31227.4 1219.63   5
  -2  -5  -5 21994.3 385.615   7
  -2  -5  -5 22829.2 1009.01   5
  -2  -5  -5 21686.7 374.785   7
  -2  -5  -4 31334.1 1131.80   5
  -2  -5  -4 30574.9 566.278   7
  -2  -5  -3 44463.1 829.049   7
  -2  -5  -3 44395.7 1313.00   5
  -2  -5  -2 45670.6 968.373   7
  -2  -5  -2 44777.9 1299.24   5
  -2  -5  -1 67303.9 1634.83   5
  -2  -5  -1 68977.5 1329.12   7
  -2  -5   0 22856.7 850.274   7
  -2  -5   1 17059.3 479.996   6
  -2  -5   1 18686.7 848.521  10
  -2  -5   1 18157.0 838.961   7
  -2  -5   1 18605.8 733.081   9
  -2  -5   2 2244.63 373.711   7
  -2  -5   2 2407.65 243.275   6
  -2  -5   2 2250.34 283.427   9
  -2  -5   2 2056.29 342.876  10
  -2  -5   3-18.0144 239.455   7
  -2  -5   3 202.047 149.677   6
  -2  -5   3 215.812 162.209   9
  -2  -5   3 247.693 196.782  10
  -2  -5   4 39381.4 1197.25   6
  -2  -5   4 38815.9 1114.03   9
  -2  -5   4 37847.3 1485.27   7
  -2  -5   5 34391.9 1510.40   7
  -2  -5   5 33705.1 1231.37   6
  -2  -5   6 13107.9 856.269   6
  -2  -5   6 12362.4 986.081   7
  -2  -5   7 102.609 200.488   6
  -2  -5   7 481.001 335.418   7
  -2  -5   8 2638.30 555.613   7
  -2  -4 -12 8720.63 982.047   5
  -2  -4 -11 443.918 288.710   1
  -2  -4 -11 1071.99 449.688   5
  -2  -4 -10 3375.53 578.905   5
  -2  -4 -10 3306.63 479.959   1
  -2  -4  -9 17136.3 920.500   1
  -2  -4  -9 16749.0 1086.87   5
  -2  -4  -8 3562.97 522.736   5
  -2  -4  -8 3660.50 411.513   1
  -2  -4  -7 24691.4 893.327   1
  -2  -4  -7 23223.9 1105.50   5
  -2  -4  -6 39824.1 1338.82   5
  -2  -4  -6 40731.3 982.531   1
  -2  -4  -5 60762.3 1531.57   5
  -2  -4  -5 59271.8 825.996   7
  -2  -4  -4 8859.50 579.479   5
  -2  -4  -3 138089. 2095.53   5
  -2  -4  -3 137961. 1347.96   7
  -2  -4  -2 78782.6 1567.05   5
  -2  -4  -2 78096.6 1133.59   7
  -2  -4  -1 25463.5 915.432   5
  -2  -4  -1 26251.3 753.194   7
  -2  -4   0 4079.13 355.241   7
  -2  -4   0 3935.35 149.005   6
  -2  -4   1 8390.09 544.437   7
  -2  -4   1 9165.56 535.164  10
  -2  -4   1 8666.88 442.004   9
  -2  -4   2 34155.6 1145.36   7
  -2  -4   2 35052.3 883.174   9
  -2  -4   2 35264.6 1053.72  10
  -2  -4   3 60183.2 1638.02   7
  -2  -4   3 62005.6 1201.59   9
  -2  -4   3 62036.5 1410.52  10
  -2  -4   4 8481.72 687.287   7
  -2  -4   4 8898.70 485.612   9
  -2  -4   5 29629.8 1330.86   7
  -2  -4   5 28542.5 896.438   9
  -2  -4   6 11833.9 920.721   7
  -2  -4   6 11800.7 798.096   6
  -2  -4   7 18186.7 1068.30   6
  -2  -4   7 17115.2 1164.44   7
  -2  -4   8 2370.14 510.088   7
  -2  -4   8 3221.91 524.317   6
  -2  -4   9 3022.89 552.418   6
  -2  -4   9 3266.47 625.248   7
  -2  -4  10 2206.69 510.208   6
  -2  -3 -12 3309.76 537.294   1
  -2  -3 -12 6900.27 881.094   5
  -2  -3 -11 22469.4 1270.20   1
  -2  -3 -10 6558.64 670.645   1
  -2  -3  -9 1357.63 367.797   1
  -2  -3  -8 6145.14 519.418   1
  -2  -3  -8 9360.48 767.052   5
  -2  -3  -7 652.771 266.936   1
  -2  -3  -7-40.3268 263.163   5
  -2  -3  -6 105981. 2124.26   5
  -2  -3  -6 107437. 1671.17   1
  -2  -3  -5 66549.5 1541.65   5
  -2  -3  -5 65431.0 1105.60   1
  -2  -3  -4 3382.07 370.784   5
  -2  -3  -4 3408.26 205.010   1
  -2  -3  -3 10621.5 558.638   5
  -2  -3  -2 55128.9 1185.00   5
  -2  -3  -2 53939.7 899.667   7
  -2  -3  -1 35084.4 950.361   5
  -2  -3  -1 33801.9 767.465   7
  -2  -3   0 175721. 2206.17   5
  -2  -3   0 171569. 1943.58   7
  -2  -3   1 15905.2 487.422   9
  -2  -3   1 16630.9 685.099   7
  -2  -3   2 69943.9 1511.54   7
  -2  -3   2 67754.8 1020.44   9
  -2  -3   2 71087.2 1276.27  10
  -2  -3   3 46817.5 1365.92   7
  -2  -3   3 47591.3 900.508   9
  -2  -3   3 48552.4 1091.09  10
  -2  -3   4 36512.3 857.972   9
  -2  -3   4 35763.1 1279.55   7
  -2  -3   5 3340.95 468.263   7
  -2  -3   6 21216.5 1144.25   7
  -2  -3   7 4689.29 605.667   7
  -2  -3   8 6066.59 735.758   7
  -2  -3   9 5057.35 683.546   6
  -2  -3   9 5453.63 730.602   7
  -2  -3  10 7583.15 873.093   6
  -2  -3  10 7772.70 892.590   7
  -2  -2 -13 2259.50 500.917   1
  -2  -2 -12-444.483 487.797   1
  -2  -2 -11 5923.93 746.143   1
  -2  -2 -10 12716.9 987.771   1
  -2  -2  -9 26384.8 1204.22   1
  -2  -2  -8 10591.9 766.606   1
  -2  -2  -7 44162.9 1269.86   1
  -2  -2  -6 7921.98 524.410   1
  -2  -2  -5 11897.5 533.774   1
  -2  -2  -5 9231.64 585.033   5
  -2  -2  -4 149089. 1380.30   1
  -2  -2  -4 163944. 2103.07   5
  -2  -2  -3 131924. 1723.45   5
  -2  -2  -3 132046. 903.527   1
  -2  -2  -2 70375.8 845.996   6
  -2  -2  -2 72700.8 1209.20   5
  -2  -2  -1 16475.2 351.089   6
  -2  -2  -1 17928.9 604.280   5
  -2  -2  -1 17529.8 307.152   1
  -2  -2   0 14822.5 587.505   5
  -2  -2   0 14975.3 432.484   1
  -2  -2   0 14629.7 531.892   7
  -2  -2   1 119499. 1649.50   7
  -2  -2   2 161355. 1198.29   9
  -2  -2   2 163809. 1589.16  10
  -2  -2   2 161930. 2126.07   7
  -2  -2   3 51256.7 1317.26   7
  -2  -2   4 24967.7 1011.00   7
  -2  -2   5 21279.5 1010.59   7
  -2  -2   6 52838.9 1695.48   7
  -2  -2   7 30117.6 1373.16   7
  -2  -2   8 13186.8 990.068   7
  -2  -2   9 261.032 313.977   7
  -2  -2  10 1864.83 497.584   7
  -2  -2  10 1577.42 455.736   6
  -2  -1 -13 2929.61 689.933   1
  -2  -1 -12 11616.8 1093.05   1
  -2  -1 -11 8393.52 927.687   1
  -2  -1 -10 12935.1 1050.19   1
  -2  -1  -9 16455.8 1021.16   1
  -2  -1  -8 22559.1 1080.76   1
  -2  -1  -7 77601.6 1727.81   1
  -2  -1  -6 79274.9 1562.52   1
  -2  -1  -5 12573.4 565.377   1
  -2  -1  -4 5707.38 401.710   3
  -2  -1  -4 5559.34 323.407   1
  -2  -1  -3 116991. 1557.30   3
  -2  -1  -3 118554. 1528.48   5
  -2  -1  -3 116456. 1130.83   1
  -2  -1  -2 92284.3 1112.07   6
  -2  -1  -2 94667.3 1190.00   5
  -2  -1  -1 119679. 1267.51   3
  -2  -1  -1 123125. 887.903   1
  -2  -1  -1 118408. 1291.50   5
  -2  -1   0 35769.4 639.651   3
  -2  -1   0 35869.7 753.180   5
  -2  -1   1 120061. 989.738   3
  -2  -1   1 112938. 1459.49   7
  -2  -1   2 40852.8 986.991   7
  -2  -1   2 42101.2 583.929  10
  -2  -1   3 113724. 1808.29   7
  -2  -1   4 38794.5 1162.89   7
  -2  -1   4 39119.2 1135.91   2
  -2  -1   5 15863.1 820.726   7
  -2  -1   5 17962.3 832.594   2
  -2  -1   6 471.784 220.639   2
  -2  -1   6 387.201 251.457   7
  -2  -1   7 19063.9 1036.16   7
  -2  -1   7 19214.9 981.887   2
  -2  -1   8 17621.6 1061.38   7
  -2  -1   9 12559.5 973.385   7
  -2  -1  10 9857.16 922.525   7
  -2  -1  11 1056.45 419.356   7
  -2   0 -12 8070.88 989.167   1
  -2   0 -11 7674.38 929.653   1
  -2   0 -10 43467.6 1797.92   1
  -2   0  -9 18783.2 1133.09   1
  -2   0  -8 11491.2 839.932   1
  -2   0  -7 848.287 295.651   1
  -2   0  -6 34270.8 1124.61   1
  -2   0  -6 35103.5 1036.11   3
  -2   0  -5 60305.6 1264.19   3
  -2   0  -5 58420.3 1301.76   1
  -2   0  -4 58499.1 1150.80   1
  -2   0  -4 58485.6 1158.55   3
  -2   0  -3 8719.37 497.586   3
  -2   0  -3 8587.87 394.916   1
  -2   0  -2 39674.8 694.868   5
  -2   0  -2 32136.3 966.303   3
  -2   0  -1 173516. 1421.94   4
  -2   0  -1 172367. 1498.99   6
  -2   0  -1 176406. 1248.88   5
  -2   0   0 63515.2 837.718   4
  -2   0   0 64084.4 904.196   3
  -2   0   0 65003.6 916.794   1
  -2   0   1 116996. 1093.53   3
  -2   0   1 112959. 1407.23   2
  -2   0   2 36310.0 600.253   3
  -2   0   2 37265.4 406.372   9
  -2   0   2 38688.0 926.890   2
  -2   0   2 36121.5 837.659   7
  -2   0   3 27489.2 826.122   7
  -2   0   3 26989.2 523.811   3
  -2   0   3 27243.2 852.279   2
  -2   0   4 65204.7 1408.09   7
  -2   0   4 66026.7 1435.47   2
  -2   0   5 33924.6 1101.48   7
  -2   0   5 33237.7 1119.34   2
  -2   0   6 23677.9 1003.56   7
  -2   0   6 24821.0 1038.46   2
  -2   0   7 15743.1 884.106   7
  -2   0   7 16460.2 911.438   2
  -2   0   8 747.591 283.232   7
  -2   0   8 536.584 272.328   2
  -2   0   9 9259.05 799.812   7
  -2   0   9 8739.13 757.152   2
  -2   0  10 12125.8 944.805   2
  -2   0  10 11903.6 944.853   7
  -2   0  11 19193.9 1280.06   7
  -2   1 -12 11292.8 1181.12   1
  -2   1 -11 12989.8 1150.70   1
  -2   1 -10 7008.16 866.354   1
  -2   1  -9 21522.4 1244.46   1
  -2   1  -8 29622.6 1318.44   1
  -2   1  -7 23971.5 1096.05   1
  -2   1  -7 24720.6 905.636   3
  -2   1  -6 14374.7 680.327   3
  -2   1  -6 12805.1 762.997   1
  -2   1  -5 34144.8 1104.40   1
  -2   1  -5 32664.7 966.306   3
  -2   1  -4 33896.9 995.619   3
  -2   1  -4 31494.2 946.822   1
  -2   1  -2 109915. 1566.76   3
  -2   1  -1 26764.3 524.459   4
  -2   1  -1 26694.6 358.490   5
  -2   1  -1 26968.1 672.500   3
  -2   1   0 129440. 1386.66   3
  -2   1   0 131945. 1264.99   2
  -2   1   0 133925. 920.035   4
  -2   1   1 17477.1 556.215   2
  -2   1   1 17194.3 510.333   3
  -2   1   1 17605.2 363.067  10
  -2   1   2 63454.0 1168.92   2
  -2   1   2 63700.1 1068.62   7
  -2   1   2 61947.3 800.881   9
  -2   1   3 150628. 1987.21   2
  -2   1   3 151416. 1365.51   9
  -2   1   3 147985. 1728.89   7
  -2   1   4 15025.5 629.757   7
  -2   1   4 15828.0 719.151   2
  -2   1   5 9291.00 552.214   7
  -2   1   5 9266.21 611.429   2
  -2   1   6 9635.22 676.441   2
  -2   1   6 10578.6 638.857   7
  -2   1   7 27679.1 1089.83   7
  -2   1   7 26436.4 1155.16   2
  -2   1   8 21223.2 1047.98   7
  -2   1   8 20691.3 1092.51   2
  -2   1   9 9979.52 785.027   7
  -2   1   9 10115.5 825.699   2
  -2   1  10 540.289 320.824   2
  -2   1  10 743.924 312.822   7
  -2   1  11 12951.2 1003.83   7
  -2   1  11 12600.2 1024.40   2
  -2   2 -11 14124.0 1227.65   1
  -2   2 -10 10613.7 1001.28   1
  -2   2  -9 16631.4 1140.79   1
  -2   2  -8 1749.45 415.453   1
  -2   2  -7 18211.5 777.868   3
  -2   2  -7 17345.5 996.286   1
  -2   2  -6 33447.3 1013.37   3
  -2   2  -6 32634.8 1255.51   1
  -2   2  -5 77123.0 1578.59   3
  -2   2  -5 75584.4 1741.58   1
  -2   2  -4 83073.5 1686.32   1
  -2   2  -3 40344.8 1074.05   3
  -2   2  -2 43666.8 977.834   3
  -2   2  -1 7790.98 406.976   3
  -2   2  -1 7863.95 257.545   2
  -2   2   0 183598. 1891.34   3
  -2   2   0 188079. 952.962   4
  -2   2   0 184458. 1541.48   2
  -2   2   1 31758.1 660.590  10
  -2   2   1 30614.4 738.544   2
  -2   2   2 6283.63 401.839   2
  -2   2   3 93719.3 1598.11   2
  -2   2   3 96406.8 1296.17   7
  -2   2   4 33408.1 843.935   7
  -2   2   4 33299.2 1053.22   2
  -2   2   5 13875.3 609.977   7
  -2   2   5 12339.9 709.936   2
  -2   2   6 1114.41 234.301   7
  -2   2   6 891.076 303.765   2
  -2   2   7 3510.35 391.518   7
  -2   2   7 3506.11 466.270   2
  -2   2   8 18446.6 907.198   7
  -2   2   8 17218.4 1023.94   2
  -2   2   9 8773.53 789.628   2
  -2   2   9 8754.37 681.777   7
  -2   2  10 4918.65 554.374   7
  -2   2  10 5018.16 647.493   2
  -2   2  11 1452.78 435.366   2
  -2   3 -11 3985.75 794.605   1
  -2   3 -10 5789.81 813.011   1
  -2   3  -9 22288.1 1359.85   1
  -2   3  -8 15520.0 1072.93   1
  -2   3  -7 55572.2 1881.47   1
  -2   3  -7 57194.0 1350.98   3
  -2   3  -6 707.057 318.107   1
  -2   3  -6 792.096 370.682   3
  -2   3  -5 63376.7 1709.65   1
  -2   3  -4 60061.2 1547.91   3
  -2   3  -4 55800.5 1534.11   1
  -2   3  -3 23161.5 797.939   3
  -2   3  -2 44475.8 1065.05   3
  -2   3  -2 46867.9 515.493   2
  -2   3  -1 76136.3 916.535   2
  -2   3  -1 76355.6 1379.15   3
  -2   3  -1 76304.8 885.940   5
  -2   3   0 104265. 1278.31   2
  -2   3   0 102616. 1602.42   3
  -2   3   1 136957. 1665.45   2
  -2   3   2 156997. 1979.53   2
  -2   3   3 43720.1 1156.37   2
  -2   3   3 45120.3 838.174   7
  -2   3   4 59693.7 1463.33   2
  -2   3   4 61317.3 1028.53   7
  -2   3   5 10630.8 495.530   7
  -2   3   5 11220.1 708.286   2
  -2   3   6 12149.0 575.143   7
  -2   3   6 12892.9 808.286   2
  -2   3   7 39554.0 1114.07   7
  -2   3   7 39334.4 1452.71   2
  -2   3   8 17377.1 815.766   7
  -2   3   8 16403.0 1020.06   2
  -2   3   9 573.281 325.189   2
  -2   3  10 5695.17 699.974   2
  -2   3  11 2167.35 478.164   2
  -2   3  12 7248.42 857.832   2
  -2   4 -10 2214.98 612.364   1
  -2   4  -9 1233.87 394.766   1
  -2   4  -8 7459.03 798.899   1
  -2   4  -7 20356.2 1218.41   1
  -2   4  -6 27711.1 1324.92   1
  -2   4  -6 28500.8 1230.43   3
  -2   4  -5 761.769 316.935   1
  -2   4  -4 7935.75 530.720   3
  -2   4  -4 7203.91 611.998   1
  -2   4  -3 15544.0 716.449   3
  -2   4  -2 50211.6 716.130   2
  -2   4  -2 47623.6 1206.84   3
  -2   4  -1 95280.4 1187.31   2
  -2   4  -1 95500.1 1693.07   3
  -2   4  -1 93279.9 1212.37   5
  -2   4   0 19294.5 614.571   2
  -2   4   0 19118.5 480.859   5
  -2   4   0 20053.6 794.966   3
  -2   4   1 33376.9 488.760   4
  -2   4   1 31924.9 873.458   2
  -2   4   2 2326.54 294.104   2
  -2   4   3 40003.7 1173.21   2
  -2   4   4 55827.0 1494.02   2
  -2   4   4 55499.6 863.571   7
  -2   4   5 21167.3 991.011   2
  -2   4   5 21890.8 611.124   7
  -2   4   6 7631.94 662.492   2
  -2   4   6 7954.12 408.327   7
  -2   4   7 9704.54 498.914   7
  -2   4   7 9263.03 756.807   2
  -2   4   8 15355.1 1020.45   2
  -2   4   9 18797.6 1179.96   2
  -2   4  10 16552.3 1180.79   2
  -2   4  11 964.312 399.839   2
  -2   4  12 1237.17 436.145   2
  -2   5  -9 3851.97 648.855   1
  -2   5  -8 9557.89 944.605   1
  -2   5  -7 4128.52 630.307   1
  -2   5  -6 9686.81 862.174   1
  -2   5  -5 18777.9 1104.30   1
  -2   5  -5 18621.7 1077.56   3
  -2   5  -4 45972.1 1332.49   3
  -2   5  -4 43969.3 1554.45   1
  -2   5  -3 46363.9 659.796   2
  -2   5  -3 45258.2 1300.55   3
  -2   5  -2 20425.3 560.677   2
  -2   5  -2 20892.3 883.056   3
  -2   5  -1 11838.0 484.991   2
  -2   5  -1 12016.9 678.755   3
  -2   5   0 106429. 1591.60   2
  -2   5   0 107756. 1981.75   3
  -2   5   1 31816.1 954.245   2
  -2   5   1 32810.1 657.102   4
  -2   5   2 21414.7 843.015   2
  -2   5   2 20951.8 412.574   4
  -2   5   3 13390.8 725.379   2
  -2   5   3 12587.6 404.866   7
  -2   5   4 36425.6 619.140   7
  -2   5   4 37434.8 1281.85   2
  -2   5   5 75652.6 1929.29   2
  -2   5   5 75313.5 886.276   7
  -2   5   6 22485.7 1120.59   2
  -2   5   7 6428.11 666.900   2
  -2   5   8 7514.57 766.265   2
  -2   5   9 8938.71 851.696   2
  -2   5  10 11883.7 1021.39   2
  -2   5  11 11315.4 1068.31   2
  -2   6  -8 9596.39 991.744   1
  -2   6  -7 6603.60 807.548   1
  -2   6  -6 23949.3 1375.36   1
  -2   6  -5 16345.7 1078.25   1
  -2   6  -5 18294.7 1015.38   3
  -2   6  -4 14679.9 813.786   3
  -2   6  -4 13236.2 930.768   1
  -2   6  -3 39343.1 1305.18   3
  -2   6  -2 31461.1 789.652   2
  -2   6  -2 31706.5 1170.56   3
  -2   6  -1 19085.1 688.678   2
  -2   6  -1 18947.7 913.980   3
  -2   6   0 12957.5 618.824   2
  -2   6   0 13254.8 791.169   3
  -2   6   1 10877.2 621.206   2
  -2   6   1 11674.0 478.855   4
  -2   6   2 30641.1 659.315   4
  -2   6   2 29114.7 1058.62   2
  -2   6   3 28538.7 556.020   4
  -2   6   3 26899.2 1086.88   2
  -2   6   4 17290.4 936.175   2
  -2   6   5 14075.2 899.035   2
  -2   6   6 5393.60 626.662   2
  -2   6   7 12141.8 930.940   2
  -2   6   8 14036.7 1051.94   2
  -2   6   9 10471.8 961.891   2
  -2   6  10-224.926 364.835   2
  -2   6  11 875.737 396.139   2
  -2   7  -7 9049.29 946.653   1
  -2   7  -6 11212.2 1001.80   1
  -2   7  -5 19733.1 1252.06   1
  -2   7  -4 15279.7 882.031   3
  -2   7  -4 14719.9 1038.73   1
  -2   7  -3-76.4549 301.378   1
  -2   7  -3 454.918 271.154   3
  -2   7  -2 567.605 245.879   3
  -2   7  -1 3102.55 326.544   2
  -2   7  -1 3152.78 436.534   3
  -2   7   0 29858.9 981.049   4
  -2   7   0 29491.1 1004.77   2
  -2   7   0 29670.7 1234.41   3
  -2   7   1 25631.7 809.162   4
  -2   7   1 24337.8 977.516   2
  -2   7   2 23951.7 699.274   4
  -2   7   2 23876.8 1032.50   2
  -2   7   3 8369.80 658.309   2
  -2   7   4 5081.21 557.952   2
  -2   7   5 17822.1 1044.08   2
  -2   7   6 9366.50 819.970   2
  -2   7   7 706.268 363.121   2
  -2   7   8 5921.31 742.626   2
  -2   7   9 9491.06 950.244   2
  -2   7  10 13050.0 1157.11   2
  -2   8  -6 243.778 309.369   1
  -2   8  -5 7327.43 830.001   1
  -2   8  -4 8530.86 846.883   1
  -2   8  -3 24324.4 1179.09   3
  -2   8  -3 21439.0 1268.72   1
  -2   8  -2 8781.48 722.494   3
  -2   8  -1 15023.1 941.840   3
  -2   8   0 1688.65 299.355   2
  -2   8   0 1777.30 402.151   3
  -2   8   0 1977.07 314.642   4
  -2   8   1 40800.6 1576.09   3
  -2   8   1 41158.5 1360.86   2
  -2   8   2 26751.4 1157.69   2
  -2   8   3 24043.3 1152.25   2
  -2   8   4 9092.66 772.413   2
  -2   8   5 7090.41 716.781   2
  -2   8   6 32079.1 1530.97   2
  -2   8   7 47213.0 1949.57   2
  -2   8   8 1208.93 409.790   2
  -2   8   9 3323.57 637.074   2
  -2   8  10 4112.12 723.667   2
  -2   9  -5 2261.23 526.921   1
  -2   9  -4 869.573 373.394   1
  -2   9  -3 301.833 288.990   1
  -2   9  -2 6165.35 655.451   3
  -2   9  -2 6262.00 729.140   1
  -2   9  -1 20723.7 1184.48   3
  -2   9   0 5493.30 625.360   3
  -2   9   1 1922.28 351.184   2
  -2   9   1 1952.60 440.050   3
  -2   9   2 837.371 285.661   2
  -2   9   3 10422.1 819.852   2
  -2   9   4 13080.1 956.627   2
  -2   9   5 2446.77 489.581   2
  -2   9   6 4331.97 629.745   2
  -2   9   7 1973.88 517.045   2
  -2   9   8 9912.15 1014.39   2
  -2   9   9 6138.08 851.248   2
  -2  10  -4 7547.80 900.920   1
  -2  10  -3 6721.09 816.072   1
  -2  10  -2 3152.89 556.537   1
  -2  10  -1 3292.72 567.812   1
  -2  10  -1 2410.26 448.139   3
  -2  10   0 14987.8 1089.64   3
  -2  10   1 5849.86 705.871   3
  -2  10   2 9577.98 790.547   2
  -2  10   2 10393.8 929.191   3
  -2  10   3 5462.88 633.576   2
  -2  10   4 4448.37 619.956   2
  -2  10   5 14149.1 1087.31   2
  -2  10   6 19413.0 1332.37   2
  -2  10   7 2471.94 577.234   2
  -2  10   8 10099.4 1066.77   2
  -2  11  -2 214.714 283.150   1
  -2  11  -1 4914.08 711.545   1
  -2  11   0 1752.94 454.060   3
  -2  11   1 523.805 289.754   3
  -2  11   2 3446.84 599.032   3
  -2  11   3 8824.77 939.344   3
  -2  11   4 3280.06 573.975   2
  -2  11   5 429.817 373.249   2
  -2  11   6 3134.48 624.337   2
  -1 -11  -8 6209.93 807.510  10
  -1 -11  -7 4003.63 625.256   5
  -1 -11  -7 4723.36 705.885  10
  -1 -11  -6 2676.82 534.950  10
  -1 -11  -6 3325.69 563.760   5
  -1 -11  -5 2756.58 558.692  10
  -1 -11  -5 4460.89 637.353   5
  -1 -11  -4 5421.73 676.632   5
  -1 -11  -4 5568.07 764.193  10
  -1 -11  -3 17547.4 1302.70  10
  -1 -11  -2 12675.6 1119.69  10
  -1 -11  -1 6217.46 819.513  10
  -1 -11   0 148.678 295.591  10
  -1 -11   1 4252.37 710.815  10
  -1 -10 -10 3940.18 659.022   5
  -1 -10  -9 430.742 312.425   5
  -1 -10  -8 799.963 352.285   5
  -1 -10  -7 2973.58 525.628   5
  -1 -10  -6 11855.2 955.844   5
  -1 -10  -5 17344.3 1208.64  10
  -1 -10  -5 16991.1 1115.54   5
  -1 -10  -4 8647.36 805.500   5
  -1 -10  -4 9214.88 888.605  10
  -1 -10  -3-304.888 354.881  10
  -1 -10  -3 111.016 241.259   5
  -1 -10  -2 8231.00 871.242  10
  -1 -10  -1 7862.75 844.054  10
  -1 -10   0 6598.37 794.768  10
  -1 -10   1 9145.54 916.114  10
  -1 -10   2 958.989 356.327   7
  -1 -10   2 711.812 360.078  10
  -1 -10   3 4041.94 627.530   7
  -1 -10   4 7655.26 891.892   7
  -1  -9 -11 2710.44 592.707   5
  -1  -9 -10 782.392 387.962   5
  -1  -9  -9 7409.03 821.982   5
  -1  -9  -8 10715.5 942.798   5
  -1  -9  -7 11572.3 938.364   5
  -1  -9  -6 2408.00 463.014   5
  -1  -9  -5 7175.70 696.887   5
  -1  -9  -4 16790.9 1038.62   5
  -1  -9  -3 37820.0 1536.49   5
  -1  -9  -3 35199.5 1587.83  10
  -1  -9  -2 2833.43 512.781  10
  -1  -9  -1 5844.76 690.574  10
  -1  -9   0 20266.2 1018.37   7
  -1  -9   0 19370.1 1213.78  10
  -1  -9   1 18180.1 1050.52   7
  -1  -9   1 18661.5 1214.03  10
  -1  -9   2 14346.7 1093.48  10
  -1  -9   2 15360.9 1021.68   9
  -1  -9   2 14064.5 999.700   7
  -1  -9   3 976.675 316.267   9
  -1  -9   3 1195.16 384.418   7
  -1  -9   4 148.429 304.230   7
  -1  -9   5 3198.92 611.973   7
  -1  -8 -11 12883.8 1120.20   5
  -1  -8 -10 6078.40 759.415   5
  -1  -8  -9 2597.07 523.129   5
  -1  -8  -8 7667.14 770.995   5
  -1  -8  -7 24384.8 1280.20   5
  -1  -8  -6 22206.7 1176.77   5
  -1  -8  -5 9114.05 737.424   5
  -1  -8  -4 1657.62 363.703   5
  -1  -8  -3 683.543 282.725   5
  -1  -8  -2 13662.2 938.101  10
  -1  -8  -2 14356.0 648.617   7
  -1  -8  -2 13966.2 884.822   5
  -1  -8  -1 13713.7 721.688   7
  -1  -8  -1 13134.6 919.116  10
  -1  -8   0 21048.5 1168.70  10
  -1  -8   0 21972.4 1002.42   7
  -1  -8   1 9520.51 749.331   9
  -1  -8   1 10380.3 751.557   7
  -1  -8   1 10116.6 835.050  10
  -1  -8   2 4921.64 559.999   9
  -1  -8   2 5113.36 582.724   7
  -1  -8   2 5230.58 619.836  10
  -1  -8   3 6383.41 688.947   7
  -1  -8   3 6538.56 631.651   9
  -1  -8   4 11612.5 978.750   7
  -1  -8   4 11158.3 835.218   9
  -1  -8   5 1054.60 396.252   7
  -1  -8   6 2108.72 519.209   7
  -1  -7 -12 7.97843 333.936   5
  -1  -7 -11 1853.84 476.416   5
  -1  -7 -10 17076.2 1209.32   5
  -1  -7  -9 11587.2 942.900   5
  -1  -7  -8 2997.81 499.837   5
  -1  -7  -7 1705.52 377.267   5
  -1  -7  -6 15506.3 934.164   5
  -1  -7  -5 6730.87 608.779   5
  -1  -7  -4 12091.6 779.781   5
  -1  -7  -3 69048.0 1785.39   5
  -1  -7  -3 69908.6 1046.23   7
  -1  -7  -2 34027.5 1268.09   5
  -1  -7  -2 34313.2 909.123   7
  -1  -7  -1 15695.1 705.300   7
  -1  -7  -1 15481.9 916.993  10
  -1  -7  -1 15317.4 869.909   5
  -1  -7   0 19974.2 880.605   7
  -1  -7   0 20253.2 1054.09  10
  -1  -7   0 19866.8 968.072   9
  -1  -7   1 6515.05 638.227  10
  -1  -7   1 6380.25 582.230   9
  -1  -7   1 6325.72 554.826   7
  -1  -7   2 48746.1 1598.83   7
  -1  -7   2 50008.3 1692.51  10
  -1  -7   2 50189.3 1555.31   9
  -1  -7   3 10512.2 816.063   7
  -1  -7   3 10849.9 753.224   9
  -1  -7   3 10833.5 825.857  10
  -1  -7   4 8607.40 690.056   9
  -1  -7   4 8848.69 798.739   7
  -1  -7   5 26024.2 1436.80   7
  -1  -7   6 7505.12 845.198   7
  -1  -7   7 10928.6 1064.72   7
  -1  -6 -12 1977.26 499.048   5
  -1  -6 -11 4129.34 671.857   5
  -1  -6 -10 2478.14 514.498   5
  -1  -6  -9 4234.04 605.210   5
  -1  -6  -8 22446.4 1207.73   5
  -1  -6  -7 30044.6 1294.80   5
  -1  -6  -6 56858.3 1663.10   5
  -1  -6  -5 11040.7 724.552   5
  -1  -6  -4 25201.8 1038.34   5
  -1  -6  -3 55238.4 800.546   7
  -1  -6  -3 53757.8 1469.85   5
  -1  -6  -2 98771.7 1369.51   7
  -1  -6  -2 94066.5 1894.32   5
  -1  -6  -1 45173.1 1085.91   7
  -1  -6  -1 45493.2 1362.56   5
  -1  -6   0 9408.14 575.399   7
  -1  -6   0 8759.77 612.777   9
  -1  -6   0 8785.85 655.897  10
  -1  -6   1 21144.0 914.837   7
  -1  -6   1 19397.0 537.411   6
  -1  -6   1 21346.0 921.919   9
  -1  -6   1 21158.2 1002.02  10
  -1  -6   2 22857.4 1034.39   7
  -1  -6   2 21235.5 693.450   6
  -1  -6   2 23644.6 1071.22  10
  -1  -6   2 22744.2 971.776   9
  -1  -6   3 46275.6 1568.19   7
  -1  -6   3 44776.9 1159.05   6
  -1  -6   3 47766.2 1412.15   9
  -1  -6   3 46477.4 1546.06  10
  -1  -6   4 17041.1 807.337   6
  -1  -6   4 15225.2 979.369   7
  -1  -6   4 16932.3 868.704   9
  -1  -6   5 2925.13 493.591   7
  -1  -6   5 3067.70 405.376   6
  -1  -6   5 2676.10 393.619   9
  -1  -6   6 3740.75 585.041   7
  -1  -6   7 8693.63 924.070   7
  -1  -6   8 3208.32 606.575   7
  -1  -5 -12 881.026 370.381   5
  -1  -5 -11 10022.0 985.504   5
  -1  -5 -11 9014.90 824.129   1
  -1  -5 -10 10251.1 802.267   1
  -1  -5 -10 9448.23 898.888   5
  -1  -5  -9 1846.42 434.285   5
  -1  -5  -8 15316.6 981.189   5
  -1  -5  -7 382.370 280.716   5
  -1  -5  -6 20333.5 995.085   5
  -1  -5  -5 47898.5 1381.42   5
  -1  -5  -4 37286.4 1167.52   5
  -1  -5  -3 6171.38 219.402   7
  -1  -5  -3 5676.61 464.930   5
  -1  -5  -2 17983.5 519.913   7
  -1  -5  -2 17831.7 768.550   5
  -1  -5  -1 40800.7 921.422   7
  -1  -5  -1 40816.0 1173.98   5
  -1  -5   0 53740.5 1203.50   7
  -1  -5   0 54424.0 1405.30  10
  -1  -5   0 55116.6 1299.39   9
  -1  -5   1 59260.0 908.149   6
  -1  -5   1 63568.3 1548.84  10
  -1  -5   1 61793.9 1435.59   7
  -1  -5   1 64794.8 1424.74   9
  -1  -5   2 12126.9 520.240   6
  -1  -5   2 12638.3 719.277   7
  -1  -5   2 12075.8 701.774  10
  -1  -5   2 12956.5 656.232   9
  -1  -5   3 4067.49 483.458   7
  -1  -5   3 4047.89 359.605   6
  -1  -5   3 3716.93 433.196  10
  -1  -5   3 3836.02 387.667   9
  -1  -5   4 11471.8 823.238   7
  -1  -5   4 11838.6 666.202   9
  -1  -5   4 12990.5 692.431   6
  -1  -5   5 11347.5 689.166   9
  -1  -5   5 10640.2 830.313   7
  -1  -5   5 10920.2 704.007   6
  -1  -5   6 21943.7 1260.41   7
  -1  -5   6 23361.6 1114.50   6
  -1  -5   6 22860.6 1001.10   9
  -1  -5   7 11697.3 985.439   7
  -1  -5   7 11603.0 861.891   6
  -1  -5   8 3134.70 610.834   7
  -1  -5   8 1804.58 391.600   6
  -1  -5   9 5629.40 723.024   6
  -1  -5   9 5821.57 819.703   7
  -1  -4 -12 3286.98 631.300   5
  -1  -4 -12 3587.80 609.620   1
  -1  -4 -11 1205.30 456.610   5
  -1  -4 -11 1229.98 391.011   1
  -1  -4 -10 4713.56 648.460   5
  -1  -4 -10 5310.77 631.654   1
  -1  -4  -9 8945.84 812.431   5
  -1  -4  -9 10031.7 766.575   1
  -1  -4  -8 3201.82 414.189   1
  -1  -4  -8 3035.45 490.894   5
  -1  -4  -7 49419.7 1377.99   1
  -1  -4  -7 47040.1 1555.38   5
  -1  -4  -6 21400.3 984.660   5
  -1  -4  -6 21890.7 820.826   1
  -1  -4  -6 21091.4 463.569   7
  -1  -4  -5 28422.8 1030.41   5
  -1  -4  -4 30679.4 992.078   5
  -1  -4  -3 41012.6 437.115   7
  -1  -4  -3 39728.8 1065.51   5
  -1  -4  -2 24432.1 508.220   7
  -1  -4  -2 24388.8 812.679   5
  -1  -4  -1 96165.4 1247.90   7
  -1  -4  -1 94278.4 1577.03   5
  -1  -4   0 25874.5 753.810   7
  -1  -4   0 24907.0 376.527   6
  -1  -4   0 25982.5 798.428   9
  -1  -4   0 27042.9 885.894   5
  -1  -4   1 110714. 1738.20   7
  -1  -4   1 109455. 1176.75   6
  -1  -4   1 111453. 1792.29  10
  -1  -4   1 110796. 1630.47   9
  -1  -4   2 80922.0 1654.82   7
  -1  -4   2 81445.8 1250.25   6
  -1  -4   2 82490.0 1441.51   9
  -1  -4   2 83693.2 1597.84  10
  -1  -4   3 22863.0 972.025   7
  -1  -4   3 23593.0 791.440   6
  -1  -4   3 24121.8 904.153  10
  -1  -4   3 23077.3 802.668   9
  -1  -4   4 5803.61 463.369   6
  -1  -4   4 5918.74 571.573   7
  -1  -4   4 6065.31 455.957   9
  -1  -4   5 3503.46 497.148   7
  -1  -4   5 3738.92 422.510   6
  -1  -4   6 15858.3 1016.01   7
  -1  -4   6 16206.8 917.349   6
  -1  -4   7 23799.5 1316.28   7
  -1  -4   7 26152.5 1248.10   6
  -1  -4   8 15828.3 1149.08   7
  -1  -4   8 16289.0 1076.76   6
  -1  -4   9 109.758 279.036   7
  -1  -4   9 378.256 317.718   6
  -1  -4  10 1609.51 464.945   6
  -1  -3 -13 748.537 408.790   1
  -1  -3 -12 3682.24 589.733   1
  -1  -3 -11 4114.67 613.180   1
  -1  -3 -10 13000.4 938.490   1
  -1  -3  -9 720.760 438.786   1
  -1  -3  -8 4676.93 482.551   1
  -1  -3  -7 50700.3 1426.27   1
  -1  -3  -6 47069.9 1229.35   1
  -1  -3  -5 34266.5 647.862   7
  -1  -3  -5 38015.7 1150.88   5
  -1  -3  -5 36384.4 953.091   1
  -1  -3  -4 107166. 872.336   7
  -1  -3  -4 106084. 1743.40   5
  -1  -3  -3 37546.9 943.618   5
  -1  -3  -2 20548.0 675.862   5
  -1  -3  -2 20237.6 384.919   7
  -1  -3  -1 110152. 1145.75   7
  -1  -3  -1 111189. 1511.94   5
  -1  -3   0 119682. 1422.77   7
  -1  -3   0 124325. 1667.87   5
  -1  -3   0 120780. 1432.73   9
  -1  -3   1 3512.18 310.757   7
  -1  -3   1 3375.12 207.461   6
  -1  -3   1 3278.48 293.199  10
  -1  -3   1 3030.61 249.606   9
  -1  -3   2 22989.1 818.651   7
  -1  -3   2 24361.2 751.992  10
  -1  -3   2 23712.8 673.449   9
  -1  -3   3 11275.3 640.410   7
  -1  -3   4 16511.9 854.868   7
  -1  -3   5 24483.5 1099.38   7
  -1  -3   6 18443.2 1035.37   7
  -1  -3   7 11945.1 892.168   7
  -1  -3   7 12377.6 858.266   6
  -1  -3   8 6783.25 734.204   7
  -1  -3   8 7544.86 741.412   6
  -1  -3   9 6878.63 795.221   7
  -1  -3   9 6110.43 725.643   6
  -1  -3  10 5862.37 788.530   7
  -1  -3  10 4627.47 696.046   6
  -1  -2 -13-15.1657 581.420   1
  -1  -2 -12-883.002 587.359   1
  -1  -2 -11 1226.16 451.153   1
  -1  -2 -10 8030.60 808.491   1
  -1  -2  -9 54892.4 1816.42   1
  -1  -2  -8 37831.8 1404.87   1
  -1  -2  -7 14950.7 831.113   1
  -1  -2  -6 34629.8 1098.07   1
  -1  -2  -5 37290.8 965.716   1
  -1  -2  -4 138938. 1311.78   7
  -1  -2  -4 135239. 1571.47   1
  -1  -2  -3 156033. 1796.52   5
  -1  -2  -3 158107. 1378.25   1
  -1  -2  -3 153761. 1092.54   7
  -1  -2  -2 55127.0 941.501   5
  -1  -2  -1 139459. 1442.48   5
  -1  -2  -1 136517. 1060.94   7
  -1  -2   0 31001.7 628.066   7
  -1  -2   0 31159.8 725.601   5
  -1  -2   0 30831.5 573.906   9
  -1  -2   1 19436.2 460.746   9
  -1  -2   1 19330.4 597.869   7
  -1  -2   1 19044.4 532.206  10
  -1  -2   2 53269.0 1113.56   7
  -1  -2   2 53773.0 928.203  10
  -1  -2   3 11052.8 583.933   7
  -1  -2   3 11336.1 351.726   8
  -1  -2   4 28458.2 1009.93   7
  -1  -2   5 16228.8 850.394   7
  -1  -2   6 24122.7 1104.32   7
  -1  -2   7 21031.2 1112.37   7
  -1  -2   8 3523.96 532.202   7
  -1  -2   9 1038.73 373.311   6
  -1  -2   9 1349.38 381.845   7
  -1  -2  10 6384.15 774.432   7
  -1  -2  10 5893.73 750.251   6
  -1  -2  11 13545.2 1171.87   6
  -1  -2  11 12500.1 1103.98   7
  -1  -1 -12 5876.27 826.598   1
  -1  -1 -11 12905.8 1125.69   1
  -1  -1 -10 15346.2 1125.27   1
  -1  -1  -9 22308.9 1220.91   1
  -1  -1  -8 47931.2 1613.64   1
  -1  -1  -7 69992.0 1715.33   1
  -1  -1  -6 33891.4 1139.07   1
  -1  -1  -5 37050.5 1001.59   1
  -1  -1  -4 59181.5 1077.78   1
  -1  -1  -3 17260.1 485.144   1
  -1  -1  -3 16221.7 442.132   7
  -1  -1  -2 939094. 2445.72   1
  -1  -1  -2 937482. 3482.49   4
  -1  -1  -1 33736.0 568.276   5
  -1  -1  -1 34776.3 591.968   4
  -1  -1   0 62536.2 820.075   5
  -1  -1   0 70112.7 794.203   7
  -1  -1   1 180161. 1553.27   7
  -1  -1   1 183938. 1178.05  10
  -1  -1   1 181530. 945.539   9
  -1  -1   2 91302.8 1313.93   7
  -1  -1   2 94186.0 962.223   8
  -1  -1   3 121026. 1713.36   7
  -1  -1   3 124364. 1578.50   2
  -1  -1   3 120308. 1288.87   8
  -1  -1   4 89895.1 1632.91   7
  -1  -1   4 92258.3 1506.10   2
  -1  -1   5-93.6518 216.734   7
  -1  -1   5 9.14598 151.738   2
  -1  -1   5 178.045 53.4823   3
  -1  -1   6 2360.60 385.976   7
  -1  -1   6 2905.55 345.198   2
  -1  -1   7 8385.66 682.387   7
  -1  -1   7 9390.15 636.931   2
  -1  -1   8 37733.3 1339.79   2
  -1  -1   8 34194.0 1420.10   7
  -1  -1   9 5869.70 657.324   7
  -1  -1  10 2082.90 449.920   7
  -1  -1  11 1801.63 466.385   7
  -1  -1  11 1467.75 451.731   6
  -1   0 -12 4944.51 847.496   1
  -1   0 -11 7045.48 932.517   1
  -1   0 -10 19884.2 1296.76   1
  -1   0  -9 11154.7 944.010   1
  -1   0  -8 6035.34 801.235   1
  -1   0  -7 3300.32 543.802   1
  -1   0  -6 42801.1 1283.16   1
  -1   0  -5 120683. 1921.79   1
  -1   0  -4 63816.6 1066.43   3
  -1   0  -4 63154.6 1227.23   1
  -1   0  -3 39805.3 750.157   3
  -1   0  -3 39466.8 821.757   1
  -1   0  -2 31617.5 628.078   3
  -1   0  -2 30448.7 590.515   7
  -1   0  -2 30910.4 620.690   4
  -1   0  -2 30208.5 581.297   1
  -1   0   1 247961. 1095.68   3
  -1   0   1 250456. 1490.79   8
  -1   0   1 253051. 1615.10   2
  -1   0   1 248235. 1541.82   7
  -1   0   2 39273.1 749.117   7
  -1   0   2 38014.9 686.191   8
  -1   0   2 39644.5 767.752   2
  -1   0   3 4324.40 312.313   7
  -1   0   3 4223.77 303.763   2
  -1   0   4 52149.2 764.220   3
  -1   0   4 52513.3 1140.71   7
  -1   0   4 52396.0 1130.76   2
  -1   0   5 46743.5 1202.93   7
  -1   0   5 49523.1 1214.96   2
  -1   0   6 17448.1 822.324   7
  -1   0   6 17162.7 790.059   2
  -1   0   7 13149.6 782.196   7
  -1   0   7 13207.7 759.030   2
  -1   0   8 1550.16 337.201   7
  -1   0   8 1528.26 321.852   2
  -1   0   9 17937.6 1044.14   7
  -1   0   9 18944.2 1021.96   2
  -1   0  10 12954.9 907.063   2
  -1   0  10 12801.4 955.839   7
  -1   0  11 4307.76 626.701   7
  -1   0  12 5242.45 709.399   7
  -1   1 -12 11255.5 1203.76   1
  -1   1 -11 11121.6 1134.18   1
  -1   1 -10 6472.00 871.655   1
  -1   1  -9 20904.6 1263.09   1
  -1   1  -8 41520.1 1587.09   1
  -1   1  -7 15652.2 925.670   1
  -1   1  -6 15355.0 838.222   1
  -1   1  -5 47202.6 980.850   3
  -1   1  -5 46782.6 1289.08   1
  -1   1  -4 123181. 1159.74   2
  -1   1  -4 120424. 1847.39   1
  -1   1  -3 160557. 1854.08   1
  -1   1  -3 167117. 1045.02   2
  -1   1  -2 77841.9 1147.12   3
  -1   1  -1 770681. 2857.29   6
  -1   1  -1 742505. 2829.76   7
  -1   1   0 70544.7 667.323   2
  -1   1   0 70700.7 748.533  10
  -1   1   0 72484.9 790.245   8
  -1   1   0 71044.7 819.809   6
  -1   1   0 69744.2 813.161   3
  -1   1   1 649825. 2298.73   9
  -1   1   1 643117. 2899.13   1
  -1   1   1 648152. 2687.74   8
  -1   1   2 116559. 1346.57   2
  -1   1   2 112421. 1045.39   7
  -1   1   3 42910.5 803.645   7
  -1   1   3 40820.7 921.608   2
  -1   1   4 16484.2 585.808   7
  -1   1   4 15354.6 636.149   2
  -1   1   5 11341.0 558.998   7
  -1   1   5 11102.8 608.054   2
  -1   1   6 21363.0 828.398   7
  -1   1   6 20823.7 883.199   2
  -1   1   7 21804.3 923.097   7
  -1   1   7 21803.5 978.991   2
  -1   1   8 8107.02 624.209   7
  -1   1   8 7602.89 637.642   2
  -1   1   9 650.935 260.874   7
  -1   1   9 407.761 239.402   2
  -1   1  10 5782.94 624.270   7
  -1   1  10 5351.78 619.284   2
  -1   1  11 1042.07 339.492   7
  -1   2 -11 6858.31 997.463   1
  -1   2 -10 13922.5 1213.32   1
  -1   2  -9 6757.98 837.408   1
  -1   2  -8 11129.2 916.412   1
  -1   2  -7 12112.2 859.021   1
  -1   2  -6 52667.6 1095.31   3
  -1   2  -6 54499.8 1620.17   1
  -1   2  -5 8270.52 337.902   2
  -1   2  -5 8569.88 468.912   3
  -1   2  -5 8418.66 636.041   1
  -1   2  -4 37868.5 1141.46   1
  -1   2  -4 38771.5 605.380   2
  -1   2  -3 5892.09 345.529   3
  -1   2  -3 6357.00 452.773   1
  -1   2  -3 7021.72 206.504   2
  -1   2  -2 7240.48 345.919   3
  -1   2  -1 214213. 1714.38   6
  -1   2  -1 216452. 1111.57   2
  -1   2  -1 214443. 1757.77   3
  -1   2   0 414838. 2070.50   7
  -1   2   0 419404. 2224.51   6
  -1   2   0 416859. 1627.21   5
  -1   2   1 8351.26 352.573   8
  -1   2   1 8343.69 346.955   2
  -1   2   2 29567.7 737.996   2
  -1   2   3 75015.3 901.830   7
  -1   2   3 73267.3 1299.68   2
  -1   2   4 79248.0 1103.44   7
  -1   2   4 77668.9 1475.93   2
  -1   2   5 60137.3 1423.75   2
  -1   2   5 61663.5 1127.38   7
  -1   2   6 24489.3 805.310   7
  -1   2   6 24950.1 998.832   2
  -1   2   7 3784.08 376.430   7
  -1   2   7 3540.49 443.679   2
  -1   2   8 16959.1 825.550   7
  -1   2   8 17386.9 958.452   2
  -1   2   9 7858.19 619.397   7
  -1   2   9 8122.87 721.633   2
  -1   2  10 10615.0 765.509   7
  -1   2  10 9295.67 810.676   2
  -1   2  11 4614.90 627.118   2
  -1   3 -11 8870.55 1133.57   1
  -1   3 -10 9493.10 1061.29   1
  -1   3  -9 17707.4 1241.92   1
  -1   3  -8 21049.4 1250.01   1
  -1   3  -7 22842.9 1227.87   1
  -1   3  -6 3984.47 507.049   1
  -1   3  -6 6764.46 427.743   3
  -1   3  -5 15369.9 446.189   2
  -1   3  -5 16290.9 705.500   3
  -1   3  -5 16278.5 896.742   1
  -1   3  -4 44406.6 1327.73   1
  -1   3  -4 43353.5 658.488   2
  -1   3  -3 172736. 1877.59   3
  -1   3  -3 178798. 2451.29   1
  -1   3  -3 175920. 1239.69   2
  -1   3  -2 91310.7 1333.81   3
  -1   3  -1 6667.76 377.934   3
  -1   3  -1 7011.46 338.803   5
  -1   3   0 262770. 1788.13   5
  -1   3   0 261965. 1854.24   8
  -1   3   1 40899.3 841.638   2
  -1   3   1 43790.3 729.775   5
  -1   3   1 42619.5 650.857   7
  -1   3   1 41109.9 588.398   4
  -1   3   2 16151.1 602.160   2
  -1   3   2 16426.0 372.986   4
  -1   3   3 15195.4 647.017   2
  -1   3   3 15189.8 325.846   7
  -1   3   4 39753.0 653.424   7
  -1   3   4 38507.5 1107.59   2
  -1   3   5 50490.7 881.510   7
  -1   3   5 50699.7 1378.73   2
  -1   3   6 36364.9 1254.97   2
  -1   3   6 36910.4 878.571   7
  -1   3   7 31858.7 920.689   7
  -1   3   7 31542.7 1245.15   2
  -1   3   8 6871.68 487.084   7
  -1   3   8 6592.67 638.277   2
  -1   3   9 1865.97 301.662   7
  -1   3   9 1579.83 390.296   2
  -1   3  10 7476.75 755.256   2
  -1   3  11 3427.67 567.166   2
  -1   3  12 4911.34 682.696   2
  -1   4 -10 5509.85 852.889   1
  -1   4  -9 2131.86 583.353   1
  -1   4  -8 11601.2 990.843   1
  -1   4  -7 26984.1 1395.04   1
  -1   4  -6 8290.90 757.276   1
  -1   4  -5 64731.9 1880.61   1
  -1   4  -4 1712.75 161.237   2
  -1   4  -4 1148.87 174.968   3
  -1   4  -4 1577.73 360.682   1
  -1   4  -3 68510.9 1318.46   3
  -1   4  -3 67492.6 1644.95   1
  -1   4  -3 66712.9 942.624   2
  -1   4  -2 97511.5 1560.85   3
  -1   4  -1 75081.0 1372.09   3
  -1   4  -1 78117.4 968.066   8
  -1   4   0 15545.5 546.581   2
  -1   4   1 16459.1 481.652   7
  -1   4   1 16245.7 610.474   2
  -1   4   1 17218.8 495.324   4
  -1   4   2 4432.80 200.023   7
  -1   4   2 4337.44 362.764   2
  -1   4   2 4608.93 246.277   4
  -1   4   3 62635.8 934.460   4
  -1   4   3 65736.3 549.650   7
  -1   4   3 64597.7 569.129   7
  -1   4   3 64509.5 1405.51   2
  -1   4   4 132377. 789.851   7
  -1   4   4 129557. 2135.98   2
  -1   4   5 31485.7 530.302   7
  -1   4   5 34478.2 1188.58   2
  -1   4   6 3297.99 452.499   2
  -1   4   6 3034.97 218.478   7
  -1   4   7 467.848 137.369   7
  -1   4   7 719.492 300.177   2
  -1   4   8 20292.8 1117.96   2
  -1   4   9 36281.4 1548.53   2
  -1   4  10 9597.34 863.754   2
  -1   4  11 173.549 291.959   2
  -1   4  12 5115.71 728.556   2
  -1   5  -9 9571.77 991.937   1
  -1   5  -8 364.739 348.720   1
  -1   5  -7-305.902 372.200   1
  -1   5  -6 18203.0 1140.91   1
  -1   5  -5 23805.2 1211.13   1
  -1   5  -4 66253.7 1876.17   1
  -1   5  -4 67511.2 1443.84   3
  -1   5  -3 25210.2 885.369   3
  -1   5  -3 25687.1 1107.89   1
  -1   5  -2 21319.2 822.916   3
  -1   5  -1 40505.3 1140.41   3
  -1   5  -1 40156.8 763.257   8
  -1   5   0 87146.9 1445.71   2
  -1   5   1 28623.8 888.755   2
  -1   5   1 28539.5 756.171   4
  -1   5   2 41890.2 729.954   7
  -1   5   2 43558.3 1171.16   2
  -1   5   2 43893.6 863.300   4
  -1   5   3 6209.96 185.877   7
  -1   5   3 6427.19 506.393   2
  -1   5   3 6389.60 337.052   4
  -1   5   4 15492.8 537.692   4
  -1   5   4 15238.3 814.739   2
  -1   5   5 26466.8 1106.31   2
  -1   5   6 30196.1 1256.72   2
  -1   5   7 15753.0 975.320   2
  -1   5   8 6636.78 686.901   2
  -1   5   9 9709.16 860.310   2
  -1   5  10 11049.0 962.239   2
  -1   5  11 4488.63 673.798   2
  -1   5  12 4425.65 702.031   2
  -1   6  -8 12785.9 1122.23   1
  -1   6  -7 5616.54 715.432   1
  -1   6  -6 7999.84 819.105   1
  -1   6  -5 7428.54 739.227   1
  -1   6  -4 26606.1 986.019   3
  -1   6  -4 26502.2 1272.79   1
  -1   6  -3 37841.2 1178.21   3
  -1   6  -3 37586.0 1448.19   1
  -1   6  -2 21887.8 910.873   3
  -1   6  -1 25098.6 990.054   3
  -1   6   0 5186.53 414.349   2
  -1   6   1 32731.5 1042.49   2
  -1   6   1 32544.2 924.726   4
  -1   6   2 29124.8 1034.87   2
  -1   6   2 31134.9 846.328   4
  -1   6   3 26501.2 468.892   7
  -1   6   3 28905.6 1096.71   2
  -1   6   3 28620.2 779.809   4
  -1   6   4 22353.9 1030.11   2
  -1   6   4 23735.8 716.438   4
  -1   6   5 1945.94 401.924   2
  -1   6   6 4701.03 565.261   2
  -1   6   7 24719.7 1266.97   2
  -1   6   8 9575.50 847.498   2
  -1   6   9 4277.52 626.836   2
  -1   6  10 2519.65 527.663   2
  -1   6  11 1544.03 478.368   2
  -1   7  -7 4864.08 719.255   1
  -1   7  -6 5131.17 699.483   1
  -1   7  -5 1427.69 429.623   1
  -1   7  -4 17429.8 1106.99   1
  -1   7  -3 2513.87 458.160   1
  -1   7  -3 2649.55 369.471   3
  -1   7  -2 5211.92 501.877   3
  -1   7  -2 4293.08 527.643   1
  -1   7  -1 24531.5 891.373   2
  -1   7  -1 24038.8 1049.73   3
  -1   7   0 43738.1 1290.64   4
  -1   7   0 41092.9 1211.87   2
  -1   7   1 13790.7 745.353   2
  -1   7   1 13715.3 678.306   4
  -1   7   2 11169.2 707.438   2
  -1   7   2 11759.8 591.324   4
  -1   7   3 11819.7 774.309   2
  -1   7   3 12846.8 585.604   4
  -1   7   4 46314.5 1071.03   4
  -1   7   4 44828.6 1525.15   2
  -1   7   5 54178.1 1773.39   2
  -1   7   5 53775.3 1156.07   4
  -1   7   6 28126.0 1336.59   2
  -1   7   7 6333.53 702.338   2
  -1   7   8 9905.70 896.837   2
  -1   7   9 13305.8 1076.28   2
  -1   7  10 4895.78 724.695   2
  -1   7  11 2424.88 575.484   2
  -1   8  -6-768.282 484.445   1
  -1   8  -5 6603.15 777.953   1
  -1   8  -4 8441.57 851.436   1
  -1   8  -3 30182.3 1470.47   1
  -1   8  -2 21201.7 1042.70   3
  -1   8  -2 22101.8 1218.03   1
  -1   8  -1 97.5640 148.994   2
  -1   8  -1 140.178 196.173   3
  -1   8   0 8729.24 614.833   2
  -1   8   0 8813.70 711.668   3
  -1   8   0 8448.44 633.850   4
  -1   8   1 8534.70 634.503   2
  -1   8   1 7859.20 573.116   4
  -1   8   2 19457.4 985.363   2
  -1   8   2 20186.5 843.815   4
  -1   8   3 24305.2 1151.48   2
  -1   8   3 24774.7 890.919   4
  -1   8   4 3668.62 509.775   2
  -1   8   5 4260.44 568.674   2
  -1   8   6 16400.1 1084.05   2
  -1   8   7 7682.76 810.075   2
  -1   8   8 135.885 317.801   2
  -1   8   9 184.780 350.153   2
  -1   8  10 902.761 408.090   2
  -1   9  -5 9785.63 991.404   1
  -1   9  -4 4001.64 634.688   1
  -1   9  -3 10226.3 925.609   1
  -1   9  -2 13261.9 1011.86   1
  -1   9  -2 13193.8 892.361   3
  -1   9  -1 26107.8 1247.44   4
  -1   9  -1 24907.8 1244.38   3
  -1   9  -1 24602.1 1305.02   1
  -1   9   0 2727.53 386.374   2
  -1   9   0 2817.57 447.044   3
  -1   9   0 2520.52 390.604   4
  -1   9   1 2798.95 411.875   2
  -1   9   2 576.720 274.216   2
  -1   9   3 27346.0 1295.39   2
  -1   9   4 17956.7 1101.49   2
  -1   9   5 4047.16 576.934   2
  -1   9   6 1302.91 387.742   2
  -1   9   7 7029.06 803.745   2
  -1   9   8 2589.44 556.885   2
  -1   9   9 17738.2 1357.47   2
  -1  10  -4 19367.9 1386.36   1
  -1  10  -3 2091.94 506.538   1
  -1  10  -2 205.538 247.035   1
  -1  10  -1 154.346 185.144   1
  -1  10  -1 561.045 286.710   3
  -1  10   0 3893.74 549.648   3
  -1  10   0 3395.92 516.637   1
  -1  10   1 9975.22 873.462   3
  -1  10   2 7815.76 733.614   2
  -1  10   3 3370.88 520.085   2
  -1  10   4 2998.17 517.270   2
  -1  10   5 8015.17 838.351   2
  -1  10   6 2028.38 494.065   2
  -1  10   7 163.178 337.320   2
  -1  10   8 10573.0 1070.84   2
  -1  11  -2 5670.87 748.113   1
  -1  11  -1 4974.06 680.530   1
  -1  11   0 5328.89 687.298   3
  -1  11   0 5111.82 668.640   1
  -1  11   1 2148.13 477.936   3
  -1  11   2 8592.15 880.728   3
  -1  11   3 10474.5 916.826   2
  -1  11   4 4865.54 674.763   2
  -1  11   5 2601.89 536.052   2
  -1  11   6 2910.64 587.725   2
  -1  11   7 7473.12 910.886   2
  -1  12   1 6200.41 790.104   3
  -1  12   2 3784.86 630.004   3
  -1  12   3-5.30424 285.653   3
  -1  12   5 5371.00 770.106   2
   0 -11  -8 2172.41 487.756  10
   0 -11  -7 9535.30 958.690  10
   0 -11  -6 6021.54 792.360  10
   0 -11  -5 9289.24 955.140  10
   0 -11  -4 9809.16 987.247  10
   0 -11  -3 16108.1 1239.19  10
   0 -11  -2 7822.17 893.025  10
   0 -11  -1 3086.09 628.076  10
   0 -11   0 1307.00 435.628  10
   0 -10  -9 516.329 307.082  10
   0 -10  -8 3588.48 598.799  10
   0 -10  -8 2102.92 458.181   5
   0 -10  -7 3221.82 566.440  10
   0 -10  -7 2909.29 509.077   5
   0 -10  -6 6387.86 692.074   5
   0 -10  -6 5787.48 710.046  10
   0 -10  -5 8660.50 771.179   5
   0 -10  -5 8943.39 876.988  10
   0 -10  -4 2370.18 491.724  10
   0 -10  -4 2663.88 452.691   5
   0 -10  -3 3222.32 488.538   5
   0 -10  -3 3343.83 577.170  10
   0 -10  -2 6589.90 763.455  10
   0 -10  -1 17795.1 1243.05  10
   0 -10   0 9135.03 916.843  10
   0 -10   1 14846.9 1181.89  10
   0 -10   1 15396.8 1111.82   9
   0 -10   2 327.014 305.512   9
   0 -10   3 3051.86 566.683   9
   0  -9 -11 204.296 304.428   5
   0  -9 -10 910.312 386.460   5
   0  -9  -9 9616.95 907.433   5
   0  -9  -8 7070.20 759.915   5
   0  -9  -7 2267.51 448.924   5
   0  -9  -6 1517.29 374.984   5
   0  -9  -5 5765.57 602.872   5
   0  -9  -5 5144.52 629.369  10
   0  -9  -4 13682.8 890.715   5
   0  -9  -4 13529.0 981.078  10
   0  -9  -3 18188.0 1137.25  10
   0  -9  -3 18592.6 1033.73   5
   0  -9  -2 9270.96 835.536  10
   0  -9  -1 1065.46 377.905  10
   0  -9   0 10742.1 917.935  10
   0  -9   0 9424.31 842.170   9
   0  -9   1 13230.9 1035.13  10
   0  -9   1 12333.6 944.409   9
   0  -9   2 9893.08 924.990  10
   0  -9   2 10081.2 834.594   7
   0  -9   2 9872.36 860.287   9
   0  -9   3 16040.8 1096.33   9
   0  -9   3 14859.0 1073.27   7
   0  -9   4 249.119 245.527   9
   0  -9   4 569.505 345.092   7
   0  -9   5 9156.13 954.248   7
   0  -8 -11 7655.50 879.020   5
   0  -8 -10 2480.69 518.398   5
   0  -8  -9 949.764 348.585   5
   0  -8  -8 9123.62 822.429   5
   0  -8  -7 7999.52 738.223   5
   0  -8  -6 13071.5 877.661   5
   0  -8  -5 2705.02 433.795   5
   0  -8  -4 2187.83 375.820   5
   0  -8  -4 1854.63 398.401  10
   0  -8  -3 3707.51 451.535   5
   0  -8  -3 3349.05 499.900  10
   0  -8  -2 21385.3 1145.58  10
   0  -8  -2 21646.8 1032.23   5
   0  -8  -1 12001.3 886.801  10
   0  -8   0 3625.93 413.373   7
   0  -8   0 3211.28 510.797  10
   0  -8   0 3625.61 513.320   9
   0  -8   1 4389.18 584.040  10
   0  -8   1 4361.28 542.771   9
   0  -8   1 4837.05 518.660   7
   0  -8   2 15077.4 948.420   7
   0  -8   2 14521.4 1010.09  10
   0  -8   2 13518.6 930.852   9
   0  -8   3 12106.8 912.050   7
   0  -8   3 12189.7 895.649   9
   0  -8   4 15125.5 1085.32   7
   0  -8   4 16195.2 1044.28   9
   0  -8   5 702.352 346.729   7
   0  -8   5 184.299 206.747   9
   0  -8   6 429.096 293.031   7
   0  -7 -12 342.254 333.454   5
   0  -7 -11 2775.00 565.000   5
   0  -7 -10 6214.73 759.204   5
   0  -7  -9 12038.4 966.094   5
   0  -7  -8 663.974 294.297   5
   0  -7  -7 11604.4 837.644   5
   0  -7  -6 6466.39 640.910   8
   0  -7  -6 6205.83 595.759   5
   0  -7  -5 42909.6 1428.89   5
   0  -7  -5 42801.9 1450.80   8
   0  -7  -4 55006.2 1549.70   5
   0  -7  -4 57344.9 1569.08   8
   0  -7  -3 40587.2 1299.73   5
   0  -7  -2 3852.20 423.167   5
   0  -7  -2 3848.36 490.972  10
   0  -7  -1 4850.13 390.078   7
   0  -7  -1 4885.09 541.900  10
   0  -7  -1 4680.35 471.807   5
   0  -7  -1 4712.83 537.721   9
   0  -7   0 17085.4 794.930   7
   0  -7   0 16371.2 959.268  10
   0  -7   0 15763.3 906.027   9
   0  -7   1 53882.9 1534.56   7
   0  -7   1 53574.2 1726.39  10
   0  -7   1 54656.9 1661.92   9
   0  -7   2 44083.6 1513.92   9
   0  -7   2 43253.0 1490.79   7
   0  -7   2 43440.2 1605.85  10
   0  -7   3 16364.6 998.345   7
   0  -7   3 15438.2 924.518   9
   0  -7   4 20469.1 1090.06   9
   0  -7   4 21750.5 1208.78   7
   0  -7   5 6111.80 625.088   9
   0  -7   5 5944.15 717.551   7
   0  -7   6 4258.68 647.890   7
   0  -7   7 1613.89 438.814   7
   0  -6 -12 2023.75 547.941   5
   0  -6 -11 2.57291 324.201   5
   0  -6 -10 4804.00 659.311   5
   0  -6  -9 5685.01 677.182   5
   0  -6  -8 7508.07 711.488   5
   0  -6  -7 21589.7 1129.73   8
   0  -6  -7 20457.8 1067.57   5
   0  -6  -6 25645.1 1101.69   5
   0  -6  -6 25437.6 1152.12   8
   0  -6  -5 11821.1 722.204   5
   0  -6  -5 12234.8 767.272   8
   0  -6  -4 73676.7 1709.81   8
   0  -6  -4 76633.0 1719.21   5
   0  -6  -3 36168.8 1134.29   5
   0  -6  -3 35410.9 1093.79   8
   0  -6  -2 19848.2 819.644   5
   0  -6  -2 20179.4 763.687   8
   0  -6  -1 43947.3 1019.56   7
   0  -6  -1 41315.3 1203.12   5
   0  -6  -1 39700.0 1313.02  10
   0  -6  -1 40080.6 1287.68   9
   0  -6   0 5074.44 526.377  10
   0  -6   0 4995.96 495.619   9
   0  -6   0 4797.00 405.774   7
   0  -6   1 50216.2 1363.85   7
   0  -6   1 47997.3 988.832   6
   0  -6   1 49988.4 1515.46  10
   0  -6   1 50883.0 1467.39   9
   0  -6   2 34005.9 1218.26   7
   0  -6   2 31453.2 897.050   6
   0  -6   2 32665.2 1269.99  10
   0  -6   2 33035.4 1205.95   9
   0  -6   3 6028.63 583.534   7
   0  -6   3 6266.78 463.779   6
   0  -6   3 6470.06 573.350   9
   0  -6   4 10337.0 802.230   7
   0  -6   4 11745.5 689.511   6
   0  -6   4 11339.7 758.738   9
   0  -6   5 264.381 263.768   7
   0  -6   5 399.374 203.835   6
   0  -6   5 197.778 190.753   9
   0  -6   6 2169.80 479.589   7
   0  -6   6 1942.05 366.185   6
   0  -6   6 1891.65 372.274   9
   0  -6   7 7572.77 717.955   6
   0  -6   7 7430.57 836.011   7
   0  -6   8 7214.54 877.917   7
   0  -5 -12 3165.70 620.362   5
   0  -5 -11 4286.47 675.263   5
   0  -5 -10 7527.68 814.902   5
   0  -5  -9 1461.79 398.076   5
   0  -5  -8 2704.93 474.492   5
   0  -5  -8 2742.74 485.243   8
   0  -5  -7 5943.70 602.050   5
   0  -5  -7 6265.20 620.776   8
   0  -5  -6 64287.7 1709.75   5
   0  -5  -6 64049.9 1735.32   8
   0  -5  -5 48766.5 1368.09   5
   0  -5  -5 48346.3 1422.48   8
   0  -5  -4 12998.0 663.736   5
   0  -5  -4 12833.8 700.405   8
   0  -5  -3 21642.2 820.408   8
   0  -5  -3 21434.5 813.236   5
   0  -5  -2 46135.8 1143.91   5
   0  -5  -2 45555.7 1068.78   8
   0  -5  -1 47395.4 1280.30  10
   0  -5  -1 46803.0 1147.84   5
   0  -5  -1 44302.8 1222.61   9
   0  -5  -1 46159.1 958.942   8
   0  -5  -1 46969.7 930.716   7
   0  -5   0 126024. 2114.43  10
   0  -5   0 125904. 2052.00   9
   0  -5   0 127143. 1754.85   7
   0  -5   1 47688.8 1202.84   7
   0  -5   1 45320.4 896.034   6
   0  -5   1 47645.9 1270.06   9
   0  -5   1 47263.2 1334.09  10
   0  -5   2 5326.20 480.442   7
   0  -5   2 4663.42 347.280   6
   0  -5   2 5568.24 505.261  10
   0  -5   2 5806.49 483.951   9
   0  -5   3 33106.8 994.929   6
   0  -5   3 33777.8 1222.06   7
   0  -5   3 33674.8 1137.21   9
   0  -5   4 18600.0 992.403   7
   0  -5   4 19473.0 849.945   6
   0  -5   4 18719.1 891.674   9
   0  -5   5 19498.5 1092.07   7
   0  -5   5 22058.5 998.143   6
   0  -5   5 21195.9 994.459   9
   0  -5   6 31456.4 1298.75   6
   0  -5   6 30827.4 1447.46   7
   0  -5   6 32032.2 1266.54   9
   0  -5   7 11661.3 966.119   7
   0  -5   7 11365.2 857.513   6
   0  -5   8 649.047 336.172   7
   0  -5   8 579.714 308.790   6
   0  -5   9 7524.20 895.631   7
   0  -5   9 7525.35 818.149   6
   0  -5  10 5227.35 722.308   6
   0  -4 -13 3719.63 680.059   1
   0  -4 -12 860.110 379.778   1
   0  -4 -11 1453.09 444.144   1
   0  -4 -10 2149.15 461.874   1
   0  -4  -9 22572.3 1203.92   1
   0  -4  -8 20450.6 1079.45   8
   0  -4  -8 20397.8 1056.16   1
   0  -4  -7 18382.7 915.369   1
   0  -4  -7 17554.4 950.678   8
   0  -4  -6 16243.7 850.034   5
   0  -4  -6 16324.5 861.854   8
   0  -4  -5 10216.6 644.132   8
   0  -4  -5 10474.4 649.267   5
   0  -4  -4 22492.3 829.012   5
   0  -4  -4 22383.3 854.998   8
   0  -4  -3 28677.2 842.514   5
   0  -4  -3 28763.2 884.164   8
   0  -4  -2 14820.8 586.431   5
   0  -4  -2 14836.0 575.367   8
   0  -4  -1 37970.3 713.846   7
   0  -4  -1 36800.3 783.474   8
   0  -4  -1 36280.1 884.404   5
   0  -4  -1 37613.3 989.251   9
   0  -4   0 65833.2 872.129   6
   0  -4   0 67979.1 1367.10  10
   0  -4   0 68450.3 1265.18   5
   0  -4   0 68101.8 1323.69   9
   0  -4   0 66459.2 1130.19   7
   0  -4   0 66984.1 889.476   8
   0  -4   1 127454. 1771.53   7
   0  -4   1 121704. 1370.37   6
   0  -4   1 131990. 1961.73  10
   0  -4   1 119111. 1783.01   9
   0  -4   2 69739.6 1471.59   7
   0  -4   2 66398.1 1174.97   6
   0  -4   2 70900.2 1500.71  10
   0  -4   2 69433.4 1419.65   9
   0  -4   3 51628.2 1393.31   7
   0  -4   3 53565.8 1206.35   6
   0  -4   3 53380.9 1303.78   9
   0  -4   4 6668.35 585.245   7
   0  -4   4 6486.47 489.151   6
   0  -4   5 13759.3 868.561   7
   0  -4   5 13117.0 748.160   6
   0  -4   6 14697.9 951.918   7
   0  -4   6 15369.2 886.112   6
   0  -4   7 22870.7 1162.30   6
   0  -4   7 24156.5 1303.83   7
   0  -4   8 16373.0 1155.87   7
   0  -4   8 17454.9 1109.58   6
   0  -4   9 4015.65 650.422   7
   0  -4   9 4531.63 645.340   6
   0  -4  10 2350.71 555.492   7
   0  -4  10 1738.73 454.310   6
   0  -3 -12 2627.38 585.397   1
   0  -3 -11 4505.52 646.175   1
   0  -3 -10 17520.3 1148.11   1
   0  -3  -9 5908.19 520.315   1
   0  -3  -8 2909.24 349.976   1
   0  -3  -7 30028.6 1166.52   1
   0  -3  -7 33155.4 1244.96   8
   0  -3  -6 36713.0 1220.19   8
   0  -3  -6 39826.7 1244.92   1
   0  -3  -5 55507.9 1311.83   1
   0  -3  -5 54437.8 1346.08   8
   0  -3  -4 43129.4 1101.80   8
   0  -3  -4 42167.2 1088.95   5
   0  -3  -4 41731.1 1007.53   1
   0  -3  -3 37571.5 906.811   5
   0  -3  -3 37308.0 929.856   8
   0  -3  -2 59727.8 1017.72   5
   0  -3  -2 59312.1 1044.26   8
   0  -3  -2 60552.0 921.408   4
   0  -3  -1 65890.8 740.873   7
   0  -3  -1 64265.2 1017.72   5
   0  -3  -1 62675.6 1110.16   9
   0  -3  -1 63595.8 925.461   8
   0  -3   0 46218.3 808.730   7
   0  -3   0 45825.8 637.524   6
   0  -3   0 47240.4 983.788  10
   0  -3   0 48627.0 917.586   5
   0  -3   0 46934.9 641.263   8
   0  -3   0 47127.0 957.564   9
   0  -3   1 10001.9 462.711   7
   0  -3   1 10033.3 363.334   6
   0  -3   1 10948.9 501.879  10
   0  -3   1 10903.1 478.697   9
   0  -3   2 20182.7 727.749   7
   0  -3   2 19928.6 702.782  10
   0  -3   2 19377.8 598.095   6
   0  -3   3 54238.3 1318.52   7
   0  -3   3 54288.4 1150.17   6
   0  -3   4 91725.7 1886.58   7
   0  -3   4 94453.8 1703.80   6
   0  -3   5 2096.72 363.869   7
   0  -3   5 2180.36 342.841   6
   0  -3   6 8525.68 709.237   7
   0  -3   6 8362.16 638.859   6
   0  -3   7 495.826 277.976   7
   0  -3   7 671.474 285.110   6
   0  -3   8 13277.1 987.916   7
   0  -3   8 13316.5 942.816   6
   0  -3   9 6618.61 742.291   6
   0  -3   9 5714.06 721.409   7
   0  -3  10 8051.61 867.305   7
   0  -3  10 8109.24 880.863   6
   0  -3  11 534.879 377.014   6
   0  -2 -12-1876.15 747.964   1
   0  -2 -11-541.235 588.194   1
   0  -2 -10 14040.2 1069.98   1
   0  -2  -9 30743.4 1445.98   1
   0  -2  -8 29149.7 1297.29   1
   0  -2  -7 3788.49 516.423   1
   0  -2  -7 3376.88 431.617   8
   0  -2  -6 44440.5 1262.41   8
   0  -2  -6 43084.3 1297.01   1
   0  -2  -5 143814. 2064.18   8
   0  -2  -5 139492. 2082.53   1
   0  -2  -4 81955.8 1011.83   7
   0  -2  -4 80569.3 1397.85   1
   0  -2  -4 80871.5 1431.68   8
   0  -2  -3 121717. 1547.17   8
   0  -2  -3 124298. 1499.10   1
   0  -2  -3 121210. 886.313   7
   0  -2  -2 2097.90 213.833   8
   0  -2  -2 2239.97 210.566   5
   0  -2  -2 1751.93 158.397   4
   0  -2  -1 295071. 1757.74   8
   0  -2  -1 298988. 1951.74   9
   0  -2   0 67947.8 793.453   7
   0  -2   0 68040.3 619.382   6
   0  -2   0 68079.9 952.853  10
   0  -2   0 69595.6 890.058   5
   0  -2   0 67468.2 915.902   9
   0  -2   0 68855.6 630.626   8
   0  -2   1 158992. 1527.09   7
   0  -2   1 157078. 1257.87   6
   0  -2   1 160010. 1543.55  10
   0  -2   2 109601. 1489.24   7
   0  -2   2 109704. 1308.37   6
   0  -2   3 19471.3 350.798   8
   0  -2   3 19514.4 735.135   7
   0  -2   3 19342.6 660.950   6
   0  -2   4 44423.5 1220.78   7
   0  -2   4 43977.9 685.809   8
   0  -2   4 44802.1 670.391   3
   0  -2   5 4933.51 477.016   7
   0  -2   5 4021.55 218.531   3
   0  -2   6 12813.5 775.431   6
   0  -2   6 13032.2 801.467   7
   0  -2   7 26042.0 1190.74   7
   0  -2   7 26318.3 1196.35   6
   0  -2   8 4403.16 576.211   7
   0  -2   8 3967.07 542.503   6
   0  -2   9 7058.72 744.278   7
   0  -2   9 7885.71 786.347   6
   0  -2  10 8307.14 850.879   7
   0  -2  10 8750.45 881.830   6
   0  -2  11 4620.02 699.157   7
   0  -2  11 2911.99 575.469   6
   0  -1 -12 3226.24 623.603   1
   0  -1 -11 2580.39 608.331   1
   0  -1 -10 3024.40 671.029   1
   0  -1  -9 10408.9 952.667   1
   0  -1  -8 14069.1 1013.06   1
   0  -1  -7 43658.0 1512.47   1
   0  -1  -6 22708.1 995.291   1
   0  -1  -6 16989.6 750.665   8
   0  -1  -5 34841.8 1079.07   1
   0  -1  -5 30393.7 904.092   8
   0  -1  -4 47495.9 1106.45   1
   0  -1  -4 46826.3 1007.56   8
   0  -1  -3 12731.8 391.005   7
   0  -1  -3 12790.6 480.641   8
   0  -1  -2 188688. 1070.54   7
   0  -1  -2 182307. 1469.12   2
   0  -1  -2 191005. 1400.58   4
   0  -1  -2 181692. 1482.96   8
   0  -1  -2 187722. 1462.57   1
   0  -1   1 73120.4 845.237   7
   0  -1   1 73139.0 787.002  10
   0  -1   2 13161.2 461.675   7
   0  -1   2 13852.1 284.215   3
   0  -1   2 12868.5 279.295   8
   0  -1   2 13633.2 356.416   2
   0  -1   3 72189.0 1236.90   7
   0  -1   3 75803.1 784.528   3
   0  -1   3 72160.3 864.323   8
   0  -1   3 74529.1 996.084   2
   0  -1   4 40829.7 862.514   2
   0  -1   4 40222.9 1043.42   7
   0  -1   5 6437.97 497.327   7
   0  -1   5 6071.70 302.490   3
   0  -1   5 6094.97 387.839   2
   0  -1   6 2718.32 392.059   7
   0  -1   6 2769.92 308.552   2
   0  -1   7 7764.78 638.695   7
   0  -1   7 8719.72 549.476   2
   0  -1   8 26532.1 1217.00   7
   0  -1   8 27749.0 1042.32   2
   0  -1   9 9942.07 805.538   7
   0  -1   9 10446.9 880.752   6
   0  -1  10 1655.02 406.339   7
   0  -1  10 1417.11 424.918   6
   0  -1  11 3186.66 571.461   7
   0  -1  11 2318.94 513.714   6
   0   0 -12 2700.58 702.100   1
   0   0 -11 9102.86 1038.31   1
   0   0 -10 15859.7 1199.29   1
   0   0  -9 17250.5 1188.29   1
   0   0  -8 13495.9 1060.49   1
   0   0  -7 6904.84 760.564   1
   0   0  -6 58516.7 1563.69   1
   0   0  -5 127028. 2071.59   1
   0   0  -5 129044. 1739.59   8
   0   0  -4 53548.5 1184.39   1
   0   0  -4 52574.1 988.374   8
   0   0  -3 50129.1 829.436   2
   0   0  -3 49652.7 824.876   8
   0   0  -3 48883.9 984.750   1
   0   0  -2 194566. 1443.88   7
   0   0  -2 189167. 1316.51   2
   0   0  -2 188948. 1301.36   8
   0   0  -2 188908. 1533.95   1
   0   0   2 183286. 1385.19   7
   0   0   2 177701. 1262.87   8
   0   0   2 180342. 1266.49   2
   0   0   3 43867.0 770.806   8
   0   0   3 43794.5 774.909   2
   0   0   3 43877.5 841.121   7
   0   0   4 53170.5 1091.84   7
   0   0   4 54769.5 871.721   3
   0   0   4 53455.6 994.454   2
   0   0   5 122794. 1873.08   7
   0   0   5 124235. 1718.33   2
   0   0   6 57193.5 1407.37   7
   0   0   6 59024.5 1317.95   2
   0   0   7 1576.45 314.767   7
   0   0   7 1408.85 263.327   2
   0   0   8 7953.64 659.708   7
   0   0   8 8490.19 605.469   2
   0   0   9 8219.67 712.528   7
   0   0   9 8168.33 637.566   2
   0   0  10 9363.55 799.373   7
   0   0  10 10204.9 911.529   6
   0   0  11 2383.52 481.002   7
   0   0  11 2252.00 537.810   6
   0   0  12 3806.18 676.967   6
   0   1 -11 7969.80 1031.35   1
   0   1 -10 7116.25 961.800   1
   0   1  -9 17050.4 1221.63   1
   0   1  -8 31874.9 1458.87   1
   0   1  -7 11508.8 907.932   1
   0   1  -6 3047.02 503.131   1
   0   1  -5 4418.61 489.007   1
   0   1  -4 35619.5 1041.08   1
   0   1  -3 71592.7 743.825   3
   0   1  -3 74325.6 1305.02   1
   0   1  -3 71711.3 867.282   8
   0   1  -3 70887.2 972.274   2
   0   1  -2 16038.8 431.794  10
   0   1  -2 16897.5 396.352   2
   0   1  -2 16802.2 313.069   8
   0   1  -2 17068.9 541.881   1
   0   1  -1 74060.3 861.513   7
   0   1  -1 74019.1 875.307   1
   0   1  -1 71548.1 575.313   3
   0   1  -1 73494.4 789.520  10
   0   1   1 361167. 1360.68   4
   0   1   1 66733.8 659.430   1
   0   1   2 202030. 1086.87   7
   0   1   2 200171. 1460.40   1
   0   1   2 194991. 1498.65   2
   0   1   2 199027. 1546.68   8
   0   1   3 16518.8 435.642   7
   0   1   3 16112.3 518.707   2
   0   1   4 47906.0 1007.20   2
   0   1   4 48112.4 904.270   7
   0   1   5 33444.9 936.760   2
   0   1   5 34054.3 880.915   7
   0   1   6 14852.1 670.271   7
   0   1   6 15236.9 700.638   2
   0   1   7 42394.3 1235.04   7
   0   1   7 41260.7 1237.04   2
   0   1   8 10219.9 681.161   7
   0   1   8 9924.19 677.102   2
   0   1   9 8927.23 696.800   7
   0   1   9 9062.30 689.673   2
   0   1  10 997.681 310.732   7
   0   1  10 1181.08 314.967   2
   0   1  11 3753.97 536.560   7
   0   1  11 3095.21 576.444   6
   0   1  12 6202.12 826.061   6
   0   2 -11 11067.6 1208.10   1
   0   2 -10 13389.4 1201.48   1
   0   2  -9 16416.4 1222.97   1
   0   2  -8 6968.37 842.696   1
   0   2  -7 24537.8 1247.32   1
   0   2  -6 12314.0 810.929   1
   0   2  -5 6126.27 550.983   1
   0   2  -4 48820.3 704.072   3
   0   2  -4 47811.2 1303.53   1
   0   2  -3 16601.7 489.733   2
   0   2  -3 17314.6 708.440   1
   0   2  -2 103825. 982.180   3
   0   2  -2 100311. 1110.41   2
   0   2  -1 160814. 1581.53   1
   0   2   0 78427.9 858.195   7
   0   2   0 79130.5 658.246   6
   0   2   0 79740.3 1009.47   9
   0   2   0 79858.5 947.892   5
   0   2   0 78868.6 690.252   8
   0   2   1 321594. 1099.09   7
   0   2   1 320420. 1872.71   5
   0   2   1 309690. 2029.46   9
   0   2   1 316655. 1816.71   8
   0   2   1 304247. 1655.63   4
   0   2   2 2115.40 219.987   2
   0   2   2 2043.97 190.515   1
   0   2   2 2255.30 181.983   4
   0   2   3 122581. 872.627   7
   0   2   3 119765. 1543.93   2
   0   2   3 117371. 1305.27   4
   0   2   4 84861.0 998.646   7
   0   2   4 85669.7 1439.42   2
   0   2   5 152657. 1623.46   7
   0   2   5 150307. 2108.06   2
   0   2   6 48195.5 1292.24   2
   0   2   6 45486.9 1033.33   7
   0   2   7 3608.13 427.654   2
   0   2   7 3483.74 353.298   7
   0   2   8 26245.6 977.884   7
   0   2   8 25267.3 1083.53   2
   0   2   9 35830.1 1241.22   7
   0   2   9 34265.5 1344.25   2
   0   2  10 18851.4 979.351   7
   0   2  10 18878.0 1076.40   2
   0   2  11 1027.03 318.895   2
   0   2  12 1276.73 462.490   6
   0   3 -10 13400.8 1211.46   1
   0   3  -9 10419.0 1081.12   1
   0   3  -8 17984.6 1200.64   1
   0   3  -7 1392.36 424.262   1
   0   3  -6 9974.17 789.853   1
   0   3  -5 2002.02 175.739   3
   0   3  -5 1459.73 369.448   1
   0   3  -4 91363.8 1929.09   1
   0   3  -3 55843.3 1371.88   1
   0   3  -3 53523.8 862.232   3
   0   3  -2 19139.3 735.335   1
   0   3  -2 19084.1 532.335   3
   0   3   0 50641.2 647.056   6
   0   3   0 50555.1 672.757   8
   0   3   1 69290.6 773.167   7
   0   3   1 70069.1 770.084   6
   0   3   1 69421.0 974.737   8
   0   3   1 69906.0 990.581   4
   0   3   2 68850.0 980.791   4
   0   3   3 40378.2 993.473   2
   0   3   3 42064.8 836.039   4
   0   3   4 42220.1 1099.99   2
   0   3   4 40010.4 894.028   4
   0   3   5 51364.8 776.264   7
   0   3   5 51713.7 1324.59   2
   0   3   6 38364.7 1222.53   2
   0   3   6 38113.0 815.053   7
   0   3   7 37071.2 1288.58   2
   0   3   7 36804.8 927.738   7
   0   3   8 4972.41 543.483   2
   0   3   8 5207.64 406.408   7
   0   3   9 8901.04 577.731   7
   0   3   9 8757.87 734.374   2
   0   3  10 21472.5 1178.84   2
   0   3  11 4771.38 615.587   2
   0   3  12 3988.87 605.962   2
   0   4 -10 13161.1 1261.38   1
   0   4  -9 7503.31 953.054   1
   0   4  -8 16590.1 1190.54   1
   0   4  -7 24859.5 1338.07   1
   0   4  -6 17076.8 1053.95   1
   0   4  -5 17979.7 556.399   3
   0   4  -5 13884.7 889.960   1
   0   4  -4 6998.59 394.531   3
   0   4  -4 7135.01 631.262   1
   0   4  -3 48055.1 1392.55   1
   0   4  -3 48742.8 962.658   3
   0   4  -2 74954.6 1572.36   1
   0   4  -2 74745.8 1227.98   3
   0   4  -1 139998. 903.940   8
   0   4   0 69232.1 909.425   8
   0   4   0 68450.7 860.020   6
   0   4   1 41468.3 648.963   6
   0   4   1 43089.7 923.821   4
   0   4   2 12971.6 495.973   4
   0   4   2 13131.1 305.120   7
   0   4   3 28838.9 940.679   2
   0   4   3 28081.6 741.367   4
   0   4   4 24064.8 905.655   2
   0   4   4 24706.7 750.829   4
   0   4   5 12952.3 728.089   2
   0   4   6 20034.9 957.170   2
   0   4   7 18142.8 965.597   2
   0   4   8 22052.2 1120.08   2
   0   4   9 21930.3 1183.87   2
   0   4  10 1820.52 414.344   2
   0   4  11 1407.38 411.142   2
   0   4  12 1056.21 376.806   2
   0   5  -9 11401.8 1115.27   1
   0   5  -8 1845.37 523.330   1
   0   5  -7 9541.16 891.582   1
   0   5  -6 29105.8 1429.14   1
   0   5  -5 21258.3 1149.97   1
   0   5  -4 16547.0 624.695   3
   0   5  -4 16171.5 943.306   1
   0   5  -3 34402.3 1265.14   1
   0   5  -3 35430.4 931.010   3
   0   5  -2 3978.90 435.852   1
   0   5  -2 3869.79 337.837   3
   0   5  -1 46108.7 607.707   8
   0   5   0 125855. 1257.30   6
   0   5   1 46977.5 738.301   6
   0   5   1 47852.5 1114.29   4
   0   5   2 47124.4 834.686   6
   0   5   2 47457.3 1067.21   4
   0   5   2 46105.6 735.549   7
   0   5   3 26582.1 799.151   4
   0   5   3 26300.2 974.964   2
   0   5   4 11482.3 692.294   2
   0   5   4 12087.1 562.781   4
   0   5   5 51356.2 1495.60   2
   0   5   5 51475.5 1204.48   4
   0   5   6 67206.3 1808.94   2
   0   5   7 7924.78 687.191   2
   0   5   8 2235.83 444.165   2
   0   5   9 578.388 309.046   2
   0   5  10 7988.70 803.273   2
   0   5  11 5237.17 703.835   2
   0   5  12 6266.47 788.882   2
   0   6  -8 6214.26 852.625   1
   0   6  -7 6321.84 787.143   1
   0   6  -6 1496.50 409.666   1
   0   6  -5-258.632 372.053   1
   0   6  -4 10015.8 798.420   1
   0   6  -3 5305.32 562.661   1
   0   6  -3 5234.49 412.474   3
   0   6  -2 33095.0 1245.96   1
   0   6  -2 33897.4 1051.87   3
   0   6  -1 56933.5 1529.16   1
   0   6   1 36900.6 686.127   6
   0   6   1 38842.6 1122.28   4
   0   6   2 23202.3 836.783   4
   0   6   3 43217.4 1113.71   4
   0   6   3 42583.9 1320.74   2
   0   6   4 87201.9 1968.56   2
   0   6   4 84666.7 1536.90   4
   0   6   5 14269.7 864.139   2
   0   6   5 14836.1 688.614   4
   0   6   6 23732.1 892.488   4
   0   6   6 25916.4 1203.35   2
   0   6   7 24463.7 1227.59   2
   0   6   8 8597.41 794.423   2
   0   6   9 7580.50 786.592   2
   0   6  10 4668.83 658.127   2
   0   6  11-120.088 298.583   2
   0   6  12 1717.18 466.234   2
   0   7  -7 1719.74 524.755   1
   0   7  -6 3353.76 572.163   1
   0   7  -5 6940.83 748.026   1
   0   7  -4 22579.0 1258.69   1
   0   7  -3 14830.5 961.198   1
   0   7  -3 13703.7 718.026   3
   0   7  -2 43033.5 1537.96   1
   0   7  -2 43270.4 1309.38   3
   0   7  -1 51444.9 1578.36   1
   0   7   0 19067.3 923.441   4
   0   7   1 4231.94 430.862   4
   0   7   2 3939.18 406.764   4
   0   7   3 42023.4 1416.67   2
   0   7   3 40916.3 1180.95   4
   0   7   4 59459.0 1744.46   2
   0   7   4 58943.8 1401.38   4
   0   7   5 45716.1 1597.27   2
   0   7   5 45839.4 1265.99   4
   0   7   6 7438.76 719.807   2
   0   7   6 7203.12 530.531   4
   0   7   7 10905.5 882.082   2
   0   7   8-72.4372 291.776   2
   0   7   9 10414.5 947.253   2
   0   7  10 9177.92 934.909   2
   0   7  11 3261.32 605.034   2
   0   8  -6 175.872 373.910   1
   0   8  -5-370.779 398.415   1
   0   8  -4 17112.9 1165.25   1
   0   8  -3 12311.1 945.442   1
   0   8  -2 12801.6 906.064   1
   0   8  -2 13463.6 796.414   3
   0   8  -1 3665.35 484.807   1
   0   8  -1 3730.16 458.846   3
   0   8   0 3599.10 461.841   4
   0   8   0 3049.72 417.614   1
   0   8   1 11666.5 744.168   4
   0   8   2 21077.8 1042.03   2
   0   8   2 20614.6 947.457   4
   0   8   3 3758.98 411.752   4
   0   8   3 3685.05 494.700   2
   0   8   4 1232.36 274.925   4
   0   8   4 984.418 321.398   2
   0   8   5 3760.20 530.120   2
   0   8   5 3855.01 414.284   4
   0   8   6 15589.9 1051.85   2
   0   8   7 9966.19 891.083   2
   0   8   8 12988.7 1047.91   2
   0   8   9 1547.25 466.910   2
   0   8  10 2578.83 585.144   2
   0   8  11 9920.52 1054.42   2
   0   9  -5 9485.14 967.152   1
   0   9  -4 861.935 363.918   1
   0   9  -3 13916.0 1068.02   1
   0   9  -2 9299.04 831.239   1
   0   9  -1 13741.8 957.885   4
   0   9  -1 13314.1 943.479   1
   0   9  -1 13256.1 871.676   3
   0   9   0 11664.5 785.033   2
   0   9   0 10662.7 818.445   1
   0   9   0 11578.6 845.327   4
   0   9   1 1147.93 321.159   4
   0   9   1 897.464 276.652   2
   0   9   2 8102.17 708.369   2
   0   9   2 7502.88 622.793   4
   0   9   3 17136.8 894.795   4
   0   9   3 18616.2 1086.38   2
   0   9   4 15600.4 1025.03   2
   0   9   5 6136.23 684.294   2
   0   9   6 1531.61 412.250   2
   0   9   7 2483.68 542.231   2
   0   9   8 7892.85 883.051   2
   0   9   9 12249.0 1100.85   2
   0   9  10 2169.34 572.040   2
   0  10  -4 9556.41 981.108   1
   0  10  -3 4266.63 661.613   4
   0  10  -3 4821.55 679.588   1
   0  10  -2 185.946 256.247   1
   0  10  -2 181.850 242.466   4
   0  10  -1 8555.49 805.498   1
   0  10  -1 15441.9 1083.08   4
   0  10   0 9590.92 819.026   1
   0  10   0 9881.27 832.138   3
   0  10   1 18725.4 1088.12   2
   0  10   1 17710.7 1059.80   1
   0  10   2 7276.26 713.694   2
   0  10   3 3773.22 554.296   2
   0  10   4 2841.21 509.005   2
   0  10   5 8358.11 841.378   2
   0  10   6 7525.26 841.844   2
   0  10   7 3505.04 610.412   2
   0  10   8 3245.84 641.539   2
   0  10   9 426.753 362.254   2
   0  11   1 3225.01 523.160   3
   0  11   3 12841.5 1006.42   2
   0  11   4 17448.6 1217.00   2
   0  11   5 13268.8 1103.70   2
   0  11   6 6660.73 829.458   2
   0  11   7 10899.4 1084.06   2
   0  12   2 1278.03 400.451   3
   0  12   4 11264.9 1042.71   2
   0  12   5 10220.4 1029.55   2
   1 -11  -7 6717.18 808.198  10
   1 -11  -6 3214.43 582.158  10
   1 -11  -5 1327.12 440.002  10
   1 -11  -4 5896.54 760.857  10
   1 -11  -3 5859.74 766.160  10
   1 -11  -2 6363.87 794.943  10
   1 -11  -1 2218.95 518.669  10
   1 -11   0 4726.44 735.409  10
   1 -11   1 4113.52 662.479   9
   1 -11   2 5082.73 740.994   9
   1 -10  -8 6986.87 769.749  10
   1 -10  -7 177.075 238.833  10
   1 -10  -6 2646.21 514.839  10
   1 -10  -5 8678.11 855.837  10
   1 -10  -4 3810.10 591.593  10
   1 -10  -3 3040.73 543.179  10
   1 -10  -2 5670.48 715.680  10
   1 -10  -1 9745.78 942.562  10
   1 -10   0 5861.37 764.023  10
   1 -10   0 6505.20 771.359   9
   1 -10   1 1129.83 405.298   9
   1 -10   2 1066.21 413.058   9
   1 -10   3 1158.29 383.540   9
   1 -10   4 20874.3 1390.94   9
   1  -9  -9 12624.3 1015.60   5
   1  -9  -8 2283.20 440.524  10
   1  -9  -8 2624.30 488.457   5
   1  -9  -7 5528.11 622.998   5
   1  -9  -7 5502.29 641.400  10
   1  -9  -6 1344.48 396.563   8
   1  -9  -6 1400.52 358.342  10
   1  -9  -6 1439.27 332.719   5
   1  -9  -5 3184.48 447.402   5
   1  -9  -5 2878.04 501.997  10
   1  -9  -5 2833.81 471.550   8
   1  -9  -4 14393.9 863.841   5
   1  -9  -4 14846.6 1026.60  10
   1  -9  -4 14692.4 913.279   8
   1  -9  -3 25527.1 1335.45  10
   1  -9  -3 27377.6 1176.80   5
   1  -9  -2 1013.78 331.599  10
   1  -9  -1 2126.25 483.235  10
   1  -9  -1 2249.53 471.313   9
   1  -9   0 1671.15 441.013  10
   1  -9   0 2046.81 475.495   9
   1  -9   1 23510.9 1370.85  10
   1  -9   1 22613.1 1295.54   9
   1  -9   2 14717.4 1072.41   9
   1  -9   3 10815.1 946.810   9
   1  -9   4 2835.19 523.180   9
   1  -9   5 8471.08 860.096   9
   1  -8 -11 1821.18 473.705   5
   1  -8 -10 475.562 288.133   5
   1  -8  -9 339.108 281.439   5
   1  -8  -8 149.347 282.240   8
   1  -8  -8 298.990 246.083   5
   1  -8  -7 5960.09 633.162   5
   1  -8  -7 5876.03 615.941  10
   1  -8  -7 6259.97 688.576   8
   1  -8  -6 16417.5 954.778   5
   1  -8  -6 16022.3 975.504  10
   1  -8  -6 16461.5 1037.96   8
   1  -8  -5 4604.94 544.268   8
   1  -8  -5 5317.67 540.162   5
   1  -8  -5 4502.66 533.615  10
   1  -8  -4 2762.75 380.145   5
   1  -8  -4 2539.55 437.145  10
   1  -8  -4 3270.13 450.379   8
   1  -8  -3 20904.1 951.644   5
   1  -8  -3 21515.3 1137.66  10
   1  -8  -3 21387.0 983.691   8
   1  -8  -2 19594.6 912.687   5
   1  -8  -2 18263.1 838.686   8
   1  -8  -2 16798.9 1027.99  10
   1  -8  -1 8950.00 767.563  10
   1  -8  -1 9383.58 791.274   9
   1  -8   0 10060.0 820.903  10
   1  -8   0 10430.4 836.505   9
   1  -8   1 202.633 290.825  10
   1  -8   1 36.1787 243.393   9
   1  -8   2 21743.2 1206.32   9
   1  -8   3 30433.4 1433.26   9
   1  -8   4 10149.5 867.456   9
   1  -8   5 5850.95 678.991   9
   1  -8   6 15.3466 231.896   9
   1  -7 -11 2243.21 514.527   5
   1  -7 -10 5523.84 730.700   5
   1  -7  -9 14024.7 1032.49   5
   1  -7  -9 13727.6 1076.75   8
   1  -7  -8 8631.54 767.412   5
   1  -7  -8 9984.37 887.916   8
   1  -7  -7 6833.58 634.318   5
   1  -7  -7 7469.15 740.671   8
   1  -7  -6 24326.7 1200.24   8
   1  -7  -6 22794.9 1073.82   5
   1  -7  -5 49822.1 1484.93   5
   1  -7  -5 49354.0 1602.25   8
   1  -7  -4 38931.9 1247.15   5
   1  -7  -4 38606.6 1376.25  10
   1  -7  -4 39651.9 1349.07   8
   1  -7  -3 8903.69 589.010   5
   1  -7  -3 8425.29 677.621  10
   1  -7  -3 9465.44 632.646   8
   1  -7  -2 10596.2 622.888   5
   1  -7  -2 10212.9 743.855  10
   1  -7  -2 9766.50 747.580   9
   1  -7  -2 10683.1 623.775   8
   1  -7  -1 12713.3 832.411  10
   1  -7  -1 12571.6 840.215   9
   1  -7  -1 12558.7 610.728   8
   1  -7   0 35917.1 1403.30  10
   1  -7   0 36867.4 914.079   8
   1  -7   0 37050.9 1410.03   9
   1  -7   1 21037.1 1105.94  10
   1  -7   1 20461.4 1059.04   9
   1  -7   2 3942.92 384.693   6
   1  -7   2 4535.87 546.122   9
   1  -7   3 2722.97 453.302   7
   1  -7   3 2544.93 335.116   6
   1  -7   3 2778.79 451.809   9
   1  -7   4 16502.7 1058.02   7
   1  -7   4 16520.0 871.569   6
   1  -7   4 17059.8 1029.17   9
   1  -7   5 509.531 278.065   7
   1  -7   5 982.020 320.271   9
   1  -7   6 6153.32 755.189   7
   1  -7   6 5206.85 630.493   9
   1  -7   7 6402.39 711.757   9
   1  -6 -12 3588.26 693.507   5
   1  -6 -11 1306.12 445.640   5
   1  -6 -10 1908.00 491.105   5
   1  -6  -9 3550.16 554.861   5
   1  -6  -9 4139.73 609.172   8
   1  -6  -8 7317.49 709.636   5
   1  -6  -8 8339.52 787.367   8
   1  -6  -7 25445.5 1180.98   5
   1  -6  -7 26387.4 1272.21   8
   1  -6  -6 7134.27 596.349   5
   1  -6  -6 6660.37 640.744   8
   1  -6  -5 1248.47 274.644   5
   1  -6  -5 1408.68 342.803   8
   1  -6  -4 17579.7 790.902   5
   1  -6  -4 17908.5 885.533   8
   1  -6  -3 26711.0 988.921   8
   1  -6  -3 25097.7 893.021   5
   1  -6  -3 25648.4 1036.64  10
   1  -6  -2 28341.2 912.158   5
   1  -6  -2 29492.8 1115.34  10
   1  -6  -2 29229.3 1145.82   9
   1  -6  -2 28794.4 951.578   8
   1  -6  -1 32100.6 912.944   8
   1  -6  -1 31313.1 1169.38  10
   1  -6  -1 31300.2 1185.56   9
   1  -6  -1 33158.2 992.088   5
   1  -6   0 3363.57 280.378   8
   1  -6   0 3241.54 436.986  10
   1  -6   0 2979.31 421.990   9
   1  -6   1 18895.6 946.242   9
   1  -6   1 18348.5 711.676   6
   1  -6   1 18800.8 959.344  10
   1  -6   1 19264.2 520.716   8
   1  -6   2 18691.0 899.375   7
   1  -6   2 16234.0 895.123   9
   1  -6   2 17534.7 743.644   6
   1  -6   2 17707.9 952.519  10
   1  -6   3 39754.4 1410.13   7
   1  -6   3 36705.5 1150.60   6
   1  -6   3 40228.2 1414.35   9
   1  -6   4 27188.7 1268.44   7
   1  -6   4 27969.4 1097.57   6
   1  -6   4 29049.8 1244.72   9
   1  -6   5 7916.61 758.142   7
   1  -6   5 7714.55 632.643   6
   1  -6   5 7250.23 661.545   9
   1  -6   6 7698.61 795.161   7
   1  -6   6 7149.02 657.165   6
   1  -6   6 7445.14 709.350   9
   1  -6   7 6829.57 795.694   7
   1  -6   7 6911.45 703.694   6
   1  -6   7 6261.38 671.038   9
   1  -6   8 14614.7 1070.40   6
   1  -5 -12 4018.45 721.383   5
   1  -5 -11 4471.40 699.922   5
   1  -5 -10 11803.3 1011.44   5
   1  -5 -10 11849.9 998.532   8
   1  -5  -9 10312.2 881.942   5
   1  -5  -9 9936.64 875.481   8
   1  -5  -8 7777.64 714.242   5
   1  -5  -8 7321.03 718.132   8
   1  -5  -7 10748.7 770.964   5
   1  -5  -7 11551.3 834.509   8
   1  -5  -6 28537.0 1132.64   5
   1  -5  -6 27704.0 1207.19   8
   1  -5  -5 28480.1 1129.61   8
   1  -5  -5 28104.9 1034.83   5
   1  -5  -4 16744.7 818.660   8
   1  -5  -4 17896.6 754.529   5
   1  -5  -3 5789.55 459.095   8
   1  -5  -3 5221.61 401.852   5
   1  -5  -2 36970.7 1171.10   9
   1  -5  -2 38519.2 961.688   5
   1  -5  -2 38345.1 1127.39  10
   1  -5  -2 38640.4 1038.20   8
   1  -5  -1 29144.9 815.875   8
   1  -5  -1 29287.9 1013.78  10
   1  -5  -1 29058.5 1040.91   9
   1  -5  -1 28825.3 820.297   5
   1  -5   0 81368.4 1710.15  10
   1  -5   0 82042.3 1732.15   9
   1  -5   0 82632.8 1210.04   8
   1  -5   1 39212.8 1093.14   7
   1  -5   1 37202.4 690.357   8
   1  -5   1 38936.1 1212.42   9
   1  -5   1 38668.0 969.373   6
   1  -5   1 39934.5 1255.31  10
   1  -5   2 19395.3 853.583   7
   1  -5   2 20167.7 921.741  10
   1  -5   2 19179.5 737.140   6
   1  -5   2 19255.1 878.262   9
   1  -5   3 21509.5 979.215   7
   1  -5   3 21961.6 860.258   6
   1  -5   3 22391.8 985.336   9
   1  -5   4 67237.5 1825.66   7
   1  -5   4 69109.1 1644.38   6
   1  -5   5 20802.6 1106.75   7
   1  -5   5 21790.4 1005.36   6
   1  -5   6 16778.3 1063.74   7
   1  -5   6 17159.6 968.639   6
   1  -5   7-13.4042 272.008   7
   1  -5   7 479.456 272.261   6
   1  -5   8 263.699 308.487   7
   1  -5   8 161.777 250.754   6
   1  -5   9 8899.28 882.106   6
   1  -5  10 6462.16 810.374   6
   1  -4 -12 4012.22 673.645   1
   1  -4 -11 431.943 341.215   1
   1  -4 -10 7859.25 818.658   1
   1  -4  -9 35099.5 1561.15   1
   1  -4  -9 36364.4 1553.61   8
   1  -4  -8 21418.9 1140.94   1
   1  -4  -8 20770.1 1135.24   8
   1  -4  -7 1111.15 343.685   8
   1  -4  -7 910.576 288.662   1
   1  -4  -6 4646.47 507.755   8
   1  -4  -5 31945.5 1087.03   5
   1  -4  -5 32550.7 1149.64   8
   1  -4  -4 128547. 1929.92   5
   1  -4  -4 128367. 2108.33   8
   1  -4  -3 56860.2 898.904   4
   1  -4  -3 56501.4 1141.17   5
   1  -4  -3 59237.6 1306.96   8
   1  -4  -2 3859.26 288.902   5
   1  -4  -2 3909.16 343.427  10
   1  -4  -2 4322.47 390.689   9
   1  -4  -2 4003.02 335.704   8
   1  -4  -1 12674.8 473.862   5
   1  -4  -1 12704.4 598.578  10
   1  -4  -1 12673.3 621.458   9
   1  -4  -1 12234.9 497.129   8
   1  -4   0 12758.6 618.654   9
   1  -4   0 12901.9 618.479  10
   1  -4   0 12099.3 432.423   8
   1  -4   1 63871.3 1141.72   6
   1  -4   1 64809.2 1396.65   9
   1  -4   1 67458.2 1431.65  10
   1  -4   1 64300.5 817.966   8
   1  -4   1 66124.3 1271.95   7
   1  -4   2 95633.0 1700.48   7
   1  -4   2 92564.6 1491.95   6
   1  -4   2 92390.4 1744.83   9
   1  -4   2 92401.6 696.394   8
   1  -4   3 70497.3 1621.55   7
   1  -4   3 71774.3 1453.51   6
   1  -4   4 1008.60 311.039   7
   1  -4   4 823.774 249.539   6
   1  -4   5 60980.6 1763.98   7
   1  -4   5 60906.3 1633.11   6
   1  -4   6 7072.02 677.418   7
   1  -4   6 6905.41 611.063   6
   1  -4   7 24934.1 1299.90   7
   1  -4   7 27058.5 1268.79   6
   1  -4   8 12828.6 997.718   7
   1  -4   8 15478.2 1047.52   6
   1  -4   9 2129.66 505.865   7
   1  -4   9 2214.42 483.638   6
   1  -4  10 1260.09 434.621   6
   1  -3 -12 5324.74 808.135   1
   1  -3 -11 3183.88 617.933   1
   1  -3 -10 7856.32 844.218   1
   1  -3  -9 2177.29 474.953   1
   1  -3  -9 2109.90 403.759   8
   1  -3  -8 7932.69 740.894   1
   1  -3  -8 8151.43 694.507   8
   1  -3  -7 34273.6 1367.65   1
   1  -3  -7 32796.2 1261.43   8
   1  -3  -6 37467.4 1320.89   1
   1  -3  -6 36438.3 1246.42   8
   1  -3  -5 50350.6 1368.15   1
   1  -3  -5 47958.6 1323.94   8
   1  -3  -4 37520.7 1078.32   8
   1  -3  -3 14565.0 439.157   4
   1  -3  -3 14349.7 619.891   8
   1  -3  -2 13979.8 353.224   4
   1  -3  -2 14404.4 480.029   5
   1  -3  -2 14265.4 553.496   8
   1  -3  -1 36282.7 663.440   5
   1  -3  -1 36531.8 892.923   9
   1  -3  -1 37073.0 782.447   8
   1  -3  -1 36804.0 840.694  10
   1  -3   0 260451. 1787.49   8
   1  -3   0 262354. 2338.73  10
   1  -3   0 258547. 2341.24   9
   1  -3   1 5342.54 351.172   7
   1  -3   1 5181.91 310.218   6
   1  -3   1 5735.82 386.829  10
   1  -3   1 5375.58 380.147   9
   1  -3   1 5459.74 227.597   8
   1  -3   2 94098.1 1526.34   7
   1  -3   2 92253.3 1399.33   6
   1  -3   2 94886.7 747.513   8
   1  -3   3 174098. 2334.67   7
   1  -3   3 178388. 2157.05   6
   1  -3   3 181024. 999.443   8
   1  -3   3 173381. 944.161   8
   1  -3   4 46593.0 1327.51   7
   1  -3   4 47276.3 1243.47   6
   1  -3   4 43553.4 550.372   8
   1  -3   5 18440.7 934.723   7
   1  -3   5 20187.6 902.150   6
   1  -3   6 3503.35 472.369   7
   1  -3   6 4074.78 470.960   6
   1  -3   7 24098.1 1196.08   7
   1  -3   7 24200.2 1169.42   6
   1  -3   8 19786.6 1171.79   7
   1  -3   8 21112.6 1182.14   6
   1  -3   9 16289.9 1134.94   7
   1  -3   9 15973.8 1112.38   6
   1  -3  10 5176.97 711.401   6
   1  -3  11 295.512 342.979   6
   1  -2 -12 266.009 338.920   1
   1  -2 -11 1928.39 405.612   1
   1  -2 -10 4031.51 650.132   1
   1  -2  -9 5097.79 633.014   1
   1  -2  -9 8697.98 740.720   8
   1  -2  -8 15269.2 988.387   1
   1  -2  -8 17767.3 972.739   8
   1  -2  -7-417.013 510.916   1
   1  -2  -7 4918.46 500.672   8
   1  -2  -6 21102.6 907.503   8
   1  -2  -6 18997.3 917.801   1
   1  -2  -5 57996.9 1389.51   8
   1  -2  -5 55948.9 1443.04   1
   1  -2  -4 74171.4 1524.46   1
   1  -2  -4 72027.3 1415.86   8
   1  -2  -3 72737.3 1323.35   1
   1  -2  -3 69567.1 982.879   4
   1  -2  -3 70397.1 1248.57   8
   1  -2  -2 25569.0 445.047   4
   1  -2  -2 26911.9 700.463   8
   1  -2  -1 6587.38 312.432   2
   1  -2  -1 6671.67 242.751   5
   1  -2  -1 6735.95 301.934  10
   1  -2  -1 6717.64 331.906   9
   1  -2  -1 7024.60 326.450   8
   1  -2   0 381879. 2158.62   6
   1  -2   0 399586. 1585.98   5
   1  -2   0 391790. 2326.83  10
   1  -2   0 391194. 2409.84   9
   1  -2   0 389127. 1969.84   8
   1  -2   1 213931. 1781.07   7
   1  -2   1 213288. 1711.53   6
   1  -2   1 218921. 1276.61   8
   1  -2   2 4833.07 341.101   7
   1  -2   2 4419.24 299.181   6
   1  -2   3 6931.28 444.796   7
   1  -2   3 6207.13 407.148   6
   1  -2   4 41661.6 1168.30   7
   1  -2   4 42736.8 1122.43   6
   1  -2   4 40526.8 710.533   8
   1  -2   5 8564.99 606.327   7
   1  -2   5 8940.74 592.664   6
   1  -2   6 55734.0 1588.88   7
   1  -2   6 54321.9 1533.57   6
   1  -2   7 15531.1 922.815   6
   1  -2   7 14563.6 903.714   7
   1  -2   8 9471.88 788.297   7
   1  -2   8 8597.61 744.953   6
   1  -2   9 4619.20 612.896   7
   1  -2   9 4375.98 620.241   6
   1  -2  10 8011.77 829.708   7
   1  -2  10 7729.55 841.435   6
   1  -2  11 1159.24 413.291   6
   1  -1 -12-1601.35 767.521   1
   1  -1 -11-1647.76 686.471   1
   1  -1 -10 2682.03 571.520   1
   1  -1  -9 1821.05 547.802   1
   1  -1  -8 7250.85 608.979   8
   1  -1  -8 8078.14 788.492   1
   1  -1  -7 20754.4 923.628   8
   1  -1  -7 21544.1 1111.12   1
   1  -1  -6 25591.0 1108.22   1
   1  -1  -6 25413.1 946.126   8
   1  -1  -5 11037.0 588.697   8
   1  -1  -5 12112.9 740.749   1
   1  -1  -4 18305.8 669.697   8
   1  -1  -4 15709.9 673.782   1
   1  -1  -3 35658.0 911.751   1
   1  -1  -3 38362.3 858.984   8
   1  -1  -2 126481. 1502.37   1
   1  -1  -2 124203. 1364.66   8
   1  -1  -1 653247. 2665.88   8
   1  -1  -1 648350. 2283.78   9
   1  -1   0 52964.2 653.029   8
   1  -1   1 736908. 2807.56   6
   1  -1   1 704707. 2701.27   3
   1  -1   2 72409.5 1053.31   7
   1  -1   2 72825.1 1052.55   6
   1  -1   2 73990.3 941.539   3
   1  -1   3 168301. 1860.64   7
   1  -1   3 168797. 1844.57   6
   1  -1   3 174239. 1587.79   3
   1  -1   3 175827. 1090.11   2
   1  -1   4 123909. 1798.59   7
   1  -1   4 122311. 1817.01   6
   1  -1   4 128406. 1211.44   2
   1  -1   5 49249.1 1270.90   7
   1  -1   5 50400.0 1307.36   6
   1  -1   5 51497.2 911.156   2
   1  -1   6 14019.8 753.998   7
   1  -1   6 13345.9 762.862   6
   1  -1   6 14383.7 555.837   2
   1  -1   7 14268.7 833.904   7
   1  -1   7 14774.6 875.848   6
   1  -1   7 15551.2 648.901   2
   1  -1   8 39296.2 1457.45   7
   1  -1   8 43436.6 1587.97   6
   1  -1   8 42295.2 1157.92   2
   1  -1   9 16894.0 1037.32   7
   1  -1   9 15553.8 1048.11   6
   1  -1  10 1232.80 376.021   7
   1  -1  10 885.728 336.979   6
   1  -1  11 2114.67 507.197   6
   1   0 -11 3330.46 664.877   1
   1   0 -10 15665.3 1254.55   1
   1   0  -9 22846.2 1418.20   1
   1   0  -8 7434.31 927.446   1
   1   0  -8 2223.84 343.230   8
   1   0  -7 14545.9 1080.15   1
   1   0  -7 10517.3 633.793   8
   1   0  -6 20490.4 1063.86   1
   1   0  -6 15541.3 711.636   8
   1   0  -5 48932.3 1444.94   1
   1   0  -5 45815.6 1096.38   8
   1   0  -4 58272.4 1362.78   1
   1   0  -4 55534.1 1073.95   8
   1   0  -3 10067.9 568.900   1
   1   0  -3 5396.94 315.274   8
   1   0  -2 35773.5 815.989   1
   1   0  -2 32581.5 629.400   8
   1   0  -1 226883. 1558.15   2
   1   0  -1 228719. 1412.78   8
   1   0  -1 226130. 1600.83   1
   1   0   2 26606.7 580.125   6
   1   0   2 22956.5 726.706   3
   1   0   3 41159.1 638.275   2
   1   0   3 40903.2 868.202   6
   1   0   3 40965.3 803.492   7
   1   0   4 60074.0 926.609   2
   1   0   4 61353.5 1142.37   7
   1   0   5 120964. 1793.49   7
   1   0   5 118590. 1491.30   2
   1   0   6 41957.9 1189.74   7
   1   0   6 43026.5 1009.43   2
   1   0   7 356.333 217.627   7
   1   0   7 751.832 198.894   2
   1   0   8 1634.82 350.131   7
   1   0   8 1749.93 384.535   6
   1   0   8 1743.67 279.135   2
   1   0   9 3272.86 469.164   7
   1   0   9 4279.25 580.094   6
   1   0   9 3863.72 410.205   2
   1   0  10 15176.5 1096.22   6
   1   0  11 3328.52 599.917   6
   1   0  12 1614.07 512.796   6
   1   1 -11 3141.56 805.515   1
   1   1 -10 4986.40 901.346   1
   1   1  -9 10943.4 1079.01   1
   1   1  -8 42066.8 1729.76   1
   1   1  -7 14592.0 1102.80   1
   1   1  -7 9232.92 566.650   8
   1   1  -6 1634.68 248.431   8
   1   1  -6 8664.76 820.014   1
   1   1  -5 3375.25 639.040   1
   1   1  -5 470.398 153.801   8
   1   1  -4 85646.3 1679.50   1
   1   1  -4 78990.8 1186.20   8
   1   1  -3 127051. 1293.48   8
   1   1  -3 124669. 1785.79   1
   1   1  -3 123406. 1197.67  10
   1   1  -2 88454.9 1290.63   1
   1   1  -2 86750.3 889.886  10
   1   1  -2 89180.8 918.939   8
   1   1  -1 180309. 1479.74   1
   1   1  -1 179571. 1529.63   2
   1   1  -1 179467. 1522.63   7
   1   1   0 82905.2 709.787   3
   1   1   0 83038.6 689.156   1
   1   1   0 82335.4 935.845   5
   1   1   0 81300.5 633.284   9
   1   1   1 57817.3 537.564   6
   1   1   1 58276.7 751.503   5
   1   1   1 56352.2 737.687   4
   1   1   2 983635. 3156.86   6
   1   1   2 999999. 3650.03   3
   1   1   3 20830.8 604.591   4
   1   1   3 21065.5 554.984   2
   1   1   3 22074.2 537.501   1
   1   1   4 59420.9 989.726   7
   1   1   4 59067.1 1033.61   2
   1   1   5 33171.4 868.389   2
   1   1   5 32903.1 852.574   7
   1   1   6 30928.2 925.691   2
   1   1   6 30406.6 925.736   7
   1   1   7 75755.9 1579.26   2
   1   1   7 76688.1 1619.22   7
   1   1   8 50694.3 1441.73   7
   1   1   8 51982.6 1408.08   2
   1   1   9 19884.8 1138.02   6
   1   1   9 20714.5 956.984   2
   1   1  10 11315.4 930.262   6
   1   1  10 11579.6 780.774   2
   1   1  11 9593.71 924.153   6
   1   1  12 6423.74 829.958   6
   1   2 -10 11978.0 1183.37   1
   1   2  -9 7080.02 954.665   1
   1   2  -8 7839.72 961.880   1
   1   2  -7 24063.4 1340.67   1
   1   2  -6 28659.8 1292.48   1
   1   2  -5 20090.3 982.578   1
   1   2  -5 18441.3 585.593   8
   1   2  -4 31009.9 1087.40   1
   1   2  -4 31281.1 661.018   8
   1   2  -3 9627.00 564.778   1
   1   2  -3 8831.38 296.193   8
   1   2  -2 49903.1 1066.67   1
   1   2  -2 52093.6 583.185   8
   1   2  -1 26105.8 400.078   8
   1   2  -1 25076.5 644.039   1
   1   2   0 37058.2 604.844   1
   1   2   0 37988.5 644.495   9
   1   2   0 37029.5 689.321   7
   1   2   1 142036. 1422.63   4
   1   2   1 144712. 1480.29   5
   1   2   2 65798.0 1017.97   4
   1   2   2 66035.1 631.598   1
   1   2   3 143492. 1234.46   1
   1   2   3 142401. 1632.75   4
   1   2   4 148622. 1822.30   4
   1   2   4 147425. 1823.61   2
   1   2   5 33115.9 944.899   2
   1   2   6 33171.3 1027.99   2
   1   2   7 8485.84 591.152   2
   1   2   8 29328.1 1118.73   2
   1   2   9 55764.0 1644.59   2
   1   2  10 7861.63 673.902   2
   1   2  11 1511.41 466.096   6
   1   2  11 1707.20 375.367   2
   1   2  12 28.6296 271.571   6
   1   3 -10 10485.5 1122.05   1
   1   3  -9 12302.7 1192.25   1
   1   3  -8 15687.3 1207.13   1
   1   3  -7 15669.5 1141.96   1
   1   3  -6 20076.8 1121.04   1
   1   3  -5 22820.5 1085.32   1
   1   3  -4 15309.8 832.890   1
   1   3  -3 12054.8 293.002   3
   1   3  -3 11581.4 649.122   1
   1   3  -2 26492.3 507.257   3
   1   3  -2 26169.3 861.517   1
   1   3  -1 1914.79 236.149   1
   1   3   0 119501. 1352.18   1
   1   3   0 124423. 1089.38   8
   1   3   1 115285. 1269.10   8
   1   3   1 115048. 1197.71   7
   1   3   1 111567. 1484.27   4
   1   3   2 17274.7 588.608   4
   1   3   3 38141.8 901.551   4
   1   3   3 37631.2 691.550   1
   1   3   4 104684. 1711.81   2
   1   3   4 105415. 1623.27   4
   1   3   5 31097.4 993.018   2
   1   3   5 32683.4 969.369   4
   1   3   6 51516.1 1365.04   2
   1   3   7 60374.9 1576.46   2
   1   3   8 4550.08 500.712   2
   1   3   9 2553.53 419.776   2
   1   3  10 13769.8 924.670   2
   1   3  11 7670.05 825.209   6
   1   3  11 7704.01 744.131   2
   1   3  12 7860.00 875.673   6
   1   4  -9 5990.44 931.543   1
   1   4  -8 21706.3 1405.11   1
   1   4  -7 26176.0 1433.84   1
   1   4  -6 16853.2 1072.98   1
   1   4  -5 3505.11 506.585   1
   1   4  -4 8941.29 267.661   3
   1   4  -4 7574.07 640.310   1
   1   4  -3 19989.2 902.658   1
   1   4  -3 20539.5 507.783   3
   1   4  -2 84378.2 1658.95   1
   1   4  -1 112783. 1722.27   1
   1   4  -1 116354. 836.399   8
   1   4   0 26892.7 755.479   1
   1   4   0 27392.5 569.976   8
   1   4   1 95123.7 1555.36   4
   1   4   2 22017.8 738.761   4
   1   4   3 41114.6 1019.27   4
   1   4   3 40079.8 804.854   1
   1   4   4 36891.0 1006.55   4
   1   4   5 32011.7 1103.15   2
   1   4   5 32863.9 1017.64   4
   1   4   6 20640.2 938.759   2
   1   4   7 49465.9 1521.76   2
   1   4   8 4781.75 530.337   2
   1   4   9 10727.6 818.259   2
   1   4  10 5188.72 610.039   2
   1   4  11 1416.34 380.854   2
   1   4  12 4212.44 650.634   6
   1   4  12 3608.27 583.311   2
   1   5  -9 12035.6 1184.49   1
   1   5  -8 8048.48 971.795   1
   1   5  -7 11934.9 1025.91   1
   1   5  -6 21539.9 1247.92   1
   1   5  -5 9892.07 810.455   1
   1   5  -4 12081.9 825.495   1
   1   5  -3 2535.87 237.984   3
   1   5  -3 2968.63 427.419   1
   1   5  -2 12095.9 702.099   1
   1   5  -2 11085.1 504.449   3
   1   5  -1 57816.7 1371.38   1
   1   5  -1 56898.7 605.608   8
   1   5   0 57297.5 1250.51   1
   1   5   0 57519.2 887.777   8
   1   5   1 40098.8 1135.46   4
   1   5   2 18919.4 292.257   6
   1   5   2 20869.1 797.569   4
   1   5   3 8635.32 530.340   4
   1   5   4 37815.4 1083.85   4
   1   5   5 51302.1 1503.35   2
   1   5   5 52868.8 1349.70   4
   1   5   6 22853.6 1058.62   2
   1   5   6 24132.9 960.216   4
   1   5   7 508.079 260.757   2
   1   5   8 18916.4 1063.49   2
   1   5   9 2415.59 446.691   2
   1   5  10 10662.8 902.152   2
   1   5  11 10258.8 929.373   2
   1   5  12 2487.94 533.163   6
   1   5  12 2934.78 561.152   2
   1   5  13 231.172 304.608   2
   1   6  -8 7298.96 942.500   1
   1   6  -7 10121.7 985.680   1
   1   6  -6 5350.78 707.004   1
   1   6  -5 3836.55 541.943   1
   1   6  -4 13913.3 925.790   1
   1   6  -3 49015.4 1086.88   3
   1   6  -3 50108.9 1625.78   1
   1   6  -2 20493.1 977.044   1
   1   6  -2 20138.7 760.619   3
   1   6  -1 23897.8 973.550   1
   1   6   0 7263.32 577.814   4
   1   6   0 6815.12 505.088   1
   1   6   1 45031.4 1326.14   4
   1   6   2 103170. 1927.07   4
   1   6   3 59052.2 792.264   6
   1   6   3 59595.0 1431.22   4
   1   6   4 27154.4 988.648   4
   1   6   5 11433.3 671.321   4
   1   6   5 12218.1 797.581   2
   1   6   6 59616.8 1784.42   2
   1   6   6 60759.8 1581.59   4
   1   6   7 31436.2 1372.57   2
   1   6   7 32580.9 1179.97   4
   1   6   8 23584.4 1255.21   2
   1   6   9 4868.97 633.790   2
   1   6  10 2063.24 471.558   2
   1   6  11 3443.84 597.103   2
   1   6  12 2421.52 527.025   6
   1   6  12 2119.06 509.635   2
   1   7  -7 11186.5 1064.77   1
   1   7  -6 6824.25 800.233   1
   1   7  -5 27764.5 1470.46   1
   1   7  -4 10448.2 857.457   1
   1   7  -3 8644.20 748.937   1
   1   7  -2 44581.0 1249.88   3
   1   7  -2 46348.7 1559.98   1
   1   7  -1 7236.15 595.830   1
   1   7   0 21810.2 1046.14   4
   1   7   0 19907.1 909.259   1
   1   7   1 20083.5 959.672   4
   1   7   2 30848.2 1157.74   4
   1   7   3 67884.0 1645.34   4
   1   7   4 12191.0 737.309   4
   1   7   5 6858.23 658.989   2
   1   7   5 6795.98 542.809   4
   1   7   6 20616.9 1131.03   2
   1   7   6 20167.4 961.668   4
   1   7   7 2195.43 352.698   4
   1   7   7 2087.52 438.401   2
   1   7   8 3078.43 534.149   2
   1   7   9 13493.0 1046.95   2
   1   7  10 19518.0 1305.61   2
   1   7  11 2581.67 575.557   2
   1   7  12 196.156 268.662   6
   1   7  12 67.4553 316.497   2
   1   8  -6 1936.02 496.145   1
   1   8  -5 316.015 282.529   1
   1   8  -4 11643.9 977.647   1
   1   8  -3 8266.46 773.802   1
   1   8  -2 6485.28 659.357   1
   1   8  -1 9854.66 820.706   4
   1   8  -1 9028.88 720.691   1
   1   8   0 23322.6 1064.59   1
   1   8   0 24637.7 1196.10   4
   1   8   1 12040.6 726.121   1
   1   8   1 12448.6 833.883   4
   1   8   2 14410.5 865.831   4
   1   8   3 472.531 239.806   4
   1   8   4 1011.70 285.717   4
   1   8   4 742.207 316.836   2
   1   8   5 9150.04 790.721   2
   1   8   5 8996.20 664.006   4
   1   8   6 24583.2 1305.20   2
   1   8   6 24583.6 1097.59   4
   1   8   7 28350.9 1455.37   2
   1   8   7 27886.0 1193.40   4
   1   8   8 9854.94 910.339   2
   1   8   9 2623.76 542.932   2
   1   8  10 6491.99 815.199   2
   1   8  11 14641.7 1240.08   2
   1   9  -5 3255.27 611.798   1
   1   9  -4-419.451 374.853   1
   1   9  -3 751.569 285.890   1
   1   9  -2 18508.7 1225.97   4
   1   9  -2 15053.3 1040.66   1
   1   9  -1 19500.6 1211.64   4
   1   9  -1 19374.9 1100.88   1
   1   9   0 21921.1 1107.59   1
   1   9   0 23146.9 1244.93   4
   1   9   1 6064.40 577.323   1
   1   9   1 6119.38 631.056   4
   1   9   2 3082.10 449.939   4
   1   9   2 3035.75 400.380   1
   1   9   3 36704.4 1417.06   4
   1   9   4 21407.5 1223.89   2
   1   9   4 19820.6 1035.26   4
   1   9   5 9496.77 845.330   2
   1   9   5 8143.78 665.888   4
   1   9   6 2271.43 488.377   2
   1   9   7 13174.1 1058.66   2
   1   9   8 10950.4 1008.52   2
   1   9   9 8178.68 920.699   2
   1   9  10 928.139 436.154   2
   1  10  -4 7704.20 877.120   1
   1  10  -3 5374.18 764.175   4
   1  10  -3 4208.97 634.103   1
   1  10  -2 808.592 356.908   4
   1  10  -2 684.789 333.674   1
   1  10  -1 8528.23 803.404   1
   1  10  -1 5397.59 687.664   4
   1  10   0 6508.40 728.054   4
   1  10   1 8227.47 777.866   4
   1  10   2 9127.56 812.640   2
   1  10   2 10666.3 859.691   4
   1  10   3 201.768 219.839   2
   1  10   4 9561.14 879.227   2
   1  10   5 20229.1 1297.46   2
   1  10   6 14776.1 1142.23   2
   1  10   7 2290.32 525.394   2
   1  10   8 518.199 337.181   2
   1  10   9 365.408 378.709   2
   1  11   2 12181.8 991.027   2
   1  11   3 12072.0 996.198   2
   1  11   4 7214.28 816.320   2
   1  11   5 5866.20 755.709   2
   1  11   6 4396.16 683.385   2
   1  11   7 4403.09 708.827   2
   1  12   4 3155.97 598.621   2
   1  12   5 11133.9 1069.49   2
   2 -11  -6 3480.15 602.072  10
   2 -11  -5 929.014 374.250  10
   2 -11  -4 2341.28 525.105  10
   2 -11  -3 6581.63 801.324  10
   2 -11  -2 2815.21 550.319  10
   2 -11  -1 83.3183 272.527  10
   2 -11   0 1020.04 396.559   9
   2 -11   1 4280.21 714.109   9
   2 -10  -7 1971.56 440.002  10
   2 -10  -7 2071.45 505.391   8
   2 -10  -6 16434.5 1146.07  10
   2 -10  -6 17254.8 1180.59   8
   2 -10  -5 12916.5 1017.69  10
   2 -10  -5 14505.3 1033.77   8
   2 -10  -4 4933.36 662.443  10
   2 -10  -4 5045.60 594.641   8
   2 -10  -3 3628.13 581.254  10
   2 -10  -2 9206.23 905.821  10
   2 -10  -1 5863.71 753.245  10
   2 -10  -1 5742.01 755.928   9
   2 -10   0 16577.1 1210.84   9
   2 -10   1 5645.56 755.548   9
   2 -10   2 3281.07 588.639   9
   2 -10   3 5050.18 734.060   9
   2 -10   4 7040.32 856.179   9
   2  -9  -9 5111.97 747.486   8
   2  -9  -8 8341.35 900.415   8
   2  -9  -7 946.518 328.588  10
   2  -9  -7 1032.41 358.886   8
   2  -9  -6 2876.88 491.243  10
   2  -9  -6 2861.69 517.176   8
   2  -9  -5 2118.86 425.808   8
   2  -9  -5 1918.79 400.816  10
   2  -9  -4 10735.5 871.035  10
   2  -9  -4 11326.2 834.508   8
   2  -9  -3 10227.8 856.999  10
   2  -9  -3 11123.6 781.443   8
   2  -9  -2 1309.11 365.502  10
   2  -9  -2 1363.40 295.019   8
   2  -9  -1 1548.77 447.963   9
   2  -9  -1 1465.58 403.764  10
   2  -9   0 4412.69 640.446  10
   2  -9   0 5261.17 679.293   9
   2  -9   1 18371.1 1211.63   9
   2  -9   2 6221.05 752.854   9
   2  -9   3 485.783 344.971   9
   2  -9   4 143.540 275.178   9
   2  -9   5 1772.32 465.010   9
   2  -9   6 7649.44 871.243   9
   2  -8 -10 3537.26 654.731   8
   2  -8  -9 3673.56 652.497   8
   2  -8  -8 1119.21 315.193   5
   2  -8  -8 1390.90 410.865   8
   2  -8  -7 39449.3 1505.26   5
   2  -8  -7 40308.3 1507.75  10
   2  -8  -7 41514.0 1770.16   8
   2  -8  -6 31399.2 1278.09   5
   2  -8  -6 32403.7 1353.16  10
   2  -8  -6 33642.2 1511.20   8
   2  -8  -5 5406.74 511.663   5
   2  -8  -5 5086.24 564.741  10
   2  -8  -5 5337.99 602.533   8
   2  -8  -4 7511.97 563.578   5
   2  -8  -4 7716.33 693.383  10
   2  -8  -4 7936.88 681.768   8
   2  -8  -3 19574.1 851.731   5
   2  -8  -3 18918.3 1059.78  10
   2  -8  -3 20392.5 1009.48   8
   2  -8  -2 23506.4 1198.38  10
   2  -8  -2 24361.2 1027.18   8
   2  -8  -2 23138.8 1228.93   9
   2  -8  -1 38121.2 1547.21  10
   2  -8  -1 39086.9 1595.86   9
   2  -8  -1 40086.6 1210.67   8
   2  -8   0 1319.69 374.535  10
   2  -8   0 1294.89 373.942   9
   2  -8   1 10966.8 890.581   9
   2  -8   2 7193.90 726.121   9
   2  -8   3 22346.1 1276.47   9
   2  -8   4 9598.52 878.049   9
   2  -8   5 6820.58 757.455   9
   2  -8   6 192.462 256.405   9
   2  -8   7 4580.74 675.207   9
   2  -7 -11 2269.89 516.641   5
   2  -7 -10 9232.51 912.004   5
   2  -7 -10 12738.7 1121.72   8
   2  -7  -9 9927.11 873.432   5
   2  -7  -9 9881.44 941.197   8
   2  -7  -8 5619.78 628.446   5
   2  -7  -8 6595.44 760.836   8
   2  -7  -7 222.975 215.847   5
   2  -7  -7 194.876 176.207  10
   2  -7  -7 297.437 284.455   8
   2  -7  -6 7494.67 609.061   5
   2  -7  -6 7059.35 592.517  10
   2  -7  -6 7364.94 721.722   8
   2  -7  -5 17060.6 1000.66   8
   2  -7  -5 16265.4 827.104   5
   2  -7  -5 16669.9 906.082  10
   2  -7  -4 6648.64 503.642   5
   2  -7  -4 6754.90 586.561  10
   2  -7  -4 6782.38 621.045   8
   2  -7  -3 7628.87 507.709   5
   2  -7  -3 7393.32 630.383  10
   2  -7  -3 7202.10 588.144   8
   2  -7  -2 21821.4 1115.69   9
   2  -7  -2 23026.9 833.189   5
   2  -7  -2 22096.7 1057.51  10
   2  -7  -2 22662.8 957.040   8
   2  -7  -1 22284.8 1089.79  10
   2  -7  -1 21994.2 1123.00   9
   2  -7  -1 22644.1 880.571   8
   2  -7   0 24582.8 837.116   8
   2  -7   0 24516.7 1171.31  10
   2  -7   0 23440.7 1156.59   9
   2  -7   1 2564.33 442.560  10
   2  -7   1 2001.96 417.643   9
   2  -7   2 97.7220 176.873   6
   2  -7   2 44.2553 242.283   9
   2  -7   3 794.615 244.079   6
   2  -7   3 966.574 340.039   9
   2  -7   4 14980.9 882.076   6
   2  -7   4 14410.8 996.230   9
   2  -7   5 21207.4 1110.96   6
   2  -7   5 20159.6 1206.57   9
   2  -7   6 10593.6 918.130   9
   2  -7   7 8759.03 866.362   9
   2  -7   8 359.092 305.913   9
   2  -6 -11 813.825 362.725   5
   2  -6 -11 1250.98 481.469   8
   2  -6 -10-63.7762 258.986   5
   2  -6 -10-39.1795 285.703   8
   2  -6  -9 8409.84 806.578   5
   2  -6  -9 8748.34 874.559   8
   2  -6  -8 10824.8 848.157   5
   2  -6  -8 11900.4 950.347   8
   2  -6  -7 13558.8 865.580   5
   2  -6  -7 13200.3 721.403  10
   2  -6  -7 13331.4 962.661   8
   2  -6  -6 6857.48 575.271   5
   2  -6  -6 7197.36 545.789  10
   2  -6  -6 6768.84 670.718   8
   2  -6  -5 15997.3 787.605   5
   2  -6  -5 15510.5 789.893  10
   2  -6  -5 16768.8 953.512   8
   2  -6  -4 15840.5 719.214   5
   2  -6  -4 15533.0 791.753  10
   2  -6  -4 15532.8 875.319   8
   2  -6  -3 26625.3 1039.23   8
   2  -6  -3 25800.1 850.117   5
   2  -6  -3 25449.3 1030.12  10
   2  -6  -2 27420.0 818.969   5
   2  -6  -2 28269.8 1087.81  10
   2  -6  -2 29145.7 1027.51   8
   2  -6  -2 28329.7 1155.80   9
   2  -6  -1 11033.1 719.699  10
   2  -6  -1 10934.6 753.293   9
   2  -6  -1 11767.1 527.316   5
   2  -6  -1 11645.4 604.217   8
   2  -6   0 15156.7 877.774   9
   2  -6   0 15236.6 851.897  10
   2  -6   0 15316.9 631.735   8
   2  -6   1 15660.0 568.799   8
   2  -6   1 15820.0 885.919  10
   2  -6   1 15414.5 885.595   9
   2  -6   2 28217.4 1041.28   6
   2  -6   2 27674.3 1193.22   9
   2  -6   2 26823.7 623.661   8
   2  -6   3 37075.4 1244.29   6
   2  -6   3 38450.7 1450.04   9
   2  -6   4 14914.4 842.629   6
   2  -6   4 15502.9 960.743   9
   2  -6   5 15851.5 931.942   6
   2  -6   5 15567.2 999.189   9
   2  -6   6 21835.9 1172.03   6
   2  -6   6 21861.0 1224.27   9
   2  -6   7 6006.69 678.659   6
   2  -6   8 7368.11 780.115   6
   2  -6   9 5270.02 714.377   6
   2  -5 -11 10492.4 1019.44   8
   2  -5 -10 13288.2 1087.08   8
   2  -5  -9 9245.10 867.155   8
   2  -5  -8 7450.40 749.183   8
   2  -5  -7 5720.66 593.032   5
   2  -5  -7 5454.70 626.734   8
   2  -5  -6 23050.3 1032.18   5
   2  -5  -6 22611.6 1122.61   8
   2  -5  -5 79037.8 1938.06   8
   2  -5  -5 76067.4 1677.76   5
   2  -5  -5 75512.7 1517.57  10
   2  -5  -4 38331.2 1070.32   5
   2  -5  -4 36523.4 1076.53  10
   2  -5  -4 37081.4 1266.08   8
   2  -5  -3 12863.3 709.579   8
   2  -5  -3 13021.3 564.281   5
   2  -5  -3 13035.3 659.455  10
   2  -5  -2 18229.4 607.767   5
   2  -5  -2 18872.7 802.353  10
   2  -5  -2 18728.2 864.410   9
   2  -5  -2 18237.0 780.389   8
   2  -5  -1 29296.3 728.021   5
   2  -5  -1 29053.8 1013.63  10
   2  -5  -1 28632.7 1067.79   9
   2  -5  -1 30142.6 913.917   8
   2  -5   0 105958. 1968.85  10
   2  -5   0 109818. 2068.77   9
   2  -5   0 107535. 1575.84   8
   2  -5   1 12296.2 628.841   6
   2  -5   1 12117.2 734.056  10
   2  -5   1 12468.7 738.302   9
   2  -5   1 12422.7 491.163   8
   2  -5   2 16450.8 764.391   6
   2  -5   2 17284.8 887.135   9
   2  -5   2 16922.4 497.949   8
   2  -5   3 38933.3 1201.86   6
   2  -5   3 38927.8 1358.57   9
   2  -5   3 39364.0 607.325   8
   2  -5   4 43363.0 1363.75   6
   2  -5   5 19869.8 1002.10   6
   2  -5   6 10180.7 784.523   6
   2  -5   7 2807.52 483.326   6
   2  -5   8 10610.8 916.455   6
   2  -5   9 3806.56 614.678   6
   2  -5  10 6143.19 804.909   6
   2  -4 -11 814.796 396.687   1
   2  -4 -11 1117.98 428.867   8
   2  -4 -10 11803.0 1038.37   1
   2  -4 -10 13619.9 1051.88   8
   2  -4  -9 19369.7 1227.16   1
   2  -4  -9 19485.1 1189.91   8
   2  -4  -8 16066.4 1027.14   8
   2  -4  -7 11832.6 842.605   8
   2  -4  -6 7412.40 648.844   8
   2  -4  -5 18825.5 927.916   8
   2  -4  -4 54709.2 1446.88   8
   2  -4  -4 54298.6 1258.04   5
   2  -4  -4 53329.3 1121.84  10
   2  -4  -4 51705.9 861.098   4
   2  -4  -3 40565.8 1163.51   8
   2  -4  -3 40835.9 950.272   5
   2  -4  -3 39719.3 985.703  10
   2  -4  -3 39628.6 561.275   4
   2  -4  -2 3120.97 239.370   5
   2  -4  -2 3511.32 322.462  10
   2  -4  -2 3282.60 365.717   9
   2  -4  -2 3311.58 352.009   8
   2  -4  -1 36135.6 944.197   8
   2  -4  -1 35225.4 664.140   5
   2  -4  -1 35600.0 984.281  10
   2  -4  -1 35446.7 1056.76   9
   2  -4   0 14669.2 555.444   8
   2  -4   0 14778.4 673.904  10
   2  -4   0 14157.4 688.517   9
   2  -4   1 97792.4 1638.84   6
   2  -4   1 96937.5 1814.89   9
   2  -4   1 100711. 1312.10   8
   2  -4   2 45774.8 1157.54   6
   2  -4   2 48003.8 822.902   8
   2  -4   3 17659.7 782.622   6
   2  -4   3 17907.1 469.537   8
   2  -4   4 8125.46 583.201   6
   2  -4   4 8323.93 297.868   8
   2  -4   5 784.212 270.399   6
   2  -4   6 28643.0 1228.91   6
   2  -4   7 19718.1 1108.15   6
   2  -4   8 7952.43 771.112   6
   2  -4   9 1704.51 449.683   6
   2  -4  10 1273.07 430.612   6
   2  -3 -11 1226.32 447.330   1
   2  -3 -10 5960.55 776.833   1
   2  -3 -10 5708.79 691.372   8
   2  -3  -9 565.892 316.962   8
   2  -3  -9 701.917 376.428   1
   2  -3  -8 16366.0 1084.74   1
   2  -3  -8 16103.8 989.572   8
   2  -3  -7 39151.6 1552.77   1
   2  -3  -7 36210.8 1395.21   8
   2  -3  -6 14141.8 828.873   8
   2  -3  -6 13750.5 870.912   1
   2  -3  -5 7520.04 585.597   8
   2  -3  -5 8000.96 631.329   1
   2  -3  -4 61426.8 1462.52   8
   2  -3  -3 38276.5 809.993  10
   2  -3  -3 38045.5 613.343   4
   2  -3  -3 40489.0 1104.17   8
   2  -3  -2 152990. 1962.70   8
   2  -3  -2 154252. 1514.58   5
   2  -3  -2 148811. 1651.81  10
   2  -3  -2 153157. 1887.72   9
   2  -3  -1 131871. 1679.35   8
   2  -3  -1 126531. 1055.56   5
   2  -3  -1 129599. 1599.24  10
   2  -3  -1 131249. 1756.43   9
   2  -3   0 107582. 1411.63   8
   2  -3   0 109029. 1552.96  10
   2  -3   0 110288. 1643.96   9
   2  -3   1 67738.6 1253.27   6
   2  -3   1 65891.5 1028.46   8
   2  -3   2 38543.6 986.710   6
   2  -3   2 41480.3 781.211   8
   2  -3   3 21993.0 824.156   6
   2  -3   3 21436.3 561.956   8
   2  -3   4 60703.8 1460.68   6
   2  -3   5 69569.4 1689.64   6
   2  -3   6 1278.82 334.409   6
   2  -3   7 56606.7 1804.37   6
   2  -3   8 16475.6 1059.47   6
   2  -3   9 25048.0 1386.66   6
   2  -3  10 4838.79 691.989   6
   2  -3  11 100.103 251.218   6
   2  -2 -11 394.651 368.700   1
   2  -2 -10 4260.87 706.304   1
   2  -2 -10 3407.62 544.735   8
   2  -2  -9 7009.50 765.485   1
   2  -2  -9 6890.77 679.137   8
   2  -2  -8 20471.6 1071.44   8
   2  -2  -8 18400.0 1177.64   1
   2  -2  -7 2646.95 454.925   1
   2  -2  -7 3736.53 481.453   8
   2  -2  -6 1353.57 382.102   1
   2  -2  -6 990.322 295.684   8
   2  -2  -5 13793.1 730.055   8
   2  -2  -5 14514.6 834.910   1
   2  -2  -4 32082.2 1012.28   8
   2  -2  -4 33344.8 1132.56   1
   2  -2  -3 98278.6 962.077  10
   2  -2  -3 100112. 1743.10   1
   2  -2  -3 96765.1 1619.99   8
   2  -2  -2 8222.55 305.148  10
   2  -2  -2 8673.86 388.025   9
   2  -2  -2 8286.67 454.181   8
   2  -2  -1 25408.4 586.997  10
   2  -2  -1 26297.9 673.610   9
   2  -2  -1 27006.0 729.822   8
   2  -2   0 188869. 1574.88   2
   2  -2   0 183874. 1825.05   9
   2  -2   0 183712. 1743.25   8
   2  -2   1 11267.4 305.213   2
   2  -2   1 10593.6 480.453   6
   2  -2   1 10969.8 424.834   8
   2  -2   2 52210.8 1075.18   6
   2  -2   3 35930.6 992.229   6
   2  -2   4 93895.1 1719.33   6
   2  -2   5 80363.6 1749.50   6
   2  -2   6 34660.0 1255.68   6
   2  -2   7 22072.1 1090.34   6
   2  -2   8 875.905 343.953   6
   2  -2   9 21100.5 1240.88   6
   2  -2  10 7306.14 810.185   6
   2  -2  11 6578.08 816.516   6
   2  -1 -11 10304.7 1070.12   1
   2  -1 -10-2259.08 832.410   1
   2  -1 -10 1496.73 383.139   8
   2  -1  -9 3541.19 553.585   1
   2  -1  -9 8928.33 738.084   8
   2  -1  -8 15499.1 1077.07   1
   2  -1  -8 20385.4 1027.59   8
   2  -1  -7 27555.0 1115.30   8
   2  -1  -7 26539.6 1270.76   1
   2  -1  -6 9170.98 655.374   1
   2  -1  -6 11334.1 689.852   8
   2  -1  -5 10362.6 604.129   8
   2  -1  -5 9415.12 642.126   1
   2  -1  -4 11609.7 612.616   1
   2  -1  -4 13134.7 624.037   8
   2  -1  -3 148715. 2143.67   1
   2  -1  -3 148638. 1877.21   8
   2  -1  -2 65460.2 1257.89   1
   2  -1  -2 61346.0 1114.55   8
   2  -1  -1 16486.5 408.478   9
   2  -1  -1 16221.1 541.569   8
   2  -1   0 118332. 698.421   5
   2  -1   0 119907. 1359.85   8
   2  -1   0 121933. 853.739   4
   2  -1   1 26751.7 674.471   6
   2  -1   1 26174.5 498.776   4
   2  -1   2 92233.3 1322.17   6
   2  -1   2 86227.8 625.955   2
   2  -1   3 100922. 1531.59   6
   2  -1   4 32306.0 971.833   6
   2  -1   4 32411.5 467.542   2
   2  -1   5 36086.4 1126.37   6
   2  -1   5 33786.1 608.233   2
   2  -1   6 11766.2 733.000   6
   2  -1   6 11788.5 437.904   2
   2  -1   7 21422.8 1049.11   6
   2  -1   7 23102.0 678.669   2
   2  -1   8 32200.7 1369.12   6
   2  -1   9 25532.6 1336.11   6
   2  -1  10 1382.73 398.689   6
   2  -1  11 3174.36 589.998   6
   2  -1  12 3570.41 654.876   6
   2   0 -11 15522.8 1321.46   1
   2   0 -10 10252.6 1009.60   1
   2   0  -9 8928.38 700.750   8
   2   0  -9 8836.55 893.189   1
   2   0  -8 2645.28 646.920   1
   2   0  -8 1189.56 294.411   8
   2   0  -7 13517.5 758.867   8
   2   0  -7 15934.6 1080.45   1
   2   0  -6 20351.9 855.781   8
   2   0  -6 22934.3 1161.85   1
   2   0  -5 32506.7 986.455   8
   2   0  -5 35122.2 1314.93   1
   2   0  -4 66149.6 1301.68   8
   2   0  -4 65639.9 1565.93   1
   2   0  -3 22413.8 694.877   8
   2   0  -3 20647.8 783.876   1
   2   0  -2 30627.8 749.673   8
   2   0  -2 27647.6 795.532   1
   2   0  -1 106910. 1064.72   3
   2   0  -1 107804. 1404.58   1
   2   0  -1 105286. 1279.83   8
   2   0   0 66645.7 899.424   3
   2   0   0 70789.4 839.704   5
   2   0   0 67092.4 977.075   2
   2   0   0 71613.7 865.173   4
   2   0   1 179125. 1560.90   6
   2   0   1 177119. 1248.43   5
   2   0   1 173085. 1408.49   4
   2   0   2 38880.8 793.654   6
   2   0   2 40775.7 794.321   4
   2   0   3 9351.93 457.848   6
   2   0   4 55766.1 1209.53   6
   2   0   4 56541.4 830.595   2
   2   0   5 64608.5 1006.45   2
   2   0   5 64735.3 1439.67   6
   2   0   6 36450.2 857.273   2
   2   0   6 35470.0 1196.83   6
   2   0   7 576.534 284.420   6
   2   0   7 520.916 166.390   2
   2   0   8 9731.96 756.918   6
   2   0   8 10156.4 556.385   2
   2   0   9 16580.6 1056.05   6
   2   0  10 47529.5 1885.04   6
   2   0  11 2240.28 521.522   6
   2   0  12 3092.99 617.874   6
   2   1 -10 9117.02 1048.02   1
   2   1  -9 16344.4 1266.10   1
   2   1  -8 17807.5 872.075   8
   2   1  -8 22582.0 1378.37   1
   2   1  -7 25352.5 1356.20   1
   2   1  -7 19009.9 843.922   8
   2   1  -6 6353.08 800.846   1
   2   1  -6 1077.91 239.806   8
   2   1  -5 20236.0 1055.83   1
   2   1  -5 15049.4 642.676   8
   2   1  -4 41459.0 1282.72   1
   2   1  -4 36854.8 910.532   8
   2   1  -3 111036. 1822.01   1
   2   1  -3 109246. 1425.59   8
   2   1  -2 46939.8 1045.33   1
   2   1  -2 45439.8 856.715   8
   2   1  -1 122494. 1446.96   1
   2   1  -1 123101. 1350.92   8
   2   1   0 35045.4 753.920   4
   2   1   0 34355.9 636.346   1
   2   1   1 119665. 1140.31   6
   2   1   1 118294. 1296.57   5
   2   1   1 117043. 1338.40   4
   2   1   2 92100.5 1102.40   6
   2   1   2 93671.3 1268.51   4
   2   1   3 132676. 1536.01   6
   2   1   3 129236. 1651.95   4
   2   1   4 8130.20 455.394   6
   2   1   4 7165.20 441.265   4
   2   1   5 14106.3 658.115   6
   2   1   5 14082.5 544.956   2
   2   1   6 77299.5 1384.68   2
   2   1   6 78766.4 1689.05   6
   2   1   7 81800.5 1546.52   2
   2   1   7 83400.2 1924.58   6
   2   1   8 18051.7 795.033   2
   2   1   8 17323.5 969.491   6
   2   1   9 9841.38 809.223   6
   2   1   9 10471.6 650.536   2
   2   1  10 7568.35 777.154   6
   2   1  11 3226.42 575.860   6
   2   1  12 6787.18 851.166   6
   2   2 -10 3138.87 725.748   1
   2   2  -9 3810.55 815.120   1
   2   2  -8 16715.2 1252.94   1
   2   2  -7 39338.0 1685.81   1
   2   2  -6 57985.2 1853.75   1
   2   2  -6 53525.7 1199.99   8
   2   2  -5 23633.0 1168.81   1
   2   2  -5 19974.4 684.693   8
   2   2  -4 25346.9 1101.02   1
   2   2  -4 22892.0 664.295   8
   2   2  -3 51800.0 1303.95   1
   2   2  -3 50341.5 885.001   8
   2   2  -2 148828. 1937.06   1
   2   2  -2 154182. 1457.94   8
   2   2  -1 118511. 1476.88   1
   2   2  -1 123367. 1304.34   8
   2   2   0 14114.2 424.191   3
   2   2   0 13236.9 418.126   1
   2   2   0 12542.6 358.415   9
   2   2   1 14936.3 565.577   4
   2   2   1 15269.2 295.606   1
   2   2   2 74108.6 870.165   6
   2   2   2 71471.2 1222.28   4
   2   2   3 126575. 1383.89   6
   2   2   3 121461. 1651.69   4
   2   2   4 165836. 1857.12   6
   2   2   4 162143. 1470.46   1
   2   2   4 163460. 2129.49   4
   2   2   5 12298.0 597.151   6
   2   2   5 11889.2 572.284   2
   2   2   5 12080.2 628.295   4
   2   2   6 3571.89 398.454   6
   2   2   6 3713.30 359.541   2
   2   2   7 38790.1 1159.34   2
   2   2   7 39478.2 1296.63   6
   2   2   8 3237.47 389.882   2
   2   2   8 3043.90 449.811   6
   2   2   9 19058.7 937.237   2
   2   2   9 18158.4 1049.75   6
   2   2  10 13069.0 974.575   6
   2   2  10 12893.8 817.546   2
   2   2  11 5261.21 703.173   6
   2   2  12 570.102 357.868   6
   2   3 -10 10939.4 1179.88   1
   2   3  -9 10130.7 1128.51   1
   2   3  -8 12850.7 1167.26   1
   2   3  -7 12458.3 1064.07   1
   2   3  -6 26338.3 1334.92   1
   2   3  -5 5876.78 752.800   1
   2   3  -5 3215.14 252.013   8
   2   3  -4 36252.9 730.811   8
   2   3  -4 37183.0 1299.08   1
   2   3  -3 51514.5 809.401   8
   2   3  -3 52637.5 1379.83   1
   2   3  -2 71294.5 726.701   3
   2   3  -2 70909.5 1441.24   1
   2   3  -2 73462.3 925.819   8
   2   3  -1 13341.8 413.625   3
   2   3  -1 12862.5 549.435   1
   2   3   0 170931. 1631.20   1
   2   3   1 39306.8 604.689   1
   2   3   1 40423.0 1012.86   4
   2   3   2 59081.6 641.059   6
   2   3   2 58596.8 1217.10   4
   2   3   3 14569.7 444.127   6
   2   3   3 14569.8 238.939   1
   2   3   3 14534.7 641.689   4
   2   3   4 5715.12 338.860   6
   2   3   4 5571.14 244.930   1
   2   3   4 5353.16 427.227   4
   2   3   5 61995.6 1268.65   6
   2   3   5 63545.9 1479.75   4
   2   3   6 113794. 1922.76   6
   2   3   6 116328. 2020.15   2
   2   3   6 113313. 2045.71   4
   2   3   7 213.825 221.408   6
   2   3   7 322.536 237.275   2
   2   3   8 10861.3 713.456   2
   2   3   8 10971.8 750.372   6
   2   3   9 1783.67 392.718   6
   2   3   9 1605.48 330.981   2
   2   3  10 8371.15 705.996   2
   2   3  10 8631.54 793.029   6
   2   3  11 27095.0 1463.78   6
   2   3  11 27311.5 1314.87   2
   2   3  12 9218.69 928.442   6
   2   4  -9 9923.63 1136.28   1
   2   4  -8 10404.3 1096.45   1
   2   4  -7 25024.4 1450.13   1
   2   4  -6 16722.1 1139.53   1
   2   4  -5 32868.6 1400.65   1
   2   4  -4 6418.96 626.154   1
   2   4  -3 56516.0 1529.70   1
   2   4  -3 57729.2 613.564   8
   2   4  -2 31904.9 643.825   3
   2   4  -2 30947.7 1032.83   1
   2   4  -2 30251.2 526.070   8
   2   4  -1 9381.49 515.191   1
   2   4   0 3866.15 299.342   1
   2   4   1 23738.5 590.072   1
   2   4   1 23845.2 870.564   4
   2   4   2 83526.5 882.816   1
   2   4   2 83988.6 1590.15   4
   2   4   3 149716. 1242.92   6
   2   4   3 148338. 2120.46   4
   2   4   3 151660. 1107.62   1
   2   4   4 8387.05 385.867   6
   2   4   4 8564.40 297.881   1
   2   4   4 8136.89 551.620   4
   2   4   5 61103.0 1204.38   6
   2   4   5 60648.3 1481.89   4
   2   4   6 36179.1 1236.71   2
   2   4   6 36283.2 1228.87   4
   2   4   7 24140.0 1051.02   2
   2   4   8 4433.01 512.336   2
   2   4   9 19464.7 1052.53   2
   2   4   9 19588.4 1047.45   6
   2   4  10 3573.64 513.492   2
   2   4  10 3502.63 528.667   6
   2   4  11 577.730 342.122   6
   2   4  11 344.138 284.628   2
   2   4  12 8367.80 874.694   6
   2   4  12 8231.36 817.000   2
   2   4  13 6948.30 855.542   6
   2   5  -8 9370.78 1055.39   1
   2   5  -7 4327.56 791.228   1
   2   5  -6 15074.2 1106.21   1
   2   5  -5 33364.8 1468.73   1
   2   5  -4 39921.0 1499.18   1
   2   5  -3 407.038 262.733   1
   2   5  -2 1480.30 314.937   1
   2   5  -1 17660.8 766.147   1
   2   5  -1 17029.4 443.838   8
   2   5   0 25867.0 1050.49   4
   2   5   0 26520.5 835.534   1
   2   5   1 69174.0 1169.80   1
   2   5   1 71260.6 1636.70   4
   2   5   2 48441.5 866.885   1
   2   5   2 48569.8 1328.50   4
   2   5   3 45131.9 525.743   6
   2   5   3 43433.1 1233.84   4
   2   5   4 29408.5 665.190   6
   2   5   4 29758.6 638.755   1
   2   5   5 22754.0 716.819   6
   2   5   5 23264.9 974.860   4
   2   5   6 33264.6 1274.39   2
   2   5   6 32726.1 1194.72   4
   2   5   7 31437.6 1299.40   2
   2   5   7 32146.5 1229.05   4
   2   5   8 2829.02 444.678   2
   2   5   9 13754.9 953.432   2
   2   5   9 14578.8 904.194   6
   2   5  10 13740.4 990.214   2
   2   5  10 14192.4 962.739   6
   2   5  11 7464.32 785.619   2
   2   5  11 6689.64 732.983   6
   2   5  12 446.281 321.607   6
   2   5  12 547.182 314.977   2
   2   5  13 661.873 397.735   6
   2   6  -8 17225.7 1392.43   1
   2   6  -7 21164.8 1416.78   1
   2   6  -6 13139.2 1076.15   1
   2   6  -5 591.230 357.199   1
   2   6  -4 46331.5 1700.19   1
   2   6  -3 28386.1 1234.94   1
   2   6  -2 10254.5 698.508   1
   2   6  -1 3456.40 407.836   1
   2   6   0 7464.80 636.605   4
   2   6   0 6889.62 491.032   1
   2   6   1 44924.8 1077.23   1
   2   6   1 45424.1 1430.43   4
   2   6   2 68332.2 1206.00   1
   2   6   2 68397.3 1709.93   4
   2   6   3 30975.1 1143.68   4
   2   6   4 2105.21 363.984   4
   2   6   4 2150.96 167.179   6
   2   6   5 1174.94 313.195   4
   2   6   5 866.481 164.464   6
   2   6   6 42013.5 1071.11   6
   2   6   6 41926.6 1419.35   4
   2   6   6 41059.1 1510.25   2
   2   6   7 39438.8 1531.17   2
   2   6   7 39537.4 1422.14   4
   2   6   8 15821.3 831.790   6
   2   6   8 15607.4 1014.52   2
   2   6   8 16125.9 937.336   4
   2   6   9 2915.34 424.986   6
   2   6   9 3167.47 531.392   2
   2   6  10 1565.67 369.225   6
   2   6  10 1692.33 411.432   2
   2   6  11 13749.3 1090.41   2
   2   6  11 13308.4 993.867   6
   2   6  12 4763.47 708.471   2
   2   6  12 4345.80 634.187   6
   2   6  13 3191.93 605.521   6
   2   6  13 2876.62 581.664   2
   2   7  -7 18414.4 1382.99   1
   2   7  -6 12428.1 1083.69   1
   2   7  -5 15701.8 1121.38   1
   2   7  -4 8233.50 780.270   1
   2   7  -3 2622.83 461.978   1
   2   7  -2 14878.2 901.626   1
   2   7  -1 33596.3 1241.51   1
   2   7   0 13125.7 882.105   4
   2   7   0 12494.0 706.488   1
   2   7   1 22243.8 847.725   1
   2   7   1 22819.5 1101.28   4
   2   7   2 6816.49 442.610   1
   2   7   2 6776.16 622.044   4
   2   7   3 23475.2 1075.71   4
   2   7   4 11470.0 768.313   4
   2   7   5 8922.21 692.137   4
   2   7   6 9556.93 500.704   6
   2   7   6 9625.43 794.976   2
   2   7   6 10537.4 746.459   4
   2   7   7 4563.35 403.636   6
   2   7   7 5147.07 632.388   2
   2   7   7 4484.12 529.616   4
   2   7   8 17536.9 857.148   6
   2   7   8 18028.5 1145.59   2
   2   7   8 17298.6 1008.96   4
   2   7   9 14296.2 859.244   6
   2   7   9 15085.7 1103.95   2
   2   7  10 12142.9 1036.67   2
   2   7  10 12163.4 871.621   6
   2   7  11 2580.10 467.357   6
   2   7  11 2758.73 562.411   2
   2   7  12 5402.92 786.453   2
   2   7  12 5180.50 673.727   6
   2   8  -6 4577.93 734.342   1
   2   8  -5 6987.12 799.494   1
   2   8  -4 4946.96 665.098   1
   2   8  -3 21121.0 1212.11   1
   2   8  -2 8311.94 721.262   1
   2   8  -1 6033.52 681.959   4
   2   8  -1 5479.28 554.528   1
   2   8   0 23585.5 1034.93   1
   2   8   0 24207.7 1253.08   4
   2   8   1 22238.5 931.841   1
   2   8   1 22977.6 1184.54   4
   2   8   2 50626.7 1302.33   1
   2   8   2 52788.2 1749.75   4
   2   8   3 32168.1 961.840   1
   2   8   3 33588.1 1355.69   4
   2   8   4 15617.4 946.593   4
   2   8   5 21597.0 1095.60   4
   2   8   6 28833.9 1433.42   2
   2   8   6 28539.4 1254.95   4
   2   8   7 9896.83 897.362   2
   2   8   7 9879.09 781.762   4
   2   8   8 10945.0 968.013   2
   2   8   8 10230.3 818.456   4
   2   8   9 343.669 321.376   2
   2   8  10 9327.00 958.143   2
   2   8  11 18123.8 1361.09   2
   2   9  -5 2072.84 507.322   1
   2   9  -4 1609.61 441.479   1
   2   9  -3 2053.46 431.912   1
   2   9  -2 7509.79 844.505   4
   2   9  -2 6119.17 668.858   1
   2   9  -1 10449.1 798.723   1
   2   9  -1 12076.3 1004.06   4
   2   9   0 9077.78 705.247   1
   2   9   0 9246.07 839.272   4
   2   9   1 2542.64 496.171   4
   2   9   2 9195.93 802.484   4
   2   9   3 19423.0 1119.52   4
   2   9   4 11266.1 852.669   4
   2   9   5 599.406 286.279   4
   2   9   5 856.052 376.128   2
   2   9   6 3698.24 591.125   2
   2   9   6 3312.64 495.080   4
   2   9   7 7074.65 800.082   2
   2   9   7 6374.53 675.388   4
   2   9   8 4132.80 651.612   2
   2   9   9 8551.04 926.339   2
   2   9  10 172.592 294.936   2
   2  10  -3 1883.74 526.272   4
   2  10  -2 335.300 339.945   4
   2  10  -1 1283.19 438.880   4
   2  10   0 8988.58 883.750   4
   2  10   1 10370.3 914.080   4
   2  10   2 14949.8 1077.26   4
   2  10   3 5152.74 646.084   4
   2  10   4 11801.4 926.478   4
   2  10   5 17466.4 1222.63   2
   2  10   5 17476.1 1108.78   4
   2  10   6 7891.30 866.151   2
   2  10   7 4684.93 705.578   2
   2  10   8 1876.30 519.309   2
   2  10   9 9687.13 1046.55   2
   2  11  -1 3085.05 585.649   4
   2  11   0 9.16514 265.835   4
   2  11   1 5663.69 737.270   4
   2  11   3-32.7115 302.452   2
   2  11   4 818.576 384.438   2
   2  11   5 1891.72 499.248   2
   2  11   6 4449.78 701.771   2
   2  11   7 7963.16 935.548   2
   2  12   3 5309.24 732.093   2
   2  12   4 2619.08 550.294   2
   2  12   5 9981.83 1038.09   2
   3 -11  -6 1041.35 384.248   8
   3 -11  -5 4044.82 637.087  10
   3 -11  -4 3980.06 648.513  10
   3 -11  -3 7998.10 901.630  10
   3 -11   0 4757.11 727.190   9
   3 -10  -7 22672.8 1461.25   8
   3 -10  -6 17781.5 1165.71  10
   3 -10  -6 19845.4 1311.60   8
   3 -10  -5 4494.89 624.858  10
   3 -10  -5 5052.05 664.131   8
   3 -10  -4 821.226 354.001  10
   3 -10  -4 581.082 253.790   8
   3 -10  -3 3068.70 536.346  10
   3 -10  -2 3789.04 623.516  10
   3 -10  -1 11801.5 1050.85   9
   3 -10   0 23749.8 1487.65   9
   3 -10   1 3270.54 606.579   9
   3 -10   2 4289.29 674.357   9
   3 -10   3 2185.80 513.361   9
   3  -9  -8 3807.74 639.011   8
   3  -9  -7 415.623 325.119   8
   3  -9  -6 13082.0 931.929  10
   3  -9  -6 15249.9 1128.52   8
   3  -9  -5 9690.34 830.473  10
   3  -9  -5 10502.7 890.193   8
   3  -9  -4 17870.2 1110.05  10
   3  -9  -4 17755.7 1097.78   8
   3  -9  -3 7495.41 745.089  10
   3  -9  -3 7646.93 693.413   8
   3  -9  -2 7186.23 753.869  10
   3  -9  -2 7292.38 797.481   9
   3  -9  -2 6955.09 623.205   8
   3  -9  -1 5033.88 660.940   9
   3  -9   0 9973.60 926.756   9
   3  -9   1 18156.5 1244.57   9
   3  -9   2 13322.8 1087.73   9
   3  -9   3 4961.66 703.528   9
   3  -9   4 1141.44 385.456   9
   3  -9   5 4149.40 666.066   9
   3  -8  -9 2572.37 562.808   8
   3  -8  -8 4054.95 650.521   8
   3  -8  -7 17690.7 1214.23   8
   3  -8  -6 10473.8 768.345  10
   3  -8  -6 11054.7 925.830   8
   3  -8  -5 112.077 201.983  10
   3  -8  -5-45.7316 259.881   8
   3  -8  -4 5037.73 567.282  10
   3  -8  -4 5926.84 629.312   8
   3  -8  -3 4781.66 564.289  10
   3  -8  -3 4964.55 551.748   8
   3  -8  -2 31826.7 1244.55   8
   3  -8  -2 29995.5 1368.16  10
   3  -8  -2 29040.2 1419.79   9
   3  -8  -1 21571.6 1181.62  10
   3  -8  -1 21345.7 1227.10   9
   3  -8  -1 21897.6 974.279   8
   3  -8   0 3996.81 570.473   9
   3  -8   1 4819.33 630.826   9
   3  -8   2 6447.03 733.599   9
   3  -8   3 17302.8 1171.13   9
   3  -8   4 9932.69 931.004   9
   3  -8   5 676.150 374.100   9
   3  -8   6 1918.93 510.690   9
   3  -8   7 3129.08 587.512   9
   3  -7 -10 7988.84 933.597   8
   3  -7  -9 630.122 361.259   8
   3  -7  -8 1108.44 396.612   8
   3  -7  -7 1876.28 350.320   5
   3  -7  -7 1686.58 418.933   8
   3  -7  -6 1319.58 291.953  10
   3  -7  -6 1047.94 263.743   5
   3  -7  -6 1295.28 388.587   8
   3  -7  -5 25999.5 1280.48   8
   3  -7  -5 25100.0 977.736   5
   3  -7  -5 25190.5 1076.90  10
   3  -7  -4 24382.1 1088.24  10
   3  -7  -4 26856.5 1235.68   8
   3  -7  -3 5946.53 568.863  10
   3  -7  -3 6470.59 594.617   8
   3  -7  -2 6675.83 614.221  10
   3  -7  -2 6852.32 678.587   9
   3  -7  -2 6609.18 565.186   8
   3  -7  -1 4870.01 556.416  10
   3  -7  -1 4382.61 559.210   9
   3  -7  -1 4845.89 470.015   8
   3  -7   0 27588.9 1295.17   9
   3  -7   0 28801.8 994.937   8
   3  -7   1 36097.9 1492.22   9
   3  -7   1 36167.0 1023.20   8
   3  -7   2 394.346 295.268   9
   3  -7   3 4402.49 518.167   6
   3  -7   3 3741.41 546.923   9
   3  -7   4 13054.7 876.331   6
   3  -7   4 13348.0 995.714   9
   3  -7   5 18347.2 1086.94   6
   3  -7   5 18099.0 1180.24   9
   3  -7   6 8978.47 816.584   6
   3  -7   6 8488.93 860.721   9
   3  -7   7 3419.59 555.147   6
   3  -7   7 3460.19 594.833   9
   3  -7   8 104.406 256.110   9
   3  -6 -11 658.168 340.124   5
   3  -6 -10-14.8900 271.185   5
   3  -6 -10 186.565 323.553   8
   3  -6  -9 6949.30 746.037   5
   3  -6  -9 8568.71 886.150   8
   3  -6  -8 14005.4 961.110   5
   3  -6  -8 14422.0 1081.52   8
   3  -6  -7 11219.9 794.189   5
   3  -6  -7 11340.5 923.181   8
   3  -6  -6 7986.86 626.964   5
   3  -6  -6 8109.03 554.608  10
   3  -6  -6 8269.70 765.124   8
   3  -6  -5 17780.2 814.195   5
   3  -6  -5 16744.0 797.396  10
   3  -6  -5 16711.7 1005.26   8
   3  -6  -4 3347.17 338.545   5
   3  -6  -4 3314.32 383.230  10
   3  -6  -4 3362.41 475.119   8
   3  -6  -3 35409.9 915.062   5
   3  -6  -3 33976.0 1164.86  10
   3  -6  -3 34949.8 1276.75   8
   3  -6  -2 16133.5 551.358   5
   3  -6  -2 17405.5 859.392  10
   3  -6  -2 17009.2 935.299   9
   3  -6  -2 16696.1 839.447   8
   3  -6  -1 65178.1 1699.73  10
   3  -6  -1 64666.0 1799.99   9
   3  -6  -1 66206.0 1546.99   8
   3  -6   0 15871.0 931.625   9
   3  -6   0 17733.0 764.007   8
   3  -6   1 54918.7 1703.10   9
   3  -6   1 53410.7 1218.63   8
   3  -6   2 37139.4 1305.14   6
   3  -6   2 37195.6 1443.64   9
   3  -6   2 39152.4 949.181   8
   3  -6   3 9805.29 703.258   6
   3  -6   3 9444.98 770.707   9
   3  -6   4 3586.83 477.811   6
   3  -6   4 3176.50 495.564   9
   3  -6   5 3862.87 521.585   6
   3  -6   6 12099.6 900.215   6
   3  -6   7 17979.6 1154.14   6
   3  -6   8 4428.76 640.364   6
   3  -6   9 4830.15 687.428   6
   3  -5 -11 2898.49 581.786   8
   3  -5 -10 4704.52 670.827   8
   3  -5  -9 3093.40 567.686   8
   3  -5  -8 2063.67 455.214   8
   3  -5  -7 31396.1 1456.08   8
   3  -5  -6 33842.4 1250.80   5
   3  -5  -6 32147.4 929.374  10
   3  -5  -6 33760.7 1428.22   8
   3  -5  -5 13073.6 702.557   5
   3  -5  -5 12086.3 593.829  10
   3  -5  -5 13347.0 855.654   8
   3  -5  -4 19487.3 758.354   5
   3  -5  -4 19640.8 768.909  10
   3  -5  -4 18699.9 968.504   8
   3  -5  -3 2916.72 265.529   5
   3  -5  -3 2860.38 326.075  10
   3  -5  -3 2900.73 409.592   8
   3  -5  -2 31814.1 1155.01   9
   3  -5  -2 32344.4 718.222   5
   3  -5  -2 32107.3 1041.51  10
   3  -5  -2 33956.5 1137.83   8
   3  -5  -1 36995.3 645.151   5
   3  -5  -1 39157.9 1189.21  10
   3  -5  -1 38252.5 1264.76   9
   3  -5  -1 38920.7 1142.19   8
   3  -5   0 79165.6 1848.44   9
   3  -5   0 80433.8 1529.46   8
   3  -5   1 1719.95 353.185   9
   3  -5   1 1898.58 257.501   8
   3  -5   2 3106.41 402.011   6
   3  -5   2 2902.44 435.263   9
   3  -5   2 2930.99 283.175   8
   3  -5   3 7138.80 586.855   6
   3  -5   3 8118.90 408.350   8
   3  -5   4 2737.81 396.961   6
   3  -5   5 15225.1 908.477   6
   3  -5   6 10145.2 805.678   6
   3  -5   7 3753.60 547.132   6
   3  -5   8 8150.89 819.479   6
   3  -5   9 239.438 282.078   6
   3  -5  10 5425.07 764.946   6
   3  -4 -11 949.388 395.084   8
   3  -4 -10 2961.74 561.788   8
   3  -4  -9 13119.6 1020.24   8
   3  -4  -8 24226.8 1313.78   8
   3  -4  -7 6579.45 673.108   8
   3  -4  -6 14122.3 908.489   8
   3  -4  -5 4616.45 313.515  10
   3  -4  -5 3944.39 522.869   8
   3  -4  -4 29957.2 809.341  10
   3  -4  -4 30774.3 1172.77   8
   3  -4  -3 115447. 1578.94   5
   3  -4  -3 110005. 1618.85  10
   3  -4  -3 109774. 2064.34   8
   3  -4  -2 31993.5 679.076   5
   3  -4  -2 33691.9 939.590  10
   3  -4  -2 32762.5 1054.88   9
   3  -4  -2 33745.9 1082.18   8
   3  -4  -1 3560.82 169.932   5
   3  -4  -1 3647.85 392.527   9
   3  -4  -1 3750.64 367.120   8
   3  -4   0 70001.7 1564.17   9
   3  -4   0 70529.0 1384.73   8
   3  -4   1 61058.9 1436.76   6
   3  -4   1 60548.2 1519.32   9
   3  -4   1 59508.2 1206.42   8
   3  -4   2 22295.5 913.698   6
   3  -4   2 23244.1 730.502   8
   3  -4   3 7903.74 579.995   6
   3  -4   3 7843.40 418.365   8
   3  -4   4 17442.6 877.944   6
   3  -4   4 18101.3 622.523   8
   3  -4   5 12457.4 804.423   6
   3  -4   5 13540.7 533.556   8
   3  -4   6 37152.9 1441.83   6
   3  -4   7 25316.9 1273.00   6
   3  -4   8 4819.52 637.014   6
   3  -4   9 2014.54 488.607   6
   3  -4  10 7863.68 887.746   6
   3  -3 -11 4143.84 746.766   1
   3  -3 -11 4322.85 658.509   8
   3  -3 -10 426.670 339.489   1
   3  -3 -10 447.613 334.061   8
   3  -3  -9-39.7146 352.184   1
   3  -3  -9 517.496 313.671   8
   3  -3  -8 23843.6 1366.66   1
   3  -3  -8 23676.1 1250.74   8
   3  -3  -7 29701.6 1422.22   1
   3  -3  -7 29590.4 1314.28   8
   3  -3  -6 3921.32 507.277   8
   3  -3  -5 1417.25 139.501  10
   3  -3  -5 1060.86 309.568   8
   3  -3  -4 7607.03 334.891  10
   3  -3  -4 8413.25 627.427   8
   3  -3  -3 43280.2 837.512  10
   3  -3  -3 43307.6 627.972   4
   3  -3  -3 45141.0 1271.18   8
   3  -3  -2 150933. 1965.25   9
   3  -3  -2 149523. 2192.58   8
   3  -3  -1 58840.8 633.877   5
   3  -3  -1 59434.4 1246.42   9
   3  -3  -1 59510.3 1287.40   8
   3  -3   0 2247.96 275.635   8
   3  -3   0 2281.46 291.111   9
   3  -3   1 8652.90 533.877   6
   3  -3   1 8457.13 458.681   8
   3  -3   2 2233.81 313.179   6
   3  -3   2 2361.37 263.726   8
   3  -3   3 39545.2 1168.99   6
   3  -3   3 38675.1 945.120   8
   3  -3   4 76823.4 1737.70   6
   3  -3   5 38066.5 1313.35   6
   3  -3   6 2038.82 390.316   6
   3  -3   7 5891.48 643.507   6
   3  -3   8 18168.4 1126.47   6
   3  -3   9 10952.3 937.659   6
   3  -3  10 4600.38 676.804   6
   3  -3  11 571.322 394.003   6
   3  -2 -11 513.782 384.764   1
   3  -2 -11 974.267 372.580   8
   3  -2 -10 12690.1 1168.17   1
   3  -2 -10 12973.9 1008.19   8
   3  -2  -9 1765.55 400.682   8
   3  -2  -9 1881.55 500.549   1
   3  -2  -8 13034.7 1043.02   1
   3  -2  -8 13098.7 906.981   8
   3  -2  -7 475.322 270.487   8
   3  -2  -7 695.941 381.064   1
   3  -2  -6 23820.6 1215.51   1
   3  -2  -6 22429.8 1049.86   8
   3  -2  -5 16054.8 857.469   8
   3  -2  -5 18064.5 988.165   1
   3  -2  -4 25653.0 1074.74   1
   3  -2  -4 24547.2 975.400   8
   3  -2  -3 20127.1 830.029   8
   3  -2  -2 50872.4 967.520   9
   3  -2  -2 49587.8 1210.51   8
   3  -2  -1 96920.5 1372.82   9
   3  -2  -1 97329.3 1592.36   8
   3  -2  -1 100140. 732.661   4
   3  -2   0 118924. 1676.60   8
   3  -2   1 47159.0 814.141   2
   3  -2   1 47274.9 1128.64   6
   3  -2   1 45871.1 1033.65   8
   3  -2   2 31214.3 526.348   2
   3  -2   2 29947.1 930.767   6
   3  -2   3 24987.7 888.384   6
   3  -2   4 44093.9 1255.39   6
   3  -2   5 23693.5 1000.76   6
   3  -2   6 37453.3 1362.30   6
   3  -2   7 19821.4 1075.87   6
   3  -2   8 128.692 243.272   6
   3  -2   9 20955.2 1242.23   6
   3  -2  10 14890.9 1138.47   6
   3  -2  11 4111.16 653.095   6
   3  -1 -10 1162.88 506.679   1
   3  -1 -10 1367.14 366.177   8
   3  -1  -9 10809.6 1033.57   1
   3  -1  -9 12913.1 917.771   8
   3  -1  -8 22602.2 1350.09   1
   3  -1  -8 25415.3 1207.09   8
   3  -1  -7 16080.6 1050.62   1
   3  -1  -7 21083.7 1045.69   8
   3  -1  -6 26231.3 1250.92   1
   3  -1  -6 29470.2 1143.73   8
   3  -1  -5 2129.52 412.848   1
   3  -1  -5 2246.64 363.838   8
   3  -1  -4 35403.4 1275.84   1
   3  -1  -4 33551.4 1081.80   8
   3  -1  -3 104783. 1981.10   1
   3  -1  -3 97687.7 1710.59   8
   3  -1  -2 9738.73 544.185   8
   3  -1  -1 59270.7 856.934   9
   3  -1  -1 58738.5 842.009   4
   3  -1   0 8620.35 278.130   5
   3  -1   0 8411.06 463.894   8
   3  -1   0 9058.90 325.091   4
   3  -1   1 77832.4 1350.02   6
   3  -1   1 77179.3 747.911   5
   3  -1   1 76927.4 1017.95   4
   3  -1   2 59255.8 1210.18   6
   3  -1   2 59416.8 1003.57   4
   3  -1   3 40982.2 1082.05   6
   3  -1   4 23059.2 881.864   6
   3  -1   4 23607.8 412.761   2
   3  -1   5 17864.9 387.613   2
   3  -1   5 17985.0 840.905   6
   3  -1   6 7547.75 616.805   6
   3  -1   6 7568.98 292.821   2
   3  -1   7 41578.7 1472.54   6
   3  -1   7 39621.0 761.953   2
   3  -1   8 2799.29 475.770   6
   3  -1   9 17954.6 1125.75   6
   3  -1  10 1677.30 435.239   6
   3  -1  11 7951.58 885.927   6
   3  -1  12 830.784 379.314   6
   3   0 -10 5285.35 720.103   1
   3   0  -9 610.452 680.200   1
   3   0  -9 3166.40 452.075   8
   3   0  -8 1070.63 577.633   1
   3   0  -8 3523.50 471.776   8
   3   0  -7 24301.5 1063.24   8
   3   0  -7 22239.9 1241.81   1
   3   0  -6 16789.6 832.523   8
   3   0  -6 14689.6 950.246   1
   3   0  -5 16283.9 777.051   8
   3   0  -5 14694.3 867.770   1
   3   0  -4 13702.8 664.743   8
   3   0  -4 12087.0 696.851   1
   3   0  -3 3547.57 303.395   1
   3   0  -3 5083.29 408.651   8
   3   0  -2 5652.38 403.102   8
   3   0  -2 6271.16 479.557   1
   3   0  -1 25869.6 797.545   1
   3   0  -1 26024.9 786.473   8
   3   0   0 59983.9 935.550   5
   3   0   0 60264.1 1166.64   8
   3   0   0 60796.2 989.674   4
   3   0   1 32462.0 819.785   6
   3   0   1 31531.7 643.899   5
   3   0   1 31751.7 733.201   4
   3   0   2 8173.95 436.988   6
   3   0   2 8762.42 372.514   5
   3   0   2 8461.55 415.979   4
   3   0   3 13244.4 592.128   6
   3   0   3 13565.6 582.618   4
   3   0   4 21956.8 820.670   6
   3   0   5 89290.7 1752.09   6
   3   0   5 86269.6 1168.06   2
   3   0   6 25593.4 683.901   2
   3   0   6 25152.3 1049.53   6
   3   0   7 22410.3 698.321   2
   3   0   7 20871.2 1033.09   6
   3   0   8 18173.7 1026.31   6
   3   0   8 18330.9 688.867   2
   3   0   9 14266.4 987.845   6
   3   0  10 20716.3 1254.23   6
   3   0  11 5772.50 751.344   6
   3   0  12 324.655 301.813   6
   3   1 -10 1997.03 553.108   1
   3   1  -9 9092.16 973.298   1
   3   1  -8 9550.83 919.838   1
   3   1  -7 23167.8 993.964   8
   3   1  -7 25612.7 1406.77   1
   3   1  -6 6124.44 494.923   8
   3   1  -6 9470.10 876.802   1
   3   1  -5 9846.39 582.732   8
   3   1  -5 9620.72 823.431   1
   3   1  -4 60948.9 1310.59   8
   3   1  -4 59468.3 1661.56   1
   3   1  -3 269457. 2617.73   8
   3   1  -3 271100. 3176.01   1
   3   1  -2 303800. 1841.21   3
   3   1  -2 308592. 2674.29   8
   3   1  -2 312745. 3101.23   1
   3   1  -1 21690.2 555.076   3
   3   1  -1 22900.4 736.142   1
   3   1  -1 24094.2 744.520   8
   3   1   0 123600. 1478.20   1
   3   1   0 121720. 1604.95   4
   3   1   1 49790.4 1035.36   4
   3   1   2 130633. 1552.09   6
   3   1   2 130552. 1700.36   4
   3   1   3 107847. 1518.49   6
   3   1   3 105662. 1623.60   4
   3   1   4 722.375 225.633   4
   3   1   4 976.186 226.140   6
   3   1   5 19101.6 803.928   6
   3   1   5 18307.7 795.456   4
   3   1   6 100398. 1941.30   6
   3   1   6 98395.5 1545.90   2
   3   1   7 16597.1 685.929   2
   3   1   7 15624.8 860.986   6
   3   1   8 42702.0 1166.05   2
   3   1   8 40594.4 1469.36   6
   3   1   9 759.815 312.707   6
   3   1   9 620.927 200.123   2
   3   1  10 1161.18 374.003   6
   3   1  11 4234.17 648.469   6
   3   1  12 13171.9 1137.25   6
   3   2  -9 2058.03 612.903   1
   3   2  -8 8721.13 999.283   1
   3   2  -7 23869.5 1438.06   1
   3   2  -6 15540.5 1103.02   1
   3   2  -6 9979.33 579.325   8
   3   2  -5 24046.6 1266.53   1
   3   2  -5 20199.6 772.113   8
   3   2  -4 11345.8 880.018   1
   3   2  -4 9111.01 498.708   8
   3   2  -3 88811.9 1848.00   1
   3   2  -3 89299.1 1435.73   8
   3   2  -2 167489. 2229.79   1
   3   2  -2 160312. 1156.28   3
   3   2  -2 164952. 1884.81   8
   3   2  -1 154649. 1836.96   8
   3   2  -1 151257. 1894.42   1
   3   2   0 11899.4 590.994   4
   3   2   0 11605.7 464.563   1
   3   2   1 9253.99 330.083   1
   3   2   1 9237.00 515.452   4
   3   2   2 6099.14 319.637   6
   3   2   2 5849.36 423.854   4
   3   2   3 82136.2 1230.05   6
   3   2   3 80431.7 1503.86   4
   3   2   4 34398.1 898.540   6
   3   2   4 34914.4 1063.31   4
   3   2   5 30261.0 942.565   6
   3   2   5 30426.2 1060.37   4
   3   2   6 388.771 234.829   4
   3   2   6 394.384 227.083   6
   3   2   6 270.635 167.645   2
   3   2   7 4415.30 484.195   6
   3   2   7 4074.57 399.887   2
   3   2   8 2858.40 361.227   2
   3   2   8 3219.19 464.256   6
   3   2   9 17594.0 871.520   2
   3   2   9 17135.8 1028.89   6
   3   2  10 15393.9 862.143   2
   3   2  10 14725.6 1019.82   6
   3   2  11 2893.88 544.203   6
   3   2  12 1107.31 435.432   6
   3   3  -9 9222.40 1088.54   1
   3   3  -8 5172.55 860.947   1
   3   3  -7 4557.67 824.040   1
   3   3  -6 18117.5 1222.86   1
   3   3  -5 12732.4 977.003   1
   3   3  -5 9912.02 500.945   8
   3   3  -4 71398.8 1852.78   1
   3   3  -4 69010.2 1247.39   8
   3   3  -3 18439.1 893.824   1
   3   3  -3 19212.0 632.472   8
   3   3  -2 30202.6 529.167   3
   3   3  -2 31258.8 794.806   8
   3   3  -1 64924.9 1271.58   1
   3   3  -1 67622.9 1192.18   8
   3   3   0 47992.7 1274.96   4
   3   3   0 45197.8 906.571   1
   3   3   1 82473.2 985.926   1
   3   3   1 84876.0 1633.49   4
   3   3   2 79875.5 974.543   6
   3   3   2 79364.9 1571.40   4
   3   3   3 73711.3 1068.37   6
   3   3   3 74649.2 1546.04   4
   3   3   4 120753. 1566.77   6
   3   3   4 113585. 1975.03   4
   3   3   5 34885.9 967.802   6
   3   3   5 34952.2 1167.82   4
   3   3   6 85363.6 1670.11   6
   3   3   6 85262.7 1916.48   4
   3   3   7 5555.29 496.439   6
   3   3   7 5705.40 513.914   2
   3   3   8 8635.42 661.221   6
   3   3   8 8821.88 640.550   2
   3   3   9 5400.49 543.850   2
   3   3   9 4867.32 557.344   6
   3   3  10 10177.5 761.170   2
   3   3  10 10394.0 862.807   6
   3   3  11 19464.9 1080.88   2
   3   3  11 18256.4 1198.41   6
   3   3  12 5214.31 713.834   6
   3   3  13 499.664 350.251   6
   3   4  -8 4787.32 858.275   1
   3   4  -7 13149.6 1137.01   1
   3   4  -6 23602.3 1355.17   1
   3   4  -5 2904.31 639.100   1
   3   4  -4 18952.5 1050.14   1
   3   4  -3 15496.2 873.312   1
   3   4  -3 13685.3 492.426   8
   3   4  -2 32432.8 1085.87   1
   3   4  -2 32857.5 771.115   8
   3   4  -1 18498.5 742.292   1
   3   4  -1 19019.4 631.427   8
   3   4   0 39623.2 1268.62   4
   3   4   0 38479.9 906.594   1
   3   4   1 3263.36 245.129   1
   3   4   1 3116.00 405.450   4
   3   4   2 160927. 1019.27   1
   3   4   2 169504. 2470.98   4
   3   4   3 102242. 1103.03   6
   3   4   3 99229.9 1887.98   4
   3   4   4 18317.1 571.303   6
   3   4   4 18858.7 868.753   4
   3   4   5 4900.79 362.941   6
   3   4   5 4706.47 491.621   4
   3   4   6 2461.10 415.712   4
   3   4   6 3051.76 336.137   6
   3   4   7 60805.0 1521.62   6
   3   4   7 60595.1 1691.07   2
   3   4   7 60437.0 1732.41   4
   3   4   8 60158.9 1647.32   6
   3   4   8 56661.1 1684.99   2
   3   4   9 2134.39 396.972   6
   3   4   9 2101.13 390.295   2
   3   4  10 783.370 319.080   6
   3   4  10 814.123 302.709   2
   3   4  11 2704.86 501.898   6
   3   4  11 2370.43 457.738   2
   3   4  12 3606.68 614.399   6
   3   4  13 7328.04 868.540   6
   3   5  -8 10812.2 1142.00   1
   3   5  -7 3723.82 814.418   1
   3   5  -6 11195.1 1024.14   1
   3   5  -5 37336.6 1620.32   1
   3   5  -4 22500.8 1154.08   1
   3   5  -3 16526.3 917.382   1
   3   5  -2 9953.46 662.475   1
   3   5  -2 9793.88 389.325   8
   3   5  -1 22898.9 873.494   1
   3   5  -1 23146.3 677.659   8
   3   5   0 16661.2 913.040   4
   3   5   0 16242.1 661.539   1
   3   5   1 22264.2 659.579   1
   3   5   1 22260.9 1002.82   4
   3   5   2 25314.2 549.435   1
   3   5   2 27105.0 1085.75   4
   3   5   3 6837.68 567.112   4
   3   5   4 40586.9 754.443   6
   3   5   4 42002.1 1355.18   4
   3   5   5 47205.4 1011.16   6
   3   5   5 48999.2 1481.09   4
   3   5   6 19205.1 746.343   6
   3   5   6 19067.6 990.201   4
   3   5   7 38363.1 1167.20   6
   3   5   7 38495.1 1433.49   2
   3   5   7 40856.6 1476.56   4
   3   5   8 7316.98 593.067   6
   3   5   8 6946.61 670.510   2
   3   5   8 6887.49 661.934   4
   3   5   9 18871.7 999.989   6
   3   5   9 18985.9 1099.53   2
   3   5  10 13203.0 961.236   2
   3   5  10 11926.7 875.118   6
   3   5  11 3321.84 562.242   6
   3   5  11 3036.19 518.138   2
   3   5  12 1606.77 451.004   6
   3   5  12 1386.83 394.178   2
   3   5  13 875.206 372.605   6
   3   6  -7 12763.4 1189.20   1
   3   6  -6 4401.28 791.857   1
   3   6  -5 5997.61 757.106   1
   3   6  -4 25670.3 1298.89   1
   3   6  -3 27823.8 1239.80   1
   3   6  -2 26865.7 1126.06   1
   3   6  -1 9773.79 785.122   4
   3   6  -1 9849.20 640.177   1
   3   6   0 2485.86 433.985   4
   3   6   0 2719.31 319.768   1
   3   6   1 11980.6 543.610   1
   3   6   1 10987.5 787.272   4
   3   6   2 21133.5 616.953   1
   3   6   2 21343.5 1057.19   4
   3   6   3 40583.3 657.522   1
   3   6   3 40687.5 1418.55   4
   3   6   4 8172.91 232.554   6
   3   6   4 7944.59 663.213   4
   3   6   5 883.147 324.526   4
   3   6   5 1076.07 164.701   6
   3   6   6 17790.0 679.362   6
   3   6   6 18454.7 996.313   4
   3   6   7 17737.2 772.983   6
   3   6   7 18513.8 1071.08   2
   3   6   7 18926.0 1052.16   4
   3   6   8 16449.9 826.933   6
   3   6   8 17309.8 1076.13   2
   3   6   8 16159.2 1006.53   4
   3   6   9 8988.02 686.968   6
   3   6   9 9298.95 827.431   2
   3   6  10 4314.68 617.211   2
   3   6  10 3469.16 496.284   6
   3   6  11 17724.4 1215.65   2
   3   6  11 16115.0 1060.05   6
   3   6  12 9295.52 929.700   2
   3   6  12 8674.54 859.525   6
   3   6  13 2352.99 512.074   6
   3   6  13 1920.40 486.677   2
   3   7  -6 6617.79 896.112   1
   3   7  -5 4659.37 688.610   1
   3   7  -4 4122.04 602.828   1
   3   7  -3 1472.97 378.677   1
   3   7  -2 22146.2 1091.05   1
   3   7  -1 21294.1 1209.42   4
   3   7  -1 20745.9 976.635   1
   3   7   0 15294.2 763.730   1
   3   7   0 14745.5 989.604   4
   3   7   1 18449.4 747.215   1
   3   7   1 18777.1 1070.25   4
   3   7   2 22061.1 712.876   1
   3   7   2 22472.2 1138.47   4
   3   7   3 54022.5 1721.98   4
   3   7   4 36449.4 1417.09   4
   3   7   5 18114.6 1015.87   4
   3   7   6 2204.32 418.845   4
   3   7   7 7258.83 744.795   2
   3   7   7 7258.01 700.077   4
   3   7   8 9619.31 862.409   2
   3   7   8 10728.6 860.262   4
   3   7   9 9397.17 882.271   2
   3   7   9 8436.37 784.833   4
   3   7  10 8815.34 883.991   2
   3   7  11 6607.12 813.962   2
   3   7  12 9110.76 967.615   2
   3   8  -5 14540.2 1160.97   1
   3   8  -4 7562.04 775.214   1
   3   8  -3 9695.35 833.920   1
   3   8  -2 4058.20 636.688   4
   3   8  -2 4046.72 524.550   1
   3   8  -1 5774.72 710.832   4
   3   8  -1 5461.39 558.985   1
   3   8   0 22762.3 996.194   1
   3   8   0 23612.9 1316.17   4
   3   8   1 45639.9 1745.18   4
   3   8   2 43133.6 1671.88   4
   3   8   3 10142.2 832.124   4
   3   8   4 15297.1 991.038   4
   3   8   5 15171.3 996.377   4
   3   8   6 5780.61 640.572   4
   3   8   7 2761.91 489.783   4
   3   8   7 3430.27 557.601   2
   3   8   8 6512.49 772.485   2
   3   8   8 5980.91 691.882   4
   3   8   9 330.880 248.993   4
   3   8   9 364.465 336.418   2
   3   8  10 4982.12 734.586   2
   3   8  11 4201.08 722.248   2
   3   9  -4 9706.12 1073.77   4
   3   9  -3 6535.76 852.755   4
   3   9  -2 2104.88 535.962   4
   3   9  -1 11412.9 1010.72   4
   3   9   0 286.660 312.553   4
   3   9   1 1201.89 433.700   4
   3   9   2 20467.0 1243.89   4
   3   9   3 29372.5 1442.18   4
   3   9   4 16609.3 1087.02   4
   3   9   5 13153.0 985.380   4
   3   9   6 1604.27 417.519   4
   3   9   7 3687.36 556.665   4
   3   9   7 4254.17 655.292   2
   3   9   8 19497.3 1338.00   2
   3   9   8 17536.9 1169.36   4
   3   9   9 7450.40 884.618   2
   3   9   9 6437.75 740.122   4
   3   9  10 3523.98 671.108   2
   3  10  -2 531.329 384.197   4
   3  10  -1 2342.71 552.682   4
   3  10   0 14224.4 1150.05   4
   3  10   1 7692.66 853.129   4
   3  10   2 1378.69 441.136   4
   3  10   3 3890.83 594.048   4
   3  10   4 3063.21 534.710   4
   3  10   5 2436.24 483.359   4
   3  10   6 15375.2 1196.02   2
   3  10   6 14573.6 1071.47   4
   3  10   7 6007.23 805.038   2
   3  10   7 5462.94 699.910   4
   3  10   8 2768.04 606.808   2
   3  10   9 8054.99 965.587   2
   3  11   0 1644.59 461.975   4
   3  11   1 2156.35 555.322   4
   3  11   2 7958.39 894.927   4
   3  11   3 2201.65 495.869   4
   3  11   4 2441.89 522.054   4
   3  11   5 3148.36 609.961   2
   3  11   6 4027.82 694.417   2
   3  11   7 10237.9 1056.64   2
   4 -10  -6 5344.32 742.747   8
   4 -10  -5 4435.68 653.805   8
   4 -10  -4 1227.85 366.819   8
   4 -10  -1 9006.99 954.702   9
   4 -10   0 10797.4 1044.80   9
   4 -10   1 575.780 379.486   9
   4 -10   2 11998.1 1131.75   9
   4  -9  -7-72.9948 244.108   8
   4  -9  -6 5175.12 724.433   8
   4  -9  -5 10111.2 835.809  10
   4  -9  -5 10865.8 951.356   8
   4  -9  -4 8923.55 827.423   8
   4  -9  -3 4569.03 579.337   8
   4  -9  -2 2803.51 550.728   9
   4  -9  -2 2059.17 407.484   8
   4  -9  -1 614.231 358.140   9
   4  -9   0 3107.88 604.502   9
   4  -9   1 22821.1 1427.65   9
   4  -9   2 28419.1 1613.82   9
   4  -9   3 1666.46 448.662   9
   4  -9   4 3574.73 616.918   9
   4  -9   5 1317.18 480.499   9
   4  -8  -8 1429.79 428.978   8
   4  -8  -7 5134.14 717.471   8
   4  -8  -6 4188.16 633.388   8
   4  -8  -5 1005.16 278.336  10
   4  -8  -5 1019.39 369.817   8
   4  -8  -4 5204.79 571.825  10
   4  -8  -4 5128.34 630.285   8
   4  -8  -3 7274.68 686.949   8
   4  -8  -2 15254.8 1067.31   9
   4  -8  -2 16956.1 979.592   8
   4  -8  -1 8295.45 807.814   9
   4  -8  -1 8929.49 686.033   8
   4  -8   0 6040.59 706.850   9
   4  -8   0 6711.89 563.171   8
   4  -8   1 8936.14 860.334   9
   4  -8   2 12691.3 1020.50   9
   4  -8   3 20900.9 1328.32   9
   4  -8   4 6025.68 749.788   9
   4  -8   5 2726.48 547.665   9
   4  -8   6 362.209 291.110   9
   4  -7  -9 2110.58 535.614   8
   4  -7  -8 972.904 427.045   8
   4  -7  -7 592.672 356.947   8
   4  -7  -6 12843.8 999.190   8
   4  -7  -5 13336.2 784.912  10
   4  -7  -5 12733.4 948.044   8
   4  -7  -4 15215.6 855.414  10
   4  -7  -4 14380.7 961.575   8
   4  -7  -3 6987.48 655.098   8
   4  -7  -2 1885.22 409.524   9
   4  -7  -2 2056.18 376.695   8
   4  -7  -1 6069.55 666.158   9
   4  -7  -1 7095.59 597.666   8
   4  -7   0 82249.2 2298.38   9
   4  -7   0 86280.8 1904.70   8
   4  -7   1 22383.1 1231.61   9
   4  -7   1 23434.4 939.445   8
   4  -7   2 3024.37 508.283   9
   4  -7   3 9455.64 772.732   6
   4  -7   3 9166.54 835.401   9
   4  -7   4 5800.35 653.000   6
   4  -7   4 6153.49 727.203   9
   4  -7   5 9644.77 844.239   6
   4  -7   5 9102.04 896.943   9
   4  -7   6 9244.07 859.482   6
   4  -7   6 9879.05 960.472   9
   4  -7   7 1512.47 448.142   6
   4  -7   7 1464.61 445.754   9
   4  -7   8 2360.41 504.326   6
   4  -7   8 2445.46 564.936   9
   4  -6 -10 539.316 333.040   8
   4  -6  -9 4791.87 723.747   8
   4  -6  -8 19821.8 1317.63   8
   4  -6  -7 7067.03 775.432   8
   4  -6  -6 11296.6 927.040   8
   4  -6  -5 13597.3 707.671  10
   4  -6  -5 14025.4 962.830   8
   4  -6  -4 2505.78 436.052   8
   4  -6  -3 45793.4 1538.76   9
   4  -6  -3 46003.5 1571.41   8
   4  -6  -2 13342.8 870.131   9
   4  -6  -2 15643.6 874.498   8
   4  -6  -1 11051.2 800.564   9
   4  -6  -1 10927.5 706.486   8
   4  -6   0 18870.2 1040.36   9
   4  -6   0 19962.9 890.755   8
   4  -6   1 22490.2 1142.49   9
   4  -6   1 29890.5 1035.15   8
   4  -6   2 13744.1 932.656   9
   4  -6   2 14994.3 699.596   8
   4  -6   3 5968.66 611.416   6
   4  -6   3 5194.02 621.480   9
   4  -6   4 886.461 327.448   6
   4  -6   4 960.989 368.443   9
   4  -6   5 773.457 312.057   6
   4  -6   6 7395.48 749.087   6
   4  -6   7 13050.3 1033.84   6
   4  -6   8 824.138 354.321   6
   4  -6   9 2076.58 503.196   6
   4  -5 -10 2703.68 577.062   8
   4  -5  -9 1616.86 456.207   8
   4  -5  -8 107.646 285.685   8
   4  -5  -7 30134.7 1497.54   8
   4  -5  -6 13611.4 974.260   8
   4  -5  -5 6431.94 510.531   5
   4  -5  -5 6762.59 677.079   8
   4  -5  -4 8359.82 502.225   5
   4  -5  -4 8691.27 718.712   8
   4  -5  -3 1631.64 202.774   5
   4  -5  -3 1714.63 334.873   9
   4  -5  -3 2043.26 393.565   8
   4  -5  -2 18324.7 450.713   5
   4  -5  -2 17619.1 900.790   9
   4  -5  -2 17170.7 893.539   8
   4  -5  -1 56042.4 1587.20   9
   4  -5  -1 57538.2 1532.53   8
   4  -5   0 22496.8 1052.96   9
   4  -5   0 23852.8 946.498   8
   4  -5   1 35487.4 1326.36   9
   4  -5   1 37811.6 1136.36   8
   4  -5   2 18607.7 955.494   6
   4  -5   2 17407.7 981.552   9
   4  -5   2 19325.3 789.607   8
   4  -5   3 7078.84 645.566   6
   4  -5   3 7793.18 491.700   8
   4  -5   4 20877.1 1088.95   6
   4  -5   4 22092.5 776.202   8
   4  -5   5 36662.8 1471.30   6
   4  -5   6 5331.45 621.673   6
   4  -5   7 911.771 327.921   6
   4  -5   8 4670.04 665.555   6
   4  -5   9 9095.15 945.337   6
   4  -5  10 5048.18 750.115   6
   4  -4 -10 3918.34 653.781   8
   4  -4  -9 4145.81 637.693   8
   4  -4  -8 9171.47 873.310   8
   4  -4  -7 387.987 303.311   8
   4  -4  -6 2184.62 435.972   8
   4  -4  -5 19334.5 1059.51   8
   4  -4  -4 36404.3 1385.15   8
   4  -4  -3 30197.3 1201.06   8
   4  -4  -2 31621.3 638.094   5
   4  -4  -2 31126.2 1067.58   9
   4  -4  -2 30208.6 1132.32   8
   4  -4  -1 8327.59 580.000   9
   4  -4  -1 8714.30 607.485   8
   4  -4   0 66661.0 1600.04   9
   4  -4   0 68060.1 1548.90   8
   4  -4   1 29426.5 1116.30   9
   4  -4   1 29456.7 989.893   8
   4  -4   2 47750.2 1446.46   6
   4  -4   2 46661.8 1204.46   8
   4  -4   3 17138.3 907.519   6
   4  -4   3 17444.3 731.871   8
   4  -4   4 7257.03 633.745   6
   4  -4   4 7632.17 497.103   8
   4  -4   5 8953.21 714.657   6
   4  -4   5 9022.07 532.567   8
   4  -4   6 19503.9 1094.37   6
   4  -4   7 19299.4 1155.83   6
   4  -4   8 982.495 344.442   6
   4  -4   9 829.501 391.319   6
   4  -4  10 5545.58 770.492   6
   4  -3 -11 9732.81 986.386   8
   4  -3 -10 691.637 353.419   8
   4  -3  -9 1371.57 416.061   8
   4  -3  -8 3080.41 531.272   8
   4  -3  -7 32233.0 1462.50   8
   4  -3  -6 19269.8 1074.13   8
   4  -3  -5 3623.86 494.821   8
   4  -3  -4 9589.03 712.980   8
   4  -3  -3 23931.6 1039.59   8
   4  -3  -3 25731.5 522.364   4
   4  -3  -2 44739.8 1132.09   9
   4  -3  -2 44088.1 1318.11   8
   4  -3  -1 47762.8 1196.39   9
   4  -3  -1 47730.4 1301.86   8
   4  -3   0 30602.3 1003.89   9
   4  -3   0 29675.5 1002.92   8
   4  -3   1 8479.44 542.977   8
   4  -3   2 55149.1 1482.03   6
   4  -3   2 52458.1 1281.45   8
   4  -3   3 73860.1 1749.92   6
   4  -3   3 72358.3 1502.21   8
   4  -3   4 25016.4 1074.71   6
   4  -3   5 2157.95 403.456   6
   4  -3   6 10005.3 778.835   6
   4  -3   7 7464.18 718.595   6
   4  -3   8 14415.9 1030.17   6
   4  -3   9 10091.7 915.701   6
   4  -3  10 3364.21 593.040   6
   4  -3  11 1486.52 462.789   6
   4  -2 -10 10562.7 1091.29   1
   4  -2 -10 11122.0 976.253   8
   4  -2  -9 5225.52 788.596   1
   4  -2  -9 4591.75 614.068   8
   4  -2  -8 1967.50 522.307   1
   4  -2  -8 2334.59 452.869   8
   4  -2  -7 11218.7 966.661   1
   4  -2  -7 10826.5 827.078   8
   4  -2  -6 24896.4 1306.22   1
   4  -2  -6 23639.2 1144.14   8
   4  -2  -5 24186.1 1206.51   1
   4  -2  -5 23270.8 1090.33   8
   4  -2  -4 6383.05 577.111   8
   4  -2  -3 5684.70 519.387   8
   4  -2  -2 13763.1 542.810   9
   4  -2  -2 12814.6 719.407   8
   4  -2  -2 13694.2 438.341   4
   4  -2  -1 29807.1 628.972   5
   4  -2  -1 30793.0 1026.41   8
   4  -2  -1 32231.5 586.586   4
   4  -2   0 203650. 1126.70   5
   4  -2   0 203685. 2533.90   8
   4  -2   0 206353. 1525.02   4
   4  -2   1 87335.6 1115.62   4
   4  -2   1 84866.9 1643.80   8
   4  -2   2 18039.8 833.961   6
   4  -2   2 16340.9 720.379   8
   4  -2   3 4498.72 454.511   6
   4  -2   3 5047.34 233.934   2
   4  -2   4 38656.9 1268.38   6
   4  -2   5 55702.4 1598.74   6
   4  -2   6 61231.0 1778.86   6
   4  -2   7 6119.03 646.303   6
   4  -2   8 5751.62 653.763   6
   4  -2   9 2972.43 528.690   6
   4  -2  10 13192.8 1086.01   6
   4  -2  11 4006.04 653.236   6
   4  -1 -10 92.3439 354.599   1
   4  -1  -9 7901.96 941.517   1
   4  -1  -9 6645.14 707.405   8
   4  -1  -8 17379.5 1287.57   1
   4  -1  -8 16324.0 1029.28   8
   4  -1  -7 8579.14 855.738   1
   4  -1  -7 8718.76 729.125   8
   4  -1  -6 32076.2 1494.33   1
   4  -1  -6 30111.2 1249.58   8
   4  -1  -5 679.179 329.492   1
   4  -1  -5 215.773 240.021   8
   4  -1  -4 37384.5 1398.18   1
   4  -1  -4 34245.2 1209.43   8
   4  -1  -3 27943.4 1121.18   1
   4  -1  -3 27431.7 1026.63   8
   4  -1  -2 22491.2 538.826   9
   4  -1  -2 22817.6 911.069   8
   4  -1  -1 21971.9 582.359   9
   4  -1  -1 21890.2 625.237   4
   4  -1   0 12761.8 426.050   5
   4  -1   0 14232.8 689.707   8
   4  -1   0 14060.7 482.120   4
   4  -1   1 75233.5 913.336   5
   4  -1   1 75409.1 1144.21   4
   4  -1   2 52442.3 1300.48   6
   4  -1   2 51655.0 1054.31   4
   4  -1   3 29995.4 1026.62   6
   4  -1   3 29332.9 858.979   4
   4  -1   4 4231.29 440.711   6
   4  -1   5 7232.91 595.848   6
   4  -1   6 38761.5 622.924   2
   4  -1   6 39053.3 1374.62   6
   4  -1   7 17803.0 1004.68   6
   4  -1   8 4495.22 570.688   6
   4  -1   9 5309.24 654.119   6
   4  -1  10 215.149 308.806   6
   4  -1  11 4010.73 659.466   6
   4  -1  12 5736.03 816.379   6
   4   0 -10 8684.14 1068.40   1
   4   0  -9 3956.65 721.146   1
   4   0  -8-327.296 517.783   1
   4   0  -8 1166.84 310.983   8
   4   0  -7 8582.48 799.054   1
   4   0  -7 10656.6 765.916   8
   4   0  -6 15961.8 1023.58   1
   4   0  -6 18309.4 940.588   8
   4   0  -5 15497.9 990.871   1
   4   0  -5 16332.8 855.570   8
   4   0  -4 101269. 2297.61   1
   4   0  -4 94941.6 1910.45   8
   4   0  -3 5978.68 582.252   1
   4   0  -3 5347.22 471.524   8
   4   0  -2 137049. 2267.99   1
   4   0  -2 137199. 2109.99   8
   4   0  -1 224568. 1384.90   9
   4   0  -1 222450. 2289.47   4
   4   0   0 16327.3 723.217   8
   4   0   0 16276.0 606.689   4
   4   0   1 123803. 1647.55   4
   4   0   2 40470.7 1087.32   6
   4   0   2 38112.0 955.190   4
   4   0   3 70504.0 1455.02   6
   4   0   3 71569.4 1408.84   4
   4   0   4 95622.6 1790.55   6
   4   0   4 91441.0 1694.23   4
   4   0   5 56750.1 1478.79   6
   4   0   6 33768.0 1249.76   6
   4   0   6 32783.8 807.811   2
   4   0   7 45096.9 975.265   2
   4   0   7 43919.8 1517.42   6
   4   0   8 3010.91 476.545   6
   4   0   9 27246.6 1365.20   6
   4   0  10 10835.2 941.406   6
   4   0  11 10396.6 986.707   6
   4   0  12 6024.31 829.845   6
   4   1  -9 920.800 502.770   1
   4   1  -8 5545.90 748.995   1
   4   1  -7 4417.52 603.940   1
   4   1  -7 9516.97 696.791   8
   4   1  -6 1617.76 511.896   1
   4   1  -6 2765.93 382.655   8
   4   1  -5 3630.05 409.089   1
   4   1  -5 5055.60 476.622   8
   4   1  -4 37484.9 1162.04   8
   4   1  -4 33966.6 1318.58   1
   4   1  -3 86123.8 1689.80   8
   4   1  -3 87958.1 1983.71   1
   4   1  -2 58132.2 1343.89   8
   4   1  -2 59870.6 1502.49   1
   4   1  -1 36255.5 1049.29   4
   4   1  -1 37549.0 1083.43   1
   4   1  -1 35473.7 1048.10   8
   4   1   0 34355.0 965.262   4
   4   1   1 31991.3 936.419   4
   4   1   2 117145. 1727.30   6
   4   1   2 114157. 1792.22   4
   4   1   3 32546.4 936.210   6
   4   1   3 31846.7 969.112   4
   4   1   4 23798.6 859.578   6
   4   1   4 23852.2 914.343   4
   4   1   5 511.728 232.356   4
   4   1   5 586.521 230.610   6
   4   1   6 8398.76 628.414   6
   4   1   7 16980.8 926.397   6
   4   1   7 17920.2 718.787   2
   4   1   8 4877.88 408.037   2
   4   1   8 4441.25 551.934   6
   4   1   9 50.8701 251.391   6
   4   1  10 4179.26 597.704   6
   4   1  11 11247.2 998.696   6
   4   1  12 4817.93 722.703   6
   4   2  -8-1239.71 651.159   1
   4   2  -7 11895.1 1023.56   1
   4   2  -6 11122.0 676.239   8
   4   2  -6 10279.2 895.247   1
   4   2  -5 15507.8 757.941   8
   4   2  -5 13975.7 946.005   1
   4   2  -4 19772.8 822.164   8
   4   2  -4 18712.6 1028.09   1
   4   2  -3 16955.9 734.194   8
   4   2  -3 16224.0 865.728   1
   4   2  -2 76019.6 1493.05   8
   4   2  -2 76684.1 1713.02   1
   4   2  -1 127721. 2150.03   4
   4   2  -1 128030. 1995.16   1
   4   2  -1 126559. 1938.24   8
   4   2   0 66855.0 1260.59   1
   4   2   0 65618.8 1479.32   4
   4   2   1 9036.61 563.122   4
   4   2   2 59139.7 1142.74   6
   4   2   2 58644.8 1352.15   4
   4   2   3 108481. 1610.13   6
   4   2   3 109583. 1917.63   4
   4   2   4 80275.5 1476.33   6
   4   2   4 77606.4 1674.61   4
   4   2   5 41355.6 1173.07   6
   4   2   5 42392.1 1323.38   4
   4   2   6 21901.9 925.552   6
   4   2   6 20654.2 982.439   4
   4   2   7 22386.5 1010.08   6
   4   2   7 23334.9 908.010   2
   4   2   8 45889.8 1549.83   6
   4   2   8 48644.1 1349.29   2
   4   2   9 25285.9 1029.24   2
   4   2   9 25748.7 1257.59   6
   4   2  10 6005.10 678.196   6
   4   2  11 884.615 342.108   6
   4   2  12 2731.92 583.144   6
   4   3  -8 5170.96 773.902   1
   4   3  -7 1188.32 489.654   1
   4   3  -6 12037.3 1033.33   1
   4   3  -5 27566.3 1392.38   1
   4   3  -4 3882.93 358.082   8
   4   3  -4 4484.87 642.854   1
   4   3  -3 2351.50 291.709   8
   4   3  -3 2912.33 524.168   1
   4   3  -2 5193.58 269.987   3
   4   3  -2 5589.18 415.085   8
   4   3  -2 6376.16 555.530   1
   4   3  -1 51421.8 1489.78   4
   4   3  -1 52118.2 1238.87   8
   4   3  -1 49703.8 1264.67   1
   4   3   0 47817.9 1097.49   1
   4   3   0 47200.1 1370.27   4
   4   3   1 81708.5 1176.69   1
   4   3   1 79665.0 1729.30   4
   4   3   2 56447.6 1473.36   4
   4   3   3 41009.9 926.809   6
   4   3   3 39434.5 1249.24   4
   4   3   4 30488.4 858.793   6
   4   3   4 31606.3 1138.49   4
   4   3   5 40335.6 1093.20   6
   4   3   5 38719.8 1301.59   4
   4   3   6 60817.5 1452.66   6
   4   3   6 60399.4 1710.53   4
   4   3   7 40125.1 1295.06   6
   4   3   7 38578.0 1421.69   4
   4   3   8 7727.51 645.202   6
   4   3   8 8069.86 618.711   2
   4   3   9 5230.47 530.256   2
   4   3   9 5174.75 586.090   6
   4   3  10 14499.2 889.021   2
   4   3  10 15096.8 1015.69   6
   4   3  11 9913.72 910.879   6
   4   3  12 2911.21 563.306   6
   4   3  13 294.604 350.590   6
   4   4  -8 2241.84 618.601   1
   4   4  -7 16115.1 1262.75   1
   4   4  -6 4428.57 783.098   1
   4   4  -5 1644.95 587.708   1
   4   4  -4 18927.9 1094.57   1
   4   4  -3 7634.79 669.377   1
   4   4  -3 6978.23 434.831   8
   4   4  -2 28702.8 1087.86   1
   4   4  -2 30307.4 900.309   8
   4   4  -1 28419.5 1222.76   4
   4   4  -1 26719.7 934.380   1
   4   4  -1 29981.0 933.201   8
   4   4   0 4090.30 353.423   1
   4   4   0 3754.35 484.422   4
   4   4   1 18468.3 602.834   1
   4   4   1 18753.4 922.872   4
   4   4   2 41538.7 1347.23   4
   4   4   3 71329.2 1090.66   6
   4   4   3 69165.8 1707.64   4
   4   4   4 33929.5 843.996   6
   4   4   4 33016.1 1235.03   4
   4   4   5 23758.0 792.324   6
   4   4   5 23304.0 1076.65   4
   4   4   6 34710.5 1057.37   6
   4   4   6 33952.8 1340.21   4
   4   4   7 41226.1 1270.13   6
   4   4   7 41374.1 1530.50   4
   4   4   8 40868.3 1385.23   6
   4   4   8 41980.1 1477.85   2
   4   4   8 39357.7 1529.26   4
   4   4   9 6057.76 602.173   6
   4   4   9 5614.34 589.069   2
   4   4  10 139.182 229.236   6
   4   4  10 397.028 268.324   2
   4   4  11 2463.01 481.583   6
   4   4  11 2457.14 454.454   2
   4   4  12 2531.93 535.217   6
   4   4  13 6420.15 819.079   6
   4   5  -7 4236.20 855.531   1
   4   5  -6 7739.26 940.707   1
   4   5  -5 19776.9 1246.60   1
   4   5  -4 17732.8 1091.80   1
   4   5  -3 5103.54 559.262   1
   4   5  -2 21823.3 976.147   1
   4   5  -2 23550.0 756.132   8
   4   5  -1 21676.5 1139.21   4
   4   5  -1 19645.5 838.316   1
   4   5  -1 21443.7 787.631   8
   4   5   0 35516.4 991.382   1
   4   5   0 37188.4 1423.91   4
   4   5   1 4228.93 307.778   1
   4   5   1 4174.04 522.401   4
   4   5   2 5897.53 272.575   1
   4   5   2 5720.56 596.159   4
   4   5   3 9744.64 716.750   4
   4   5   4 109025. 1331.86   6
   4   5   4 108443. 2315.66   4
   4   5   5 38136.2 929.841   6
   4   5   5 40029.3 1434.33   4
   4   5   6 5924.86 430.584   6
   4   5   6 5779.26 608.652   4
   4   5   7 9778.04 606.813   6
   4   5   7 9988.16 803.028   4
   4   5   8 3847.80 450.116   6
   4   5   8 4012.85 537.536   2
   4   5   8 3850.50 554.887   4
   4   5   9 29502.9 1252.97   6
   4   5   9 30874.3 1396.50   2
   4   5  10 31210.1 1462.18   2
   4   5  10 31255.6 1392.28   6
   4   5  11 1992.37 447.067   6
   4   5  11 2402.35 480.062   2
   4   5  12 4068.43 611.691   2
   4   5  12 4070.53 616.945   6
   4   5  13 2629.23 551.762   6
   4   6  -7 1979.38 719.311   1
   4   6  -6 3574.96 751.639   1
   4   6  -5 5179.05 775.099   1
   4   6  -4 7575.96 760.929   1
   4   6  -3 17022.2 999.331   1
   4   6  -2 11527.5 755.850   1
   4   6  -1 8482.51 779.918   4
   4   6  -1 8269.25 588.347   1
   4   6   0 3415.00 516.303   4
   4   6   0 3644.29 374.160   1
   4   6   1 2825.75 474.535   4
   4   6   1 3117.65 297.710   1
   4   6   2 24788.5 606.219   1
   4   6   2 25585.6 1223.10   4
   4   6   3 10574.0 810.033   4
   4   6   4 9095.81 745.467   4
   4   6   5 505.571 320.030   4
   4   6   5 374.769 113.932   6
   4   6   6 19589.1 706.205   6
   4   6   6 20839.6 1120.73   4
   4   6   7 11257.1 616.636   6
   4   6   7 11327.1 885.494   4
   4   6   8 11382.7 693.905   6
   4   6   8 11572.1 903.889   2
   4   6   8 11921.7 927.140   4
   4   6   9 4005.57 472.875   6
   4   6   9 4385.20 590.026   2
   4   6   9 3991.73 565.748   4
   4   6  10-46.4581 191.733   6
   4   6  10 104.369 240.326   2
   4   6  11 11742.6 1000.91   2
   4   6  11 11906.3 917.523   6
   4   6  12 6933.46 801.545   2
   4   6  12 7538.20 796.994   6
   4   6  13 944.076 356.719   6
   4   7  -6 6579.81 922.848   1
   4   7  -5 7247.36 852.833   1
   4   7  -4-1.51981 236.465   1
   4   7  -3 4290.19 553.987   1
   4   7  -2 12680.7 1034.74   4
   4   7  -2 11767.7 804.358   1
   4   7  -1 37748.4 1688.32   4
   4   7  -1 36525.3 1275.39   1
   4   7   0 23726.0 931.438   1
   4   7   0 25117.2 1332.06   4
   4   7   1 14623.1 1016.00   4
   4   7   2 17713.2 1080.42   4
   4   7   3 79637.3 2225.24   4
   4   7   4 20262.3 1138.79   4
   4   7   5 27649.3 1337.83   4
   4   7   6 3237.81 517.004   4
   4   7   7 1551.35 424.659   4
   4   7   8 16776.7 1141.68   2
   4   7   8 14918.1 1057.80   4
   4   7   9 12610.4 1021.52   2
   4   7   9 12934.5 1027.03   4
   4   7  10 1819.54 443.141   2
   4   7  11 1814.25 490.903   2
   4   7  12 2236.35 523.705   2
   4   8  -4 9414.52 1037.26   4
   4   8  -3 2312.82 554.945   4
   4   8  -2 2196.44 526.971   4
   4   8  -1 5704.89 739.846   4
   4   8   0 41391.4 1801.48   4
   4   8   1 17554.2 1162.44   4
   4   8   2 6336.26 722.107   4
   4   8   3 2264.14 491.385   4
   4   8   4 4432.22 607.980   4
   4   8   5 12165.5 958.571   4
   4   8   6 6069.27 697.113   4
   4   8   7 17085.2 1141.25   4
   4   8   8 2738.80 510.082   4
   4   8   8 3044.11 584.512   2
   4   8   9 476.563 317.714   4
   4   8   9 1166.35 435.898   2
   4   8  10 141.301 313.364   4
   4   8  10 129.536 311.321   2
   4   8  11 1515.50 501.759   2
   4   9  -3 6564.66 894.697   4
   4   9  -2 5879.91 796.790   4
   4   9  -1 4838.13 734.196   4
   4   9   0 1301.70 431.420   4
   4   9   1 10613.2 977.498   4
   4   9   2 10666.2 968.113   4
   4   9   3 13776.0 1054.70   4
   4   9   4 17803.2 1200.03   4
   4   9   5 12800.4 1026.76   4
   4   9   6 1221.89 422.868   4
   4   9   7 15237.6 1125.71   4
   4   9   8 17394.9 1296.42   2
   4   9   8 17232.2 1217.32   4
   4   9   9 10302.5 1026.96   2
   4   9   9 6422.47 766.820   4
   4   9  10 3276.90 586.214   4
   4   9  10 3981.95 691.085   2
   4  10  -1 7803.96 939.997   4
   4  10   0 5070.56 777.817   4
   4  10   1 10624.6 1038.08   4
   4  10   2 260.061 343.249   4
   4  10   3 1579.83 438.567   4
   4  10   4 9677.76 958.409   4
   4  10   5 10922.1 1002.79   4
   4  10   6 12712.9 1067.74   4
   4  10   7 1014.57 341.615   4
   4  10   7 2182.61 535.366   2
   4  10   8 6066.94 818.125   2
   4  10   8 5305.74 733.229   4
   4  10   9 10556.0 1086.17   2
   4  10   9 10027.7 995.624   4
   4  11   1 2447.37 584.680   4
   4  11   2 13377.6 1189.32   4
   4  11   3 8694.05 943.626   4
   4  11   4 1546.50 456.315   4
   4  11   5 5650.98 775.101   4
   4  11   6 4210.01 668.347   4
   5 -10  -5 630.265 357.565   8
   5 -10  -4 353.920 291.573   8
   5 -10  -1 3500.91 643.325   9
   5 -10   0 3603.70 678.629   9
   5 -10   1 922.032 434.020   9
   5  -9  -6 2097.76 525.946   8
   5  -9  -5 5172.84 712.809   8
   5  -9  -4 5581.33 699.010   8
   5  -9  -3 8555.55 812.885   8
   5  -9  -2 805.866 385.599   9
   5  -9  -2 713.738 300.732   8
   5  -9  -1 786.307 389.777   9
   5  -9   0 9552.65 961.540   9
   5  -9   1 8376.85 911.846   9
   5  -9   2 8987.77 961.587   9
   5  -9   3 268.719 291.305   9
   5  -9   4 11586.4 1110.91   9
   5  -8  -7 6019.76 813.623   8
   5  -8  -6 2855.49 570.947   8
   5  -8  -5 1223.94 387.000   8
   5  -8  -4 412.426 306.231   8
   5  -8  -3 7236.64 738.769   8
   5  -8  -2 13081.5 1022.26   9
   5  -8  -2 13033.6 918.472   8
   5  -8  -1 9426.44 887.818   9
   5  -8  -1 9567.40 758.565   8
   5  -8   0 1450.29 413.911   9
   5  -8   0 1275.09 306.731   8
   5  -8   1 3012.61 553.805   9
   5  -8   2 2008.33 489.200   9
   5  -8   3 13222.2 1107.75   9
   5  -8   4 11836.6 1061.48   9
   5  -8   5-19.3296 237.537   6
   5  -8   5 3.85714 273.481   9
   5  -8   6 2101.70 533.197   9
   5  -7  -8 1609.78 477.135   8
   5  -7  -7 5175.59 748.929   8
   5  -7  -6 11864.9 1020.99   8
   5  -7  -5 9719.10 888.854   8
   5  -7  -4 12914.9 963.605   8
   5  -7  -3 4469.48 590.330   8
   5  -7  -2 11377.4 886.959   9
   5  -7  -2 11674.3 853.544   8
   5  -7  -1 31989.8 1469.72   9
   5  -7  -1 31860.9 1337.79   8
   5  -7   0 25830.8 1346.69   9
   5  -7   0 28439.0 1199.90   8
   5  -7   1 2638.04 492.338   9
   5  -7   1 2809.04 397.470   8
   5  -7   2 4510.59 617.451   9
   5  -7   3 4350.80 630.407   9
   5  -7   4 4961.59 635.822   6
   5  -7   4 4145.41 633.792   9
   5  -7   5 20167.6 1278.63   6
   5  -7   5 19128.1 1310.94   9
   5  -7   6 4216.72 641.751   6
   5  -7   6 3854.65 655.261   9
   5  -7   7 1797.28 471.742   6
   5  -7   7 935.341 348.705   9
   5  -7   8 839.329 383.719   6
   5  -6  -9 4204.52 710.766   8
   5  -6  -8 7517.51 885.042   8
   5  -6  -7 2250.82 492.684   8
   5  -6  -6 2757.50 533.095   8
   5  -6  -5 5528.76 671.863   8
   5  -6  -4 23762.4 1272.51   8
   5  -6  -3 17554.6 986.287   9
   5  -6  -3 17955.8 1061.31   8
   5  -6  -2 2210.55 416.353   9
   5  -6  -2 1928.84 392.170   8
   5  -6  -1 10089.2 787.528   9
   5  -6  -1 11449.3 781.671   8
   5  -6   0 5868.01 628.846   9
   5  -6   0 5840.88 555.256   8
   5  -6   1 5631.03 617.932   9
   5  -6   1 6071.72 541.596   8
   5  -6   2 29091.1 1394.42   9
   5  -6   2 34003.6 1191.67   8
   5  -6   3 16458.2 1046.65   6
   5  -6   3 17202.7 1104.79   9
   5  -6   3 17451.4 824.342   8
   5  -6   4 6011.50 673.661   6
   5  -6   4 6130.21 704.756   9
   5  -6   5 2965.25 535.031   6
   5  -6   6 7838.33 807.244   6
   5  -6   7 11623.6 1011.09   6
   5  -6   8 5416.70 763.140   6
   5  -6   9 4535.43 724.876   6
   5  -5  -9 481.244 369.939   8
   5  -5  -8 282.118 328.356   8
   5  -5  -7 2715.68 538.280   8
   5  -5  -6 8942.95 842.296   8
   5  -5  -5 3556.40 550.901   8
   5  -5  -4 7237.32 709.301   8
   5  -5  -3 7569.99 613.617   9
   5  -5  -3 7731.37 711.110   8
   5  -5  -2 3886.55 462.812   9
   5  -5  -2 3565.77 472.998   8
   5  -5  -1 36991.2 1355.36   9
   5  -5  -1 38383.3 1373.96   8
   5  -5   0 10387.1 751.128   9
   5  -5   0 11042.2 727.298   8
   5  -5   1 12281.3 832.818   9
   5  -5   1 12761.1 753.093   8
   5  -5   2 19605.5 1075.78   9
   5  -5   2 21575.5 939.610   8
   5  -5   3 30561.4 1089.57   8
   5  -5   3 29876.2 1329.22   6
   5  -5   4 40651.7 1605.53   6
   5  -5   4 41244.4 1232.32   8
   5  -5   5 17110.9 1075.56   6
   5  -5   6 2664.91 507.728   6
   5  -5   7 8880.12 864.268   6
   5  -5   8 18068.9 1259.22   6
   5  -5   9 8242.33 913.541   6
   5  -4 -10 4801.89 740.381   8
   5  -4  -9 3412.04 614.032   8
   5  -4  -8 9217.97 917.579   8
   5  -4  -7 10761.0 932.978   8
   5  -4  -6 4016.84 577.900   8
   5  -4  -5 25941.2 1295.84   8
   5  -4  -4 22523.1 1171.81   8
   5  -4  -3 15730.5 953.556   8
   5  -4  -2 9792.55 351.631   5
   5  -4  -2 10699.4 664.302   9
   5  -4  -2 9269.90 724.180   8
   5  -4  -1 4488.02 458.503   9
   5  -4  -1 5020.61 531.581   8
   5  -4   0 50081.9 1471.29   9
   5  -4   0 50337.5 1486.56   8
   5  -4   1 86211.9 1987.26   9
   5  -4   1 90542.9 1922.76   8
   5  -4   2 16377.3 950.145   6
   5  -4   2 15475.3 788.919   8
   5  -4   3 37362.7 1448.20   6
   5  -4   3 36668.1 1208.46   8
   5  -4   4 19671.1 1087.36   6
   5  -4   4 19963.3 895.520   8
   5  -4   5 11906.7 886.434   6
   5  -4   5 11283.8 676.743   8
   5  -4   6 29449.4 1410.52   6
   5  -4   7 16558.6 1109.14   6
   5  -4   8 6987.77 775.436   6
   5  -4   9 1669.77 456.665   6
   5  -4  10 1246.07 431.541   6
   5  -3 -10 526.362 339.617   8
   5  -3  -9 665.537 376.995   8
   5  -3  -8 7932.92 813.367   8
   5  -3  -7 12559.8 975.135   8
   5  -3  -6 11939.6 906.755   8
   5  -3  -5 3508.56 512.817   8
   5  -3  -4 4294.58 548.910   8
   5  -3  -3 12978.1 842.529   8
   5  -3  -3 12386.3 406.347   4
   5  -3  -2 22519.9 842.186   9
   5  -3  -2 22977.4 1057.30   8
   5  -3  -2 22042.3 393.720   4
   5  -3  -1 26304.6 487.535   5
   5  -3  -1 28351.0 970.909   9
   5  -3  -1 27409.1 1112.92   8
   5  -3   0 13169.8 696.542   9
   5  -3   0 13791.4 783.717   8
   5  -3   1 7262.99 560.447   8
   5  -3   2 43999.1 1449.46   6
   5  -3   2 42991.1 1308.80   8
   5  -3   3 28122.1 1217.69   6
   5  -3   3 28292.6 1078.91   8
   5  -3   4 10037.1 751.595   6
   5  -3   4 9158.50 625.323   8
   5  -3   5 6743.84 656.129   6
   5  -3   6 6198.35 649.688   6
   5  -3   7 17250.8 1100.70   6
   5  -3   8 9599.66 888.143   6
   5  -3   9 13143.7 1081.79   6
   5  -3  10 2970.39 579.254   6
   5  -2 -10 9872.23 965.335   8
   5  -2  -9 4126.16 703.885   1
   5  -2  -9 3750.70 615.741   8
   5  -2  -8 479.249 290.255   8
   5  -2  -7 4064.53 565.640   8
   5  -2  -6 17177.9 1048.99   8
   5  -2  -5 27112.4 1256.83   8
   5  -2  -4 36437.3 1382.10   8
   5  -2  -3 6273.59 615.409   8
   5  -2  -3 6166.21 397.820   4
   5  -2  -2 1599.07 223.126   9
   5  -2  -2 1655.17 359.720   8
   5  -2  -2 1442.22 192.734   4
   5  -2  -1 46363.9 1090.56   9
   5  -2  -1 45885.5 1396.17   8
   5  -2  -1 47944.0 873.699   4
   5  -2   0 54563.7 762.526   5
   5  -2   0 54933.3 1486.69   8
   5  -2   0 55537.6 952.725   4
   5  -2   1 23438.7 671.584   4
   5  -2   1 21941.6 948.243   8
   5  -2   2 49887.6 1492.20   6
   5  -2   2 46364.1 1363.42   8
   5  -2   3 229.476 276.476   6
   5  -2   4 88381.3 2038.73   6
   5  -2   5 60282.4 1755.28   6
   5  -2   6 22530.6 1150.90   6
   5  -2   7 6307.05 671.604   6
   5  -2   8 3163.54 529.388   6
   5  -2   9 6746.40 767.593   6
   5  -2  10 10814.5 1009.24   6
   5  -2  11 11528.3 1083.95   6
   5  -1  -9 4083.31 718.512   1
   5  -1  -9 3824.15 579.344   8
   5  -1  -8 637.585 436.243   1
   5  -1  -8 1063.72 343.100   8
   5  -1  -7 8362.08 888.617   1
   5  -1  -7 8016.58 739.177   8
   5  -1  -6 3760.48 531.345   8
   5  -1  -6 3812.04 587.832   1
   5  -1  -5 10621.1 879.313   1
   5  -1  -5 10290.4 762.748   8
   5  -1  -4 23524.4 1088.29   8
   5  -1  -3 61011.1 1669.57   8
   5  -1  -2 23483.9 581.116   9
   5  -1  -2 22885.0 1008.38   8
   5  -1  -2 23822.8 790.810   4
   5  -1  -1 6752.89 361.347   9
   5  -1  -1 6807.18 573.779   8
   5  -1  -1 6734.16 416.184   4
   5  -1   0 16553.8 854.843   8
   5  -1   0 17771.5 633.743   4
   5  -1   1 16590.2 843.636   8
   5  -1   1 18257.2 650.012   4
   5  -1   2 142219. 2365.62   6
   5  -1   2 143256. 1917.18   4
   5  -1   3 89854.6 1947.00   6
   5  -1   3 86390.6 1599.36   4
   5  -1   4 2609.00 402.515   6
   5  -1   5 10589.8 733.400   6
   5  -1   6 37412.8 1425.28   6
   5  -1   6 37413.0 709.235   2
   5  -1   7 33076.0 1394.60   6
   5  -1   8 22173.2 1235.79   6
   5  -1   9 5929.37 703.654   6
   5  -1  10 2073.95 507.625   6
   5  -1  11 9609.19 984.700   6
   5   0  -9 4404.32 778.406   1
   5   0  -8 524.094 270.205   8
   5   0  -8 714.318 467.709   1
   5   0  -7 5766.09 759.908   1
   5   0  -7 4528.51 555.336   8
   5   0  -6 26554.5 1463.64   1
   5   0  -6 26061.6 1215.98   8
   5   0  -5 25975.6 1352.99   1
   5   0  -5 24780.3 1127.73   8
   5   0  -4 18179.9 1070.42   1
   5   0  -4 16803.5 911.585   8
   5   0  -3 12529.8 833.017   1
   5   0  -3 13572.5 800.410   8
   5   0  -2 77529.0 1603.80   4
   5   0  -2 75130.7 1758.37   8
   5   0  -1 29758.9 570.366   9
   5   0  -1 29050.9 1087.77   8
   5   0  -1 28901.6 925.617   4
   5   0   0 5478.66 512.141   8
   5   0   0 5519.81 417.290   4
   5   0   1 45495.8 1122.67   4
   5   0   2 40053.5 1217.50   6
   5   0   2 40387.4 1082.79   4
   5   0   3 93140.4 1860.40   6
   5   0   3 90604.8 1709.62   4
   5   0   4 47327.9 1369.07   6
   5   0   4 45926.0 1307.45   4
   5   0   5 19866.2 938.926   6
   5   0   5 19275.0 887.581   4
   5   0   6 9889.86 727.730   6
   5   0   7 2698.37 260.601   2
   5   0   7 2491.83 434.468   6
   5   0   8 5427.40 641.548   6
   5   0   9 14676.2 1031.10   6
   5   0  10 14536.3 1098.95   6
   5   0  11 3164.58 622.822   6
   5   0  12 1519.88 502.452   6
   5   1  -9 2199.90 628.000   1
   5   1  -8 10039.2 1049.70   1
   5   1  -7 6634.20 829.911   1
   5   1  -7 5592.49 590.990   8
   5   1  -6 2888.98 548.193   1
   5   1  -6 2869.55 424.601   8
   5   1  -5 19769.3 1202.34   1
   5   1  -5 18490.6 955.021   8
   5   1  -4 11947.6 898.857   1
   5   1  -4 11301.1 724.644   8
   5   1  -3 8780.51 738.315   1
   5   1  -3 8591.54 623.622   8
   5   1  -2 34913.5 1189.44   4
   5   1  -2 34323.3 1254.05   1
   5   1  -2 34021.0 1181.78   8
   5   1  -1 6589.01 538.671   8
   5   1  -1 6003.27 500.300   4
   5   1   0 32498.7 1131.38   8
   5   1   0 31928.5 1049.74   4
   5   1   1 58930.2 1395.28   4
   5   1   2 18426.1 801.767   4
   5   1   3 53456.7 1380.17   6
   5   1   3 52803.6 1362.21   4
   5   1   4 196.342 237.862   4
   5   1   4 95.4026 220.819   6
   5   1   5 9470.07 648.359   6
   5   1   5 9744.54 693.592   4
   5   1   6 47364.1 1464.46   6
   5   1   6 44813.2 1447.27   4
   5   1   7 76155.5 1977.12   6
   5   1   8 34158.5 1421.99   6
   5   1   8 34235.9 1037.75   2
   5   1   9 8503.21 780.682   6
   5   1  10 5733.89 700.869   6
   5   1  11 17488.7 1231.88   6
   5   1  12 10851.1 1054.21   6
   5   2  -8-938.637 675.851   1
   5   2  -7 7208.30 824.418   1
   5   2  -6 18768.3 1249.67   1
   5   2  -5 1927.73 493.667   1
   5   2  -5 4685.08 486.764   8
   5   2  -4 7197.32 629.321   1
   5   2  -4 8974.56 635.148   8
   5   2  -3-699.381 507.897   1
   5   2  -3 413.345 210.020   8
   5   2  -2 1706.52 355.048   1
   5   2  -2 1557.77 304.704   8
   5   2  -1 80221.9 1749.55   1
   5   2  -1 75985.3 1713.50   8
   5   2  -1 78175.0 1810.62   4
   5   2   0 33680.6 1141.49   8
   5   2   0 34008.7 1158.78   4
   5   2   1 1000.57 304.102   4
   5   2   2 14741.2 758.974   4
   5   2   3 101681. 1762.73   6
   5   2   3 97530.3 1966.18   4
   5   2   4 69253.3 1517.08   6
   5   2   4 66350.8 1655.48   4
   5   2   5 32859.7 1098.39   6
   5   2   5 33778.4 1260.46   4
   5   2   6 7988.18 610.388   6
   5   2   6 7386.46 652.358   4
   5   2   7 39865.6 1384.18   6
   5   2   7 38195.4 1443.76   4
   5   2   8 25813.8 1196.07   6
   5   2   8 25622.7 1017.30   2
   5   2   9 18130.9 874.742   2
   5   2   9 17311.8 1059.15   6
   5   2  10 2125.41 470.214   6
   5   2  11 9105.17 890.122   6
   5   2  12 7751.11 889.410   6
   5   3  -8 3551.93 668.895   1
   5   3  -7-1166.95 718.974   1
   5   3  -6 7813.72 830.544   1
   5   3  -5 23182.6 1322.41   1
   5   3  -4 8831.71 602.028   8
   5   3  -4 7506.65 695.952   1
   5   3  -3 1970.27 375.395   1
   5   3  -3 2848.70 351.095   8
   5   3  -2 1060.64 287.658   1
   5   3  -2 1615.33 288.076   8
   5   3  -1 17198.7 943.361   4
   5   3  -1 17674.6 833.590   8
   5   3  -1 17525.0 840.730   1
   5   3   0 59442.3 1358.32   1
   5   3   0 58892.1 1643.34   4
   5   3   1 31542.0 1189.51   4
   5   3   2 8907.27 663.028   4
   5   3   3 10541.8 550.389   6
   5   3   3 10310.5 714.723   4
   5   3   4 54670.8 1274.46   6
   5   3   4 51935.8 1563.53   4
   5   3   5 41265.4 1175.99   6
   5   3   5 38391.0 1382.24   4
   5   3   6 35478.5 1173.32   6
   5   3   6 35534.4 1388.67   4
   5   3   7 8127.94 633.648   6
   5   3   7 7849.16 712.846   4
   5   3   8 5546.36 562.397   6
   5   3   8 5357.95 622.017   4
   5   3   9 1301.14 348.984   6
   5   3   9 1802.33 340.419   2
   5   3  10 19434.9 1022.54   2
   5   3  10 19022.6 1153.23   6
   5   3  11 6692.64 755.228   6
   5   3  12 3754.94 626.160   6
   5   3  13 2348.19 543.002   6
   5   4  -7 2226.07 530.411   1
   5   4  -6 5300.13 710.268   1
   5   4  -5 3090.51 579.066   1
   5   4  -4 16669.7 1092.35   1
   5   4  -3 15969.1 746.192   8
   5   4  -3 17133.9 1035.88   1
   5   4  -2 5562.18 614.755   4
   5   4  -2 5717.70 467.064   8
   5   4  -2 5877.57 578.018   1
   5   4  -1 13014.3 893.179   4
   5   4  -1 13996.9 734.203   8
   5   4  -1 13949.2 774.625   1
   5   4   0 295.517 271.724   4
   5   4   0 382.308 189.304   1
   5   4   1 3765.92 315.029   1
   5   4   1 3870.25 515.733   4
   5   4   2 19016.4 994.275   4
   5   4   3 63731.8 1765.13   4
   5   4   4 15635.1 652.149   6
   5   4   4 15991.3 938.340   4
   5   4   5 8671.37 525.142   6
   5   4   5 8304.10 717.165   4
   5   4   6 7751.81 541.184   6
   5   4   6 7728.93 706.354   4
   5   4   7 10188.1 666.728   6
   5   4   7 9464.25 802.459   4
   5   4   8 37456.0 1357.24   6
   5   4   8 37547.7 1587.89   4
   5   4   9 21179.4 1100.50   6
   5   4   9 20772.3 1106.19   2
   5   4  10 4286.02 556.922   6
   5   4  10 3768.36 509.650   2
   5   4  11 6324.03 665.660   2
   5   4  11 6487.43 727.677   6
   5   4  12 11564.8 1014.87   6
   5   4  13 5074.07 739.334   6
   5   5  -7 6148.17 845.721   1
   5   5  -6 2126.57 547.585   1
   5   5  -5 23574.3 1453.43   1
   5   5  -4 1954.87 523.536   1
   5   5  -3 2547.59 513.256   1
   5   5  -2 16253.3 1097.74   4
   5   5  -2 15275.6 920.808   1
   5   5  -1 17732.4 1084.36   4
   5   5  -1 18108.9 825.235   8
   5   5  -1 18153.4 897.141   1
   5   5   0 32060.4 1051.06   1
   5   5   0 33885.6 1434.78   4
   5   5   1 10431.8 525.886   1
   5   5   1 10244.3 803.864   4
   5   5   2 8152.39 723.843   4
   5   5   3 62168.2 1837.86   4
   5   5   4 9529.91 776.264   4
   5   5   5 11846.3 569.590   6
   5   5   5 12117.5 881.638   4
   5   5   6 8751.94 537.006   6
   5   5   6 9556.86 790.849   4
   5   5   7 8089.05 572.526   6
   5   5   7 8425.32 783.192   4
   5   5   8 8372.70 633.357   6
   5   5   8 8146.63 789.060   4
   5   5   9 21202.8 1070.52   6
   5   5   9 21653.2 1201.04   2
   5   5   9 20672.7 1243.67   4
   5   5  10 14644.9 961.813   6
   5   5  10 15218.7 1037.56   2
   5   5  11 2514.39 468.700   6
   5   5  11 2931.69 507.742   2
   5   5  12 548.579 327.928   6
   5   5  13 1085.84 401.877   6
   5   6  -6 2014.69 576.828   1
   5   6  -5 879.486 430.711   1
   5   6  -4 5981.34 731.128   1
   5   6  -3 8729.45 901.663   4
   5   6  -3 8284.28 771.760   1
   5   6  -2 14425.5 1089.80   4
   5   6  -2 14523.6 902.070   1
   5   6  -1 540.290 337.092   4
   5   6  -1 890.644 293.195   1
   5   6   0 28869.3 1026.94   1
   5   6   0 28763.6 1411.36   4
   5   6   1 24182.0 1273.50   4
   5   6   2 43178.0 1659.16   4
   5   6   3 4604.43 569.777   4
   5   6   4 26357.7 1311.23   4
   5   6   5 3438.04 543.279   4
   5   6   6 26156.4 1332.64   4
   5   6   7 16348.4 1087.43   4
   5   6   8 9109.48 628.076   6
   5   6   8 9656.15 891.778   4
   5   6   9 3145.51 567.810   4
   5   6   9 3096.24 436.142   6
   5   6   9 2985.85 514.816   2
   5   6  10 1536.54 449.748   4
   5   6  10 1845.28 378.947   6
   5   6  10 1622.72 418.984   2
   5   6  11 7685.47 821.860   2
   5   6  11 8380.36 777.900   6
   5   6  12 12035.7 1049.71   2
   5   7  -5 814.684 497.678   1
   5   7  -4 2609.76 599.849   4
   5   7  -4 3787.11 659.403   1
   5   7  -3 178.878 334.151   4
   5   7  -3 1076.05 400.163   1
   5   7  -2 5755.35 743.723   4
   5   7  -1 37670.0 1753.38   4
   5   7   0 9997.19 903.007   4
   5   7   1 15740.5 1098.88   4
   5   7   2 10604.3 907.486   4
   5   7   3 12058.7 940.912   4
   5   7   4 26845.6 1372.65   4
   5   7   5 13606.2 1009.23   4
   5   7   6 3754.41 583.415   4
   5   7   7 2362.35 505.480   4
   5   7   8 22239.2 1352.04   4
   5   7   9 8990.45 893.633   2
   5   7   9 10509.8 976.295   4
   5   7  10 111.216 288.313   4
   5   7  10 542.332 379.096   2
   5   7  11 1521.13 437.091   2
   5   7  12 104.779 254.718   2
   5   8  -3 2761.48 628.231   4
   5   8  -2 1015.67 450.993   4
   5   8  -1 4640.24 718.734   4
   5   8   0 13267.5 1096.65   4
   5   8   1 7472.57 835.768   4
   5   8   2 2541.08 528.850   4
   5   8   3 3623.44 596.716   4
   5   8   4 6020.27 725.560   4
   5   8   5 30271.1 1569.20   4
   5   8   6 16434.8 1164.06   4
   5   8   7 13035.0 1040.01   4
   5   8   8 1372.23 430.705   4
   5   8   9 5039.72 726.117   2
   5   8   9 5097.23 734.476   4
   5   8  10 12950.6 1138.41   2
   5   8  10 12894.6 1126.80   4
   5   8  11 5541.66 793.854   2
   5   9  -2 8923.86 1022.61   4
   5   9  -1 10642.7 1079.94   4
   5   9   0 1232.39 428.556   4
   5   9   1 2605.72 569.700   4
   5   9   2 15960.5 1221.51   4
   5   9   3 9691.13 953.385   4
   5   9   4 12104.6 1051.87   4
   5   9   5 6663.83 813.376   4
   5   9   6 3509.00 614.667   4
   5   9   7 15249.9 1178.33   4
   5   9   8 15121.8 1214.22   4
   5   9   9 19834.3 1435.45   2
   5   9   9 20648.4 1429.07   4
   5   9  10 8325.12 978.643   2
   5   9  10 7007.67 856.886   4
   5  10   0 8834.27 1019.84   4
   5  10   1 6483.06 886.477   4
   5  10   2 16.2613 351.358   4
   5  10   3 6816.77 853.947   4
   5  10   4 7253.90 865.435   4
   5  10   5 9736.38 1001.91   4
   5  10   6 2481.40 571.521   4
   5  10   7 403.956 332.905   4
   5  10   8 1674.00 500.520   4
   5  10   8 1988.47 547.782   2
   5  10   9 13425.1 1195.66   4
   5  10  10 4145.21 702.709   4
   5  11   3 7044.10 904.063   4
   5  11   4 817.964 387.355   4
   5  11   5 898.521 416.796   4
   5  11   6 11110.1 1091.42   4
   5  11   7 7227.63 900.598   4
   5  11   8 7801.19 935.961   4
   6 -10  -4 1252.29 414.504   8
   6  -9  -5 5347.79 762.329   8
   6  -9  -4 4943.99 709.656   8
   6  -9  -3 6135.20 745.853   8
   6  -9  -2 1805.80 476.152   9
   6  -9  -2 1510.54 413.457   8
   6  -9  -1 9000.37 956.875   9
   6  -9   0 5329.20 773.302   9
   6  -9   1 735.024 382.027   9
   6  -9   2 228.511 358.393   9
   6  -9   3 54.5761 277.461   9
   6  -8  -6 2544.96 563.344   8
   6  -8  -5 1960.69 495.537   8
   6  -8  -4 1914.69 473.622   8
   6  -8  -3 15205.2 1106.91   8
   6  -8  -2 15439.1 1128.96   9
   6  -8  -2 15803.3 1085.45   8
   6  -8  -1 10301.7 944.811   9
   6  -8  -1 12142.1 925.842   8
   6  -8   0 2268.80 512.398   9
   6  -8   0 2736.12 462.892   8
   6  -8   1 2432.06 527.662   9
   6  -8   2 4043.36 660.460   9
   6  -8   3 9490.89 972.963   9
   6  -8   4 9207.04 978.443   9
   6  -8   5 769.031 429.607   9
   6  -8   6 4905.07 727.270   6
   6  -7  -7 4647.64 735.787   8
   6  -7  -6 4886.61 721.989   8
   6  -7  -5 6980.71 806.679   8
   6  -7  -4 11546.1 983.151   8
   6  -7  -3 2695.02 503.391   8
   6  -7  -2 5418.85 651.007   9
   6  -7  -2 5572.58 652.444   8
   6  -7  -1 9908.56 873.589   9
   6  -7  -1 11225.7 871.258   8
   6  -7   0 11022.1 927.239   9
   6  -7   0 11760.7 850.003   8
   6  -7   1 3862.75 594.598   9
   6  -7   1 4762.19 536.759   8
   6  -7   2 403.806 306.215   9
   6  -7   3 936.320 403.136   9
   6  -7   4 8311.76 883.499   9
   6  -7   5 15317.0 1162.04   6
   6  -7   5 15058.4 1207.59   9
   6  -7   6 7219.20 869.102   6
   6  -7   6 6542.33 841.931   9
   6  -7   7 4036.86 668.065   6
   6  -6  -8 4205.07 698.323   8
   6  -6  -7 2834.51 610.770   8
   6  -6  -6 882.686 410.046   8
   6  -6  -5 6734.13 774.470   8
   6  -6  -4 10736.3 933.179   8
   6  -6  -3 11937.1 939.759   8
   6  -6  -2 4219.09 548.417   9
   6  -6  -2 4112.08 558.321   8
   6  -6  -1 1870.68 410.767   9
   6  -6  -1 2371.83 432.474   8
   6  -6   0 4164.70 559.983   9
   6  -6   0 5165.31 584.776   8
   6  -6   1 17512.4 1088.73   9
   6  -6   1 18811.3 1020.11   8
   6  -6   2 26775.3 1380.47   9
   6  -6   2 30177.4 1243.07   8
   6  -6   3 10265.8 912.982   9
   6  -6   3 10196.6 716.977   8
   6  -6   4 2705.46 514.931   6
   6  -6   4 2263.82 476.852   9
   6  -6   5 2141.77 481.359   6
   6  -6   6 7130.45 834.846   6
   6  -6   7 30510.6 1693.45   6
   6  -6   8 2353.52 552.909   6
   6  -5  -8 1773.84 531.221   8
   6  -5  -7 8230.85 901.980   8
   6  -5  -6 9649.31 931.551   8
   6  -5  -5 5564.50 703.095   8
   6  -5  -4 7501.34 767.237   8
   6  -5  -3 9223.37 812.089   8
   6  -5  -2 31246.1 1276.66   9
   6  -5  -2 29770.2 1373.30   8
   6  -5  -1 23958.3 1131.52   9
   6  -5  -1 23602.7 1181.88   8
   6  -5   0 5085.51 566.930   9
   6  -5   0 5146.53 554.583   8
   6  -5   1 2380.22 430.213   9
   6  -5   1 2361.33 414.387   8
   6  -5   2 13351.6 934.480   9
   6  -5   2 14272.4 856.507   8
   6  -5   3 30786.3 1230.37   8
   6  -5   4 31525.7 1492.96   6
   6  -5   4 30749.2 1200.53   8
   6  -5   5 7562.15 799.386   6
   6  -5   6 2157.63 479.710   6
   6  -5   7 26242.4 1521.20   6
   6  -5   8 13582.8 1151.03   6
   6  -5   9 10810.1 1075.00   6
   6  -4  -9 4466.80 714.617   8
   6  -4  -8 5412.70 752.096   8
   6  -4  -7 3287.27 600.726   8
   6  -4  -6 2832.43 551.531   8
   6  -4  -5 1592.81 418.001   8
   6  -4  -4 21292.1 1222.00   8
   6  -4  -3 14153.5 964.479   8
   6  -4  -2 7196.49 569.962   9
   6  -4  -2 6224.74 647.520   8
   6  -4  -1 4148.32 455.430   9
   6  -4  -1 3996.75 516.548   8
   6  -4   0 12004.5 774.061   9
   6  -4   0 12586.4 840.694   8
   6  -4   1 14339.5 871.579   9
   6  -4   1 14672.3 871.360   8
   6  -4   2 6258.54 583.240   8
   6  -4   3 618.184 338.291   6
   6  -4   3 340.655 239.698   8
   6  -4   4 7614.14 749.259   6
   6  -4   4 7270.51 624.196   8
   6  -4   5 12010.4 945.452   6
   6  -4   5 11565.6 773.958   8
   6  -4   6 12904.2 1008.42   6
   6  -4   6 13010.4 809.109   8
   6  -4   7 1730.16 448.382   6
   6  -4   8 4781.99 711.752   6
   6  -4   9 1873.89 526.923   6
   6  -4  10 6402.27 855.165   6
   6  -3  -9 6842.29 840.876   8
   6  -3  -8 2657.76 546.329   8
   6  -3  -7 6747.64 789.069   8
   6  -3  -6 13423.2 1032.86   8
   6  -3  -5 16954.3 1102.67   8
   6  -3  -4 652.860 318.016   8
   6  -3  -3 38709.5 1542.82   8
   6  -3  -2 42915.3 1203.20   9
   6  -3  -2 41391.1 1525.91   8
   6  -3  -1 19100.0 834.216   9
   6  -3  -1 17713.5 1008.39   8
   6  -3   0 4895.63 476.956   9
   6  -3   0 4867.78 539.343   8
   6  -3   1 3818.15 487.838   8
   6  -3   2 2162.16 388.715   8
   6  -3   3 109921. 2508.04   6
   6  -3   3 105690. 2276.59   8
   6  -3   4 8048.92 746.830   6
   6  -3   4 7950.44 644.804   8
   6  -3   5 37354.4 1547.85   6
   6  -3   5 36119.6 1348.77   8
   6  -3   6 13859.1 989.241   6
   6  -3   7 6551.66 736.914   6
   6  -3   8 26659.1 1474.12   6
   6  -3   9 12320.5 1061.57   6
   6  -3  10 2232.74 544.531   6
   6  -2  -9 1285.79 413.278   8
   6  -2  -8 129.280 268.184   8
   6  -2  -7 489.984 342.534   8
   6  -2  -6 10739.1 904.060   8
   6  -2  -5 27372.5 1360.66   8
   6  -2  -4 19433.6 1118.70   8
   6  -2  -3 150.340 135.082   4
   6  -2  -3 386.619 290.634   8
   6  -2  -2 94.2085 126.077   4
   6  -2  -2 16.2196 117.203   9
   6  -2  -2 152.717 278.850   8
   6  -2  -1 16271.1 687.357   9
   6  -2  -1 16808.2 954.857   8
   6  -2  -1 17075.4 609.722   4
   6  -2   0 5682.95 453.058   9
   6  -2   0 5901.84 588.091   8
   6  -2   0 5977.84 366.740   4
   6  -2   1 22304.7 1064.77   8
   6  -2   1 22871.1 742.725   4
   6  -2   2 35230.8 962.606   4
   6  -2   2 34978.1 1317.82   8
   6  -2   3 7917.31 697.962   6
   6  -2   3 7157.39 637.535   8
   6  -2   4 36879.7 1447.17   6
   6  -2   5 13513.7 927.626   6
   6  -2   6 8597.88 762.882   6
   6  -2   7 7203.97 734.663   6
   6  -2   8 568.513 294.457   6
   6  -2   9 8886.71 903.080   6
   6  -2  10 14687.5 1203.52   6
   6  -2  11 4635.58 744.103   6
   6  -1  -8 3909.44 594.400   8
   6  -1  -7 5201.20 658.301   8
   6  -1  -6 2676.62 482.895   8
   6  -1  -5 3725.90 528.059   8
   6  -1  -4 55111.8 1508.51   4
   6  -1  -4 53991.3 1779.02   8
   6  -1  -3 28252.9 1253.86   8
   6  -1  -3 29699.8 1030.01   4
   6  -1  -2 18222.9 1004.36   8
   6  -1  -2 19763.9 796.388   4
   6  -1  -1 2760.84 260.732   9
   6  -1  -1 3376.78 335.287   4
   6  -1  -1 3271.02 477.112   8
   6  -1   0 2684.37 301.134   4
   6  -1   0 2001.05 392.506   8
   6  -1   1 33179.7 1309.81   8
   6  -1   1 34964.3 995.296   4
   6  -1   2 58939.7 1688.85   8
   6  -1   2 63505.8 1398.14   4
   6  -1   3 31687.0 1263.11   6
   6  -1   3 30926.4 1033.88   4
   6  -1   4 22845.7 1124.88   6
   6  -1   4 21318.8 900.366   4
   6  -1   5 1015.97 336.100   6
   6  -1   6 52016.4 1747.93   6
   6  -1   7 31147.1 1413.31   6
   6  -1   8 14803.2 1060.78   6
   6  -1   9 1866.69 452.396   6
   6  -1  10-87.0770 319.480   6
   6  -1  11 6734.83 834.589   6
   6   0  -8 81.8452 386.975   1
   6   0  -7 10814.2 1057.74   1
   6   0  -7 9466.36 836.134   8
   6   0  -6 12329.1 1047.90   1
   6   0  -6 10976.6 865.276   8
   6   0  -5 16726.9 1139.55   1
   6   0  -5 15727.0 985.687   8
   6   0  -4 3223.57 482.646   8
   6   0  -3 6341.46 552.319   4
   6   0  -3 5482.00 574.804   8
   6   0  -2 10193.8 755.420   8
   6   0  -2 10698.4 656.354   4
   6   0  -1 26713.1 585.152   9
   6   0  -1 27386.1 1170.59   8
   6   0  -1 27515.7 1001.13   4
   6   0   0 17711.9 950.909   8
   6   0   0 18270.8 799.330   4
   6   0   1 346.103 204.347   4
   6   0   1 234.709 293.585   8
   6   0   2 8094.49 565.261   4
   6   0   3 22850.0 1045.21   6
   6   0   3 21566.4 905.468   4
   6   0   4 32833.7 1282.22   6
   6   0   4 33526.8 1180.74   4
   6   0   5 9767.43 730.437   6
   6   0   5 8940.19 653.496   4
   6   0   6 8347.92 702.781   6
   6   0   7 8768.02 751.108   6
   6   0   8 20204.3 1179.77   6
   6   0   9 17637.8 1157.41   6
   6   0  10 8015.57 848.267   6
   6   0  11 3960.04 660.944   6
   6   0  12 3717.02 665.004   6
   6   1  -8 2045.20 593.385   1
   6   1  -7 1259.63 464.643   1
   6   1  -6 2651.86 558.269   1
   6   1  -6 2190.56 428.925   8
   6   1  -5 7226.20 795.505   1
   6   1  -5 6560.17 630.889   8
   6   1  -4 9609.46 836.355   1
   6   1  -4 7848.09 671.815   8
   6   1  -3 3988.74 483.095   4
   6   1  -3 3931.14 493.965   8
   6   1  -3 3649.62 513.160   1
   6   1  -2 14225.8 860.856   8
   6   1  -2 14633.8 845.067   4
   6   1  -1 103.656 219.954   4
   6   1  -1 185.576 268.380   8
   6   1   0 30473.4 1220.53   8
   6   1   0 29929.9 1103.39   4
   6   1   1 5089.25 472.176   4
   6   1   2 22327.7 955.973   4
   6   1   3 17119.9 865.771   6
   6   1   3 16744.0 843.892   4
   6   1   4 9966.82 687.847   6
   6   1   4 8836.65 655.376   4
   6   1   5 32631.7 1241.91   6
   6   1   5 31281.8 1245.66   4
   6   1   6 48463.4 1558.11   6
   6   1   6 45647.1 1543.88   4
   6   1   7 20368.6 1088.20   6
   6   1   8 10864.5 844.620   6
   6   1   9 3.92772 242.647   6
   6   1  10 7716.35 819.210   6
   6   1  11 18812.1 1307.88   6
   6   1  12 21420.4 1461.96   6
   6   2  -8 4859.52 817.521   1
   6   2  -7 7300.59 894.133   1
   6   2  -6 22292.1 1449.57   1
   6   2  -5 19017.0 1276.73   1
   6   2  -5 17962.0 988.232   8
   6   2  -4 5759.52 700.388   1
   6   2  -4 5885.80 564.866   8
   6   2  -3 9752.96 782.797   4
   6   2  -3 11009.7 843.449   1
   6   2  -3 10500.2 730.249   8
   6   2  -2 11782.1 810.967   1
   6   2  -2 11068.8 737.114   8
   6   2  -2 12433.6 830.227   4
   6   2  -1 24276.1 1087.03   8
   6   2  -1 23999.3 1099.37   4
   6   2   0 47689.7 1508.97   8
   6   2   0 47144.0 1482.28   4
   6   2   1 2825.86 407.211   4
   6   2   2 25751.9 1082.55   4
   6   2   3 91310.1 2042.88   4
   6   2   4 7484.57 577.834   6
   6   2   4 6998.17 613.941   4
   6   2   5 42903.0 1373.73   6
   6   2   5 41817.6 1473.37   4
   6   2   6 22814.9 1048.75   6
   6   2   6 21938.0 1128.88   4
   6   2   7 16320.3 942.141   6
   6   2   7 16229.0 1010.83   4
   6   2   8 11415.7 845.753   6
   6   2   9 16466.8 1055.14   6
   6   2  10 250.697 251.986   6
   6   2  11 7441.57 816.246   6
   6   2  12 3712.23 660.929   6
   6   3  -7 1148.43 498.583   1
   6   3  -6 5555.04 718.443   1
   6   3  -5 36581.1 1760.34   1
   6   3  -4 49926.3 1907.45   1
   6   3  -4 44120.4 1463.04   8
   6   3  -3 648.158 321.052   1
   6   3  -3 473.532 303.947   4
   6   3  -3 665.449 253.182   8
   6   3  -2 2905.10 488.717   4
   6   3  -2 2991.23 406.206   8
   6   3  -2 2990.50 460.625   1
   6   3  -1 12364.9 762.201   1
   6   3  -1 13056.1 799.134   8
   6   3  -1 12225.0 846.850   4
   6   3   0 6359.74 586.626   8
   6   3   0 6532.58 629.642   4
   6   3   1 27766.6 1202.99   4
   6   3   2 49280.5 1567.78   4
   6   3   3 2904.74 466.423   4
   6   3   4 22896.8 917.195   6
   6   3   4 22884.9 1114.87   4
   6   3   5 13207.0 735.528   6
   6   3   5 12853.3 866.709   4
   6   3   6 6310.05 549.503   6
   6   3   6 5813.20 646.106   4
   6   3   7 9645.69 706.440   6
   6   3   7 10033.0 832.731   4
   6   3   8 2180.46 441.206   4
   6   3   8 2407.12 431.098   6
   6   3   9 10867.6 852.725   6
   6   3   9 9966.03 741.766   2
   6   3  10 6479.14 720.623   6
   6   3  11 5957.97 727.661   6
   6   3  12 6253.93 776.816   6
   6   4  -7 2584.16 549.764   1
   6   4  -6 2967.54 561.975   1
   6   4  -5 4387.01 643.000   1
   6   4  -4 27430.0 1468.14   1
   6   4  -3 23121.7 1324.26   4
   6   4  -3 22955.5 1245.97   1
   6   4  -2 11510.6 917.620   4
   6   4  -2 10683.2 703.139   8
   6   4  -2 12124.3 835.829   1
   6   4  -1 11224.5 741.232   8
   6   4  -1 11722.3 760.304   1
   6   4  -1 10468.4 845.512   4
   6   4   0 5742.55 481.399   1
   6   4   0 6225.47 579.047   8
   6   4   0 5279.90 611.255   4
   6   4   1 26995.4 1267.81   4
   6   4   2 46451.3 1630.79   4
   6   4   3 12971.9 883.955   4
   6   4   4 13457.1 925.871   4
   6   4   5 1253.22 381.247   4
   6   4   5 956.575 241.962   6
   6   4   6 7164.62 562.852   6
   6   4   6 6877.85 707.900   4
   6   4   7 10940.5 712.625   6
   6   4   7 11159.8 904.234   4
   6   4   8 32537.5 1305.28   6
   6   4   8 32486.2 1549.35   4
   6   4   9 5045.59 576.090   6
   6   4   9 5124.43 674.067   4
   6   4  10 2943.36 486.892   6
   6   4  10 3009.62 465.771   2
   6   4  11 6925.00 757.175   6
   6   4  12 15013.8 1159.82   6
   6   4  13 3457.35 630.680   6
   6   5  -6 1472.40 418.278   1
   6   5  -5 3798.27 595.652   1
   6   5  -4 3089.39 593.131   4
   6   5  -4 1754.87 409.389   1
   6   5  -3 4314.14 662.478   4
   6   5  -3 3824.72 556.297   1
   6   5  -2 5252.36 594.112   1
   6   5  -2 4773.74 661.465   4
   6   5  -1 32237.6 1208.50   8
   6   5  -1 33900.9 1295.31   1
   6   5  -1 31399.1 1502.01   4
   6   5   0 33279.0 1264.54   8
   6   5   0 31961.5 1122.04   1
   6   5   0 31120.9 1456.15   4
   6   5   1 16922.1 1076.17   4
   6   5   2 4669.88 599.773   4
   6   5   3 7999.78 744.076   4
   6   5   4 13712.5 969.114   4
   6   5   5 40346.5 1124.88   6
   6   5   5 41027.3 1646.90   4
   6   5   6 14150.8 728.949   6
   6   5   6 12832.1 960.936   4
   6   5   7 201.875 271.225   4
   6   5   7 115.895 164.712   6
   6   5   8 7789.96 626.358   6
   6   5   8 8261.60 836.741   4
   6   5   9 10358.9 782.629   6
   6   5   9 9884.04 931.700   4
   6   5  10 9606.78 808.174   6
   6   5  10 9602.68 856.866   2
   6   5  11 1724.40 405.853   6
   6   5  11 1783.62 426.479   2
   6   5  12 719.950 338.767   6
   6   5  13 2628.64 535.386   6
   6   6  -5 11419.6 1155.49   4
   6   6  -5 10380.1 1026.63   1
   6   6  -4 1362.62 463.756   4
   6   6  -4 961.578 343.081   1
   6   6  -3 11153.6 1047.79   4
   6   6  -3 11442.9 944.582   1
   6   6  -2 4782.76 679.010   4
   6   6  -1 568.305 345.180   4
   6   6   0 39984.7 1370.17   8
   6   6   0 38118.6 1699.22   4
   6   6   1 19275.0 1213.30   4
   6   6   2 20167.1 1225.22   4
   6   6   3 7982.38 779.730   4
   6   6   4 7127.36 750.769   4
   6   6   5 36142.4 1621.64   4
   6   6   6 17629.0 1157.71   4
   6   6   7 13833.4 1061.66   4
   6   6   8 2013.80 499.348   4
   6   6   9 454.791 322.680   4
   6   6  10 6731.50 778.447   2
   6   6  10 6112.40 790.265   4
   6   6  11 4769.82 676.190   2
   6   7  -3 1857.13 503.570   4
   6   7  -2 7467.81 889.528   4
   6   7  -1 11174.4 1038.75   4
   6   7   0 3758.43 632.509   4
   6   7   1 350.949 328.757   4
   6   7   2 4410.81 655.946   4
   6   7   3 5005.46 686.537   4
   6   7   4 26896.7 1457.94   4
   6   7   5 8957.99 887.004   4
   6   7   6 3498.13 597.478   4
   6   7   7 7568.69 834.900   4
   6   7   8 15049.2 1178.12   4
   6   7   9 10359.1 1019.38   4
   6   7  10 620.787 404.707   4
   6   7  10 807.152 364.579   2
   6   7  11 4150.77 669.063   2
   6   7  12 1338.53 447.264   2
   6   8  -2 5013.32 817.105   4
   6   8  -1 1792.86 544.271   4
   6   8   0 6394.58 828.433   4
   6   8   1 21366.1 1418.73   4
   6   8   2 13912.4 1144.56   4
   6   8   3 1236.06 454.037   4
   6   8   4 2530.57 525.259   4
   6   8   5 15921.3 1203.20   4
   6   8   6 18580.7 1301.07   4
   6   8   7 2883.25 571.923   4
   6   8   8 4357.76 720.230   4
   6   8   9 18585.7 1369.25   4
   6   8  10 29657.5 1721.11   2
   6   8  10 26936.6 1669.18   4
   6   8  11 8466.94 978.813   2
   6   8  11 8710.94 978.085   4
   6   9   0 3829.32 719.540   4
   6   9   1 6418.82 884.060   4
   6   9   2 14469.1 1225.71   4
   6   9   3 4089.28 673.862   4
   6   9   4 1904.75 516.723   4
   6   9   5 1743.14 519.869   4
   6   9   6 5471.84 788.539   4
   6   9   7 5662.94 802.639   4
   6   9   8 3130.16 621.287   4
   6   9   9 6488.09 880.729   4
   6   9  10 6871.26 924.065   4
   6  10   2 1101.34 463.112   4
   6  10   3 2129.36 609.374   4
   6  10   4 4308.91 740.345   4
   6  10   5 6961.95 908.642   4
   6  10   6 6110.32 854.028   4
   6  10   7 2038.47 555.482   4
   6  10   8 339.198 340.200   4
   7  -9  -3 1903.80 508.099   8
   7  -9  -2 3261.92 601.528   9
   7  -9  -2 3604.45 590.476   8
   7  -9  -1 5460.36 782.062   9
   7  -9   0 8872.86 974.185   9
   7  -9   1 3523.76 647.784   9
   7  -8  -5 1779.49 514.644   8
   7  -8  -4 2488.57 541.315   8
   7  -8  -3 9320.20 932.620   8
   7  -8  -2 4510.81 650.777   9
   7  -8  -2 4862.08 678.622   8
   7  -8  -1 9624.71 942.798   9
   7  -8  -1 9455.87 884.795   8
   7  -8   0 4862.82 718.197   9
   7  -8   0 4235.12 587.231   8
   7  -8   1 4791.15 721.536   9
   7  -8   2 2194.15 514.606   9
   7  -8   3 3094.95 596.684   9
   7  -8   4 2756.88 606.459   9
   7  -7  -6 5581.10 792.566   8
   7  -7  -5 2129.50 515.240   8
   7  -7  -4 5070.60 737.201   8
   7  -7  -3 450.085 305.390   8
   7  -7  -2 1861.95 443.117   9
   7  -7  -2 2053.20 448.055   8
   7  -7  -1 12035.0 980.183   9
   7  -7  -1 13838.4 1028.40   8
   7  -7   0 17996.6 1212.74   9
   7  -7   0 17745.0 1118.25   8
   7  -7   1 7134.04 792.545   9
   7  -7   1 8875.00 786.155   8
   7  -7   2 1165.40 402.920   9
   7  -7   2 1173.90 347.446   8
   7  -7   3 2497.12 531.589   9
   7  -7   4 11639.5 1084.80   9
   7  -7   5 7449.30 915.845   9
   7  -7   6 6863.17 864.644   6
   7  -6  -6 195.518 311.226   8
   7  -6  -5 388.234 338.585   8
   7  -6  -4 5473.58 746.155   8
   7  -6  -3 20180.0 1292.94   8
   7  -6  -2 19998.4 1148.14   9
   7  -6  -2 20083.8 1233.62   8
   7  -6  -1 1128.79 344.911   9
   7  -6  -1 1920.81 440.986   8
   7  -6   0 12297.3 947.555   9
   7  -6   0 13493.9 968.375   8
   7  -6   1 8938.73 830.982   9
   7  -6   1 9655.77 804.946   8
   7  -6   2 15925.3 1116.28   9
   7  -6   2 16428.2 1010.25   8
   7  -6   3 5956.69 726.144   9
   7  -6   3 6401.24 638.730   8
   7  -6   4 1585.97 448.443   9
   7  -6   5 6543.64 805.055   6
   7  -6   6 16097.4 1256.75   6
   7  -6   7 13914.1 1217.84   6
   7  -5  -7 5615.00 791.601   8
   7  -5  -6 5999.90 789.172   8
   7  -5  -5 5156.99 732.901   8
   7  -5  -4 353.025 326.122   8
   7  -5  -3 22860.0 1334.06   8
   7  -5  -2 22098.6 1104.29   9
   7  -5  -2 21585.8 1267.82   8
   7  -5  -1 16274.1 979.768   9
   7  -5  -1 15177.2 1038.41   8
   7  -5   0 303.735 204.123   9
   7  -5   0 177.728 231.866   8
   7  -5   1 947.526 297.511   9
   7  -5   1 1288.64 356.580   8
   7  -5   2 2938.43 496.756   9
   7  -5   2 3942.19 530.314   8
   7  -5   3 16892.4 1004.56   8
   7  -5   4 14412.6 1098.00   6
   7  -5   4 12652.5 860.920   8
   7  -5   5 587.559 333.604   6
   7  -5   6-86.6719 344.392   6
   7  -5   7 811.624 401.308   6
   7  -5   8 2611.84 562.792   6
   7  -4  -7-173.331 296.756   8
   7  -4  -6 932.087 431.650   8
   7  -4  -5 2148.68 480.261   8
   7  -4  -4 13938.2 1057.96   8
   7  -4  -3 5443.21 673.675   8
   7  -4  -2 8110.88 622.995   9
   7  -4  -2 7241.17 746.948   8
   7  -4  -1 13140.4 812.580   9
   7  -4  -1 13171.3 950.898   8
   7  -4   0 12225.3 806.204   9
   7  -4   0 11928.8 896.311   8
   7  -4   1 2756.28 433.936   9
   7  -4   1 2679.30 451.903   8
   7  -4   2 15412.0 959.496   8
   7  -4   3 4331.64 539.348   8
   7  -4   4 12136.7 982.753   6
   7  -4   4 11501.1 839.238   8
   7  -4   5 12502.8 1006.39   6
   7  -4   5 11958.2 859.440   8
   7  -4   6 12840.7 1060.68   6
   7  -4   6 12489.1 876.974   8
   7  -4   7 6598.59 809.845   6
   7  -4   8 4993.06 735.733   6
   7  -4   9 10772.6 1067.29   6
   7  -3  -8 2784.47 598.608   8
   7  -3  -7 6643.44 814.144   8
   7  -3  -6 9958.48 950.914   8
   7  -3  -5 801.645 352.654   8
   7  -3  -4 17895.3 1168.48   8
   7  -3  -3 11346.4 917.797   8
   7  -3  -2 17234.8 788.733   9
   7  -3  -2 15258.2 1024.65   8
   7  -3  -1 11502.4 687.259   9
   7  -3  -1 11401.9 887.849   8
   7  -3   0 9611.45 662.038   9
   7  -3   0 9737.55 806.410   8
   7  -3   1 1700.76 335.157   9
   7  -3   1 1448.20 380.088   8
   7  -3   2 16091.9 987.958   8
   7  -3   3 27186.5 1269.07   8
   7  -3   4 9531.27 866.134   6
   7  -3   4 9164.43 770.503   8
   7  -3   5 1128.38 413.016   6
   7  -3   5 1440.62 368.790   8
   7  -3   6 1666.68 457.195   6
   7  -3   6 1443.77 356.861   8
   7  -3   7 5465.66 733.713   6
   7  -3   8 8331.60 883.265   6
   7  -3   9 2618.24 579.900   6
   7  -3  10 1397.55 467.181   6
   7  -2  -8-7.27983 248.601   8
   7  -2  -7 6862.40 821.395   8
   7  -2  -6 4484.07 644.368   8
   7  -2  -5 17494.0 1170.65   8
   7  -2  -4 5024.29 641.260   8
   7  -2  -3 12261.6 935.359   8
   7  -2  -2 2964.15 488.571   8
   7  -2  -1 21985.5 834.302   9
   7  -2  -1 21165.8 1148.01   8
   7  -2   0 27034.1 994.992   9
   7  -2   0 26343.6 1252.23   8
   7  -2   0 26821.5 832.198   4
   7  -2   1 17190.1 1019.17   8
   7  -2   1 18170.1 728.272   4
   7  -2   2 3681.87 359.899   4
   7  -2   2 3532.62 521.390   8
   7  -2   3 846.979 341.369   8
   7  -2   4 1379.81 394.953   6
   7  -2   4 1126.31 346.073   8
   7  -2   5 49332.4 1833.21   6
   7  -2   6 6486.84 711.860   6
   7  -2   7 7021.71 771.156   6
   7  -2   8 2883.25 564.460   6
   7  -2   9 5729.09 779.871   6
   7  -2  10 9132.75 983.992   6
   7  -1  -8 7648.26 862.508   8
   7  -1  -7 3353.84 588.595   8
   7  -1  -6 564.978 298.276   8
   7  -1  -5 4070.46 588.092   8
   7  -1  -4 18591.4 1136.56   8
   7  -1  -3 16836.9 1062.52   8
   7  -1  -3 18429.0 868.748   4
   7  -1  -2 16163.8 1026.40   8
   7  -1  -2 17972.0 819.711   4
   7  -1  -1 10292.7 492.542   9
   7  -1  -1 9571.94 801.453   8
   7  -1  -1 10472.9 606.272   4
   7  -1   0 5503.03 418.097   9
   7  -1   0 5019.78 582.507   8
   7  -1   0 5941.21 467.236   4
   7  -1   1 35406.3 1461.30   8
   7  -1   1 38255.7 1138.69   4
   7  -1   2 16466.7 1000.67   8
   7  -1   2 16960.7 794.599   4
   7  -1   3 32610.0 1382.46   8
   7  -1   3 32671.2 1139.47   4
   7  -1   4 6704.05 686.832   6
   7  -1   4 6458.78 542.925   4
   7  -1   5 2908.44 504.635   6
   7  -1   6 26727.8 1356.39   6
   7  -1   7 20795.7 1241.33   6
   7  -1   8 7634.74 810.817   6
   7  -1   9 2364.48 518.724   6
   7  -1  10 138.519 277.557   6
   7  -1  11 3189.42 635.477   6
   7   0  -7 3787.99 585.151   8
   7   0  -6 3510.68 564.859   8
   7   0  -5 2021.04 400.572   4
   7   0  -5 1832.31 431.256   8
   7   0  -4 816.574 272.830   4
   7   0  -4 997.791 327.683   8
   7   0  -3 4439.49 565.279   8
   7   0  -3 4604.13 512.811   4
   7   0  -2 24067.8 1226.50   8
   7   0  -2 26416.5 1091.07   4
   7   0  -1 25545.7 1234.19   8
   7   0  -1 27833.5 1088.35   4
   7   0   0 10015.8 794.588   8
   7   0   0 10596.9 671.217   4
   7   0   1 2312.32 355.255   4
   7   0   1 2479.55 485.732   8
   7   0   2 13518.2 918.462   8
   7   0   2 12995.5 739.859   4
   7   0   3 46773.5 1427.23   4
   7   0   4 29667.0 1294.82   6
   7   0   4 29305.0 1178.63   4
   7   0   5 3429.39 513.491   6
   7   0   5 3297.09 454.059   4
   7   0   6 6439.52 676.249   6
   7   0   7 1925.55 458.696   6
   7   0   8 19091.3 1193.32   6
   7   0   9 9814.77 913.352   6
   7   0  10 5518.80 738.285   6
   7   0  11 4817.47 742.047   6
   7   1  -7 811.179 453.970   1
   7   1  -6 892.526 415.660   1
   7   1  -6 1307.80 375.220   8
   7   1  -5 10068.7 854.806   4
   7   1  -5 11282.5 1017.39   1
   7   1  -5 11382.4 883.906   8
   7   1  -4 29349.6 1362.09   4
   7   1  -4 29306.8 1369.19   8
   7   1  -3 18798.8 1075.72   8
   7   1  -3 19186.8 1047.09   4
   7   1  -2 4182.29 539.604   8
   7   1  -2 3866.76 481.218   4
   7   1  -1 7587.28 697.894   8
   7   1  -1 7702.22 639.397   4
   7   1   0 22866.1 1162.98   8
   7   1   0 22197.5 1025.44   4
   7   1   1 34574.3 1433.76   8
   7   1   1 31858.8 1206.71   4
   7   1   2 42490.4 1404.54   4
   7   1   3 911.685 314.130   4
   7   1   4 48221.1 1597.51   6
   7   1   4 47562.4 1544.30   4
   7   1   5 27598.6 1242.18   6
   7   1   5 26135.4 1204.56   4
   7   1   6 16828.0 1005.03   6
   7   1   6 15829.5 988.505   4
   7   1   7 10260.1 836.234   6
   7   1   7 10202.7 817.641   4
   7   1   8 8327.96 793.048   6
   7   1   9 4613.54 635.319   6
   7   1  10 14193.5 1107.94   6
   7   1  11 5879.71 771.914   6
   7   2  -7 7426.57 937.097   1
   7   2  -6 6089.98 815.905   1
   7   2  -5 9948.51 911.374   4
   7   2  -5 9849.48 962.862   1
   7   2  -5 9471.05 792.928   8
   7   2  -4 15624.2 1072.44   4
   7   2  -4 15672.4 1127.19   1
   7   2  -4 16192.0 1007.45   8
   7   2  -3 17175.5 1101.51   1
   7   2  -3 17672.3 1030.36   8
   7   2  -3 17463.6 1074.21   4
   7   2  -2 12600.7 864.059   8
   7   2  -2 13081.3 909.339   4
   7   2  -1 13642.7 900.917   8
   7   2  -1 13752.9 894.107   4
   7   2   0 10395.6 801.659   8
   7   2   0 11923.0 822.423   4
   7   2   1 2137.96 397.090   4
   7   2   1 2712.14 454.822   8
   7   2   2 27842.7 1220.08   4
   7   2   3 18817.7 1009.85   4
   7   2   4 3393.78 439.120   6
   7   2   4 3618.79 505.890   4
   7   2   5 1158.59 364.666   4
   7   2   5 1106.62 315.543   6
   7   2   6 3853.01 539.698   4
   7   2   6 3746.83 501.124   6
   7   2   7 7481.64 691.414   6
   7   2   7 6852.03 714.841   4
   7   2   8 21803.0 1187.94   6
   7   2   8 19642.2 1187.33   4
   7   2   9 6062.73 686.165   6
   7   2  10 1224.65 388.703   6
   7   2  11 2280.20 527.915   6
   7   2  12 1926.66 530.576   6
   7   3  -6 5299.16 766.879   4
   7   3  -6 5443.70 789.341   1
   7   3  -5 17517.2 1250.49   4
   7   3  -5 17566.2 1278.53   1
   7   3  -4 26585.5 1463.52   4
   7   3  -4 29494.7 1559.91   1
   7   3  -3 8551.84 808.222   1
   7   3  -3 9119.53 737.232   8
   7   3  -3 7851.11 781.931   4
   7   3  -2 1713.66 413.016   4
   7   3  -2 1401.28 354.789   1
   7   3  -2 1664.30 386.912   8
   7   3  -1 19271.9 1056.74   8
   7   3  -1 18689.5 1096.84   4
   7   3   0 40443.0 1524.76   8
   7   3   0 37931.4 1529.49   4
   7   3   1 17639.2 1049.26   4
   7   3   2 29042.9 1292.87   4
   7   3   3 4979.44 594.295   4
   7   3   4 10109.2 799.818   4
   7   3   5 29858.9 1184.16   6
   7   3   5 26689.1 1278.44   4
   7   3   6 7567.85 636.924   6
   7   3   6 7813.75 761.459   4
   7   3   7 13775.7 884.468   6
   7   3   7 13136.1 992.513   4
   7   3   8 2885.53 530.764   4
   7   3   8 2766.63 463.251   6
   7   3   9 13141.3 946.140   6
   7   3  10 7321.74 777.122   6
   7   3  11 2921.49 546.045   6
   7   3  12 762.868 376.592   6
   7   4  -6 525.128 334.325   4
   7   4  -6 1168.22 467.785   1
   7   4  -5 1693.38 477.817   4
   7   4  -5 1532.15 480.600   1
   7   4  -4 14696.8 1167.75   4
   7   4  -4 8603.58 873.756   1
   7   4  -3 17626.7 1157.73   1
   7   4  -3 16617.9 1182.58   4
   7   4  -2 31345.9 1409.31   1
   7   4  -2 30923.6 1299.58   8
   7   4  -2 31270.5 1540.22   4
   7   4  -1 3464.66 574.691   4
   7   4  -1 3138.03 454.639   8
   7   4  -1 2954.37 423.653   1
   7   4   0 11069.2 816.099   8
   7   4   0 10473.2 875.681   4
   7   4   1 45339.6 1745.41   4
   7   4   2 6520.25 686.878   4
   7   4   3 22485.2 1219.38   4
   7   4   4 36322.7 1561.04   4
   7   4   5 2509.41 503.154   4
   7   4   6 19197.7 960.933   6
   7   4   6 18987.4 1181.43   4
   7   4   7 19151.3 993.519   6
   7   4   7 18855.5 1213.36   4
   7   4   8 6189.31 617.430   6
   7   4   8 5931.91 723.000   4
   7   4   9 6174.16 649.630   6
   7   4   9 5748.26 738.781   4
   7   4  10 1508.63 383.267   6
   7   4  10 2001.71 407.365   2
   7   4  11 2726.54 512.276   6
   7   4  12 3160.45 585.815   6
   7   5  -5 3793.38 682.395   1
   7   5  -5 4335.16 741.031   4
   7   5  -4 3105.16 593.357   4
   7   5  -4 3551.81 635.028   1
   7   5  -3 5044.51 669.317   1
   7   5  -3 5414.54 759.349   4
   7   5  -2 4841.81 698.329   4
   7   5  -1 19962.7 1049.52   8
   7   5  -1 20008.9 1267.64   4
   7   5   0 15427.2 956.608   8
   7   5   0 14845.1 1091.50   4
   7   5   1 13234.9 1012.70   4
   7   5   2 2576.61 519.910   4
   7   5   3 16703.9 1111.01   4
   7   5   4 37149.7 1643.23   4
   7   5   5 41792.1 1766.97   4
   7   5   6 2675.78 537.505   4
   7   5   6 3179.78 392.916   6
   7   5   7 2969.85 545.146   4
   7   5   7 2935.55 403.670   6
   7   5   8 6133.33 585.639   6
   7   5   8 6376.79 782.751   4
   7   5   9 7204.97 677.379   6
   7   5   9 7237.93 846.635   4
   7   5  10 5972.53 649.840   6
   7   5  10 5986.60 711.077   2
   7   5  10 6799.29 846.673   4
   7   5  11 2900.66 511.330   6
   7   5  12 2230.84 484.580   6
   7   6  -3 8077.04 945.936   4
   7   6  -2 3929.84 659.699   4
   7   6  -1 980.080 399.771   4
   7   6   0 7934.45 855.676   4
   7   6   1 21792.4 1354.82   4
   7   6   2 30529.0 1577.45   4
   7   6   3 5978.97 728.247   4
   7   6   4 7512.68 815.175   4
   7   6   5 11345.5 988.600   4
   7   6   6 31239.2 1610.41   4
   7   6   7 16763.0 1215.11   4
   7   6   8 3615.44 651.759   4
   7   6   9 2540.86 579.190   4
   7   6  10 8226.81 943.743   4
   7   6  11 1757.31 446.716   2
   7   7  -2 2102.73 586.784   4
   7   7  -1 6212.78 854.290   4
   7   7   0 4139.39 701.056   4
   7   7   1 1202.30 460.808   4
   7   7   2 9136.84 943.071   4
   7   7   3 11413.6 1014.18   4
   7   7   4 8079.27 892.293   4
   7   7   5 5478.59 763.072   4
   7   7   6 1428.98 462.457   4
   7   7   7 6767.16 822.622   4
   7   7   8 7763.35 902.164   4
   7   7   9 13828.6 1222.56   4
   7   7  10 5172.03 788.572   4
   7   7  11 1696.94 495.929   2
   7   8  -1 3239.12 664.393   4
   7   8   0 16031.0 1319.13   4
   7   8   1 22034.0 1511.51   4
   7   8   2 4366.22 722.197   4
   7   8   3 705.920 388.390   4
   7   8   4 3952.56 671.693   4
   7   8   5 11084.5 1070.95   4
   7   8   6 15417.3 1239.71   4
   7   8   7 2710.07 580.348   4
   7   8   8 2513.76 615.381   4
   7   8   9 8923.58 1045.58   4
   7   8  10 7183.54 928.805   4
   7   9   2 7598.14 949.650   4
   7   9   3 5893.12 831.117   4
   7   9   4 5879.72 854.963   4
   7   9   5-146.784 376.367   4
   7   9   6 2705.99 634.567   4
   7   9   7 989.707 454.408   4
   7   9   8 1148.05 465.883   4
   8  -8  -3 5563.80 792.347   8
   8  -8  -2 1614.49 451.018   9
   8  -8  -2 1721.03 474.904   8
   8  -8  -1 1863.46 475.668   9
   8  -8  -1 1862.54 457.933   8
   8  -8   0 5018.17 731.533   9
   8  -8   0 5584.19 713.803   8
   8  -8   1 7063.86 867.066   9
   8  -8   2 5988.14 816.388   9
   8  -7  -4 3793.40 703.365   8
   8  -7  -3-57.1976 254.250   8
   8  -7  -2 1185.99 387.973   9
   8  -7  -2 1021.16 397.311   8
   8  -7  -1 9462.94 906.237   9
   8  -7  -1 9748.94 935.955   8
   8  -7   0 3657.68 599.955   9
   8  -7   0 4069.44 612.486   8
   8  -7   1 6522.85 792.401   9
   8  -7   1 5432.63 670.277   8
   8  -7   2 1548.33 435.509   9
   8  -7   2 2140.42 437.396   8
   8  -7   3 3322.57 632.064   9
   8  -7   4 6053.84 815.121   9
   8  -6  -5 3239.67 643.350   8
   8  -6  -4 18192.2 1356.90   8
   8  -6  -3 6803.71 832.438   8
   8  -6  -2 4894.69 604.917   9
   8  -6  -2 4676.29 679.047   8
   8  -6  -1 250.386 278.319   9
   8  -6  -1-33.4885 285.520   8
   8  -6   0 6908.57 749.589   9
   8  -6   0 7406.10 804.668   8
   8  -6   1 8540.64 839.763   9
   8  -6   1 9905.76 889.850   8
   8  -6   2 9132.93 899.958   9
   8  -6   2 9264.70 841.376   8
   8  -6   3 3459.61 602.979   9
   8  -6   3 3135.85 490.418   8
   8  -6   4 2993.34 574.217   9
   8  -6   5 4925.72 742.795   9
   8  -6   6 3074.73 619.715   6
   8  -5  -5 4948.72 749.564   8
   8  -5  -4 8737.97 936.752   8
   8  -5  -3 7619.26 842.453   8
   8  -5  -2 5848.70 732.973   8
   8  -5  -1 7953.05 719.827   9
   8  -5  -1 7563.85 800.759   8
   8  -5   0 8782.82 780.492   9
   8  -5   0 9078.83 850.424   8
   8  -5   1 1182.90 368.046   9
   8  -5   1 1300.60 385.738   8
   8  -5   2 2307.28 460.676   9
   8  -5   2 2517.40 480.624   8
   8  -5   3 6961.14 769.099   9
   8  -5   3 6578.99 712.466   8
   8  -5   4 7755.29 751.672   8
   8  -5   5 2002.53 402.740   8
   8  -5   6 2136.67 548.515   6
   8  -5   7 3126.44 624.691   6
   8  -4  -6 6379.52 851.441   8
   8  -4  -5 5427.94 770.704   8
   8  -4  -4 2811.86 555.711   8
   8  -4  -3 1893.47 484.724   8
   8  -4  -2 1070.51 375.447   8
   8  -4  -1 11368.3 786.130   9
   8  -4  -1 10299.0 915.144   8
   8  -4   0 13587.4 883.585   9
   8  -4   0 13718.3 1015.44   8
   8  -4   1 22261.4 1163.14   9
   8  -4   1 22179.2 1269.45   8
   8  -4   2 9133.15 798.786   9
   8  -4   2 10257.2 862.820   8
   8  -4   3 1524.16 380.418   8
   8  -4   4 5703.39 660.539   8
   8  -4   5 18846.1 1299.83   6
   8  -4   5 17173.1 1097.50   8
   8  -4   6 19793.5 1372.80   6
   8  -4   6 19579.9 1184.84   8
   8  -4   7 1703.53 474.093   6
   8  -4   8 168.521 368.755   6
   8  -3  -6 2562.88 571.670   8
   8  -3  -5 394.798 363.674   8
   8  -3  -4 6695.19 795.569   8
   8  -3  -3 6217.96 742.726   8
   8  -3  -2 10123.4 911.606   8
   8  -3  -1 15447.0 1091.68   8
   8  -3   0 8357.15 646.474   9
   8  -3   0 8540.66 813.111   8
   8  -3   1 24029.2 1135.21   9
   8  -3   1 21643.7 1252.32   8
   8  -3   2 21571.7 1234.01   8
   8  -3   3 11123.7 902.754   8
   8  -3   4 7451.35 740.619   8
   8  -3   5 1315.43 431.183   6
   8  -3   5 1362.22 393.592   8
   8  -3   6 7242.75 836.247   6
   8  -3   6 6824.43 727.972   8
   8  -3   7 7274.69 873.880   6
   8  -3   7 7081.86 750.123   8
   8  -3   8 5514.16 795.206   6
   8  -3   9 1193.99 450.096   6
   8  -2  -7 3921.34 669.480   8
   8  -2  -6 1720.85 491.425   8
   8  -2  -5 3739.17 622.476   8
   8  -2  -4 5452.77 710.752   8
   8  -2  -3 1084.85 365.837   8
   8  -2  -2 10834.6 935.491   8
   8  -2  -1 10236.7 883.635   8
   8  -2   0 24957.7 991.815   9
   8  -2   0 22756.1 1272.90   8
   8  -2   1 1932.52 439.161   8
   8  -2   2 211.559 153.205   4
   8  -2   2 354.663 311.532   8
   8  -2   3 7306.34 751.678   8
   8  -2   4 29638.1 1452.48   8
   8  -2   5 15798.0 1126.08   6
   8  -2   5 15970.6 1086.49   8
   8  -2   6 8276.85 868.222   6
   8  -2   7 3232.50 590.766   6
   8  -2   8 1065.74 441.627   6
   8  -2   9 6035.65 813.817   6
   8  -2  10 7332.49 934.304   6
   8  -1  -7 2851.84 568.947   8
   8  -1  -6 69.8531 253.644   8
   8  -1  -5 2036.99 473.444   8
   8  -1  -4 2834.66 531.337   8
   8  -1  -3 15493.6 1099.43   8
   8  -1  -2 9850.83 881.152   8
   8  -1  -1 3824.04 573.540   8
   8  -1   0 3985.71 425.774   4
   8  -1   0 3309.14 538.256   8
   8  -1   1 22384.7 1259.51   8
   8  -1   1 24732.2 981.463   4
   8  -1   2 32873.3 1525.24   8
   8  -1   2 34640.1 1213.17   4
   8  -1   3 3968.48 585.341   8
   8  -1   3 2951.77 395.222   4
   8  -1   4 9592.91 850.767   8
   8  -1   4 9354.98 686.711   4
   8  -1   5 2800.09 523.047   6
   8  -1   6 3794.61 596.068   6
   8  -1   7 18058.4 1218.76   6
   8  -1   8 5530.90 730.641   6
   8  -1   9 2174.04 542.076   6
   8  -1  10 5216.06 766.612   6
   8   0  -6 3606.09 592.734   8
   8   0  -5 11317.8 978.331   8
   8   0  -4 402.880 315.228   8
   8   0  -3 6046.19 694.457   8
   8   0  -2 9186.21 842.005   8
   8   0  -2 9618.49 718.163   4
   8   0  -1 29686.2 1436.01   8
   8   0  -1 32220.6 1246.57   4
   8   0   0 24968.2 1321.57   8
   8   0   0 24457.8 1074.00   4
   8   0   1 7573.70 764.666   8
   8   0   1 7163.79 594.439   4
   8   0   2 11288.7 914.338   8
   8   0   2 12170.5 766.487   4
   8   0   3 61101.3 2034.76   8
   8   0   3 59714.0 1718.25   4
   8   0   4 11653.5 804.181   4
   8   0   5 22929.7 1263.74   6
   8   0   5 21693.1 1116.57   4
   8   0   6 2745.04 441.124   4
   8   0   6 3741.61 582.046   6
   8   0   7 753.708 355.189   6
   8   0   8 24621.2 1417.15   6
   8   0   9 23619.9 1439.23   6
   8   0  10 4092.32 687.296   6
   8   0  11 2886.01 616.139   6
   8   1  -5 11851.1 972.118   8
   8   1  -4 14016.8 1043.25   8
   8   1  -4 14542.5 1020.77   4
   8   1  -3 2060.75 422.501   4
   8   1  -3 1639.86 408.785   8
   8   1  -2 3062.32 506.300   8
   8   1  -2 3884.65 524.754   4
   8   1  -1 8360.64 784.712   8
   8   1  -1 8334.86 710.665   4
   8   1   0 49749.8 1851.34   8
   8   1   0 50894.3 1642.11   4
   8   1   1 23127.5 1282.02   8
   8   1   1 24431.3 1147.04   4
   8   1   2 8368.25 799.517   8
   8   1   2 6993.59 649.481   4
   8   1   3 4941.26 560.678   4
   8   1   4 5609.38 607.264   4
   8   1   5 15338.8 1010.52   6
   8   1   5 14913.7 965.768   4
   8   1   6 5314.90 635.390   6
   8   1   6 4671.23 591.990   4
   8   1   7 3973.94 579.199   6
   8   1   7 3556.53 530.781   4
   8   1   8 5989.41 711.688   6
   8   1   9 7003.80 790.370   6
   8   1  10 14904.6 1180.44   6
   8   1  11 212.124 330.427   6
   8   2  -5 710.917 360.993   4
   8   2  -4 5660.48 666.196   8
   8   2  -4 4860.60 663.373   4
   8   2  -3 8102.03 770.446   8
   8   2  -3 8032.86 777.499   4
   8   2  -2 13067.1 960.469   8
   8   2  -2 12733.3 948.438   4
   8   2  -1 11216.9 885.685   8
   8   2  -1 11003.3 857.310   4
   8   2   0 2307.74 457.464   4
   8   2   0 2304.56 458.174   8
   8   2   1 9313.23 824.018   8
   8   2   1 8880.24 760.127   4
   8   2   2 9895.02 789.956   4
   8   2   3 8945.35 759.762   4
   8   2   4 39890.1 1563.70   4
   8   2   5 22167.4 1148.50   6
   8   2   5 21172.9 1181.08   4
   8   2   6 6984.39 695.447   6
   8   2   6 6781.41 722.116   4
   8   2   7 22509.7 1236.23   6
   8   2   7 20216.1 1224.21   4
   8   2   8 16904.2 1126.73   6
   8   2   8 14630.6 1081.69   4
   8   2   9 8122.18 826.398   6
   8   2  10 2970.31 564.297   6
   8   2  11 2494.58 537.923   6
   8   3  -5 1626.21 457.479   4
   8   3  -5 1293.45 450.618   1
   8   3  -4 1687.52 461.334   4
   8   3  -3 9257.80 813.016   8
   8   3  -3 8313.89 843.166   4
   8   3  -2 1486.62 405.585   4
   8   3  -2 1432.05 384.402   8
   8   3  -1 10559.8 851.475   8
   8   3  -1 10565.0 900.213   4
   8   3   0 22438.4 1240.51   8
   8   3   0 21200.0 1218.10   4
   8   3   1 20151.0 1186.59   8
   8   3   1 19603.5 1142.76   4
   8   3   2 11883.9 903.766   4
   8   3   3 492.679 310.351   4
   8   3   4 17390.5 1089.82   4
   8   3   5 43450.8 1714.48   4
   8   3   6 26249.0 1234.10   6
   8   3   6 23163.1 1322.19   4
   8   3   7 733.934 385.337   4
   8   3   7 993.711 323.376   6
   8   3   8 4255.15 639.080   4
   8   3   8 4448.41 582.044   6
   8   3   9 18310.5 1169.20   6
   8   3   9 16117.8 1197.66   4
   8   3  10 12762.5 1032.87   6
   8   3  11 1628.62 457.687   6
   8   3  12 309.572 279.962   6
   8   4  -4 4461.61 712.133   4
   8   4  -4 4347.80 671.572   1
   8   4  -3 11041.3 1020.16   4
   8   4  -2 15247.8 1007.25   8
   8   4  -2 16031.8 1184.85   4
   8   4  -1 1694.76 465.117   4
   8   4  -1 1411.99 353.801   8
   8   4   0 6284.70 679.879   8
   8   4   0 5769.45 708.856   4
   8   4   1 16960.2 1091.11   8
   8   4   1 16450.5 1129.52   4
   8   4   2 25790.3 1359.18   4
   8   4   3 11563.3 950.187   4
   8   4   4 20047.7 1234.77   4
   8   4   5 5540.96 697.716   4
   8   4   6 15889.4 928.310   6
   8   4   6 12958.3 1027.09   4
   8   4   7 11325.1 825.168   6
   8   4   7 10012.9 943.391   4
   8   4   8 2000.97 487.985   4
   8   4   8 2447.05 439.022   6
   8   4   9 3776.91 639.006   4
   8   4   9 4327.84 584.067   6
   8   4  10 3089.05 529.708   6
   8   4  11 2060.21 474.097   6
   8   4  12 2889.24 555.054   6
   8   5  -3 834.677 422.489   4
   8   5  -2 2272.08 533.597   4
   8   5  -1 8297.49 897.648   4
   8   5   0 14710.1 1005.31   8
   8   5   0 12514.6 1065.04   4
   8   5   1 3924.53 629.103   4
   8   5   1 4506.25 595.059   8
   8   5   2 3513.86 569.440   4
   8   5   3 28080.0 1497.28   4
   8   5   4 1790.44 470.312   4
   8   5   5 26158.3 1474.38   4
   8   5   6 17199.1 1198.13   4
   8   5   7 5570.31 770.002   4
   8   5   8 12897.5 1127.54   4
   8   5   9 16469.7 1290.92   4
   8   5  10 3566.54 649.818   4
   8   6  -2 1079.56 450.077   4
   8   6  -1 4248.31 706.268   4
   8   6   0 3018.83 617.673   4
   8   6   1 11991.4 934.406   8
   8   6   1 11688.5 1063.95   4
   8   6   2 8815.27 914.191   4
   8   6   3 1400.06 431.492   4
   8   6   4 157.410 319.933   4
   8   6   5 6658.43 840.000   4
   8   6   6 17205.9 1250.37   4
   8   6   7 11489.8 1066.73   4
   8   6   8 1908.92 519.083   4
   8   6   9 1813.64 536.376   4
   8   6  10 2867.32 633.103   4
   8   7  -1 10458.8 1110.03   4
   8   7   0 1010.03 426.479   4
   8   7   1 6035.16 823.178   4
   8   7   2 8330.00 939.675   4
   8   7   3 8234.99 932.303   4
   8   7   4 15260.5 1241.93   4
   8   7   5 4854.82 737.105   4
   8   7   6 8538.29 963.648   4
   8   7   7 5904.29 816.689   4
   8   7   8 15773.7 1318.13   4
   8   7   9 10026.3 1088.76   4
   8   8   1 8121.24 1009.73   4
   8   8   2 1858.21 525.743   4
   8   8   3 954.895 462.447   4
   8   8   4 1640.65 511.302   4
   8   8   5 5526.99 834.472   4
   8   8   6 4377.08 758.135   4
   8   8   7 968.832 454.335   4
   8   8   8 378.921 433.592   4
   9  -8  -1 63.8238 237.193   9
   9  -8   0 299.224 283.996   8
   9  -7  -1 1531.57 468.041   8
   9  -7   0 1383.30 429.851   9
   9  -7   0 1301.95 413.691   8
   9  -7   1 3816.20 645.022   9
   9  -7   1 3828.42 630.913   8
   9  -7   2 355.347 287.538   9
   9  -7   3 2866.67 605.443   9
   9  -6  -3 803.139 420.427   8
   9  -6  -2 477.379 305.689   8
   9  -6  -1 31.3759 237.861   8
   9  -6   0 929.784 339.027   9
   9  -6   0 1089.49 388.839   8
   9  -6   1 7845.36 832.435   9
   9  -6   1 8161.08 864.702   8
   9  -6   2 5009.49 718.056   9
   9  -6   2 4849.55 677.289   8
   9  -6   3 1212.66 443.245   9
   9  -6   3 1642.83 427.348   8
   9  -6   4 824.481 421.475   9
   9  -6   5 3910.42 697.279   9
   9  -5  -4 914.825 404.146   8
   9  -5  -3 3272.93 626.633   8
   9  -5  -2 3619.44 642.840   8
   9  -5  -1 4670.10 706.582   8
   9  -5   0 6450.48 697.200   9
   9  -5   0 5886.45 761.500   8
   9  -5   1 900.709 329.343   9
   9  -5   1 419.908 308.772   8
   9  -5   2 5640.70 701.441   9
   9  -5   2 5178.26 701.535   8
   9  -5   3 13899.2 1103.54   9
   9  -5   3 13027.6 1041.15   8
   9  -5   4 5204.49 727.811   9
   9  -5   4 4697.96 645.643   8
   9  -5   5 4584.63 634.863   8
   9  -4  -4 4409.37 714.853   8
   9  -4  -3 1709.07 486.047   8
   9  -4  -2 3290.09 618.789   8
   9  -4  -1 6243.90 765.732   8
   9  -4   0 20278.2 1326.58   8
   9  -4   1 14192.3 970.694   9
   9  -4   1 14107.6 1100.78   8
   9  -4   2 10147.1 870.311   9
   9  -4   2 10447.7 955.830   8
   9  -4   3 727.381 333.126   8
   9  -4   4 17670.6 1207.42   8
   9  -4   5 16468.4 1165.62   8
   9  -4   6 13131.9 1186.40   6
   9  -4   6 12389.2 1013.36   8
   9  -4   7 497.803 391.073   6
   9  -3  -5 735.215 369.432   8
   9  -3  -4 4335.86 714.553   8
   9  -3  -3 2864.23 587.861   8
   9  -3  -2 4654.79 695.568   8
   9  -3  -1 955.390 407.080   8
   9  -3   0 1252.91 403.988   8
   9  -3   1 11154.3 805.655   9
   9  -3   1 11438.6 994.834   8
   9  -3   2 7385.02 704.295   9
   9  -3   2 8147.39 841.760   8
   9  -3   3 10746.0 950.328   8
   9  -3   4 1372.15 448.714   8
   9  -3   5 4972.25 682.797   8
   9  -3   6 8708.58 955.973   6
   9  -3   6 8186.70 844.398   8
   9  -3   7 7146.55 898.993   6
   9  -3   7 3942.53 605.508   8
   9  -3   8 14036.3 1243.96   6
   9  -2  -5 8255.73 936.568   8
   9  -2  -4 4406.69 702.372   8
   9  -2  -3 888.493 409.785   8
   9  -2  -2 2621.89 564.712   8
   9  -2  -1 6615.63 786.735   8
   9  -2   0 12674.1 1040.61   8
   9  -2   1 9607.73 909.297   8
   9  -2   2 4451.31 645.343   8
   9  -2   3 40598.3 1809.04   8
   9  -2   4 7189.44 810.686   8
   9  -2   5 11578.7 999.283   8
   9  -2   6 6432.28 802.164   6
   9  -2   6 6222.02 757.511   8
   9  -2   7 4571.37 726.077   6
   9  -2   7 3575.93 607.853   8
   9  -2   8 3024.46 615.219   6
   9  -2   9 17284.4 1379.14   6
   9  -1  -5 1337.02 408.422   8
   9  -1  -4 8174.38 894.437   8
   9  -1  -3 1454.45 428.927   8
   9  -1  -2 4702.10 676.513   8
   9  -1  -1 1288.90 415.360   8
   9  -1   0 5549.43 710.339   8
   9  -1   1 9417.54 890.506   8
   9  -1   2 13369.0 1060.26   8
   9  -1   3 2959.55 422.433   4
   9  -1   3 3018.84 562.920   8
   9  -1   4 7511.32 645.417   4
   9  -1   4 7761.37 820.692   8
   9  -1   5 1763.77 459.712   8
   9  -1   6 10602.2 979.698   6
   9  -1   7 12729.8 1105.63   6
   9  -1   8 7138.69 874.158   6
   9  -1   9 2399.02 572.921   6
   9   0  -6 10764.1 1039.80   8
   9   0  -5 2733.18 561.596   8
   9   0  -4 215.145 287.158   8
   9   0  -3 3139.80 587.845   8
   9   0  -2 3062.16 565.217   8
   9   0  -1 23798.4 1394.48   8
   9   0   0 16610.6 1166.50   8
   9   0   0 16586.1 952.151   4
   9   0   1 5763.15 726.056   8
   9   0   1 6067.69 596.287   4
   9   0   2 6566.45 772.426   8
   9   0   2 6741.67 619.035   4
   9   0   3 18010.1 1230.52   8
   9   0   3 16476.8 977.302   4
   9   0   4 31934.9 1610.30   8
   9   0   4 29283.9 1318.22   4
   9   0   5 8042.75 731.639   4
   9   0   6 292.663 252.433   4
   9   0   6 592.115 308.830   6
   9   0   7 2072.05 492.152   6
   9   0   8 11618.8 1040.75   6
   9   0   9 12802.5 1133.84   6
   9   0  10 364.840 375.365   6
   9   1  -5 6133.78 775.381   8
   9   1  -4 2511.58 515.776   8
   9   1  -3 3952.84 625.371   8
   9   1  -2 901.097 317.718   4
   9   1  -2 1058.41 383.192   8
   9   1  -1 6506.73 763.283   8
   9   1  -1 6636.47 678.515   4
   9   1   0 9402.18 891.967   8
   9   1   0 9181.15 761.779   4
   9   1   1 13083.9 1048.27   8
   9   1   1 13167.1 904.914   4
   9   1   2 5412.75 698.124   8
   9   1   2 4983.56 577.467   4
   9   1   3 1477.93 357.752   4
   9   1   3 1874.87 471.925   8
   9   1   4 746.228 292.541   4
   9   1   5 31658.1 1473.88   4
   9   1   6 18246.7 1192.43   6
   9   1   6 18532.0 1169.03   4
   9   1   7 8653.69 866.280   6
   9   1   7 7243.00 763.401   4
   9   1   8 1032.34 388.887   6
   9   1   9 53.2343 273.679   6
   9   1  10 10733.8 1055.53   6
   9   2  -4 1052.66 364.030   8
   9   2  -3 2630.58 511.356   4
   9   2  -3 2721.71 521.050   8
   9   2  -2 4564.13 633.832   8
   9   2  -2 5101.76 655.232   4
   9   2  -1 2575.67 493.036   4
   9   2  -1 2383.62 499.226   8
   9   2   0 1817.13 417.935   4
   9   2   0 1479.69 403.062   8
   9   2   1 2703.06 476.476   4
   9   2   1 2475.78 523.920   8
   9   2   2 19398.1 1253.12   8
   9   2   2 18026.4 1116.05   4
   9   2   3 12618.1 940.805   4
   9   2   4 14940.7 1017.58   4
   9   2   5 8770.28 826.594   4
   9   2   6 6740.02 761.043   4
   9   2   7 15174.7 1074.81   6
   9   2   7 14003.9 1084.09   4
   9   2   8 12265.0 1031.05   6
   9   2   8 11891.8 1016.58   4
   9   2   9 14672.2 1135.23   6
   9   2  10 13294.8 1134.52   6
   9   2  11 1514.13 496.432   6
   9   3  -4 2961.03 572.425   4
   9   3  -3 1882.72 510.900   4
   9   3  -2 1498.96 441.771   4
   9   3  -2 1814.41 442.534   8
   9   3  -1 9521.83 874.901   8
   9   3  -1 9499.16 906.655   4
   9   3   0 12546.2 1024.76   8
   9   3   0 12997.7 1024.61   4
   9   3   1 9667.63 903.239   8
   9   3   1 8861.04 842.135   4
   9   3   2 2320.60 490.956   4
   9   3   2 2412.93 518.727   8
   9   3   3 18714.3 1200.47   4
   9   3   4 15383.6 1105.05   4
   9   3   5 16041.4 1124.52   4
   9   3   6 14323.8 1105.36   4
   9   3   7 148.416 317.857   4
   9   3   7 244.637 244.880   6
   9   3   8 6846.22 762.407   6
   9   3   8 6370.69 792.318   4
   9   3   9 17226.1 1202.33   6
   9   3   9 16556.6 1249.48   4
   9   3  10 5836.98 748.376   6
   9   3  11 7450.31 872.011   6
   9   4  -3 3909.77 659.221   4
   9   4  -2 3821.16 660.514   4
   9   4  -1 2843.97 563.051   4
   9   4  -1 2796.37 499.951   8
   9   4   0 1373.10 464.573   4
   9   4   0 1163.64 401.774   8
   9   4   1 6416.74 753.154   8
   9   4   1 6187.53 766.308   4
   9   4   2 13099.0 1060.99   8
   9   4   2 13030.8 1055.99   4
   9   4   3 2452.19 523.719   4
   9   4   4 3212.43 581.840   4
   9   4   5 646.833 350.720   4
   9   4   6 10582.3 993.753   4
   9   4   7 9480.82 959.463   4
   9   4   8 5799.87 657.599   6
   9   4   8 5101.35 750.471   4
   9   4   9 2040.28 538.171   4
   9   4   9 2462.14 494.602   6
   9   4  10 12518.1 1033.96   6
   9   4  10 11442.9 1124.16   4
   9   4  11 5324.50 731.352   6
   9   5  -2 10234.4 1063.46   4
   9   5  -1 10291.9 1046.26   4
   9   5   0 939.860 417.464   4
   9   5   0 995.685 351.124   8
   9   5   1 274.309 361.267   4
   9   5   1 400.109 317.159   8
   9   5   2 6729.76 776.818   8
   9   5   2 5312.28 726.375   4
   9   5   3 2796.53 562.474   4
   9   5   4 4888.95 724.123   4
   9   5   5 5257.22 745.443   4
   9   5   6 5864.25 773.846   4
   9   5   7 5726.72 801.009   4
   9   5   8 8169.95 961.295   4
   9   5   9 6829.83 896.785   4
   9   6   0 4287.17 748.314   4
   9   6   1 3692.61 669.885   4
   9   6   2 9219.68 894.782   8
   9   6   2 7679.96 890.144   4
   9   6   3 3512.27 666.632   4
   9   6   4 76.5328 354.894   4
   9   6   5 10811.3 1070.39   4
   9   6   6 2617.82 613.207   4
   9   6   7 12587.3 1182.54   4
   9   6   8 4551.63 750.456   4
   9   6   9 2380.17 622.745   4
   9   7   2 5515.73 824.424   4
   9   7   3 13887.7 1231.51   4
   9   7   4 7587.73 942.686   4
   9   7   5 934.065 452.902   4
   9   7   6 4449.63 749.046   4
   9   7   7 4569.94 756.714   4
  10  -6   1 4087.63 668.983   8
  10  -6   2 3355.70 594.115   9
  10  -6   2 3478.62 626.295   8
  10  -6   3 1642.21 478.844   9
  10  -6   3 1981.25 483.134   8
  10  -5  -1 5139.81 771.801   8
  10  -5   0 1828.38 508.512   8
  10  -5   1 1257.45 439.984   8
  10  -5   2 4262.30 621.490   9
  10  -5   2 5059.08 744.580   8
  10  -5   3 16687.3 1238.28   9
  10  -5   3 17269.6 1288.39   8
  10  -5   4 4500.52 710.113   9
  10  -5   4 4613.30 676.154   8
  10  -5   5 7151.21 891.534   9
  10  -4  -2 865.082 400.716   8
  10  -4  -1 9550.94 1003.64   8
  10  -4   0 4972.44 741.609   8
  10  -4   1 1332.55 435.234   8
  10  -4   2 58.5620 231.594   9
  10  -4   2 271.734 333.951   8
  10  -4   3 931.073 336.189   9
  10  -4   3 528.960 328.686   8
  10  -4   4 3368.95 606.356   8
  10  -4   5 6077.71 785.736   8
  10  -4   6 3864.15 634.595   8
  10  -3  -3 4563.32 742.459   8
  10  -3  -2 3995.89 690.465   8
  10  -3  -1 5174.51 752.873   8
  10  -3   0 2692.88 567.873   8
  10  -3   1 5580.61 760.914   8
  10  -3   2 15434.2 1202.23   8
  10  -3   3 1937.91 503.410   8
  10  -3   4 9968.52 1004.29   8
  10  -3   5 623.899 364.901   8
  10  -3   6 12946.0 1121.75   8
  10  -3   7 15217.0 1220.04   8
  10  -2  -3 1354.19 460.331   8
  10  -2  -2 1735.87 503.167   8
  10  -2  -1 1955.25 537.123   8
  10  -2   0 8956.87 956.293   8
  10  -2   1 2311.22 543.428   8
  10  -2   2 2602.68 580.609   8
  10  -2   3 5639.51 765.609   8
  10  -2   4 940.411 398.975   8
  10  -2   5 7511.03 862.631   8
  10  -2   6 2937.38 615.672   8
  10  -2   7 2427.20 577.351   6
  10  -2   7 2229.22 540.279   8
  10  -2   8 10327.0 1023.92   8
  10  -1  -3 6001.88 809.401   8
  10  -1  -2 2945.90 608.720   8
  10  -1  -1 1649.47 475.496   8
  10  -1   0 4209.53 699.680   8
  10  -1   1 3562.17 621.631   8
  10  -1   2 9282.13 968.634   8
  10  -1   3 5939.64 789.114   8
  10  -1   4 182.515 309.636   8
  10  -1   5 10333.2 1003.81   8
  10  -1   6 6803.71 846.368   8
  10  -1   7 7106.90 875.568   6
  10  -1   7 7240.15 877.481   8
  10  -1   8 927.622 448.629   6
  10   0  -4 896.071 378.914   8
  10   0  -3 989.187 416.280   8
  10   0  -2 4615.40 717.196   8
  10   0  -1 5962.86 794.968   8
  10   0   0 3370.53 616.674   8
  10   0   1 2257.87 555.747   8
  10   0   2 715.349 375.278   8
  10   0   3 3876.76 661.043   8
  10   0   4 9433.86 970.445   8
  10   0   4 8794.46 781.008   4
  10   0   5 2921.30 493.835   4
  10   0   5 4622.22 725.899   8
  10   0   6 666.521 289.961   4
  10   0   7 5126.84 757.832   6
  10   0   8 3495.47 655.267   6
  10   0   9 3460.85 666.392   6
  10   1  -4 7564.88 892.007   8
  10   1  -3 1743.93 486.484   8
  10   1  -2 732.829 356.582   8
  10   1  -1 6278.63 788.332   8
  10   1   0 2224.78 525.720   8
  10   1   1 12739.4 1102.22   8
  10   1   1 11141.0 887.933   4
  10   1   2 15650.0 1219.84   8
  10   1   2 14283.6 990.207   4
  10   1   3 107.284 248.471   4
  10   1   3 163.905 342.536   8
  10   1   4 4224.92 691.009   8
  10   1   4 4277.17 591.334   4
  10   1   5 12810.9 1001.49   4
  10   1   6 13448.1 1044.98   4
  10   1   7 1144.49 367.650   4
  10   1   7 1155.84 414.104   6
  10   1   8 1110.53 413.292   6
  10   1   9 4820.15 751.936   6
  10   2  -3 6157.25 786.258   8
  10   2  -2 8330.08 905.911   8
  10   2  -1 8080.18 890.176   8
  10   2   0 2528.90 496.671   4
  10   2   0 2300.98 525.173   8
  10   2   1 10596.6 1009.39   8
  10   2   1 10095.9 903.431   4
  10   2   2 13561.9 1128.95   8
  10   2   2 13441.0 1031.02   4
  10   2   3 8831.50 933.575   8
  10   2   3 7221.56 776.435   4
  10   2   4 2679.22 512.194   4
  10   2   5 888.858 351.497   4
  10   2   6 4235.34 656.056   4
  10   2   7 14960.8 1166.81   4
  10   2   8 6515.29 806.041   6
  10   2   8 6359.89 800.955   4
  10   2   9 4500.88 705.952   6
  10   2  10 6948.96 875.352   6
  10   3  -2 2198.31 491.219   4
  10   3  -2 2777.20 560.994   8
  10   3  -1 7975.04 875.475   8
  10   3  -1 6775.46 801.065   4
  10   3   0 2847.30 525.526   4
  10   3   0 3031.87 580.407   8
  10   3   1 1560.63 460.485   4
  10   3   1 1784.65 473.385   8
  10   3   2 1972.32 472.840   4
  10   3   2 2316.61 553.619   8
  10   3   3 2836.26 550.726   4
  10   3   3 3325.48 626.917   8
  10   3   4 9882.21 943.456   4
  10   3   5 3844.47 627.399   4
  10   3   6 1575.27 477.506   4
  10   3   7-87.0750 279.334   4
  10   3   8 3073.24 604.753   4
  10   3   8 3358.45 570.030   6
  10   3   9 1928.14 517.096   4
  10   3   9 2724.13 547.087   6
  10   3  10 5361.10 759.293   6
  10   4  -1-136.601 366.248   4
  10   4   0 4111.87 647.406   8
  10   4   0 3981.45 662.712   4
  10   4   1 3776.31 634.225   4
  10   4   1 3969.85 649.194   8
  10   4   2 6957.49 832.829   8
  10   4   2 6710.91 812.859   4
  10   4   3 2275.05 546.240   4
  10   4   3 2108.06 532.248   8
  10   4   4 680.609 411.135   4
  10   4   5 5904.75 770.953   4
  10   4   6 12777.7 1124.75   4
  10   4   7 4341.16 702.790   4
  10   4   8 4276.46 711.218   4
  10   4   9 749.300 450.745   4
  10   5   0 869.582 404.573   4
  10   5   1 2494.23 575.055   4
  10   5   1 2879.17 565.431   8
  10   5   2 898.755 421.846   4
  10   5   2 947.263 409.462   8
  10   5   3 4021.54 681.940   4
  10   5   3 4729.40 722.743   8
  10   5   4 10287.8 1046.80   4
  10   5   5 1865.65 508.191   4
  10   5   6 1592.64 462.971   4
  10   5   7 194.955 294.670   4
  10   5   8 2631.89 619.212   4
  10   6   2 8056.92 900.723   8
  10   6   2 8597.45 1004.81   4
  10   6   3 2279.85 577.440   4
  10   6   3 1807.07 484.578   8
  10   6   4 3393.20 685.349   4
  10   6   5 3999.24 733.282   4
  10   6   6 5464.03 824.219   4
  11  -4   4 271.962 244.433   9
  11  -3   1 6577.07 879.504   8
  11  -3   2 6708.55 884.378   8
  11  -3   3 2353.85 583.661   8
  11  -3   4 3905.73 683.037   8
  11  -3   5 731.985 368.043   8
  11  -2   0 4811.42 774.235   8
  11  -2   1 5575.27 811.252   8
  11  -2   2 613.964 352.499   8
  11  -2   3 4753.73 765.043   8
  11  -2   4 5410.79 794.564   8
  11  -2   5 2544.38 590.571   8
  11  -2   6 1694.38 518.671   8
  11  -1   0 5807.08 825.608   8
  11  -1   1 1820.92 507.118   8
  11  -1   2 13742.0 1218.68   8
  11  -1   3 2599.67 592.997   8
  11  -1   4 705.487 390.952   8
  11  -1   5 2113.10 562.352   8
  11  -1   6 3960.34 713.832   8
  11  -1   7 2851.03 625.129   8
  11   0  -1 5857.30 823.785   8
  11   0   0 359.515 339.563   8
  11   0   1 2820.85 598.222   8
  11   0   2 3250.63 652.046   8
  11   0   3 3053.07 645.227   8
  11   0   4 6486.91 880.248   8
  11   0   5 4726.17 761.119   8
  11   0   6 771.668 420.678   8
  11   0   7 6079.69 861.104   8
  11   1  -1 5167.78 785.799   8
  11   1   0 10649.6 1065.73   8
  11   1   1 7185.28 887.747   8
  11   1   2 4098.28 727.262   8
  11   1   3 3200.44 643.943   8
  11   1   4 633.164 415.788   8
  11   1   5 8745.68 1009.51   8
  11   1   5 6814.54 777.956   4
  11   1   6 10197.3 1086.63   8
  11   1   6 8095.00 850.776   4
  11   1   7 2523.95 529.306   4
  11   2  -1 184.074 292.407   8
  11   2   0 6145.13 825.025   8
  11   2   1 7832.92 942.144   8
  11   2   2 3916.41 705.615   8
  11   2   3 4125.30 616.137   4
  11   2   3 4809.77 778.783   8
  11   2   4 1347.00 417.517   4
  11   2   4 2195.93 623.150   8
  11   2   5 1301.93 430.685   4
  11   2   5 1817.91 517.534   8
  11   2   6 5315.49 750.103   4
  11   2   7 5065.56 737.566   4
  11   2   8 3280.36 616.832   4
  11   3   0 2030.00 548.073   8
  11   3   1 5546.69 793.905   8
  11   3   1 5785.83 777.798   4
  11   3   2 445.455 348.822   4
  11   3   2 485.958 346.543   8
  11   3   3 1567.72 442.247   4
  11   3   3 2039.25 546.168   8
  11   3   4 4713.43 760.591   8
  11   3   4 4226.30 682.737   4
  11   3   5 8463.13 924.926   4
  11   3   6 1986.28 515.344   4
  11   3   7 593.453 361.229   4
  11   4   0 718.688 375.927   8
  11   4   1 2817.58 583.198   4
  11   4   1 3174.69 615.656   8
  11   4   2 13940.3 1227.80   8
  11   4   2 12005.2 1124.33   4
  11   4   3 12196.7 1168.94   8
  11   4   3 9913.51 1028.04   4
  11   4   4 1801.39 527.455   4
  11   4   4 1653.86 524.815   8
  11   4   5 4537.85 726.636   4
  11   4   6 10517.6 1090.48   4
  11   5   2 4320.76 718.645   8
  11   5   3 11482.9 1137.17   8
  11   5   4 7900.44 965.545   8
   0   0   0    0.00    0.00   0

TITL rossa21 in P1
REM P1 (#1 in standard setting)
CELL 0.71073   8.067964   8.177946   9.015988  74.3359  74.5020  87.8025
ZERR    1.00   0.000290   0.000256   0.000418   0.0033   0.0036   0.0027
LATT -1
SFAC C H N O P Fe
UNIT 25.00 26.00 1.00 1.00 1.00 1.00
TREF
HKLF 4
END
;
_shelx_hkl_checksum              18878
loop_
_space_group_symop_operation_xyz
'x, y, z'
loop_
_atom_site_label
_atom_site_type_symbol
_atom_site_fract_x
_atom_site_fract_y
_atom_site_fract_z
_atom_site_U_iso_or_equiv
_atom_site_adp_type
_atom_site_occupancy
_atom_site_site_symmetry_order
_atom_site_calc_flag
_atom_site_refinement_flags_posn
_atom_site_refinement_flags_adp
_atom_site_refinement_flags_occupancy
_atom_site_disorder_assembly
_atom_site_disorder_group
Fe Fe 0.53841(5) 0.81437(5) 0.31710(5) 0.01508(14) Uani 1 1 d . . . . .
C1 C 0.4429(5) 0.5905(5) 0.4850(5) 0.0155(8) Uani 1 1 d . . . . .
C2 C 0.3443(5) 0.6390(5) 0.3691(5) 0.0161(8) Uani 1 1 d . . . . .
C3 C 0.2775(5) 0.8034(5) 0.3720(5) 0.0195(8) Uani 1 1 d . . . . .
H3 H 0.2102 0.8646 0.3083 0.023 Uiso 1 1 calc R U . . .
C4 C 0.3321(5) 0.8557(5) 0.4888(5) 0.0208(8) Uani 1 1 d . . . . .
H4 H 0.3065 0.9577 0.5156 0.025 Uiso 1 1 calc R U . . .
C5 C 0.4324(5) 0.7267(5) 0.5586(5) 0.0189(8) Uani 1 1 d . . . . .
H5 H 0.4832 0.7301 0.6390 0.023 Uiso 1 1 calc R U . . .
C6 C 0.7862(6) 0.7828(6) 0.1973(5) 0.0230(9) Uani 1 1 d . . . . .
H6 H 0.8448 0.6819 0.2088 0.028 Uiso 1 1 calc R U . . .
C7 C 0.6859(6) 0.8439(5) 0.0880(5) 0.0212(9) Uani 1 1 d . . . . .
H7 H 0.6664 0.7897 0.0155 0.025 Uiso 1 1 calc R U . . .
C8 C 0.6204(6) 1.0018(6) 0.1081(5) 0.0236(9) Uani 1 1 d . . . . .
H8 H 0.5505 1.0693 0.0511 0.028 Uiso 1 1 calc R U . . .
C9 C 0.6798(6) 1.0393(5) 0.2300(6) 0.0266(10) Uani 1 1 d . . . . .
H9 H 0.6565 1.1358 0.2667 0.032 Uiso 1 1 calc R U . . .
C10 C 0.7812(6) 0.9029(6) 0.2862(5) 0.0249(9) Uani 1 1 d . . . . .
H10 H 0.8351 0.8940 0.3671 0.030 Uiso 1 1 calc R U . . .
C21 C 0.3018(5) 0.5337(5) 0.2760(5) 0.0170(8) Uani 1 1 d . . . . .
N22 N 0.3296(4) 0.3776(4) 0.2929(4) 0.0206(7) Uani 1 1 d . . . . .
C23 C 0.2358(5) 0.3226(5) 0.1934(5) 0.0228(9) Uani 1 1 d . . . . .
H23 H 0.3098 0.2559 0.1281 0.027 Uiso 1 1 calc R U . . .
C231 C 0.0753(6) 0.2185(6) 0.3005(7) 0.0345(11) Uani 1 1 d . . . . .
H23A H 0.0144 0.1828 0.2360 0.052 Uiso 1 1 calc R U . . .
H23B H 0.1076 0.1205 0.3721 0.052 Uiso 1 1 calc R U . . .
H23C H 0.0025 0.2865 0.3612 0.052 Uiso 1 1 calc R U . . .
C24 C 0.1931(6) 0.4893(6) 0.0874(6) 0.0276(9) Uani 1 1 d . . . . .
H24A H 0.2723 0.5153 -0.0185 0.033 Uiso 1 1 calc R U . . .
H24B H 0.0765 0.4846 0.0780 0.033 Uiso 1 1 calc R U . . .
O25 O 0.2118(4) 0.6133(4) 0.1700(4) 0.0246(7) Uani 1 1 d . . . . .
P P 0.57221(12) 0.40203(11) 0.51569(11) 0.0154(2) Uani 1 1 d . . . . .
C31 C 0.6830(5) 0.4584(5) 0.6513(5) 0.0165(7) Uani 1 1 d . . . . .
C32 C 0.8432(5) 0.5436(5) 0.5858(5) 0.0203(8) Uani 1 1 d . . . . .
H32 H 0.8956 0.5632 0.4770 0.024 Uiso 1 1 calc R U . . .
C33 C 0.9249(6) 0.5991(6) 0.6810(6) 0.0255(10) Uani 1 1 d . . . . .
H33 H 1.0301 0.6588 0.6352 0.031 Uiso 1 1 calc R U . . .
C34 C 0.8515(6) 0.5665(6) 0.8434(6) 0.0260(9) Uani 1 1 d . . . . .
H34 H 0.9069 0.6045 0.9068 0.031 Uiso 1 1 calc R U . . .
C35 C 0.6944(6) 0.4767(6) 0.9119(5) 0.0259(9) Uani 1 1 d . . . . .
H35 H 0.6452 0.4519 1.0216 0.031 Uiso 1 1 calc R U . . .
C36 C 0.6121(6) 0.4247(5) 0.8154(5) 0.0223(8) Uani 1 1 d . . . . .
H36 H 0.5066 0.3655 0.8615 0.027 Uiso 1 1 calc R U . . .
C41 C 0.4159(5) 0.2409(5) 0.6638(5) 0.0181(8) Uani 1 1 d . . . . .
C42 C 0.4758(5) 0.0817(5) 0.7301(5) 0.0185(8) Uani 1 1 d . . . . .
C43 C 0.3583(6) -0.0381(5) 0.8469(5) 0.0233(9) Uani 1 1 d . . . . .
H43 H 0.3968 -0.1433 0.8930 0.028 Uiso 1 1 calc R U . . .
C44 C 0.1860(6) -0.0044(6) 0.8956(6) 0.0303(10) Uani 1 1 d . . . . .
H44 H 0.1104 -0.0861 0.9742 0.036 Uiso 1 1 calc R U . . .
C45 C 0.1263(6) 0.1505(6) 0.8277(6) 0.0320(10) Uani 1 1 d . . . . .
H45 H 0.0102 0.1731 0.8587 0.038 Uiso 1 1 calc R U . . .
C46 C 0.2417(6) 0.2726(5) 0.7125(6) 0.0266(9) Uani 1 1 d . . . . .
H46 H 0.2017 0.3774 0.6672 0.032 Uiso 1 1 calc R U . . .
C47 C 0.6626(6) 0.0401(5) 0.6801(5) 0.0232(9) Uani 1 1 d . . . . .
H47A H 0.7281 0.0955 0.7285 0.035 Uiso 1 1 calc R U . . .
H47B H 0.7047 0.0791 0.5659 0.035 Uiso 1 1 calc R U . . .
H47C H 0.6741 -0.0806 0.7142 0.035 Uiso 1 1 calc R U . . .
loop_
_atom_site_aniso_label
_atom_site_aniso_U_11
_atom_site_aniso_U_22
_atom_site_aniso_U_33
_atom_site_aniso_U_23
_atom_site_aniso_U_13
_atom_site_aniso_U_12
Fe 0.0165(3) 0.0121(2) 0.0161(3) -0.0024(2) -0.0047(2) -0.0011(2)
C1 0.0151(18) 0.0127(17) 0.0169(19) -0.0021(15) -0.0032(15) -0.0015(14)
C2 0.0164(19) 0.0134(17) 0.0178(19) -0.0024(15) -0.0051(15) -0.0002(14)
C3 0.018(2) 0.0180(19) 0.023(2) -0.0065(16) -0.0060(16) 0.0023(16)
C4 0.020(2) 0.0181(19) 0.027(2) -0.0097(17) -0.0064(17) 0.0034(15)
C5 0.019(2) 0.0179(19) 0.020(2) -0.0061(16) -0.0044(16) 0.0007(15)
C6 0.017(2) 0.023(2) 0.021(2) 0.0014(17) 0.0000(16) 0.0004(16)
C7 0.025(2) 0.021(2) 0.0130(19) -0.0006(16) -0.0011(16) -0.0023(17)
C8 0.028(2) 0.020(2) 0.018(2) 0.0027(16) -0.0062(18) -0.0016(17)
C9 0.033(3) 0.015(2) 0.029(2) -0.0015(18) -0.006(2) -0.0080(17)
C10 0.022(2) 0.024(2) 0.026(2) -0.0001(18) -0.0070(18) -0.0104(17)
C21 0.0140(18) 0.0169(17) 0.0183(19) -0.0022(15) -0.0032(15) -0.0024(14)
N22 0.0196(17) 0.0182(16) 0.0271(19) -0.0072(14) -0.0102(14) 0.0000(13)
C23 0.020(2) 0.023(2) 0.032(2) -0.0136(18) -0.0106(18) 0.0034(16)
C231 0.026(2) 0.025(2) 0.055(3) -0.013(2) -0.013(2) -0.0032(18)
C24 0.033(2) 0.027(2) 0.031(2) -0.0120(19) -0.018(2) 0.0022(18)
O25 0.0342(19) 0.0186(15) 0.0273(17) -0.0067(13) -0.0185(14) 0.0045(13)
P 0.0149(5) 0.0137(5) 0.0161(5) -0.0020(4) -0.0036(4) -0.0005(4)
C31 0.0163(18) 0.0146(17) 0.0180(19) -0.0026(14) -0.0054(15) 0.0016(14)
C32 0.0152(19) 0.0234(19) 0.021(2) -0.0053(16) -0.0040(16) 0.0023(15)
C33 0.014(2) 0.029(2) 0.036(3) -0.010(2) -0.0096(19) 0.0025(17)
C34 0.025(2) 0.028(2) 0.033(3) -0.0130(19) -0.0179(19) 0.0068(18)
C35 0.034(3) 0.025(2) 0.018(2) -0.0050(17) -0.0076(18) 0.0031(19)
C36 0.024(2) 0.0200(19) 0.020(2) -0.0033(16) -0.0042(17) -0.0010(16)
C41 0.019(2) 0.0158(18) 0.0167(19) -0.0015(15) -0.0027(16) -0.0048(16)
C42 0.023(2) 0.0168(18) 0.0178(19) -0.0048(15) -0.0081(16) -0.0024(15)
C43 0.032(2) 0.0163(18) 0.021(2) 0.0006(16) -0.0095(18) -0.0045(17)
C44 0.028(2) 0.027(2) 0.028(3) 0.0011(19) -0.002(2) -0.0138(19)
C45 0.019(2) 0.034(2) 0.036(3) -0.002(2) -0.0018(19) -0.0038(18)
C46 0.020(2) 0.022(2) 0.033(2) -0.0016(18) -0.0045(18) -0.0020(17)
C47 0.025(2) 0.0188(19) 0.024(2) -0.0025(16) -0.0085(17) 0.0040(16)
loop_
_atom_type_symbol
_atom_type_description
_atom_type_scat_dispersion_real
_atom_type_scat_dispersion_imag
_atom_type_scat_source
C C 0.0033 0.0016 'International Tables Vol C Tables 4.2.6.8 and 6.1.1.4'
H H 0.0000 0.0000 'International Tables Vol C Tables 4.2.6.8 and 6.1.1.4'
N N 0.0061 0.0033 'International Tables Vol C Tables 4.2.6.8 and 6.1.1.4'
O O 0.0106 0.0060 'International Tables Vol C Tables 4.2.6.8 and 6.1.1.4'
P P 0.1023 0.0942 'International Tables Vol C Tables 4.2.6.8 and 6.1.1.4'
Fe Fe 0.3463 0.8444 'International Tables Vol C Tables 4.2.6.8 and 6.1.1.4'
loop_
_geom_angle_atom_site_label_1
_geom_angle_atom_site_label_2
_geom_angle_atom_site_label_3
_geom_angle
_geom_angle_site_symmetry_1
_geom_angle_site_symmetry_3
_geom_angle_publ_flag
C3 Fe C4 40.64(17) . . ?
C3 Fe C2 41.29(16) . . ?
C4 Fe C2 68.70(16) . . ?
C3 Fe C10 159.55(16) . . ?
C4 Fe C10 122.98(18) . . ?
C2 Fe C10 157.34(16) . . ?
C3 Fe C7 121.53(18) . . ?
C4 Fe C7 155.03(17) . . ?
C2 Fe C7 109.85(17) . . ?
C10 Fe C7 68.30(18) . . ?
C3 Fe C6 157.70(17) . . ?
C4 Fe C6 161.24(17) . . ?
C2 Fe C6 123.06(17) . . ?
C10 Fe C6 40.69(19) . . ?
C7 Fe C6 40.51(18) . . ?
C3 Fe C8 106.66(18) . . ?
C4 Fe C8 118.83(18) . . ?
C2 Fe C8 126.03(18) . . ?
C10 Fe C8 68.23(18) . . ?
C7 Fe C8 40.47(17) . . ?
C6 Fe C8 68.13(18) . . ?
C3 Fe C5 68.61(17) . . ?
C4 Fe C5 40.65(17) . . ?
C2 Fe C5 68.53(16) . . ?
C10 Fe C5 106.66(18) . . ?
C7 Fe C5 163.87(15) . . ?
C6 Fe C5 125.87(18) . . ?
C8 Fe C5 153.58(16) . . ?
C3 Fe C9 122.73(18) . . ?
C4 Fe C9 104.95(18) . . ?
C2 Fe C9 161.43(16) . . ?
C10 Fe C9 40.66(19) . . ?
C7 Fe C9 68.13(18) . . ?
C6 Fe C9 68.28(19) . . ?
C8 Fe C9 40.44(18) . . ?
C5 Fe C9 118.75(18) . . ?
C3 Fe C1 69.64(16) . . ?
C4 Fe C1 69.06(16) . . ?
C2 Fe C1 41.25(15) . . ?
C10 Fe C1 120.63(17) . . ?
C7 Fe C1 127.36(16) . . ?
C6 Fe C1 109.10(16) . . ?
C8 Fe C1 164.12(15) . . ?
C5 Fe C1 40.83(15) . . ?
C9 Fe C1 154.59(17) . . ?
C5 C1 C2 106.3(3) . . ?
C5 C1 P 127.3(3) . . ?
C2 C1 P 126.1(3) . . ?
C5 C1 Fe 69.3(2) . . ?
C2 C1 Fe 68.6(2) . . ?
P C1 Fe 122.3(2) . . ?
C3 C2 C1 108.5(3) . . ?
C3 C2 C21 124.5(4) . . ?
C1 C2 C21 126.7(3) . . ?
C3 C2 Fe 69.1(2) . . ?
C1 C2 Fe 70.1(2) . . ?
C21 C2 Fe 131.6(3) . . ?
C4 C3 C2 107.7(4) . . ?
C4 C3 Fe 69.9(2) . . ?
C2 C3 Fe 69.6(2) . . ?
C4 C3 H3 126.1 . . ?
C2 C3 H3 126.1 . . ?
Fe C3 H3 125.9 . . ?
C3 C4 C5 108.6(4) . . ?
C3 C4 Fe 69.4(2) . . ?
C5 C4 Fe 70.1(2) . . ?
C3 C4 H4 125.7 . . ?
C5 C4 H4 125.7 . . ?
Fe C4 H4 126.3 . . ?
C4 C5 C1 108.9(4) . . ?
C4 C5 Fe 69.2(2) . . ?
C1 C5 Fe 69.9(2) . . ?
C4 C5 H5 125.5 . . ?
C1 C5 H5 125.5 . . ?
Fe C5 H5 127.0 . . ?
C7 C6 C10 107.8(4) . . ?
C7 C6 Fe 69.7(2) . . ?
C10 C6 Fe 69.3(2) . . ?
C7 C6 H6 126.1 . . ?
C10 C6 H6 126.1 . . ?
Fe C6 H6 126.5 . . ?
C8 C7 C6 108.1(4) . . ?
C8 C7 Fe 69.8(2) . . ?
C6 C7 Fe 69.8(2) . . ?
C8 C7 H7 125.9 . . ?
C6 C7 H7 125.9 . . ?
Fe C7 H7 126.0 . . ?
C7 C8 C9 108.2(4) . . ?
C7 C8 Fe 69.7(2) . . ?
C9 C8 Fe 69.9(2) . . ?
C7 C8 H8 125.9 . . ?
C9 C8 H8 125.9 . . ?
Fe C8 H8 126.1 . . ?
C8 C9 C10 107.7(4) . . ?
C8 C9 Fe 69.7(2) . . ?
C10 C9 Fe 69.2(2) . . ?
C8 C9 H9 126.1 . . ?
C10 C9 H9 126.1 . . ?
Fe C9 H9 126.6 . . ?
C6 C10 C9 108.1(4) . . ?
C6 C10 Fe 70.0(2) . . ?
C9 C10 Fe 70.2(3) . . ?
C6 C10 H10 125.9 . . ?
C9 C10 H10 125.9 . . ?
Fe C10 H10 125.5 . . ?
N22 C21 O25 118.8(4) . . ?
N22 C21 C2 126.4(4) . . ?
O25 C21 C2 114.7(3) . . ?
C21 N22 C23 105.7(3) . . ?
N22 C23 C231 109.5(4) . . ?
N22 C23 C24 103.6(3) . . ?
C231 C23 C24 112.2(4) . . ?
N22 C23 H23 110.4 . . ?
C231 C23 H23 110.4 . . ?
C24 C23 H23 110.4 . . ?
C23 C231 H23A 109.5 . . ?
C23 C231 H23B 109.5 . . ?
H23A C231 H23B 109.5 . . ?
C23 C231 H23C 109.5 . . ?
H23A C231 H23C 109.5 . . ?
H23B C231 H23C 109.5 . . ?
O25 C24 C23 103.6(3) . . ?
O25 C24 H24A 111.0 . . ?
C23 C24 H24A 111.0 . . ?
O25 C24 H24B 111.0 . . ?
C23 C24 H24B 111.0 . . ?
H24A C24 H24B 109.0 . . ?
C21 O25 C24 104.7(3) . . ?
C1 P C41 102.54(19) . . ?
C1 P C31 97.79(17) . . ?
C41 P C31 98.97(18) . . ?
C36 C31 C32 118.0(4) . . ?
C36 C31 P 123.3(3) . . ?
C32 C31 P 118.7(3) . . ?
C33 C32 C31 120.6(4) . . ?
C33 C32 H32 119.7 . . ?
C31 C32 H32 119.7 . . ?
C34 C33 C32 120.5(4) . . ?
C34 C33 H33 119.7 . . ?
C32 C33 H33 119.7 . . ?
C33 C34 C35 119.7(4) . . ?
C33 C34 H34 120.2 . . ?
C35 C34 H34 120.2 . . ?
C36 C35 C34 119.4(4) . . ?
C36 C35 H35 120.3 . . ?
C34 C35 H35 120.3 . . ?
C35 C36 C31 121.7(4) . . ?
C35 C36 H36 119.1 . . ?
C31 C36 H36 119.1 . . ?
C46 C41 C42 119.4(4) . . ?
C46 C41 P 122.1(3) . . ?
C42 C41 P 118.5(3) . . ?
C43 C42 C41 118.4(4) . . ?
C43 C42 C47 120.1(4) . . ?
C41 C42 C47 121.5(4) . . ?
C44 C43 C42 121.6(4) . . ?
C44 C43 H43 119.2 . . ?
C42 C43 H43 119.2 . . ?
C45 C44 C43 120.0(4) . . ?
C45 C44 H44 120.0 . . ?
C43 C44 H44 120.0 . . ?
C44 C45 C46 119.3(4) . . ?
C44 C45 H45 120.3 . . ?
C46 C45 H45 120.3 . . ?
C45 C46 C41 121.2(4) . . ?
C45 C46 H46 119.4 . . ?
C41 C46 H46 119.4 . . ?
C42 C47 H47A 109.5 . . ?
C42 C47 H47B 109.5 . . ?
H47A C47 H47B 109.5 . . ?
C42 C47 H47C 109.5 . . ?
H47A C47 H47C 109.5 . . ?
H47B C47 H47C 109.5 . . ?
loop_
_geom_bond_atom_site_label_1
_geom_bond_atom_site_label_2
_geom_bond_distance
_geom_bond_site_symmetry_2
_geom_bond_publ_flag
Fe C3 2.030(4) . ?
Fe C4 2.036(4) . ?
Fe C2 2.036(4) . ?
Fe C10 2.037(4) . ?
Fe C7 2.045(4) . ?
Fe C6 2.046(4) . ?
Fe C8 2.047(4) . ?
Fe C5 2.048(4) . ?
Fe C9 2.050(4) . ?
Fe C1 2.056(4) . ?
C1 C5 1.431(5) . ?
C1 C2 1.442(6) . ?
C1 P 1.828(4) . ?
C2 C3 1.434(5) . ?
C2 C21 1.460(5) . ?
C3 C4 1.412(6) . ?
C3 H3 0.9300 . ?
C4 C5 1.419(6) . ?
C4 H4 0.9300 . ?
C5 H5 0.9300 . ?
C6 C7 1.416(6) . ?
C6 C10 1.419(6) . ?
C6 H6 0.9300 . ?
C7 C8 1.415(6) . ?
C7 H7 0.9300 . ?
C8 C9 1.416(6) . ?
C8 H8 0.9300 . ?
C9 C10 1.420(7) . ?
C9 H9 0.9300 . ?
C10 H10 0.9300 . ?
C21 N22 1.263(5) . ?
C21 O25 1.365(5) . ?
N22 C23 1.479(5) . ?
C23 C231 1.518(6) . ?
C23 C24 1.526(6) . ?
C23 H23 0.9800 . ?
C231 H23A 0.9600 . ?
C231 H23B 0.9600 . ?
C231 H23C 0.9600 . ?
C24 O25 1.444(5) . ?
C24 H24A 0.9700 . ?
C24 H24B 0.9700 . ?
P C41 1.841(4) . ?
P C31 1.851(4) . ?
C31 C36 1.390(6) . ?
C31 C32 1.394(5) . ?
C32 C33 1.383(6) . ?
C32 H32 0.9300 . ?
C33 C34 1.380(7) . ?
C33 H33 0.9300 . ?
C34 C35 1.392(7) . ?
C34 H34 0.9300 . ?
C35 C36 1.381(6) . ?
C35 H35 0.9300 . ?
C36 H36 0.9300 . ?
C41 C46 1.393(6) . ?
C41 C42 1.404(6) . ?
C42 C43 1.396(6) . ?
C42 C47 1.507(6) . ?
C43 C44 1.382(7) . ?
C43 H43 0.9300 . ?
C44 C45 1.380(7) . ?
C44 H44 0.9300 . ?
C45 C46 1.392(6) . ?
C45 H45 0.9300 . ?
C46 H46 0.9300 . ?
C47 H47A 0.9600 . ?
C47 H47B 0.9600 . ?
C47 H47C 0.9600 . ?
loop_
_geom_torsion_atom_site_label_1
_geom_torsion_atom_site_label_2
_geom_torsion_atom_site_label_3
_geom_torsion_atom_site_label_4
_geom_torsion
_geom_torsion_site_symmetry_1
_geom_torsion_site_symmetry_2
_geom_torsion_site_symmetry_3
_geom_torsion_site_symmetry_4
_geom_torsion_publ_flag
C5 C1 C2 C3 0.7(4) . . . . ?
P C1 C2 C3 -173.7(3) . . . . ?
Fe C1 C2 C3 -58.6(3) . . . . ?
C5 C1 C2 C21 -173.0(4) . . . . ?
P C1 C2 C21 12.6(6) . . . . ?
Fe C1 C2 C21 127.7(4) . . . . ?
C5 C1 C2 Fe 59.3(3) . . . . ?
P C1 C2 Fe -115.1(3) . . . . ?
C1 C2 C3 C4 -0.5(5) . . . . ?
C21 C2 C3 C4 173.3(4) . . . . ?
Fe C2 C3 C4 -59.8(3) . . . . ?
C1 C2 C3 Fe 59.2(3) . . . . ?
C21 C2 C3 Fe -126.9(4) . . . . ?
C2 C3 C4 C5 0.2(5) . . . . ?
Fe C3 C4 C5 -59.4(3) . . . . ?
C2 C3 C4 Fe 59.6(3) . . . . ?
C3 C4 C5 C1 0.3(5) . . . . ?
Fe C4 C5 C1 -58.7(3) . . . . ?
C3 C4 C5 Fe 59.0(3) . . . . ?
C2 C1 C5 C4 -0.6(5) . . . . ?
P C1 C5 C4 173.8(3) . . . . ?
Fe C1 C5 C4 58.3(3) . . . . ?
C2 C1 C5 Fe -58.9(3) . . . . ?
P C1 C5 Fe 115.4(3) . . . . ?
C10 C6 C7 C8 0.5(5) . . . . ?
Fe C6 C7 C8 59.5(3) . . . . ?
C10 C6 C7 Fe -59.0(3) . . . . ?
C6 C7 C8 C9 0.0(5) . . . . ?
Fe C7 C8 C9 59.5(3) . . . . ?
C6 C7 C8 Fe -59.5(3) . . . . ?
C7 C8 C9 C10 -0.5(5) . . . . ?
Fe C8 C9 C10 58.9(3) . . . . ?
C7 C8 C9 Fe -59.4(3) . . . . ?
C7 C6 C10 C9 -0.8(5) . . . . ?
Fe C6 C10 C9 -60.1(3) . . . . ?
C7 C6 C10 Fe 59.3(3) . . . . ?
C8 C9 C10 C6 0.8(5) . . . . ?
Fe C9 C10 C6 60.0(3) . . . . ?
C8 C9 C10 Fe -59.2(3) . . . . ?
C3 C2 C21 N22 -165.2(4) . . . . ?
C1 C2 C21 N22 7.5(7) . . . . ?
Fe C2 C21 N22 102.9(5) . . . . ?
C3 C2 C21 O25 9.5(6) . . . . ?
C1 C2 C21 O25 -177.7(4) . . . . ?
Fe C2 C21 O25 -82.3(5) . . . . ?
O25 C21 N22 C23 -4.8(5) . . . . ?
C2 C21 N22 C23 169.7(4) . . . . ?
C21 N22 C23 C231 -105.4(4) . . . . ?
C21 N22 C23 C24 14.5(4) . . . . ?
N22 C23 C24 O25 -18.5(4) . . . . ?
C231 C23 C24 O25 99.5(4) . . . . ?
N22 C21 O25 C24 -7.7(5) . . . . ?
C2 C21 O25 C24 177.1(3) . . . . ?
C23 C24 O25 C21 15.9(4) . . . . ?
C5 C1 P C41 97.5(4) . . . . ?
C2 C1 P C41 -89.2(4) . . . . ?
Fe C1 P C41 -175.1(2) . . . . ?
C5 C1 P C31 -3.6(4) . . . . ?
C2 C1 P C31 169.7(3) . . . . ?
Fe C1 P C31 83.9(2) . . . . ?
C1 P C31 C36 84.7(4) . . . . ?
C41 P C31 C36 -19.4(4) . . . . ?
C1 P C31 C32 -93.3(3) . . . . ?
C41 P C31 C32 162.6(3) . . . . ?
C36 C31 C32 C33 -2.8(6) . . . . ?
P C31 C32 C33 175.3(3) . . . . ?
C31 C32 C33 C34 2.0(7) . . . . ?
C32 C33 C34 C35 0.2(7) . . . . ?
C33 C34 C35 C36 -1.5(7) . . . . ?
C34 C35 C36 C31 0.6(7) . . . . ?
C32 C31 C36 C35 1.5(6) . . . . ?
P C31 C36 C35 -176.5(3) . . . . ?
C1 P C41 C46 6.5(4) . . . . ?
C31 P C41 C46 106.6(4) . . . . ?
C1 P C41 C42 -173.0(3) . . . . ?
C31 P C41 C42 -72.8(3) . . . . ?
C46 C41 C42 C43 -1.9(6) . . . . ?
P C41 C42 C43 177.6(3) . . . . ?
C46 C41 C42 C47 179.3(4) . . . . ?
P C41 C42 C47 -1.3(5) . . . . ?
C41 C42 C43 C44 1.1(6) . . . . ?
C47 C42 C43 C44 180.0(4) . . . . ?
C42 C43 C44 C45 0.4(7) . . . . ?
C43 C44 C45 C46 -1.2(8) . . . . ?
C44 C45 C46 C41 0.4(8) . . . . ?
C42 C41 C46 C45 1.1(7) . . . . ?
P C41 C46 C45 -178.3(4) . . . . ?
