#------------------------------------------------------------------------------
#$Date: 2020-08-01 02:13:44 +0300 (Sat, 01 Aug 2020) $
#$Revision: 254712 $
#$URL: file:///home/coder/svn-repositories/cod/cif/4/03/86/4038634.cif $
#------------------------------------------------------------------------------
#
# This file is available in the Crystallography Open Database (COD),
# http://www.crystallography.net/
#
# All data on this site have been placed in the public domain by the
# contributors.
#
data_4038634
loop_
_publ_author_name
'Joshi, Dirgha Raj'
'Seo, Yohan'
'Heo, Yunkyung'
'Park, So-Hyeon'
'Lee, Yechan'
'Namkung, Wan'
'Kim, Ikyon'
_publ_section_title
;
 Domino [4+2] Annulation Access to Quinone-Indolizine Hybrids: Anticancer
 N-Fused Polycycles.
;
_journal_name_full               'The Journal of organic chemistry'
_journal_paper_doi               10.1021/acs.joc.0c01291
_journal_year                    2020
_chemical_formula_moiety         'C20 H12 Cl N O4'
_chemical_formula_sum            'C20 H12 Cl N O4'
_chemical_formula_weight         365.76
_space_group_crystal_system      triclinic
_space_group_IT_number           2
_space_group_name_Hall           '-P 1'
_space_group_name_H-M_alt        'P -1'
_atom_sites_solution_hydrogens   geom
_atom_sites_solution_primary     dual
_audit_creation_date             2020-01-03
_audit_creation_method
;
Olex2 1.3
(compiled Nov 21 2019 18:19:11 for OlexSys, GUI svn.r6003)
;
_cell_angle_alpha                96.365(3)
_cell_angle_beta                 98.489(3)
_cell_angle_gamma                108.418(4)
_cell_formula_units_Z            2
_cell_length_a                   8.2755(3)
_cell_length_b                   10.0566(4)
_cell_length_c                   14.2145(6)
_cell_measurement_reflns_used    7518
_cell_measurement_temperature    100.00(10)
_cell_measurement_theta_max      29.0680
_cell_measurement_theta_min      2.7520
_cell_volume                     1094.34(8)
_computing_cell_refinement       'CrysAlisPro 1.171.39.29d (Rigaku OD, 2017)'
_computing_data_collection       'CrysAlisPro 1.171.39.29d (Rigaku OD, 2017)'
_computing_data_reduction        'CrysAlisPro 1.171.39.29d (Rigaku OD, 2017)'
_computing_molecular_graphics    'Olex2 1.3 (Dolomanov et al., 2009)'
_computing_publication_material  'Olex2 1.3 (Dolomanov et al., 2009)'
_computing_structure_refinement  'SHELXL 2017/1 (Sheldrick, 2015)'
_computing_structure_solution    'SHELXT 2014/5 (Sheldrick, 2014)'
_diffrn_ambient_environment      N~2~
_diffrn_ambient_temperature      100.00(10)
_diffrn_detector                 'CCD plate'
_diffrn_detector_area_resol_mean 5.2262
_diffrn_detector_type            AtlasS2
_diffrn_measured_fraction_theta_full 0.997
_diffrn_measured_fraction_theta_max 0.989
_diffrn_measurement_details
;
List of Runs (angles in degrees, time in seconds):

  # Type    Start    End  Width  t~exp~   \w     \q     \k     \f   Frames
--------------------------------------------------------------------------
  1  \w    -45.00  14.00   1.00    8.78    --  -11.20  81.00 -53.00   59
  2  \w    -36.00 -11.00   1.00    8.78    --  -11.20 -81.00-176.00   25
  3  \w    -33.00  45.00   1.00    8.78    --   11.83 -81.00-176.00   78
  4  \w    -66.00  21.00   1.00    8.78    --  -11.20 -77.00  90.00   87
  5  \w    -64.00  44.00   1.00    8.78    --   11.83 -77.00  30.00  108
  6  \w    -15.00  75.00   1.00    8.78    --   11.83  57.00  90.00   90
  7  \w    -13.00  86.00   1.00    8.78    --   11.83  38.00 -90.00   99
  8  \w    -20.00  53.00   1.00    8.78    --   11.83 -99.00 -90.00   73
  9  \w    -12.00  53.00   1.00    8.78    --   11.83 -99.00 150.00   65
 10  \w    -13.00  83.00   1.00    8.78    --   11.83  38.00   0.00   96
;
_diffrn_measurement_device       'four-circle diffractometer'
_diffrn_measurement_device_type  'SuperNova, Dual, Cu at home/near, AtlasS2'
_diffrn_measurement_method       '\w scans'
_diffrn_orient_matrix_type
'CrysAlisPro convention (1999,Acta A55,543-557)'
_diffrn_orient_matrix_UB_11      0.0885396000
_diffrn_orient_matrix_UB_12      0.0405594000
_diffrn_orient_matrix_UB_13      0.0185740000
_diffrn_orient_matrix_UB_21      -0.0237841000
_diffrn_orient_matrix_UB_22      0.0325156000
_diffrn_orient_matrix_UB_23      0.0401046000
_diffrn_orient_matrix_UB_31      0.0086090000
_diffrn_orient_matrix_UB_32      -0.0546264000
_diffrn_orient_matrix_UB_33      0.0258044000
_diffrn_radiation_monochromator  mirror
_diffrn_radiation_probe          x-ray
_diffrn_radiation_type           'Mo K\a'
_diffrn_radiation_wavelength     0.71073
_diffrn_reflns_av_R_equivalents  0.0510
_diffrn_reflns_av_unetI/netI     0.0437
_diffrn_reflns_Laue_measured_fraction_full 0.997
_diffrn_reflns_Laue_measured_fraction_max 0.989
_diffrn_reflns_limit_h_max       10
_diffrn_reflns_limit_h_min       -10
_diffrn_reflns_limit_k_max       13
_diffrn_reflns_limit_k_min       -12
_diffrn_reflns_limit_l_max       18
_diffrn_reflns_limit_l_min       -18
_diffrn_reflns_number            22937
_diffrn_reflns_point_group_measured_fraction_full 0.997
_diffrn_reflns_point_group_measured_fraction_max 0.989
_diffrn_reflns_theta_full        25.242
_diffrn_reflns_theta_max         27.499
_diffrn_reflns_theta_min         2.165
_diffrn_source                   'micro-focus sealed X-ray tube'
_diffrn_source_type              'SuperNova (Mo) X-ray Source'
_exptl_absorpt_coefficient_mu    0.195
_exptl_absorpt_correction_T_max  1.00000
_exptl_absorpt_correction_T_min  0.45922
_exptl_absorpt_correction_type   multi-scan
_exptl_absorpt_process_details
;
CrysAlisPro 1.171.39.29d (Rigaku Oxford Diffraction, 2017)
Empirical absorption correction using spherical harmonics,
 implemented in SCALE3 ABSPACK scaling algorithm.
;
_exptl_crystal_colour            'metallic light pink'
_exptl_crystal_colour_lustre     metallic
_exptl_crystal_colour_modifier   light
_exptl_crystal_colour_primary    pink
_exptl_crystal_density_diffrn    1.110
_exptl_crystal_description       needle
_exptl_crystal_F_000             376
_exptl_crystal_size_max          0.52
_exptl_crystal_size_mid          0.151
_exptl_crystal_size_min          0.106
_refine_diff_density_max         0.509
_refine_diff_density_min         -0.340
_refine_diff_density_rms         0.082
_refine_ls_extinction_method     none
_refine_ls_goodness_of_fit_ref   1.062
_refine_ls_hydrogen_treatment    constr
_refine_ls_matrix_type           full
_refine_ls_number_parameters     236
_refine_ls_number_reflns         4972
_refine_ls_number_restraints     0
_refine_ls_restrained_S_all      1.062
_refine_ls_R_factor_all          0.0656
_refine_ls_R_factor_gt           0.0553
_refine_ls_shift/su_max          0.001
_refine_ls_shift/su_mean         0.000
_refine_ls_structure_factor_coef Fsqd
_refine_ls_weighting_details
'w=1/[\s^2^(Fo^2^)+(0.0967P)^2^+0.6182P] where P=(Fo^2^+2Fc^2^)/3'
_refine_ls_weighting_scheme      calc
_refine_ls_wR_factor_gt          0.1689
_refine_ls_wR_factor_ref         0.1782
_reflns_Friedel_coverage         0.000
_reflns_number_gt                4017
_reflns_number_total             4972
_reflns_threshold_expression     'I > 2\s(I)'
_cod_data_source_file            jo0c01291_si_002.cif
_cod_data_source_block           exp_1418
_cod_database_code               4038634
_shelx_shelxl_version_number     2017/1
_chemical_oxdiff_formula         'C24 H12 Cl N O6'
_chemical_oxdiff_usercomment     DR-327
_shelx_space_group_comment
;
The symmetry employed for this shelxl refinement is uniquely defined
by the following loop, which should always be used as a source of
symmetry information in preference to the above space-group names.
They are only intended as comments.
;
_shelx_estimated_absorpt_t_max   0.980
_shelx_estimated_absorpt_t_min   0.906
_reflns_odcompleteness_completeness 99.98
_reflns_odcompleteness_iscentric 1
_reflns_odcompleteness_theta     26.32
_olex2_refinement_description
;
1. Fixed Uiso
 At 1.2 times of:
  All C(H) groups
 At 1.5 times of:
  All C(H,H,H) groups
2.a Aromatic/amide H refined with riding coordinates:
 C16(H16), C11(H11), C20(H20), C4(H4), C5(H5), C2(H2), C19(H19), C18(H18),
 C3(H3)
2.b Idealised Me refined as rotating group:
 C12(H12A,H12B,H12C)
;
_smtbx_masks_void_probe_radius   1.2
_smtbx_masks_void_truncation_radius 1.2
_shelx_res_file
;
TITL exp_1418_a.res in P-1
    exp_1418.res
    created by SHELXL-2017/1 at 16:27:26 on 03-Jan-2020
REM Old TITL exp_1418 in P-1 #2
REM SHELXT solution in P-1
REM R1 0.151, Rweak 0.008, Alpha 0.047, Orientation as input
REM Formula found by SHELXT: C26 Cl N2 O4
CELL 0.71073 8.2755 10.0566 14.2145 96.365 98.489 108.418
ZERR 2 0.0003 0.0004 0.0006 0.003 0.003 0.004
LATT 1
SFAC C H Cl N O
UNIT 40 24 2 2 8

L.S. 4
PLAN  20
SIZE 0.106 0.151 0.52
TEMP -173.15(10)
CONF
BOND $H
list 4
fmap 2
acta
MORE -1
ABIN
OMIT -4 55
OMIT -1 1 2
OMIT -1 -2 3
OMIT -1 0 2
OMIT 0 -4 3
OMIT 2 -2 6
OMIT 0 0 2
OMIT 0 -5 4
OMIT 0 -5 5
OMIT -1 2 0
OMIT 2 2 2
OMIT 2 1 2
REM <olex2.extras>
REM <HklSrc "%.\\exp_1418.hkl">
REM </olex2.extras>

WGHT    0.096700    0.618200
FVAR       0.55193
CL1   3    0.427180    1.149561    0.853169    11.00000    0.04291    0.01642 =
         0.04453    0.00737    0.01481    0.00677
O1    5    0.231946    0.450385    0.866000    11.00000    0.01640    0.02049 =
         0.01963    0.00545    0.00455    0.00584
O4    5    0.211484    0.272501    0.353649    11.00000    0.02785    0.02685 =
         0.01386   -0.00002    0.00129    0.01327
O2    5    0.093721    0.459874    0.646702    11.00000    0.02008    0.03246 =
         0.01950    0.00148    0.00235    0.01391
O3    5    0.504021    0.266214    0.449527    11.00000    0.03089    0.03989 =
         0.02106    0.00427    0.00946    0.02050
N1    4    0.567792    0.466455    0.796390    11.00000    0.01265    0.01773 =
         0.01611    0.00494    0.00281    0.00568
C7    1    0.311871    0.526765    0.814621    11.00000    0.01070    0.02032 =
         0.01507    0.00185   -0.00110    0.00575
C9    1    0.358676    0.416232    0.652973    11.00000    0.01419    0.01551 =
         0.01488    0.00390    0.00359    0.00537
C15   1    0.468968    0.364726    0.600991    11.00000    0.01618    0.01626 =
         0.01924    0.00557    0.00497    0.00651
C6    1    0.337837    0.680624    0.822753    11.00000    0.01125    0.02022 =
         0.01673    0.00436    0.00033    0.00553
C8    1    0.409898    0.466612    0.749336    11.00000    0.01328    0.01644 =
         0.01760    0.00443    0.00241    0.00571
C16   1    0.626371    0.365605    0.648241    11.00000    0.01773    0.01868 =
         0.02154    0.00643    0.00780    0.00845
AFIX  43
H16   2    0.699235    0.331868    0.613506    11.00000   -1.20000
AFIX   0
C17   1    0.680182    0.416292    0.747930    11.00000    0.01575    0.01913 =
         0.02207    0.00695    0.00661    0.00770
C11   1    0.144070    0.370690    0.498360    11.00000    0.01665    0.01972 =
         0.01737    0.00427    0.00053    0.00696
AFIX  43
H11   2    0.038721    0.375322    0.464317    11.00000   -1.20000
AFIX   0
C10   1    0.190256    0.418393    0.602110    11.00000    0.01562    0.01575 =
         0.01843    0.00401    0.00240    0.00591
C20   1    0.646174    0.513110    0.892109    11.00000    0.01776    0.02031 =
         0.01559    0.00339    0.00111    0.00545
AFIX  43
H20   2    0.599331    0.552284    0.940937    11.00000   -1.20000
AFIX   0
C4    1    0.422101    0.759973    0.758557    11.00000    0.02002    0.02149 =
         0.01847    0.00431    0.00528    0.00672
AFIX  43
H4    2    0.461728    0.715108    0.708803    11.00000   -1.20000
AFIX   0
C5    1    0.283020    0.747696    0.897003    11.00000    0.01986    0.01943 =
         0.01886    0.00443    0.00636    0.00396
AFIX  43
H5    2    0.227009    0.694021    0.941132    11.00000   -1.20000
AFIX   0
C14   1    0.415181    0.312468    0.496275    11.00000    0.02206    0.01999 =
         0.02014    0.00629    0.00694    0.00865
C2    1    0.309785    0.891389    0.906575    11.00000    0.02454    0.01903 =
         0.02273    0.00040    0.00781    0.00571
AFIX  43
H2    2    0.272385    0.937326    0.956856    11.00000   -1.20000
AFIX   0
C13   1    0.244733    0.320141    0.448516    11.00000    0.02293    0.01522 =
         0.01473    0.00365    0.00250    0.00587
C19   1    0.803307    0.493045    0.904380    11.00000    0.01586    0.02551 =
         0.02165    0.00773   -0.00077    0.00631
AFIX  43
H19   2    0.884295    0.516337    0.963568    11.00000   -1.20000
AFIX   0
C18   1    0.825859    0.432586    0.815644    11.00000    0.01437    0.02539 =
         0.02733    0.00977    0.00369    0.00734
AFIX  43
H18   2    0.923547    0.407448    0.804236    11.00000   -1.20000
AFIX   0
C1    1    0.392799    0.968144    0.841079    11.00000    0.02232    0.01807 =
         0.02570    0.00413    0.00099    0.00503
C3    1    0.447811    0.904348    0.767575    11.00000    0.02213    0.02195 =
         0.02555    0.00918    0.00666    0.00428
AFIX  43
H3    2    0.502879    0.958506    0.723380    11.00000   -1.20000
AFIX   0
C12   1    0.046046    0.266684    0.300218    11.00000    0.02911    0.02758 =
         0.01654    0.00207   -0.00025    0.01141
AFIX 137
H12A  2    0.037935    0.234318    0.231519    11.00000   -1.50000
H12B  2    0.035836    0.361536    0.309135    11.00000   -1.50000
H12C  2   -0.047857    0.200251    0.323754    11.00000   -1.50000
AFIX   0
HKLF 4




REM  exp_1418_a.res in P-1
REM R1 =  0.0553 for    4017 Fo > 4sig(Fo)  and  0.0656 for all    4972 data
REM    236 parameters refined using      0 restraints

END

WGHT      0.0967      0.6185

REM Highest difference peak  0.509,  deepest hole -0.340,  1-sigma level  0.082
Q1    1   0.0818  1.1337  0.9802  11.00000  0.05    0.51
Q2    1   0.0604  0.9703  1.0893  11.00000  0.05    0.48
Q3    1   0.1378  1.1078  1.0687  11.00000  0.05    0.48
Q4    1   0.8950  1.0615  0.8224  11.00000  0.05    0.40
Q5    1  -0.1169 -0.0423  0.4258  11.00000  0.05    0.37
Q6    1  -0.1992  0.0192  0.4857  11.00000  0.05    0.30
Q7    1  -0.0842  0.0199  0.4983  11.00000  0.05    0.30
Q8    1   0.4242  1.1198  0.6646  11.00000  0.05    0.29
Q9    1   0.3089  1.1676  0.6854  11.00000  0.05    0.26
Q10   1   0.4024  0.3811  0.6278  11.00000  0.05    0.24
Q11   1   0.3952  0.4677  0.6949  11.00000  0.05    0.24
Q12   1   0.1718  0.3798  0.5504  11.00000  0.05    0.23
Q13   1   0.3234  0.3810  0.3474  11.00000  0.05    0.23
Q14   1   0.3000  0.9095  0.8478  11.00000  0.05    0.23
Q15   1   0.1050  0.2724  0.2333  11.00000  0.05    0.22
Q16   1   0.2839  0.4178  0.6230  11.00000  0.05    0.22
Q17   1   0.0736  0.2029  0.2137  11.00000  0.05    0.22
Q18   1   0.7476  0.8127  0.9289  11.00000  0.05    0.22
Q19   1   0.6074  0.7468  0.9001  11.00000  0.05    0.22
Q20   1   0.8283  1.1168  0.8319  11.00000  0.05    0.21
;
_shelx_res_checksum              3576
_shelx_hkl_file
;
   0   0  -2   31.99    2.27
   0   0   2   31.00    2.18
   0   0  -2   34.64    2.12
   0   0  -2   29.72    1.63
   0   0   2   30.47    2.07
   0   0   2   30.50    2.58
   0   0   3 1597.27   41.37
   0   0   3 1526.37   43.05
   0   0  -3 1628.36   41.00
   0   0  -3 1562.22   39.68
   0   0  -3 1638.58   43.79
   0   0  -3 1517.28   41.68
   0   0   3 1623.78   41.77
   0   0   4  903.02   26.79
   0   0  -4  894.07   27.22
   0   0  -4  921.44   24.88
   0   0  -4  953.33   26.28
   0   0  -4  972.60   29.75
   0   0   4  945.91   27.33
   0   0   4  900.49   28.84
   0   0  -5   10.06    2.41
   0   0   5    5.52    1.58
   0   0  -5    7.11    1.45
   0   0   5    9.50    1.94
   0   0  -5    7.65    1.70
   0   0  -5    7.25    1.22
   0   0   5    7.50    1.65
   0   0  -6   68.80    5.74
   0   0   6   65.56    6.44
   0   0   6   68.67    5.46
   0   0   6   69.37    5.66
   0   0  -6   83.44    7.58
   0   0  -6   68.52    5.00
   0   0  -6   74.24    4.46
   0   0   7  131.36    8.58
   0   0   7  149.61    9.09
   0   0  -7  142.25   10.70
   0   0  -7  138.68    7.01
   0   0  -7  139.90    7.81
   0   0  -7  135.02    9.01
   0   0   7  124.56    9.87
   0   0   8  108.28    8.28
   0   0  -8  121.68    7.50
   0   0   8  108.50    9.69
   0   0  -8  115.58    6.79
   0   0   8  117.03    7.47
   0   0  -8  143.10   12.67
   0   0   8  123.26    8.73
   0   0  -9   15.73    3.42
   0   0  -9   13.45    2.44
   0   0  -9    8.30    1.93
   0   0   9   15.37    2.43
   0   0  -9   12.02    4.10
   0   0   9   14.90    3.24
   0   0   9   13.76    2.64
   0   0   9   12.70    2.95
   0   0   9   10.37    3.22
   0   0 -10   46.61    8.12
   0   0 -10   64.01    5.64
   0   0  10   62.51    6.78
   0   0 -10   52.36    5.14
   0   0 -10   61.71    6.94
   0   0  10   67.02    7.14
   0   0  10   62.15    5.39
   0   0  10   66.08    8.36
   0   0  10   58.19    5.64
   0   0  11   46.53    5.13
   0   0 -11   43.39    4.98
   0   0 -11   41.74    8.39
   0   0  11   50.87    6.61
   0   0  11   43.85    6.00
   0   0 -11   37.71    4.53
   0   0 -12   61.31    6.06
   0   0 -12   67.95    6.61
   0   0  12   73.03    8.31
   0   0  12   69.49    6.50
   0   0 -12   65.57   11.24
   0   0 -13   14.17    3.26
   0   0 -13   13.74    2.87
   0   0  13   17.45    3.29
   0   0  13   13.49    2.92
   0   0  13   10.38    3.17
   0   0 -14    3.91    1.98
   0   0  14    4.00    1.66
   0   0 -14    3.41    3.55
   0   0  14    5.55    2.67
   0   0  14    4.09    1.72
   0   0 -15   31.90    9.29
   0   0 -15   29.74    5.15
   0   0  15   37.12    6.54
   0   0  15   37.27    4.92
   0   0  16    1.57    1.16
   0   0  16    3.90    2.34
   0   0 -16    7.96    6.28
   0   0 -16    1.38    1.37
   0   0 -17   -0.44    1.84
   0   0  17   -0.25    1.08
   0   0 -17    2.92    5.21
   0   0  18    4.03    2.92
   0   1 -18   14.53    8.16
   0  -1  18    8.47    3.49
   0   1 -17   10.53    5.33
   0   1 -17    8.81    3.26
   0  -1  17   14.20    4.68
   0   1 -16   97.52   15.77
   0   1 -16  114.78   10.60
   0  -1  16  121.78    9.39
   0  -1  16  121.14   12.30
   0   1 -15  100.57   16.84
   0  -1  15   89.12    7.96
   0   1 -15   80.33    8.47
   0  -1  15   91.92   10.51
   0  -1  14  121.73    9.39
   0   1 -14  123.04   15.78
   0   1 -14  120.95    8.60
   0   1 -14  123.34   10.01
   0  -1  14  124.36   11.85
   0   1 -13  181.52   10.73
   0  -1  13  170.87   13.67
   0   1 -13  182.06   11.70
   0   1 -13  183.08   18.16
   0  -1  13  168.40   11.08
   0   1 -12   60.49    5.78
   0   1 -12   69.73    6.46
   0  -1  12   58.57    5.33
   0   1 -12   66.24   10.03
   0  -1  12   62.90    7.67
   0  -1  12   63.03    6.27
   0  -1  11   32.96    3.65
   0  -1  11   32.73    5.22
   0   1 -11   30.19    3.99
   0   1 -11   30.40    3.89
   0   1 -11   26.65    5.86
   0  -1  11   31.27    4.25
   0   1 -10   57.17    5.12
   0  -1  10   59.19    7.70
   0  -1  10   57.64    5.55
   0  -1  10   54.74    4.61
   0  -1  10   53.47    6.38
   0   1 -10   51.84    7.72
   0  -1  10   52.00    4.89
   0   1 -10   52.68    4.95
   0   1 -10   50.37    6.17
   0   1  -9  130.22    8.07
   0  -1   9  126.43   11.13
   0  -1   9  141.53   10.14
   0   1  -9  154.17   12.35
   0  -1   9  139.78    7.87
   0   1  -9  130.70    9.74
   0   1  -9  140.63    7.84
   0  -1   9  131.05    8.43
   0  -1   8  678.24   16.93
   0  -1   8  707.84   20.18
   0   1  -8  660.17   14.60
   0   1  -8  657.42   15.97
   0  -1   8  669.82   23.14
   0   1  -8  656.14   23.07
   0   1  -7  438.17   16.31
   0   1  -7  471.84   20.90
   0   1  -7  452.93   15.34
   0  -1   7  452.22   20.66
   0  -1   7  479.53   18.82
   0  -1   7  448.65   16.89
   0   1  -7  431.28   18.22
   0  -1   6  352.45   14.52
   0   1  -6  317.82    9.26
   0  -1   6  337.66   13.08
   0   1  -6  333.51   11.60
   0  -1   6  319.42   11.59
   0   1  -6  338.05    9.40
   0   1  -6  316.89   12.52
   0  -1   6  317.08   15.73
   0   1  -6  327.52   14.13
   0   1  -6  331.92    9.31
   0   1  -6  336.94   16.06
   0   1  -5  411.80   10.87
   0  -1   5  414.59   15.46
   0   1  -5  385.18   13.72
   0  -1   5  391.49   12.77
   0  -1   5  406.57   17.02
   0   1  -5  376.74   16.51
   0   1  -5  396.06   10.87
   0   1  -5  388.00   15.08
   0  -1   5  402.97   14.16
   0   1  -5  408.96   10.85
   0   1  -5  405.51   12.71
   0  -1   5  388.10   10.87
   0   1  -4  190.65    8.42
   0   1  -4  193.97    9.92
   0  -1   4  213.96    9.19
   0   1  -4  205.95    5.97
   0  -1   4  210.29    8.46
   0   1  -4  201.26    7.16
   0  -1   4  202.53    6.05
   0   1  -4  191.65    8.01
   0   1  -4  214.11    6.02
   0  -1   4  214.86   10.49
   0  -1   4  200.03    7.29
   0  -1   3   84.54    5.60
   0   1  -3   88.99    3.07
   0  -1   3   96.95    3.25
   0   1  -3   89.84    3.08
   0  -1   3   85.60    3.77
   0   1  -3   93.51    5.70
   0  -1   3   90.35    4.89
   0   1  -3   92.53    3.75
   0  -1   3   89.44    4.51
   0   1  -3   91.39    4.65
   0  -1   2  620.74   16.43
   0   1  -2  660.71   16.36
   0   1  -2  618.94   18.95
   0  -1   2  643.67   16.12
   0  -1   2  595.20   18.90
   0   1  -2  638.72   16.03
   0   1  -2  624.57   16.04
   0  -1   2  606.08   17.82
   0  -1   2  610.44   17.46
   0   1  -2  621.33   17.58
   0   1  -1  302.55    9.26
   0  -1   1  305.74    8.44
   0  -1   1  315.13    9.91
   0   1  -1  330.44   10.03
   0  -1   1  311.08    9.30
   0   1  -1  311.25    8.42
   0   1  -1  311.10    8.38
   0  -1   0  563.24   14.53
   0  -1   0  575.27   16.12
   0   1   0  586.46   15.33
   0  -1   0  549.77   15.22
   0  -1  -1  115.69    3.70
   0   1   1  113.67    4.58
   0   1   1  115.86    3.65
   0   1   1  111.48    3.53
   0  -1  -1  110.90    4.68
   0   1   1  119.22    4.73
   0   1   1  109.72    3.64
   0  -1  -1  119.24    3.71
   0  -1  -2  714.30   17.65
   0   1   2  705.58   17.56
   0   1   2  669.69   24.09
   0   1   2  693.68   19.77
   0  -1  -2  666.90   19.93
   0   1   2  693.37   19.71
   0  -1  -2  690.32   19.55
   0  -1  -2  671.22   18.15
   0   1   2  699.58   18.04
   0   1   2  685.02   17.55
   0   1   3    2.50    0.90
   0   1   3    4.80    1.65
   0   1   3    3.22    0.44
   0  -1  -3    3.55    0.94
   0  -1  -3    3.97    0.53
   0   1   3    2.49    0.58
   0  -1  -3    2.09    0.94
   0  -1  -3    2.57    0.57
   0   1   3    3.30    0.44
   0   1   3    2.53    0.85
   0   1   4    1.70    0.75
   0  -1  -4    2.60    1.10
   0  -1  -4    1.10    0.80
   0   1   4    2.60    1.56
   0   1   4    2.23    0.65
   0   1   4    1.82    0.37
   0   1   4    1.42    0.34
   0  -1  -4    2.28    0.69
   0  -1  -4    1.58    0.36
   0  -1  -4    1.85    0.74
   0   1   4    1.51    0.82
   0  -1  -5  715.58   30.90
   0  -1  -5  787.68   21.97
   0   1   5  787.10   24.81
   0  -1  -5  716.50   19.31
   0   1   5  748.00   19.51
   0   1   5  801.04   24.79
   0   1   5  763.74   19.53
   0   1   5  763.18   19.51
   0   1   5  802.64   28.47
   0  -1  -5  765.67   25.09
   0   1   5  765.16   21.60
   0  -1  -5  811.08   23.78
   0   1   6   30.49    3.77
   0  -1  -6   29.03    2.74
   0  -1  -6   26.28    3.62
   0  -1  -6   28.61    5.67
   0   1   6   30.81    1.73
   0  -1  -6   26.96    3.09
   0   1   6   27.22    3.53
   0   1   6   29.72    4.63
   0   1   6   28.33    2.66
   0   1   7   66.66    4.64
   0  -1  -7   57.65    8.57
   0   1   7   77.11    7.82
   0   1   7   69.44    6.27
   0   1   7   76.14    6.40
   0  -1  -7   75.78    5.10
   0  -1  -7   69.14    6.43
   0  -1  -7   78.03    5.77
   0  -1  -8  133.24    8.20
   0   1   8  133.58    9.30
   0  -1  -8  146.06    8.06
   0  -1  -8  119.62   13.23
   0   1   8  140.98    9.79
   0   1   8  146.11    7.56
   0   1   8  138.33   11.35
   0   1   9    3.79    1.32
   0   1   9    2.32    1.17
   0  -1  -9    5.22    2.74
   0  -1  -9    2.02    0.98
   0   1   9    1.85    1.02
   0  -1  -9    2.45    1.14
   0  -1  -9    1.52    1.06
   0   1   9    0.41    0.94
   0   1  10    0.53    0.56
   0  -1 -10   -0.41    2.02
   0   1  10    1.64    1.32
   0  -1 -10   -0.49    1.17
   0  -1 -10    0.27    0.47
   0  -1 -10    1.32    0.69
   0  -1 -11   42.89    5.02
   0  -1 -11   39.78    8.92
   0   1  11   35.90    5.65
   0  -1 -11   35.82    4.56
   0   1  11   41.71    4.88
   0   1  11   39.27    5.62
   0   1  12   18.65    3.98
   0   1  12   12.04    2.72
   0  -1 -12    8.46    4.57
   0   1  12   10.89    3.49
   0  -1 -12   13.77    2.93
   0  -1 -12   17.50    3.41
   0  -1 -13  152.01   20.08
   0  -1 -13  136.30   10.40
   0   1  13  156.47   13.18
   0   1  13  155.20   12.51
   0   1  13  151.13   10.09
   0  -1 -14    9.44    2.89
   0   1  14   12.12    4.04
   0   1  14    7.05    1.94
   0   1  14    8.26    2.80
   0  -1 -14   11.62    5.66
   0  -1 -15    6.64    4.91
   0   1  15    3.79    2.64
   0   1  15    4.05    1.55
   0  -1 -15    4.56    2.25
   0   1  16    4.93    2.79
   0  -1 -16    0.33    0.79
   0  -1 -17    3.16    2.16
   0   1  17    4.24    2.24
   0   1  18   -2.30    1.73
   0   2 -18    4.84    2.93
   0  -2  17    0.44    1.47
   0   2 -17    1.63    1.82
   0   2 -17    1.13    3.63
   0  -2  17    4.53    1.97
   0  -2  16    4.11    1.77
   0   2 -16    6.22    2.40
   0  -2  16    2.74    1.98
   0   2 -16    6.47    3.71
   0  -2  15   16.56    3.50
   0  -2  15   18.64    4.92
   0   2 -15   12.59    4.99
   0   2 -15   18.24    3.87
   0  -2  14   54.18    7.90
   0   2 -14   49.29    6.09
   0  -2  14   51.50    6.07
   0   2 -14   56.02    5.54
   0   2 -14   54.81    9.58
   0  -2  13    3.86    1.25
   0  -2  13    4.50    2.34
   0   2 -13    4.42    1.92
   0  -2  13    4.49    1.85
   0   2 -13    2.43    1.24
   0   2 -13    5.42    1.98
   0   2 -12   17.59    3.19
   0  -2  12   20.89    2.82
   0  -2  12   17.67    3.36
   0  -2  12   17.25    4.02
   0   2 -12   20.92    3.29
   0   2 -12   28.27    6.23
   0   2 -11    0.64    1.87
   0  -2  11    0.25    0.55
   0   2 -11    0.53    0.52
   0  -2  11    2.24    1.57
   0  -2  11   -0.45    0.63
   0   2 -11   -0.19    0.61
   0   2 -10   53.90    6.33
   0  -2  10   42.70    3.63
   0   2 -10   44.20    6.68
   0  -2  10   50.61    4.80
   0  -2  10   43.68    5.84
   0  -2  10   42.25    6.46
   0   2 -10   47.36    4.58
   0   2 -10   43.72    4.52
   0  -2  10   50.02    5.37
   0   2  -9   14.26    1.56
   0  -2   9   15.26    2.43
   0  -2   9   11.77    2.78
   0   2  -9    9.92    3.14
   0  -2   9   15.53    3.96
   0   2  -9   12.27    2.25
   0  -2   9   14.38    1.92
   0   2  -9   14.20    2.26
   0  -2   9   14.75    2.78
   0   2  -9   13.64    3.05
   0   2  -8  109.29    9.37
   0   2  -8  107.83    4.26
   0  -2   8  104.47    6.99
   0   2  -8  106.00    5.73
   0   2  -8   99.15    4.06
   0  -2   8  100.04    4.51
   0   2  -8  105.05    4.21
   0   2  -8  102.54    6.33
   0  -2   8  110.76    8.16
   0  -2   8  100.30    9.05
   0  -2   7  823.67   27.88
   0   2  -7  797.15   21.50
   0   2  -7  734.12   29.09
   0   2  -7  817.84   23.51
   0  -2   7  795.15   30.39
   0  -2   7  847.83   26.47
   0  -2   7  779.97   23.89
   0   2  -7  768.34   24.88
   0   2  -7  827.17   21.67
   0  -2   7  770.12   21.58
   0  -2   7  739.51   21.48
   0   2  -7  787.33   21.57
   0  -2   6  158.59    8.38
   0   2  -6  133.20    7.33
   0   2  -6  180.05    9.10
   0  -2   6  155.34   10.54
   0  -2   6  142.70    5.71
   0   2  -6  167.29    6.86
   0  -2   6  148.21    6.99
   0  -2   6  154.08    9.05
   0   2  -6  148.38    5.63
   0   2  -6  147.28    5.60
   0   2  -6  137.77    9.79
   0  -2   5  143.35    6.40
   0   2  -5  139.95    5.24
   0   2  -5  146.66    7.77
   0  -2   5  145.92    5.56
   0  -2   5  149.01    7.69
   0   2  -5  153.03    6.15
   0  -2   5  157.81    9.88
   0   2  -5  150.17    9.46
   0  -2   5  139.74    8.14
   0   2  -5  150.29    5.43
   0   2  -4    3.01    0.59
   0  -2   4    3.37    0.99
   0  -2   4    1.94    0.89
   0   2  -4    3.69    1.38
   0  -2   4    3.39    0.70
   0  -2   4    3.34    0.79
   0   2  -4    4.92    1.29
   0  -2   4    3.69    1.36
   0   2  -4    2.47    1.08
   0   2  -4    4.30    0.72
   0   2  -4    3.75    1.23
   0   2  -4    4.28    0.79
   0  -2   3  613.26   16.39
   0  -2   3  592.92   18.32
   0  -2   3  559.37   16.38
   0   2  -3  600.27   16.12
   0   2  -3  633.50   20.32
   0  -2   3  541.06   18.42
   0   2  -3  579.22   16.02
   0   2  -3  608.01   18.52
   0   2  -3  581.33   20.36
   0   2  -3  597.68   15.93
   0   2  -3  587.26   18.59
   0   2  -2  413.81   10.83
   0  -2   2  374.22   13.92
   0  -2   2  391.62   13.19
   0   2  -2  399.70   11.43
   0   2  -2  411.14   13.28
   0   2  -2  399.48   14.19
   0  -2   2  412.99   11.74
   0  -2   2  381.31   11.23
   0   2  -2  397.73   11.51
   0  -2   1 1055.94   28.59
   0  -2   1 1007.91   29.39
   0   2  -1 1042.39   27.82
   0  -2   1 1021.95   26.76
   0   2  -1  996.21   29.09
   0   2  -1 1059.28   26.72
   0   2   0 1202.56   32.50
   0  -2   0 1137.48   29.15
   0   2   0 1206.59   30.73
   0   2   0 1070.23   30.41
   0  -2   0 1119.07   30.57
   0   2   0 1121.13   29.04
   0  -2   0 1126.97   32.16
   0  -2  -1   21.15    1.50
   0  -2  -1   21.22    1.67
   0   2   1   21.87    1.61
   0   2   1   23.09    1.68
   0   2   1   22.93    2.27
   0   2   1   22.59    1.26
   0  -2  -2   14.90    2.05
   0   2   2   16.40    1.42
   0   2   2   17.76    1.45
   0  -2  -2   16.27    1.46
   0   2   2   15.71    2.04
   0  -2  -2   15.95    1.46
   0   2   2   15.80    1.24
   0   2   2   16.49    2.09
   0  -2  -3   27.12    2.86
   0   2   3   37.44    2.29
   0   2   3   29.68    2.01
   0  -2  -3   33.61    2.36
   0   2   3   36.77    3.45
   0   2   3   33.78    2.08
   0  -2  -3   32.78    3.44
   0   2   3   28.84    2.96
   0  -2  -3   32.75    2.18
   0   2   4  589.92   27.90
   0   2   4  662.81   18.15
   0  -2  -4  688.24   19.64
   0   2   4  666.11   18.90
   0  -2  -4  653.35   22.81
   0   2   4  652.06   18.16
   0  -2  -4  687.89   21.59
   0  -2  -4  698.77   18.43
   0   2   4  643.50   21.56
   0   2   4  685.68   22.38
   0   2   5   13.98    2.38
   0   2   5   13.57    3.49
   0   2   5   11.38    2.33
   0   2   5   13.34    1.35
   0  -2  -5   11.48    2.02
   0   2   5   13.21    1.34
   0  -2  -5   14.77    1.92
   0  -2  -5   11.36    1.30
   0  -2  -5   12.69    2.54
   0   2   5   14.15    1.69
   0  -2  -6  444.46   16.76
   0   2   6  447.28   13.01
   0   2   6  440.25   14.44
   0   2   6  441.25   18.01
   0  -2  -6  442.80   15.22
   0   2   6  420.53   12.80
   0   2   6  437.08   22.20
   0  -2  -6  429.90   18.34
   0   2   6  416.46   12.86
   0  -2  -6  401.73   12.63
   0   2   6  449.52   17.48
   0   2   7   97.73    4.65
   0   2   7  101.00    4.73
   0   2   7  100.16    4.77
   0   2   7   97.39    7.39
   0   2   7  108.14    6.02
   0   2   7  103.00    8.15
   0   2   7  105.25   10.03
   0  -2  -7   96.89    8.03
   0  -2  -7  101.45    7.06
   0  -2  -7  105.16    6.42
   0   2   8  170.96   11.34
   0   2   8  195.09   11.34
   0   2   8  168.65    8.53
   0  -2  -8  174.05    9.31
   0   2   8  173.30    6.83
   0   2   8  173.35   13.48
   0  -2  -8  181.65   10.20
   0   2   9   -0.50    0.50
   0   2   9    0.29    0.49
   0  -2  -9    0.79    1.14
   0  -2  -9    0.27    0.77
   0  -2  -9    0.36    1.09
   0   2   9    1.52    1.19
   0   2   9    0.06    0.86
   0   2  10   25.19    4.65
   0   2  10   29.25    4.72
   0  -2 -10   28.15    4.00
   0  -2 -10   22.72    3.47
   0  -2 -10   19.58    3.97
   0  -2 -11    6.00    2.26
   0   2  11    4.68    2.25
   0  -2 -11    6.32    2.17
   0   2  11   10.10    2.78
   0   2  12    7.72    2.69
   0   2  12   13.23    3.63
   0  -2 -12   12.99    3.10
   0   2  13   49.44    7.49
   0  -2 -13   51.42    6.43
   0   2  13   60.96    7.62
   0   2  13   58.56    6.03
   0  -2 -14    9.69    2.97
   0   2  14    4.93    1.86
   0   2  14    1.99    2.09
   0   2  14    3.33    1.96
   0   2  15   18.13    4.45
   0   2  15   16.10    3.15
   0  -2 -15   14.69    3.88
   0   2  15   16.45    5.94
   0  -2 -16   -0.49    1.77
   0   2  16   -0.46    1.93
   0   2  16   -0.77    1.72
   0   2  17   -1.66    1.65
   0   2  18   33.82    6.82
   0   3 -18    3.37    4.01
   0   3 -17   -1.15    1.81
   0   3 -17   -1.20    3.22
   0  -3  17    1.29    0.89
   0  -3  17    5.36    2.56
   0  -3  16    0.93    0.70
   0  -3  16    2.70    2.36
   0   3 -16    4.91    2.08
   0   3 -16    0.48    2.15
   0  -3  15   11.88    3.14
   0  -3  15   11.36    3.97
   0   3 -15    6.84    4.03
   0   3 -15   12.65    3.10
   0  -3  14    5.03    0.83
   0   3 -14    8.18    2.56
   0   3 -14    6.01    1.72
   0  -3  14    6.87    3.03
   0  -3  14    2.82    1.42
   0   3 -14    6.42    3.13
   0   3 -13    2.23    1.34
   0  -3  13    0.64    0.45
   0  -3  13   -0.97    1.54
   0   3 -13   -0.22    1.01
   0   3 -13   -0.48    0.90
   0  -3  13   -0.98    1.09
   0  -3  13    0.51    0.35
   0  -3  12    9.40    1.02
   0  -3  12   14.03    3.93
   0  -3  12   11.39    2.80
   0  -3  12    8.50    1.04
   0   3 -12    6.34    2.62
   0   3 -12   11.18    2.48
   0   3 -12   10.35    2.38
   0   3 -11   28.00    3.66
   0  -3  11   23.72    4.51
   0  -3  11   27.10    4.21
   0   3 -11   26.68    2.66
   0   3 -11   21.30    4.94
   0   3 -11   26.20    3.55
   0  -3  10    4.63    1.70
   0   3 -10    2.18    0.83
   0   3 -10    2.80    0.97
   0   3 -10    4.71    1.53
   0   3 -10    3.40    1.16
   0   3 -10    4.28    2.37
   0   3 -10    4.70    1.18
   0  -3  10    2.93    1.61
   0  -3  10    2.92    1.22
   0  -3  10    0.84    0.77
   0   3  -9  325.88   11.52
   0  -3   9  313.39   16.70
   0  -3   9  285.74   12.86
   0   3  -9  341.12   16.52
   0   3  -9  292.61   11.05
   0   3  -9  280.19   17.45
   0   3  -9  312.14   11.20
   0  -3   9  341.40   19.37
   0   3  -9  292.32   13.28
   0  -3   9  313.63   14.91
   0   3  -9  321.42   12.75
   0  -3   9  284.78   10.91
   0   3  -8   19.41    3.26
   0   3  -8   21.79    4.30
   0  -3   8   17.44    2.05
   0  -3   8   23.91    3.59
   0   3  -8   17.43    2.75
   0   3  -8   16.23    2.25
   0  -3   8   21.92    3.77
   0   3  -8   22.81    2.35
   0  -3   8   20.06    4.17
   0   3  -8   19.22    2.08
   0   3  -8   20.31    2.19
   0   3  -7   13.51    1.68
   0  -3   7   17.44    2.84
   0  -3   7   11.87    2.92
   0   3  -7   20.25    3.70
   0   3  -7   15.09    1.76
   0  -3   7   14.01    1.77
   0   3  -7   19.39    2.20
   0  -3   7   13.22    2.76
   0   3  -7   15.32    3.55
   0  -3   7   13.05    2.09
   0   3  -7   11.02    2.48
   0  -3   6    6.57    1.85
   0   3  -6    9.41    2.57
   0   3  -6    9.01    1.46
   0  -3   6    9.16    1.42
   0   3  -6    6.97    1.16
   0  -3   6    9.71    2.66
   0   3  -6   10.97    3.00
   0   3  -6    7.92    1.83
   0  -3   6    6.44    1.37
   0  -3   6    8.53    2.24
   0   3  -6    8.98    1.33
   0   3  -5  108.70    4.95
   0   3  -5  108.57    5.07
   0   3  -5  103.63    6.86
   0  -3   5  107.52    5.54
   0   3  -5  111.08    8.61
   0  -3   5  115.71    5.39
   0  -3   5  110.12    6.93
   0  -3   5   97.16    7.00
   0   3  -5  123.43    8.81
   0   3  -5  108.72    4.94
   0   3  -5  115.29    7.38
   0   3  -4  770.77   26.53
   0  -3   4  786.51   21.70
   0  -3   4  727.95   24.06
   0   3  -4  747.39   21.00
   0   3  -4  789.02   20.27
   0   3  -4  750.30   20.42
   0   3  -4  799.70   24.71
   0   3  -4  762.55   24.43
   0   3  -4  777.62   27.13
   0  -3   4  702.01   21.33
   0   3  -4  736.03   21.03
   0  -3   3  115.80    5.29
   0  -3   3   95.92    4.61
   0   3  -3  118.78    6.64
   0   3  -3  112.95    4.21
   0   3  -3  116.14    5.05
   0   3  -3  116.88    7.56
   0  -3   3  115.29    7.46
   0  -3   3  117.55    6.71
   0   3  -3  109.39    4.99
   0   3  -2 2369.25   59.50
   0   3  -2 2327.40   61.21
   0  -3   2 2391.09   59.96
   0   3  -2 2291.50   63.58
   0  -3   2 2445.84   62.69
   0  -3   2 2335.24   64.11
   0   3  -2 2404.01   57.64
   0   3  -2 2334.68   59.49
   0  -3   1 9248.14  227.59
   0   3  -1 9999.00  229.53
   0  -3   1 9810.66  230.67
   0   3  -1 8974.87  227.29
   0   3  -1 9597.18  231.81
   0   3  -1 9508.58  229.98
   0  -3   1 9672.42  232.12
   0  -3   1 9383.13  229.95
   0   3   0   48.04    3.86
   0   3   0   51.81    4.96
   0  -3   0   43.18    3.83
   0   3   0   43.81    2.91
   0  -3   0   47.29    4.84
   0   3   0   41.11    3.63
   0  -3   0   47.07    3.30
   0   3   0   43.28    2.93
   0  -3  -1   12.13    1.95
   0  -3  -1   14.60    1.69
   0   3   1   10.49    0.90
   0  -3  -1   11.88    1.31
   0  -3  -1   13.29    2.58
   0   3   1   12.55    1.96
   0   3   1   13.90    1.54
   0   3   1   15.19    1.60
   0   3   1    9.73    1.68
   0  -3  -2   -0.07    0.25
   0   3   2    0.11    0.26
   0   3   2    0.13    0.20
   0  -3  -2    0.44    0.50
   0   3   2    0.03    0.50
   0   3   2    1.03    0.55
   0   3   2   -0.21    0.60
   0   3   3  210.05    7.84
   0   3   3  231.02   10.73
   0  -3  -3  207.21   10.03
   0  -3  -3  232.49    8.40
   0   3   3  217.24    7.32
   0   3   3  218.84   10.21
   0   3   3  204.78    7.74
   0  -3  -3  192.65    8.03
   0   3   4    8.72    1.31
   0  -3  -4    9.04    2.21
   0  -3  -4    9.39    1.58
   0  -3  -4   10.61    1.48
   0   3   4    8.83    1.30
   0   3   4    6.68    1.79
   0   3   4    8.60    1.25
   0   3   4    5.96    1.55
   0  -3  -4   11.12    2.17
   0   3   5  167.06    6.89
   0   3   5  176.08   10.35
   0  -3  -5  162.90   10.47
   0   3   5  166.97    7.07
   0  -3  -5  173.64    7.10
   0   3   5  172.13    9.48
   0   3   5  167.79    6.94
   0   3   5  131.17   13.04
   0  -3  -5  176.79    9.57
   0  -3  -5  177.31    8.08
   0   3   6    9.51    1.60
   0   3   6   14.45    2.75
   0   3   6    9.01    1.41
   0   3   6    8.08    1.47
   0  -3  -6   10.80    2.28
   0  -3  -6   11.03    1.62
   0   3   6    9.41    2.44
   0  -3  -6   11.32    2.00
   0  -3  -6   10.49    2.87
   0   3   6    9.14    3.90
   0   3   7   37.05    6.50
   0   3   7   33.51    2.90
   0  -3  -7   36.83    2.99
   0   3   7   40.84    4.78
   0   3   7   33.49    2.92
   0   3   7   35.45    3.05
   0   3   7   44.39    5.47
   0   3   7   37.78    3.40
   0  -3  -7   32.68    3.66
   0  -3  -7   37.92    4.46
   0   3   8   74.43    9.23
   0   3   8   62.93    4.81
   0   3   8   62.78    4.11
   0   3   8   70.39    4.35
   0   3   8   61.07    6.81
   0   3   8   59.33    4.10
   0  -3  -8   68.12    5.65
   0   3   8   58.31    6.00
   0  -3  -8   68.06    6.08
   0  -3  -9   10.29    2.50
   0   3   9    6.89    1.66
   0  -3  -9    8.17    2.13
   0   3   9    7.64    1.42
   0   3   9    8.76    1.53
   0   3   9    8.97    2.74
   0   3   9    5.67    1.86
   0  -3  -9    4.17    1.83
   0   3  10   26.34    4.91
   0  -3 -10   30.48    4.28
   0  -3 -10   29.63    5.40
   0   3  10   24.24    2.51
   0   3  10   24.98    4.29
   0   3  11    0.05    0.82
   0  -3 -11    0.15    0.80
   0   3  11    1.00    1.41
   0  -3 -12   62.66    6.93
   0   3  12   62.04    7.45
   0   3  12   57.62    8.02
   0   3  13    1.06    0.87
   0  -3 -13    2.28    1.71
   0   3  13    2.79    1.71
   0   3  14    3.10    2.34
   0  -3 -14    2.38    1.99
   0   3  14   -0.36    0.85
   0   3  15   13.26    4.08
   0   3  15   17.52    4.39
   0  -3 -15   19.07    4.58
   0  -3 -16   -0.17    1.73
   0   3  16    2.38    2.11
   0   3  16    5.10    2.83
   0   3  17    0.42    1.27
   0   3  17    0.85    1.52
   0  -4  18    0.71    1.12
   0   4 -18    3.91    3.17
   0   4 -17   16.50    3.96
   0   4 -17   10.46    4.05
   0  -4  17   10.15    3.86
   0  -4  17   17.48    4.17
   0  -4  16   13.92    3.59
   0  -4  16   16.63    4.76
   0   4 -16   19.78    4.09
   0   4 -16   22.88    6.39
   0   4 -15    5.01    2.95
   0  -4  15    6.60    2.87
   0   4 -15   11.22    2.94
   0  -4  15    8.48    2.68
   0   4 -14   24.34    4.08
   0  -4  14   28.75    5.04
   0  -4  14   29.87    6.12
   0   4 -14   15.01    4.49
   0   4 -13   49.73    8.22
   0  -4  13   36.63    6.60
   0   4 -13   56.12    5.56
   0  -4  13   47.69    6.24
   0   4 -13   48.42    4.14
   0   4 -13   54.56    5.75
   0  -4  12   20.37    3.95
   0  -4  12   17.12    4.32
   0   4 -12   21.66    2.79
   0   4 -12   24.64    3.58
   0   4 -12   19.32    3.28
   0   4 -12   21.63    5.42
   0   4 -12   19.37    2.62
   0  -4  11   18.56    3.70
   0   4 -11   18.41    2.48
   0  -4  11   18.62    4.28
   0   4 -11   16.45    4.35
   0   4 -11   19.77    3.18
   0   4 -11   19.30    3.05
   0   4 -11   20.69    4.45
   0   4 -11   20.64    2.71
   0   4 -11   19.30    2.60
   0   4 -10    5.81    1.72
   0   4 -10    5.91    1.36
   0   4 -10    6.06    2.30
   0  -4  10    9.20    2.09
   0   4 -10    7.67    1.64
   0  -4  10    7.84    2.68
   0   4 -10    7.34    1.69
   0  -4  10    5.73    2.16
   0  -4  10    5.38    1.29
   0   4 -10    7.64    1.65
   0   4 -10    8.00    2.67
   0   4  -9  674.78   21.10
   0   4  -9  711.14   21.86
   0  -4   9  648.19   27.30
   0   4  -9  693.55   29.01
   0   4  -9  666.99   26.06
   0  -4   9  669.37   25.80
   0   4  -9  709.43   27.28
   0  -4   9  644.34   21.32
   0   4  -9  641.13   29.80
   0   4  -9  679.85   21.96
   0  -4   9  658.15   23.26
   0  -4   9  652.12   29.62
   0   4  -9  694.43   21.38
   0  -4   8   45.96    3.82
   0   4  -8   44.31    6.47
   0  -4   8   42.84    5.09
   0   4  -8   45.15    3.76
   0   4  -8   47.09    5.52
   0  -4   8   41.54    5.45
   0  -4   8   45.47    6.33
   0   4  -8   46.87    6.33
   0   4  -8   47.99    3.74
   0   4  -8   46.14    5.32
   0   4  -8   43.17    3.51
   0  -4   7    8.33    1.57
   0   4  -7   12.41    1.73
   0   4  -7    6.68    1.92
   0   4  -7    8.29    1.46
   0   4  -7   11.40    3.09
   0   4  -7   11.18    2.61
   0  -4   7   13.41    2.68
   0   4  -7   11.43    1.72
   0  -4   7    8.41    2.14
   0   4  -7    8.43    2.70
   0  -4   7    6.64    1.53
   0   4  -6  104.87    7.66
   0   4  -6  115.34    9.94
   0   4  -6  115.78    8.16
   0  -4   6  102.66    6.00
   0   4  -6  104.81    5.58
   0  -4   6  107.38    5.98
   0  -4   6  110.72    7.79
   0   4  -6  112.93    9.31
   0   4  -6  107.50    5.22
   0   4  -6  106.29    5.52
   0   4  -5  359.53   15.43
   0   4  -5  343.35   12.14
   0   4  -5  346.41   15.27
   0   4  -5  362.50   11.45
   0  -4   5  326.77   12.16
   0   4  -5  349.11   17.95
   0   4  -5  370.73   11.22
   0  -4   5  376.74   13.06
   0  -4   5  321.88   14.74
   0   4  -5  366.53   17.47
   0   4  -5  329.21   11.90
   0   4  -4   17.37    2.03
   0   4  -4   22.00    2.82
   0   4  -4   23.83    4.15
   0  -4   4   23.12    2.53
   0  -4   4   21.09    3.62
   0  -4   4   18.03    2.92
   0   4  -4   19.75    2.95
   0   4  -4   21.20    3.53
   0   4  -4   17.39    2.02
   0   4  -4   17.77    1.53
   0   4  -3   27.02    3.08
   0   4  -3   26.40    3.75
   0  -4   3   26.17    3.79
   0  -4   3   31.66    2.98
   0   4  -3   31.73    1.78
   0   4  -3   30.34    2.60
   0   4  -3   28.73    3.43
   0   4  -3   29.01    2.61
   0  -4   3   27.80    3.51
   0   4  -2   13.51    1.75
   0  -4   2   12.37    2.66
   0   4  -2   12.34    1.73
   0   4  -2   11.30    2.39
   0   4  -2   11.43    2.16
   0   4  -2   14.09    2.21
   0   4  -2   13.96    0.96
   0  -4   2   15.64    2.61
   0  -4   2   16.82    2.18
   0   4  -1 1129.61   32.32
   0  -4   1 1054.55   33.02
   0   4  -1 1081.06   32.39
   0  -4   1 1130.67   30.73
   0  -4   1 1018.75   34.73
   0  -4   1 1035.14   32.64
   0   4  -1 1099.10   29.97
   0   4  -1 1077.97   34.61
   0  -4   0   61.52    4.21
   0  -4   0   48.89    4.61
   0   4   0   62.67    2.19
   0   4   0   59.02    3.88
   0  -4   0   64.61    6.31
   0   4   0   65.01    5.13
   0   4   0   53.87    3.68
   0   4   0   58.91    4.81
   0   4   0   69.70    6.59
   0   4   1 1104.76   31.72
   0  -4  -1 1140.74   34.98
   0  -4  -1 1155.18   38.35
   0   4   1 1193.51   29.03
   0   4   1 1059.30   33.81
   0  -4  -1 1269.07   32.81
   0   4   1 1110.38   31.69
   0   4   1 1198.59   35.25
   0   4   2  217.42    6.87
   0   4   2  235.02   11.41
   0   4   2  203.81    8.35
   0   4   2  201.70    8.41
   0   4   2  205.87   10.84
   0  -4  -2  208.80   12.82
   0  -4  -2  231.85    9.19
   0  -4  -2  193.36    8.20
   0   4   2  189.64    9.86
   0   4   3   10.64    1.25
   0   4   3   10.46    1.63
   0   4   3   10.02    1.57
   0   4   3    9.00    2.12
   0   4   3    7.19    1.93
   0  -4  -3    9.56    1.60
   0  -4  -3    9.96    1.71
   0   4   4   67.28    4.27
   0  -4  -4   73.61    4.74
   0   4   4   64.31    5.73
   0   4   4   67.69    6.26
   0  -4  -4   61.47    4.50
   0   4   4   71.69    3.89
   0   4   4   60.07    4.15
   0   4   5    1.40    1.14
   0  -4  -5   -0.01    0.31
   0   4   5   -0.33    0.58
   0  -4  -5   -0.24    0.32
   0   4   5    0.20    0.49
   0  -4  -5    0.09    0.68
   0   4   5   -0.09    0.43
   0   4   5    0.85    0.34
   0  -4  -6   21.34    2.90
   0  -4  -6   21.45    3.88
   0   4   6   25.81    3.80
   0   4   6   22.05    5.78
   0  -4  -6   18.45    3.20
   0   4   6   23.15    2.48
   0  -4  -6   20.14    2.47
   0   4   6   25.75    4.25
   0   4   6   21.30    2.43
   0   4   6   20.88    2.47
   0   4   7   65.06    4.69
   0   4   7   73.52    5.14
   0   4   7   73.99    7.75
   0  -4  -7   67.78    5.73
   0   4   7   55.55    8.95
   0   4   7   70.15    4.87
   0  -4  -7   67.92    4.84
   0   4   7   79.03    6.99
   0   4   7   76.47    5.02
   0  -4  -7   66.97    6.43
   0  -4  -8   18.42    4.09
   0   4   8   16.71    2.39
   0   4   8   16.28    2.41
   0   4   8   14.24    2.30
   0   4   8   11.49    1.93
   0   4   8   16.80    3.37
   0  -4  -8   16.32    2.97
   0   4   8   15.75    3.75
   0  -4  -8   14.51    2.16
   0  -4  -8   13.15    2.94
   0   4   9    0.39    0.92
   0   4   9    0.92    0.82
   0   4   9    0.40    0.56
   0   4   9    0.50    0.50
   0   4   9    1.45    1.55
   0  -4  -9    2.90    1.70
   0  -4  -9    0.15    0.43
   0   4   9    0.29    0.71
   0  -4 -10    9.07    2.95
   0   4  10    7.67    2.97
   0   4  10    7.39    1.63
   0  -4 -10    9.95    2.51
   0   4  10    7.20    1.77
   0   4  10    8.07    2.70
   0   4  11  166.18    8.53
   0   4  11  184.15   14.76
   0  -4 -11  174.60   12.02
   0   4  11  182.18   12.74
   0   4  12    5.33    1.99
   0   4  12    9.38    3.50
   0  -4 -12    4.02    1.88
   0   4  13   -1.09    1.58
   0   4  13    0.64    1.09
   0  -4 -13   -0.53    1.27
   0   4  14   15.60    4.64
   0   4  14   17.67    4.31
   0  -4 -14   17.83    4.18
   0   4  15   25.76    6.08
   0  -4 -15   28.56    5.62
   0   4  15   24.81    5.59
   0   4  16    1.30    1.87
   0  -4 -16    0.26    1.34
   0   4  16    1.10    1.17
   0   4  17    7.33    2.93
   0   4  17    1.51    1.19
   0  -5  18    4.08    2.12
   0  -5  17   20.82    4.81
   0   5 -17   14.59    5.30
   0   5 -17   11.02    3.26
   0   5 -16   13.07    3.27
   0  -5  16   10.83    3.06
   0   5 -15   68.56   10.65
   0  -5  15   85.20    9.05
   0   5 -15   78.46    7.67
   0  -5  14   53.92    7.09
   0   5 -14   55.15    9.15
   0   5 -14   42.52    5.39
   0   5 -13   -1.13    1.31
   0   5 -13    1.74    1.04
   0  -5  13    0.89    0.76
   0   5 -13    1.07    1.16
   0   5 -12    4.03    1.35
   0   5 -12    4.19    1.43
   0   5 -12    0.10    1.36
   0   5 -12    3.83    1.34
   0   5 -12    6.75    1.77
   0   5 -12    6.78    1.97
   0  -5  12   -0.12    1.18
   0   5 -11   50.16    8.14
   0   5 -11   67.43    5.63
   0   5 -11   62.76    5.36
   0   5 -11   59.96    5.13
   0   5 -11   61.06    5.37
   0  -5  11   58.92    5.10
   0  -5  11   65.11    7.23
   0   5 -11   49.14    5.42
   0   5 -10   -0.36    1.03
   0  -5  10   -0.36    0.77
   0   5 -10    0.16    1.04
   0   5 -10   -0.01    0.46
   0   5 -10    0.02    0.85
   0   5 -10    0.98    0.86
   0   5 -10    0.14    0.51
   0  -5  10    0.08    0.74
   0  -5  10    0.35    0.51
   0  -5   9    1.76    0.96
   0   5  -9    3.15    2.11
   0   5  -9    2.28    0.93
   0   5  -9    1.08    1.20
   0   5  -9    3.18    0.96
   0  -5   9    2.88    1.01
   0   5  -9    1.10    1.71
   0   5  -9    2.24    0.94
   0   5  -9    1.19    0.93
   0  -5   9    0.04    0.96
   0   5  -8  161.09   10.94
   0   5  -8  171.11    7.81
   0   5  -8  171.66   13.10
   0  -5   8  152.54   10.65
   0  -5   8  155.82    8.49
   0   5  -8  140.16    7.69
   0   5  -8  172.81   11.39
   0   5  -8  158.98    8.13
   0   5  -8  149.11   13.04
   0   5  -7   56.25    6.01
   0  -5   7   55.72    6.07
   0   5  -7   54.18    3.77
   0   5  -7   56.23    4.30
   0   5  -7   57.64    6.17
   0   5  -7   53.54    7.38
   0   5  -7   55.72    7.13
   0  -5   7   52.47    4.54
   0   5  -7   54.45    4.25
   0   5  -6   14.00    2.05
   0   5  -6   12.08    1.67
   0   5  -6   12.99    1.60
   0   5  -6   18.84    2.97
   0   5  -6   16.27    3.83
   0   5  -6   14.01    2.01
   0  -5   6   13.39    2.20
   0  -5   6   11.82    2.71
   0   5  -6   11.97    2.60
   0   5  -6   14.97    3.03
   0   5  -6   14.02    3.25
   0   5  -5   17.25    2.27
   0   5  -5   15.37    2.70
   0  -5   5   17.51    2.52
   0   5  -5   18.31    3.97
   0   5  -5   18.96    3.25
   0   5  -5   19.25    3.71
   0  -5   5   17.64    3.15
   0   5  -5   17.93    1.67
   0   5  -5   15.04    2.13
   0  -5   5   18.58    3.67
   0   5  -4   16.64    2.22
   0  -5   4   15.18    3.26
   0   5  -4   18.86    2.82
   0  -5   4   16.74    3.12
   0   5  -4   18.02    3.44
   0   5  -4   18.88    2.35
   0   5  -4   18.00    1.48
   0  -5   4   22.36    2.74
   0   5  -4   17.75    2.99
   0   5  -3   51.13    3.96
   0   5  -3   51.76    3.95
   0   5  -3   49.89    5.64
   0  -5   3   50.86    4.26
   0   5  -3   48.70    2.23
   0   5  -3   45.82    4.77
   0   5  -3   49.58    4.62
   0  -5   3   47.65    5.81
   0  -5   3   49.84    5.35
   0   5  -2    7.00    2.09
   0  -5   2    9.17    2.71
   0  -5   2   10.56    1.97
   0  -5   2    8.55    2.21
   0   5  -2    8.35    0.61
   0   5  -2    8.45    1.99
   0   5  -2    7.81    1.48
   0   5  -1   45.59    3.66
   0  -5   1   44.56    4.79
   0  -5   1   45.65    5.70
   0   5  -1   43.90    5.39
   0   5  -1   48.33    4.69
   0  -5   1   47.41    4.14
   0   5   0  314.04    8.25
   0   5   0  332.37   14.50
   0   5   0  314.34   11.99
   0  -5   0  352.73   13.20
   0  -5   0  312.64   16.76
   0   5   1  187.30   10.48
   0   5   1  161.88    7.90
   0  -5  -1  189.12    8.93
   0   5   1  174.96    5.42
   0  -5  -1  184.79   12.39
   0   5   1  164.72    9.56
   0   5   2   45.82    5.09
   0   5   2   37.90    2.21
   0   5   2   40.57    4.46
   0   5   2   41.40    4.93
   0  -5  -2   41.42    3.83
   0  -5  -2   34.80    5.38
   0   5   2   35.92    3.37
   0  -5  -3    0.99    1.67
   0   5   3    2.07    1.46
   0  -5  -3    0.72    0.49
   0   5   3    1.13    0.45
   0   5   3    1.22    0.92
   0   5   3    1.39    1.17
   0   5   3    0.75    0.51
   0   5   4    0.55    0.40
   0  -5  -4    1.61    0.91
   0  -5  -4    0.33    0.39
   0   5   4   -0.11    0.78
   0   5   4    0.08    0.27
   0  -5  -4    0.31    0.48
   0   5   5   82.11    4.76
   0   5   5   84.69    5.60
   0  -5  -5   88.31    6.26
   0  -5  -5   93.14    6.18
   0  -5  -5   81.06    7.17
   0   5   5   85.02    7.28
   0   5   5   89.95    8.37
   0   5   6   57.12    4.69
   0  -5  -6   55.70    5.25
   0   5   6   54.38    6.72
   0  -5  -6   61.07    6.39
   0  -5  -6   60.04    4.94
   0   5   6   64.28    6.32
   0   5   6   57.37    4.14
   0  -5  -7    0.14    0.40
   0  -5  -7    1.84    1.09
   0   5   7   -0.21    1.10
   0   5   7    2.13    1.16
   0   5   7    1.23    0.73
   0   5   7    0.78    0.67
   0  -5  -8    2.93    1.35
   0  -5  -8    1.19    0.74
   0   5   8    3.03    2.18
   0   5   8    1.94    0.93
   0   5   8    2.56    1.36
   0   5   8    1.22    0.82
   0  -5  -8    0.47    1.07
   0   5   9  103.00   10.72
   0  -5  -9   98.93    8.48
   0  -5  -9   97.92   10.05
   0   5   9  100.47    7.15
   0   5   9  115.86    9.64
   0   5  10   14.05    4.48
   0   5  10   10.41    2.20
   0   5  10   17.18    3.81
   0  -5 -10   16.54    3.54
   0   5  11   25.63    5.72
   0   5  11   26.63    4.82
   0  -5 -11   21.92    4.28
   0  -5 -12   33.57    5.42
   0   5  12   40.52    7.22
   0   5  12   25.66    4.72
   0   5  13    4.12    1.98
   0   5  13    2.58    1.89
   0  -5 -13   -0.18    1.17
   0   5  14   20.18    4.74
   0   5  14   22.04    5.46
   0  -5 -14   17.08    4.11
   0   5  15    3.41    1.79
   0   5  15    2.83    2.07
   0  -5 -15   -0.36    1.82
   0   5  16   -0.03    1.73
   0  -6  18    4.45    2.27
   0   6 -17    1.94    1.94
   0  -6  17    4.84    2.30
   0   6 -17    3.05    1.92
   0   6 -16    7.04    3.67
   0  -6  16   16.45    4.28
   0   6 -16    8.72    2.80
   0   6 -15    4.20    2.33
   0   6 -15    8.37    2.44
   0  -6  15    2.72    1.98
   0   6 -14    2.74    1.37
   0   6 -14    3.56    3.07
   0   6 -14    1.30    1.47
   0  -6  14   -1.35    1.63
   0  -6  13    6.98    2.69
   0   6 -13    9.28    3.88
   0   6 -13    7.07    2.12
   0   6 -13    4.38    1.70
   0   6 -12   32.70    4.26
   0  -6  12   31.91    5.51
   0   6 -12   29.48    4.02
   0   6 -12   23.83    3.54
   0   6 -12   29.51    6.67
   0   6 -12   24.65    3.60
   0   6 -12   32.68    4.52
   0   6 -11    8.61    2.29
   0   6 -11    4.69    1.49
   0   6 -11   10.20    2.25
   0   6 -11    9.47    2.10
   0   6 -11    5.78    2.90
   0  -6  11    6.08    2.41
   0  -6  11    9.03    1.98
   0   6 -10   43.86    4.61
   0  -6  10   40.57    4.59
   0  -6  10   36.39    5.67
   0   6 -10   44.26    7.82
   0   6 -10   41.45    4.63
   0   6 -10   44.78    4.69
   0   6 -10   44.49    4.21
   0   6  -9   64.26    8.85
   0  -6   9   54.82    5.24
   0   6  -9   52.99    8.47
   0   6  -9   54.47    4.99
   0   6  -9   55.52    4.41
   0   6  -9   52.27    4.93
   0   6  -9   48.74    4.97
   0  -6   9   56.14    6.87
   0   6  -8   74.14    6.69
   0   6  -8   68.68    9.26
   0   6  -8   63.89    5.23
   0   6  -8   65.67    4.52
   0   6  -8   67.77    5.42
   0  -6   8   63.30    5.59
   0   6  -8   77.09    9.24
   0  -6   8   59.42    6.91
   0   6  -7   66.55    4.38
   0   6  -7   64.99    8.72
   0   6  -7   71.07    7.26
   0   6  -7   68.78    6.23
   0   6  -7   60.26    4.96
   0  -6   7   64.26    7.09
   0   6  -7   82.16    9.07
   0  -6   7   73.82    5.85
   0   6  -7   71.75    7.29
   0   6  -7   69.55    4.28
   0   6  -7   68.05    5.29
   0   6  -6   89.56    9.87
   0  -6   6   80.36    6.22
   0   6  -6   88.84    7.03
   0   6  -6   85.34    5.85
   0   6  -6   86.02    7.72
   0  -6   6   95.45    8.52
   0   6  -6   92.20    8.05
   0   6  -6   82.50    5.82
   0   6  -6   98.83    6.08
   0  -6   6   87.28    9.06
   0   6  -6   90.06    4.56
   0   6  -6   80.32    8.57
   0   6  -5  210.27    7.32
   0   6  -5  204.16   11.10
   0   6  -5  204.21   12.30
   0  -6   5  206.81   14.13
   0  -6   5  189.83   12.55
   0   6  -5  193.27    9.49
   0   6  -5  210.00   12.39
   0  -6   5  222.31   10.78
   0   6  -5  199.52   13.52
   0   6  -5  204.96    9.71
   0  -6   4   51.45    6.70
   0  -6   4   61.17    6.57
   0   6  -4   64.28    4.92
   0  -6   4   67.75    5.46
   0   6  -4   72.47    6.62
   0   6  -4   61.83    6.19
   0   6  -4   61.00    4.72
   0   6  -4   66.08    5.82
   0   6  -4   62.40    7.05
   0   6  -4   59.47    2.86
   0  -6   3  669.52   27.34
   0   6  -3  717.46   28.94
   0   6  -3  817.19   27.70
   0   6  -3  762.58   19.04
   0  -6   3  772.86   25.13
   0  -6   3  729.96   30.03
   0   6  -3  740.21   25.94
   0   6  -3  741.21   23.81
   0   6  -3  734.68   26.96
   0   6  -3  727.12   23.79
   0   6  -2  402.15   15.15
   0   6  -2  405.76   17.16
   0   6  -2  412.17   19.93
   0   6  -2  417.72   15.20
   0   6  -2  388.46   17.47
   0  -6   2  386.37   20.23
   0  -6   2  428.16   16.36
   0  -6   1  116.28    7.24
   0   6  -1  100.98    6.30
   0   6  -1   97.31    6.22
   0  -6   1   97.18    9.39
   0   6  -1  107.15    7.90
   0   6  -1  101.23    9.40
   0   6  -1  111.44    8.10
   0  -6   1   93.64    7.77
   0  -6   0   10.74    3.23
   0   6   0    9.00    1.78
   0  -6   0   11.03    2.25
   0   6   0    9.75    2.52
   0   6   0   10.53    2.54
   0   6   0    6.89    1.63
   0  -6   0   11.35    2.64
   0   6   1    7.02    1.60
   0  -6  -1    7.38    1.73
   0   6   1    7.76    0.77
   0   6   1    4.28    1.69
   0  -6  -1    4.44    1.61
   0   6   1    8.40    1.71
   0  -6  -1    5.08    2.34
   0   6   1    6.89    2.03
   0   6   2   25.64    4.16
   0   6   2   23.75    3.62
   0  -6  -2   22.49    3.08
   0   6   2   24.44    4.16
   0   6   2   19.51    2.69
   0  -6  -2   20.40    4.25
   0   6   2   23.89    1.73
   0   6   2   24.81    3.06
   0  -6  -2   22.13    3.79
   0   6   3   25.59    3.80
   0   6   3   23.06    1.96
   0  -6  -3   23.70    4.97
   0   6   3   28.06    4.51
   0   6   3   27.57    4.44
   0   6   3   32.54    3.51
   0   6   3   22.10    2.94
   0  -6  -3   25.04    3.29
   0  -6  -3   23.13    3.93
   0   6   4    0.89    0.50
   0   6   4    2.51    1.21
   0   6   4    0.08    0.92
   0  -6  -4    2.73    1.20
   0   6   4    0.95    0.91
   0   6   4    3.09    1.57
   0  -6  -4    0.33    1.16
   0  -6  -4    0.34    0.59
   0   6   4    1.68    0.81
   0   6   5   19.45    2.84
   0   6   5   24.43    3.22
   0   6   5   21.84    4.29
   0   6   5   22.88    3.83
   0   6   5   23.44    3.96
   0   6   5   20.84    2.27
   0  -6  -5   15.30    2.65
   0  -6  -5   24.20    5.32
   0  -6  -5   22.64    3.29
   0   6   6  107.91    6.16
   0   6   6  108.12    7.69
   0   6   6  117.90   10.66
   0   6   6  104.26    8.48
   0   6   6  107.22    7.36
   0  -6  -6  111.90    8.10
   0   6   6  107.49    7.31
   0  -6  -6  118.73    7.92
   0   6   6  105.79    8.83
   0   6   7   24.96    3.40
   0   6   7   30.51    5.77
   0   6   7   23.88    3.48
   0   6   7   22.25    2.91
   0   6   7   18.60    3.15
   0  -6  -7   23.86    3.90
   0  -6  -7   22.15    3.32
   0   6   7   26.63    4.40
   0   6   8   33.80    6.16
   0  -6  -8   34.60    4.85
   0   6   8   36.04    5.27
   0   6   8   39.25    4.44
   0  -6  -8   34.56    4.25
   0   6   8   36.42    4.40
   0   6   8   36.31    3.87
   0   6   8   31.22    4.18
   0   6   9  178.38   10.58
   0   6   9  182.01   10.84
   0   6   9  185.88   10.80
   0   6   9  195.44   12.94
   0   6   9  187.43   15.40
   0  -6  -9  190.63   12.49
   0  -6  -9  150.75    9.51
   0   6  10    6.34    2.46
   0   6  10    7.08    3.65
   0   6  10    9.23    2.34
   0  -6 -10    7.96    2.40
   0   6  11    1.09    1.74
   0   6  11   -0.97    2.04
   0   6  11    1.08    0.61
   0  -6 -11    1.16    1.33
   0  -6 -12   17.06    4.10
   0   6  12   18.08    5.04
   0   6  12   23.42    4.59
   0   6  13   -1.63    1.19
   0   6  13    4.25    2.28
   0  -6 -13    2.81    2.03
   0   6  14   16.49    5.34
   0   6  14   11.13    3.35
   0  -6 -14   11.82    3.88
   0  -6 -15   11.14    3.98
   0  -7  18   10.53    3.82
   0  -7  17   23.82    5.38
   0   7 -17   21.69    4.49
   0   7 -16    0.67    1.41
   0  -7  16    0.16    1.33
   0   7 -16    3.14    1.70
   0   7 -15    0.93    2.07
   0   7 -15    0.07    0.80
   0  -7  15    0.66    1.41
   0   7 -14    4.20    1.65
   0   7 -14    1.52    1.40
   0  -7  14    7.75    3.30
   0   7 -14    4.13    3.37
   0   7 -13   54.39    6.29
   0   7 -13   44.43    5.48
   0  -7  13   46.81    7.16
   0   7 -13   35.44    7.85
   0   7 -13   38.83    4.77
   0  -7  12    0.36    1.19
   0   7 -12   -0.82    1.03
   0  -7  12    0.06    0.71
   0   7 -12    0.95    1.02
   0   7 -12   -0.33    1.17
   0   7 -12    0.78    1.13
   0  -7  11    1.09    1.03
   0  -7  11   -0.08    1.18
   0   7 -11    1.43    1.45
   0   7 -11    0.56    0.80
   0   7 -11    0.03    0.48
   0   7 -11    1.03    0.72
   0   7 -10  216.10   18.87
   0  -7  10  211.29   12.40
   0   7 -10  244.31   12.88
   0  -7  10  197.00   14.87
   0   7 -10  223.50   10.62
   0   7 -10  264.55   14.21
   0  -7   9   18.76    3.30
   0   7  -9   15.54    2.33
   0   7  -9   10.73    2.49
   0   7  -9   15.11    3.23
   0   7  -9   13.38    4.56
   0  -7   9   15.57    3.78
   0   7  -8   98.10   11.71
   0   7  -8  103.60    5.83
   0  -7   8  100.86    9.83
   0   7  -8   96.37    4.56
   0   7  -8   99.82    5.35
   0   7  -8  122.16   12.17
   0  -7   8  101.80    7.86
   0   7  -8  101.48    8.19
   0   7  -7  373.78   14.36
   0   7  -7  303.79   21.12
   0  -7   7  333.90   20.36
   0   7  -7  330.28   11.72
   0  -7   7  306.72   18.13
   0   7  -7  344.85   21.04
   0   7  -7  340.67   16.23
   0  -7   7  319.42   14.99
   0   7  -6  201.63    7.64
   0   7  -6  186.37   14.54
   0  -7   6  183.06   13.39
   0   7  -6  217.05   13.50
   0   7  -6  195.72   15.94
   0  -7   6  193.53   14.58
   0  -7   6  185.88   10.80
   0   7  -6  207.55   11.75
   0   7  -5   13.54    3.18
   0   7  -5   13.79    3.51
   0  -7   5   12.34    3.18
   0   7  -5   11.94    2.64
   0  -7   5   12.87    2.59
   0  -7   5   17.42    4.12
   0   7  -5   14.60    1.45
   0  -7   4  104.54    9.38
   0   7  -4   84.26    8.79
   0  -7   4  103.02    7.51
   0   7  -4  118.66    9.23
   0  -7   4   89.18    9.47
   0   7  -4  100.29    3.85
   0   7  -4  101.97    7.90
   0   7  -3   47.49    6.51
   0  -7   3   46.80    6.80
   0   7  -3   42.68    5.38
   0   7  -3   52.56    5.96
   0   7  -3   58.60    5.94
   0  -7   3   43.56    4.78
   0  -7   2   64.75    5.87
   0   7  -2   65.05    6.53
   0   7  -2   72.19    8.22
   0  -7   2   70.48    8.55
   0   7  -2   66.15    6.51
   0  -7   1   63.87    5.82
   0   7  -1   67.07    6.54
   0  -7   1   44.75    6.81
   0   7  -1   69.56    6.75
   0   7   0  129.03    9.82
   0  -7   0  138.46   12.30
   0  -7   0  143.53    8.96
   0   7   0  121.12    9.14
   0  -7   0  127.78    9.97
   0   7   1  163.31   11.26
   0   7   1  154.26   10.29
   0  -7  -1  153.93   12.97
   0   7   1  136.31    4.57
   0  -7  -1  170.96    9.82
   0   7   2    2.92    1.61
   0   7   2    7.18    2.35
   0  -7  -2    5.75    2.64
   0   7   2    5.35    0.81
   0  -7  -2    6.41    1.82
   0   7   2    6.94    2.23
   0   7   3    1.20    1.30
   0  -7  -3    1.46    1.26
   0   7   3    2.51    1.73
   0  -7  -3    1.24    0.73
   0   7   3    1.85    0.54
   0   7   3    3.36    1.73
   0   7   4    0.73    0.98
   0   7   4    2.82    1.87
   0   7   4    2.06    1.75
   0  -7  -4    1.37    0.99
   0   7   4    0.68    0.42
   0  -7  -4    1.37    0.83
   0   7   5    9.66    2.96
   0   7   5    5.76    1.87
   0   7   5    8.70    1.54
   0  -7  -5    8.89    2.13
   0  -7  -5    9.77    2.26
   0  -7  -5    6.79    3.24
   0   7   5   16.08    3.57
   0   7   6   38.19    6.51
   0   7   6   35.44    5.19
   0  -7  -6   33.64    4.52
   0   7   6   44.20    5.71
   0   7   6   44.78    5.17
   0  -7  -6   41.51    7.80
   0   7   6   35.60    3.51
   0  -7  -6   49.46    5.42
   0  -7  -7   -1.82    0.97
   0   7   7   -0.14    0.98
   0   7   7   -1.18    0.68
   0  -7  -7   -0.13    0.97
   0   7   7   -1.11    1.48
   0   7   7    0.93    0.91
   0   7   7    0.15    0.69
   0  -7  -7   -0.54    0.66
   0   7   8   29.44    6.21
   0  -7  -8   25.76    6.64
   0   7   8   29.71    4.65
   0   7   8   30.34    4.89
   0  -7  -8   26.04    3.98
   0  -7  -8   29.02    4.55
   0   7   8   28.22    3.58
   0   7   8   28.72    4.32
   0   7   9    1.07    0.96
   0  -7  -9    4.63    1.82
   0   7   9   -0.21    1.12
   0   7   9    4.02    2.80
   0   7  10   15.96    4.93
   0   7  10   15.26    3.48
   0   7  10   21.07    4.41
   0  -7 -10   17.13    3.88
   0   7  11    3.27    2.11
   0   7  11    2.40    1.57
   0  -7 -11    3.94    2.11
   0  -7 -12    5.39    2.29
   0   7  12    3.01    2.59
   0   7  12    3.21    1.43
   0  -7 -13    3.22    2.20
   0   7  13   -4.11    2.65
   0  -7 -14   20.43    5.00
   0  -8  16   32.31    6.71
   0   8 -16   27.36    4.76
   0   8 -15   22.35    6.95
   0   8 -15   34.02    6.36
   0   8 -14    3.30    1.45
   0  -8  14    4.93    2.61
   0   8 -14    2.00    2.12
   0   8 -14    3.71    1.59
   0   8 -13    3.30    1.63
   0  -8  13    4.65    2.58
   0   8 -13    1.22    1.45
   0   8 -13    4.28    1.70
   0   8 -12   22.60    3.50
   0   8 -12   20.27    6.08
   0   8 -12   27.18    4.41
   0  -8  12   15.49    3.34
   0  -8  12   23.34    5.42
   0   8 -12   23.87    4.28
   0   8 -11    9.29    2.13
   0  -8  11   11.86    2.94
   0   8 -11   10.20    4.31
   0  -8  11    9.38    3.27
   0   8 -11   13.07    3.01
   0   8 -11   22.22    4.05
   0   8 -10    2.97    1.65
   0   8 -10    0.60    1.22
   0   8 -10    3.03    1.22
   0  -8  10    3.97    1.64
   0   8 -10    3.89    3.48
   0  -8  10    1.81    2.14
   0  -8   9   15.65    4.31
   0   8  -9   19.64    2.58
   0   8  -9   15.53    5.13
   0   8  -9   22.74    3.80
   0  -8   9   18.10    3.55
   0   8  -9   20.27    3.76
   0   8  -8    2.27    0.83
   0   8  -8    0.54    0.36
   0   8  -8    1.13    0.72
   0  -8   8    1.28    1.50
   0   8  -8    1.55    1.91
   0   8  -8    0.90    0.73
   0  -8   8    2.07    1.30
   0  -8   7    0.62    1.69
   0   8  -7   -0.35    0.94
   0   8  -7    3.65    2.41
   0  -8   7    1.02    1.64
   0   8  -7    1.03    1.26
   0   8  -7    0.62    0.58
   0  -8   7    1.51    1.12
   0   8  -6   -2.17    2.16
   0  -8   6    0.57    0.88
   0  -8   6    0.22    0.75
   0  -8   6    0.34    0.48
   0   8  -6    0.27    0.41
   0   8  -6    1.05    1.54
   0  -8   5   65.04    7.93
   0  -8   5   71.34    9.14
   0  -8   5   64.56    6.52
   0   8  -5   84.26    8.53
   0   8  -5   77.76    3.56
   0   8  -5   71.68    7.03
   0  -8   4    4.12    2.43
   0   8  -4    3.71    1.58
   0   8  -4    6.64    2.61
   0  -8   4    3.56    1.71
   0   8  -3    0.15    0.92
   0   8  -3    0.98    1.31
   0  -8   3    0.14    1.31
   0  -8   3    0.51    1.02
   0  -8   2   66.21    6.43
   0   8  -2   67.52    7.04
   0  -8   2   66.56    8.70
   0  -8   1    1.32    1.61
   0  -8   1    1.39    1.10
   0   8  -1    0.63    0.81
   0   8   0   43.77    6.06
   0  -8   0   36.22    4.76
   0  -8   0   36.53    6.81
   0   8   1   57.50    7.28
   0  -8  -1   50.80    7.98
   0  -8  -1   64.39    6.41
   0   8   1   64.83    7.46
   0  -8  -2  202.47   12.11
   0   8   2  215.91   14.64
   0  -8  -2  172.10   15.39
   0   8   2  210.33   14.74
   0   8   3   49.01    6.91
   0   8   3   45.32    6.51
   0  -8  -3   45.91    5.47
   0  -8  -3   34.63    6.89
   0   8   3   37.56    2.72
   0   8   4   15.02    1.94
   0  -8  -4    9.46    2.61
   0   8   4   16.02    4.00
   0  -8  -4   14.50   11.46
   0   8   4   16.40    3.83
   0  -8  -5   23.12    3.95
   0  -8  -5   16.59    4.86
   0   8   5   24.95    4.18
   0   8   5   32.51    6.00
   0   8   5   28.81    2.92
   0   8   5   25.73    4.82
   0   8   6   20.51    3.85
   0  -8  -6   25.80    6.35
   0   8   6   35.61    6.43
   0  -8  -6   28.38    4.55
   0   8   6   21.61    4.02
   0  -8  -7   10.95    2.65
   0  -8  -7   15.35    4.65
   0   8   7   14.65    3.26
   0  -8  -7    9.14    2.48
   0   8   7   15.85    4.62
   0   8   7   15.08    3.50
   0   8   8   38.57    5.54
   0   8   8   36.69    5.35
   0  -8  -8   35.82    7.81
   0  -8  -8   30.40    4.68
   0  -8  -8   34.39    4.97
   0   8   8   34.23    6.97
   0  -8  -9    5.93    3.60
   0   8   9    6.78    2.25
   0   8   9    2.88    1.49
   0   8   9   10.30    3.86
   0  -8  -9    5.02    2.33
   0   8  10    6.36    2.36
   0  -8 -10    8.57    3.01
   0   8  10    0.71    1.16
   0  -8 -10   12.95    4.87
   0  -8 -11    1.50    1.27
   0   8  11    3.67    2.77
   0   9 -14    3.22    2.81
   0  -9  14    6.99    3.45
   0  -9  13   24.49    5.81
   0   9 -13   16.28    5.62
   0   9 -13   15.57    3.81
   0   9 -12   19.22    6.27
   0   9 -12   12.81    3.36
   0  -9  12   18.89    4.85
   0  -9  12   15.60    3.80
   0   9 -11    8.08    2.03
   0   9 -11    0.56    2.14
   0   9 -11    4.26    1.78
   0   9 -11   10.40    2.74
   0  -9  11    1.63    2.09
   0  -9  11    5.65    2.11
   0  -9  10   14.57    4.34
   0   9 -10    7.81    2.43
   0  -9  10   11.97    3.20
   0   9 -10   14.95    2.47
   0   9 -10   14.22    3.23
   0   9 -10   13.08    4.76
   0   9  -9   13.73    2.25
   0   9  -9   13.65    3.08
   0  -9   9   11.65    2.95
   0   9  -9   10.92    4.55
   0   9  -9    9.10    2.67
   0  -9   9   12.51    3.84
   0  -9   8    4.78    2.54
   0   9  -8    6.35    3.79
   0  -9   8    9.75    2.91
   0   9  -8   11.02    2.94
   0   9  -8    8.29    2.14
   0   9  -8   10.30    1.71
   0   9  -8    9.81    2.69
   0  -9   7   33.14    6.54
   0   9  -7   29.62    4.81
   0   9  -7   31.81    2.72
   0   9  -7   19.44    5.63
   0  -9   7   18.13    4.58
   0   9  -7   34.63    4.73
   0  -9   7   26.50    4.48
   0   9  -7   21.56    4.00
   0  -9   6   10.82    2.79
   0  -9   6   12.86    4.29
   0   9  -6   12.82    1.33
   0   9  -6   12.72    3.12
   0   9  -6   10.46    4.06
   0  -9   5   18.20    4.77
   0  -9   5   24.81    4.33
   0   9  -5   16.35    3.44
   0  -9   4   54.04    8.18
   0  -9   4   53.29    6.28
   0   9  -4   60.00    6.79
   0   9  -3   34.30    5.58
   0   9  -3   35.26    5.46
   0  -9   3   48.83    7.96
   0  -9   3   31.21    4.89
   0  -9   2   26.16    5.62
   0  -9   2   23.65    4.17
   0   9  -2   28.56    4.86
   0   9  -1    2.90    1.65
   0  -9   1    4.40    1.78
   0  -9   1    5.41    3.25
   0   9   0    0.74    0.86
   0  -9   0    2.36    2.18
   0  -9   0    2.55    1.36
   0   9   1   16.78    4.13
   0   9   1   25.88    5.19
   0  -9  -1   14.47    4.62
   0  -9  -1   15.65    3.45
   0  -9  -2    9.99    3.75
   0   9   2   21.45    4.61
   0  -9  -2   13.06    3.08
   0   9   2   16.35    3.93
   0   9   3    9.05    2.59
   0  -9  -3    8.86    2.65
   0   9   3    8.02    3.19
   0   9   3   12.00    3.47
   0  -9  -3    5.03    2.78
   0   9   4   13.20    3.34
   0   9   4   12.52    3.96
   0   9   4   14.86    3.73
   0  -9  -4   12.57    3.21
   0  -9  -4   10.03    3.95
   0   9   5    1.08    1.18
   0   9   5    0.85    1.19
   0   9   5    1.30    1.37
   0  -9  -5    2.22    1.40
   0  -9  -5    0.94    2.35
   0   9   6    3.71    1.91
   0   9   6    5.43    2.68
   0   9   6    6.37    2.53
   0  -9  -6    4.41    1.64
   0  -9  -6    7.62    3.83
   0   9   7    5.86    2.82
   0   9   7    5.75    2.73
   0  -9  -7    4.11    2.07
   0   9   7    7.50    2.56
   0  -9  -7    7.19    3.96
   0  -9  -8   -0.59    1.43
   0   9   8    1.36    1.68
   0   9   8   -0.65    1.31
   0  -9  -8    1.50    2.18
   0   9   9   10.50    3.10
   0  -9  -9   16.78    6.06
   0   9   9   10.41    4.01
   0  10 -13    6.91    2.51
   0  10 -13    6.49    3.90
   0 -10  12   -3.43    2.86
   0  10 -12    1.72    2.27
   0  10 -12    0.78    2.01
   0 -10  12   -0.01    0.71
   0  10 -11    0.80    2.82
   0 -10  11    2.63    0.93
   0  10 -11    0.08    0.88
   0 -10  11    1.28    1.03
   0 -10  10   11.78    3.32
   0 -10  10   10.41    3.69
   0  10 -10   10.30    4.56
   0  10 -10   18.64    4.27
   0  10 -10   18.88    3.87
   0  10  -9    4.90    2.26
   0 -10   9    4.67    1.95
   0  10  -9    3.62    2.08
   0  10  -9    8.53    2.72
   0  10  -8    5.80    2.16
   0  10  -8    8.15    4.14
   0 -10   8    5.50    2.20
   0  10  -8   12.60    3.34
   0 -10   8    7.18    3.24
   0  10  -7   85.88    8.75
   0  10  -7  107.44    9.47
   0  10  -7   82.56   11.98
   0 -10   7   70.01   10.00
   0 -10   7   74.33    8.14
   0  10  -7   89.57    8.74
   0 -10   6   33.02    6.74
   0  10  -6   35.82    7.89
   0 -10   6   31.64    5.29
   0  10  -6   38.08    5.70
   0  10  -6   39.40    5.79
   0  10  -5    5.63    2.24
   0 -10   5    3.14    1.62
   0  10  -5    3.36    1.94
   0 -10   5    6.20    3.09
   0 -10   4    9.29    2.88
   0 -10   4    7.07    2.99
   0  10  -4   13.28    3.48
   0 -10   3   14.95    5.86
   0  10  -3   13.71    3.61
   0 -10   3   13.01    3.64
   0  10  -2   29.87    5.32
   0 -10   2   27.16    4.79
   0 -10   2   23.21    5.81
   0  10  -1   12.86    3.62
   0 -10   1    6.88    3.48
   0 -10   1   10.57    2.88
   0  10   0   77.93    9.03
   0 -10   0   63.71    9.77
   0  10   0   69.20    7.84
   0 -10   0   73.58    7.96
   0  10   1    4.12    1.97
   0  10   1    2.09    1.92
   0 -10  -1    7.95    2.80
   0  10   1   10.62    3.54
   0 -10  -1    5.65    2.89
   0  10   2    8.50    2.92
   0 -10  -2   12.13    3.20
   0  10   2   10.84    3.75
   0  10   2    6.81    3.07
   0 -10  -2    6.28    3.23
   0  10   3   36.78    6.72
   0  10   3   28.53    5.19
   0 -10  -3   30.88    5.20
   0 -10  -3   27.97    6.70
   0  10   3   32.22    5.74
   0  10   4   86.79    9.09
   0  10   4   88.33    9.59
   0 -10  -4   84.13    8.66
   0  10   4   69.92    9.48
   0 -10  -4   62.91   10.36
   0 -10  -5    5.04    2.06
   0  10   5    8.82    3.15
   0  10   5    7.52    3.13
   0 -10  -5   11.32    4.58
   0 -10  -6   36.18    7.81
   0  10   6   31.75    5.50
   0 -10  -6   24.40    4.75
   0  10   6   29.42    6.53
   0  10   7   38.73    7.70
   0  10   7   35.30    6.12
   0 -10  -7   31.16    7.50
   0 -10  -7   37.13    5.93
   0  10   8    3.11    2.07
   0  10   9   -1.23    1.06
   0  11 -13    2.75    2.13
   0 -11  12   41.95    6.59
   0  11 -12   42.78    7.05
   0  11 -11   10.17    3.66
   0 -11  11    6.75    2.69
   0 -11  10   -0.38    1.53
   0  11 -10   -2.48    2.01
   0 -11   9   18.28    4.41
   0  11  -9   22.97    4.98
   0  11  -9   20.75    4.27
   0  11  -9    8.36    4.29
   0  11  -8   31.15    7.46
   0 -11   8   23.61    4.92
   0  11  -8   34.84    6.00
   0 -11   8   27.81    6.42
   0  11  -8   42.48    6.28
   0 -11   7    7.56    2.83
   0  11  -7    4.33    3.75
   0 -11   7   10.47    4.30
   0  11  -7    7.19    2.77
   0  11  -7   10.27    3.41
   0 -11   6    3.38    2.14
   0  11  -6    9.41    3.88
   0  11  -6    7.82    2.47
   0 -11   6    5.58    2.59
   0  11  -6   10.12    3.38
   0 -11   5   46.39    6.68
   0  11  -5   46.49    6.78
   0  11  -5   52.94    7.20
   0 -11   5   48.48    8.54
   0  11  -4   15.58    4.04
   0  11  -4   13.52    3.71
   0 -11   4   15.42    3.90
   0 -11   4   10.94    4.67
   0 -11   3   55.68    7.50
   0  11  -3   74.21    8.70
   0 -11   3   70.43   10.35
   0  11  -3   71.26    8.63
   0 -11   2   14.56    3.74
   0  11  -2   26.34    5.35
   0  11  -2   21.93    4.69
   0 -11   2   13.86    4.55
   0 -11   1    1.15    2.67
   0 -11   1   -3.21    1.82
   0  11  -1    2.05    1.51
   0  11  -1    2.12    2.07
   0 -11   0    1.00    0.78
   0  11   0    2.16    1.17
   0  11   0    4.36    2.32
   0  11   0    0.10    1.22
   0 -11   0    3.38    2.50
   0 -11  -1   58.68    7.63
   0 -11  -1   57.60    9.87
   0  11   1   68.83    9.17
   0  11   1   69.07    8.47
   0  11   2   60.55    7.97
   0 -11  -2   61.32    7.74
   0  11   2   48.26    7.83
   0 -11  -2   43.15    8.55
   0  11   3    1.25    1.75
   0 -11  -3   -3.61    1.40
   0 -11  -3    2.84    1.87
   0  11   3    3.22    1.96
   0 -11  -4   10.24    4.46
   0 -11  -4   12.73    3.56
   0  11   4    8.48    3.44
   0  11   4   13.70    3.97
   0 -11  -5   20.38    4.64
   0  11   5   33.48    6.38
   0 -11  -5   23.69    6.50
   0  11   6   -0.59    0.87
   0 -11  -6    1.52    1.43
   0  11   7   40.56    6.90
   0 -12   8    7.61    3.59
   0 -12   7   -0.63    1.36
   0  12  -7    3.25    1.49
   0 -12   6   35.11    7.84
   0  12  -6   40.86    6.70
   0  12  -6   52.01   10.92
   0 -12   5    8.36    4.31
   0  12  -5   10.79    3.39
   0  12  -4    9.72    3.63
   0 -12   4   11.77    4.88
   0  12  -4   10.47    3.62
   0  12  -3    0.13    1.73
   0  12  -3    1.48    1.76
   0 -12   2    9.17    4.42
   0  12  -2    3.46    2.11
   0  12  -1   14.21    4.02
   0 -12   1   13.07    5.01
   0  12   0    1.30    2.37
   0 -12   0   -0.61    2.63
   0 -12  -1   12.28    5.04
   0 -12  -2   23.53    6.63
   0 -13   7   12.27    4.46
   0 -13   6   17.54    5.38
   0  13  -5    0.88    2.00
   0 -13   5    1.19    1.61
   0 -13   4    1.05    2.29
  -1  13  -1   28.08    6.21
  -1  13  -2   39.20    7.30
  -1  13  -3   17.09    4.69
  -1  13  -4   22.76    5.17
  -1  13  -5   -1.54    2.23
  -1  12   3    8.12    3.27
   1 -12  -2   13.10    3.91
   1 -12  -2    6.35    3.58
  -1  12   1    1.51    1.55
   1 -12  -1    0.78    1.02
   1 -12  -1    2.52    1.29
  -1  12   0   17.18    4.61
   1 -12   0   12.63    3.91
   1 -12   0   12.34    4.93
   1 -12   1   29.89    7.59
  -1  12  -1   34.65    6.45
   1 -12   1   21.25    5.01
   1 -12   2   96.12   13.15
  -1  12  -2  105.60   10.96
   1 -12   2   79.32    9.48
   1 -12   3    2.52    2.95
  -1  12  -3    2.68    1.00
   1 -12   3   -0.36    1.41
   1 -12   4   27.12    5.62
  -1  12  -4   34.39    7.19
   1 -12   4   22.12    6.20
  -1  12  -4   28.82    5.60
   1 -12   5   21.28    6.16
  -1  12  -5   20.26    4.55
   1 -12   5   26.05    5.54
  -1  12  -6   28.62    5.17
   1 -12   6   21.15    4.98
  -1  12  -6   22.98    6.74
   1 -12   6   11.51    4.42
   1 -12   7    5.09    2.72
   1 -12   7    4.47    1.66
  -1  12  -7    5.03    3.34
  -1  12  -7    3.59    2.30
  -1  12  -8   62.38   11.36
   1 -12   8   36.07    8.33
  -1  12  -8   61.31    8.16
  -1  12  -9   52.92    7.57
  -1  12  -9   48.36   10.11
  -1  12 -10   10.80    3.33
  -1  11   8   34.57    5.93
  -1  11   7   13.32    3.85
  -1  11   6   21.56    4.71
  -1  11   5  214.60   14.95
   1 -11  -5  208.02   19.83
  -1  11   5  214.81   18.55
  -1  11   4   -0.64    1.62
   1 -11  -4    3.32    1.25
   1 -11  -3    0.50    1.40
   1 -11  -3    1.85    0.80
  -1  11   3    2.18    2.46
   1 -11  -2    2.46    2.57
  -1  11   2    1.91    1.65
   1 -11  -2    0.06    1.38
   1 -11  -1   11.70    3.41
   1 -11  -1    1.87    1.94
  -1  11   1   14.12    3.96
  -1  11   0   -0.05    0.97
   1 -11   0   -1.34    1.74
   1 -11   0    2.79    2.28
  -1  11   0    2.07    2.18
   1 -11   1   26.35    6.77
  -1  11  -1   17.67    4.27
   1 -11   1   18.72    4.28
   1 -11   2    4.67    2.90
  -1  11  -2    6.54    2.45
   1 -11   2    2.81    1.93
   1 -11   3   30.12    5.55
   1 -11   3   28.07    6.57
  -1  11  -3   27.74    5.12
   1 -11   4    5.05    2.51
  -1  11  -4    5.05    1.98
   1 -11   4    2.85    1.83
   1 -11   5   19.29    4.38
   1 -11   5   28.28    6.54
  -1  11  -5   26.47    4.68
  -1  11  -5   25.39    5.58
   1 -11   6   12.05    3.62
   1 -11   6    7.45    3.69
  -1  11  -6   15.27    5.29
  -1  11  -6    7.09    2.44
  -1  11  -7   32.45    7.66
  -1  11  -7   26.91    4.48
   1 -11   7   32.08    7.11
   1 -11   7   34.01    6.05
   1 -11   8    1.66    1.61
   1 -11   8    3.80    2.06
  -1  11  -8    4.15    1.74
  -1  11  -8    1.56    1.74
  -1  11  -9   20.61    6.47
  -1  11 -10   -0.93    2.45
  -1  11 -10    0.68    0.94
  -1  11 -11    2.49    1.48
  -1  11 -11    1.89    2.26
  -1  11 -12   25.52    7.69
  -1  11 -12   25.89    5.04
  -1  11 -13    2.12    1.75
  -1  10   9    2.81    1.83
  -1  10   8    0.52    1.65
  -1  10   8    2.53    1.57
   1 -10  -8   -1.10    2.28
   1 -10  -7    4.81    2.51
  -1  10   7    8.65    3.92
  -1  10   7    5.88    2.25
   1 -10  -6   16.40    5.66
  -1  10   6    9.09    3.45
  -1  10   5   17.53    4.84
   1 -10  -5   15.99    4.88
   1 -10  -4   23.34    6.23
   1 -10  -4   28.07    5.11
  -1  10   4   31.01    6.42
  -1  10   3    0.01    1.41
   1 -10  -3   -0.06    1.21
  -1  10   3    2.47    1.61
   1 -10  -3    0.29    1.34
  -1  10   2   82.58    9.64
   1 -10  -2   62.69    9.87
  -1  10   2   75.58    8.05
   1 -10  -2   56.79    7.20
  -1  10   1   79.85    9.23
  -1  10   1   88.78    8.97
   1 -10  -1   84.49    8.85
   1 -10  -1   57.59    9.78
   1 -10   0   10.63    3.23
  -1  10   0   13.17    3.57
   1 -10   0    8.12    3.55
   1 -10   1   49.45    8.74
  -1  10  -1   49.45    6.68
  -1  10  -1   56.07    6.09
   1 -10   1   44.39    6.45
  -1  10  -2   33.11    5.19
   1 -10   2   28.39    6.72
   1 -10   2   32.28    5.37
  -1  10  -2   37.75    4.98
  -1  10  -3   49.83    6.38
   1 -10   3   55.45    9.09
   1 -10   3   42.65    6.24
  -1  10  -4   25.72    4.45
   1 -10   4   23.70    4.60
   1 -10   4   24.44    6.06
   1 -10   5   30.39    6.97
  -1  10  -5   34.84    5.04
  -1  10  -5   43.04    6.49
   1 -10   5   27.13    4.92
  -1  10  -6    6.30    2.17
  -1  10  -6    6.84    3.59
   1 -10   6    5.64    3.18
  -1  10  -6    9.21    2.94
   1 -10   6    8.59    3.02
  -1  10  -7  126.69   10.31
  -1  10  -7  101.93   12.92
  -1  10  -7  108.05    8.59
   1 -10   7   89.52    9.32
   1 -10   7   95.95   12.07
   1 -10   8   47.66    6.76
  -1  10  -8   71.81   10.81
  -1  10  -8   63.86    6.25
  -1  10  -9    5.63    3.38
   1 -10   9    5.19    2.08
  -1  10  -9    6.86    2.09
  -1  10 -10   43.35    8.85
  -1  10 -11    4.87    1.87
  -1  10 -11    5.40    3.31
  -1  10 -12   -1.25    1.25
  -1  10 -12    0.04    1.27
  -1  10 -13    5.05    1.78
  -1  10 -13    2.02    2.77
  -1  10 -14    2.04    2.81
   1  -9 -10   45.55    9.36
  -1   9  10   40.06    5.67
  -1   9  10   50.17    9.30
  -1   9   9   12.46    3.14
  -1   9   9   11.88    4.36
  -1   9   8    3.15    2.38
   1  -9  -8    0.08    1.17
  -1   9   8    5.16    2.08
   1  -9  -7   96.71   12.75
  -1   9   7  127.57   13.75
  -1   9   6   15.52    4.45
  -1   9   6   11.82    2.58
   1  -9  -6   10.22    4.22
  -1   9   5   62.64    8.80
   1  -9  -5   44.71    8.34
  -1   9   5   49.71    5.47
   1  -9  -5   51.11    6.47
   1  -9  -4    1.51    1.85
  -1   9   4    2.79    1.99
  -1   9   4    3.20    1.56
   1  -9  -4    3.68    1.87
   1  -9  -3    0.69    1.62
  -1   9   3    5.64    2.13
  -1   9   3    7.93    2.82
   1  -9  -3    1.38    1.10
  -1   9   2    5.81    2.41
   1  -9  -2    8.44    3.46
  -1   9   2    8.15    3.07
  -1   9   2    4.28    0.68
   1  -9  -2    5.04    2.05
  -1   9   1   20.71    4.44
   1  -9  -1   10.23    2.78
  -1   9   1   18.32    3.78
  -1   9   1   17.60    1.25
   1  -9  -1   13.58    4.40
  -1   9   0   13.95    0.84
   1  -9   0    9.26    2.84
  -1   9   0   14.65    2.92
   1  -9   0    9.38    3.69
  -1   9   0   14.57    3.56
   1  -9   1  186.99   16.40
   1  -9   1  192.82   12.94
  -1   9  -1  186.12   12.75
  -1   9  -1  207.97   12.08
  -1   9  -2    1.34    0.80
  -1   9  -2    4.75    2.18
   1  -9   2    2.60    2.18
  -1   9  -3   20.05    3.71
  -1   9  -3   14.56    1.36
  -1   9  -3   11.50    2.79
  -1   9  -3   14.48    0.98
   1  -9   3   14.29    4.29
   1  -9   3   13.23    3.25
   1  -9   4   24.53    4.46
  -1   9  -4   29.13    4.40
  -1   9  -4   35.42    1.99
  -1   9  -4   38.12    5.12
   1  -9   4   34.93    6.97
  -1   9  -5   54.70    2.93
  -1   9  -5   48.88    5.92
  -1   9  -5   58.63    7.00
  -1   9  -5   47.57    5.52
   1  -9   5   36.97    7.04
   1  -9   5   47.27    6.22
   1  -9   6   14.42    3.53
  -1   9  -6   21.90    5.53
  -1   9  -6   17.01    1.78
   1  -9   6   16.89    4.76
  -1   9  -6   15.62    3.40
  -1   9  -6   15.49    3.06
  -1   9  -7   16.30    4.81
   1  -9   7   16.21    3.71
  -1   9  -7   23.87    3.93
   1  -9   7   17.50    5.18
  -1   9  -7   17.48    1.99
  -1   9  -7   12.80    2.62
  -1   9  -8   13.84    1.91
  -1   9  -8   11.79    4.19
  -1   9  -8   11.46    2.51
  -1   9  -8   21.68    3.38
   1  -9   8    9.61    2.85
   1  -9   9   -1.05    1.41
  -1   9  -9   -0.06    1.05
  -1   9  -9   -1.84    0.76
  -1   9  -9   -0.33    0.88
  -1   9 -10   63.31    5.56
  -1   9 -10   65.19    4.97
  -1   9 -10   62.25   10.34
   1  -9  10   45.47    7.48
  -1   9 -11    0.55    0.56
  -1   9 -11    0.93    1.63
   1  -9  11    1.83    2.10
  -1   9 -12   19.39    3.65
  -1   9 -12   21.31    3.18
   1  -9  12   13.99    4.37
  -1   9 -12   18.35    5.76
  -1   9 -13    3.79    1.72
  -1   9 -13    1.51    2.11
   1  -9  13    4.06    2.64
  -1   9 -13    2.06    1.43
  -1   9 -14    2.68    1.65
   1  -9  14   -1.50    2.02
  -1   9 -14   -5.45    3.45
   1  -9  15   25.34    6.06
  -1   9 -15   17.57    6.20
   1  -8 -13    5.47    3.56
   1  -8 -12    1.97    1.95
   1  -8 -11    4.33    2.45
   1  -8 -11    8.32    4.25
  -1   8  11    4.39    1.80
  -1   8  10   11.40    2.79
   1  -8 -10    8.05    3.62
  -1   8  10    7.53    3.79
   1  -8 -10    4.77    1.95
  -1   8   9   41.26    7.60
  -1   8   9   33.26    4.58
  -1   8   9   45.33    5.37
   1  -8  -9   30.46    7.21
  -1   8   8    9.21    3.69
  -1   8   8   12.39    2.83
   1  -8  -8   17.10    5.44
  -1   8   7   25.87    5.92
  -1   8   7   32.01    4.38
   1  -8  -7   16.57    5.26
  -1   8   7   27.66    3.03
  -1   8   6  137.26   13.17
  -1   8   6  150.73    9.69
  -1   8   6  144.31    7.21
   1  -8  -6  135.58   14.34
   1  -8  -6  130.79   10.05
  -1   8   5   13.59    1.88
  -1   8   5   15.93    3.06
   1  -8  -5   11.55    4.01
  -1   8   5   17.87    4.38
   1  -8  -5   12.48    2.96
  -1   8   4   37.45    4.74
   1  -8  -4   32.08    4.75
  -1   8   4   32.12    5.82
   1  -8  -4   24.88    5.96
  -1   8   4   34.42    2.80
  -1   8   3   41.83    2.80
  -1   8   3   40.69    5.27
  -1   8   3   43.07    6.40
   1  -8  -3   40.46    5.37
   1  -8  -3   45.82    7.70
  -1   8   2   21.83    4.44
  -1   8   2   18.80    1.65
   1  -8  -2   16.67    3.38
   1  -8  -2   12.12    4.11
  -1   8   2   15.88    3.35
   1  -8  -1   20.95    3.73
   1  -8  -1   18.42    4.67
  -1   8   1   24.78    4.45
  -1   8   1   24.08    1.73
  -1   8   0    1.44    0.38
   1  -8   0    1.16    1.21
   1  -8   0    2.13    2.05
  -1   8   0    0.77    0.54
   1  -8   1    4.18    1.97
   1  -8   1    5.96    2.05
   1  -8   1    4.13    1.66
  -1   8  -1    6.59    1.89
  -1   8  -1    4.13    1.83
  -1   8  -1    5.23    0.80
  -1   8  -2   43.07    2.47
   1  -8   2   34.47    4.86
   1  -8   2   42.15    7.30
  -1   8  -2   42.83    4.90
  -1   8  -2   41.58    2.87
  -1   8  -2   42.93    5.25
   1  -8   3    1.59    1.74
  -1   8  -3    1.43    1.06
  -1   8  -3    0.77    0.92
   1  -8   3    1.45    1.14
  -1   8  -3    0.55    0.35
  -1   8  -4    1.57    0.83
   1  -8   4    1.02    0.96
   1  -8   4    0.72    1.63
  -1   8  -4    2.02    1.18
  -1   8  -4    1.25    0.44
  -1   8  -5    6.55    2.16
   1  -8   5    6.52    2.95
   1  -8   5    2.14    1.05
  -1   8  -5    8.85    1.24
  -1   8  -5    5.61    1.88
  -1   8  -5    6.31    2.05
  -1   8  -6    8.30    1.30
  -1   8  -6    6.70    2.28
  -1   8  -6   10.78    3.42
   1  -8   6    8.95    3.10
   1  -8   6    5.31    1.82
  -1   8  -6    9.12    2.51
  -1   8  -6    7.05    2.00
  -1   8  -7   11.31    2.33
  -1   8  -7    9.06    1.48
  -1   8  -7    8.92    3.60
   1  -8   7    5.44    1.86
   1  -8   7    5.45    2.87
  -1   8  -7   12.42    2.68
  -1   8  -8    0.05    1.47
  -1   8  -8    0.27    0.64
   1  -8   8    1.66    1.01
  -1   8  -8    0.26    0.39
   1  -8   8    2.65    1.92
  -1   8  -8    1.49    0.77
   1  -8   9    9.81    3.05
  -1   8  -9    8.23    3.87
   1  -8   9    9.36    2.53
  -1   8  -9    7.88    1.57
  -1   8  -9    9.79    1.51
  -1   8  -9   10.32    2.21
  -1   8 -10   52.10    9.00
   1  -8  10   51.65    7.50
  -1   8 -10   54.87    4.57
  -1   8 -10   54.23    4.80
  -1   8 -11   12.58    2.22
  -1   8 -11    6.20    3.38
  -1   8 -11    8.77    1.84
   1  -8  11    8.16    3.08
  -1   8 -12   -0.11    0.48
   1  -8  12   -0.39    1.40
  -1   8 -12   -1.14    1.53
  -1   8 -12    1.81    1.06
   1  -8  13    9.71    3.23
  -1   8 -13    3.87    1.73
  -1   8 -13    9.99    2.45
  -1   8 -13    9.40    2.35
   1  -8  14   57.69    8.37
  -1   8 -14   67.44    6.44
  -1   8 -14   62.76   10.57
   1  -8  15   12.56    3.93
  -1   8 -15    9.75    4.60
  -1   8 -15    7.15    2.28
   1  -8  16   11.58    3.72
  -1   8 -16   12.38    3.08
  -1   8 -16   10.32    4.46
  -1   8 -17   -1.09    0.91
   1  -8  17    2.80    2.44
   1  -7 -15   -0.42    2.13
   1  -7 -14   29.50    6.35
  -1   7  13    2.37    2.21
   1  -7 -13   -0.89    1.19
  -1   7  12    5.35    3.78
   1  -7 -12   -1.39    1.23
  -1   7  11    0.92    1.05
  -1   7  11    3.22    1.67
  -1   7  11    0.40    1.25
   1  -7 -11    0.26    0.77
  -1   7  10   13.76    2.82
  -1   7  10   14.61    3.09
   1  -7 -10   10.24    3.39
  -1   7  10   12.79    4.39
   1  -7 -10   13.88    5.25
  -1   7   9   13.10    2.92
   1  -7  -9   18.05    5.34
  -1   7   9   20.67    5.40
   1  -7  -9   19.27    4.10
  -1   7   9   18.75    3.45
  -1   7   8   29.91    6.20
   1  -7  -8   27.30    6.40
   1  -7  -8   27.63    4.68
  -1   7   8   31.65    3.40
  -1   7   8   31.68    4.70
  -1   7   8   34.23    4.48
  -1   7   8   29.14    3.55
   1  -7  -7   13.31    4.35
  -1   7   7   15.51    4.40
  -1   7   7   16.12    2.30
   1  -7  -7   16.83    3.55
  -1   7   7   14.34    2.38
  -1   7   7   18.01    3.06
  -1   7   7   16.58    3.39
  -1   7   6   60.61    5.21
  -1   7   6   61.45    4.42
   1  -7  -6   46.19    5.38
  -1   7   6   64.43    6.52
   1  -7  -6   58.08    8.82
  -1   7   6   59.71    8.09
  -1   7   6   64.26    5.94
   1  -7  -5   15.11    2.97
  -1   7   5   16.90    4.20
  -1   7   5   13.68    2.91
   1  -7  -5   15.62    4.33
  -1   7   5   15.58    1.94
  -1   7   5   15.03    2.47
  -1   7   5   15.91    2.87
   1  -7  -4   46.73    7.42
  -1   7   4   45.38    5.13
  -1   7   4   47.42    6.33
  -1   7   4   52.08    5.35
  -1   7   4   52.35    3.47
  -1   7   4   52.94    6.94
   1  -7  -4   47.68    5.37
  -1   7   4   49.38    4.62
   1  -7  -3   22.64    3.51
  -1   7   3   26.97    3.87
  -1   7   3   27.90    4.82
  -1   7   3   23.13    2.13
  -1   7   3   21.20    2.91
  -1   7   3   29.82    4.70
  -1   7   3   25.86    3.84
   1  -7  -3   19.51    4.73
   1  -7  -2   49.86    5.42
  -1   7   2   51.04    6.33
  -1   7   2   53.29    3.15
  -1   7   2   55.83    6.33
  -1   7   2   52.98    4.66
  -1   7   2   42.52    4.72
   1  -7  -2   48.09    7.43
  -1   7   2   59.05    5.94
   1  -7  -2   53.36    5.94
   1  -7  -1   16.04    3.06
  -1   7   1   24.27    4.13
  -1   7   1   24.14    2.00
  -1   7   1   23.39    3.37
   1  -7  -1   24.69    3.91
  -1   7   1   28.45    4.43
   1  -7  -1   24.26    5.12
  -1   7   1   23.64    3.01
  -1   7   0    0.49    0.78
  -1   7   0    0.72    0.31
  -1   7   0    0.10    0.20
  -1   7   0   -0.20    0.89
   1  -7   0   -0.04    0.48
  -1   7   0   -0.26    0.75
   1  -7   0    0.23    1.05
   1  -7   0   -0.20    0.86
  -1   7   0   -0.14    0.85
   1  -7   1    7.03    2.07
  -1   7  -1    4.57    1.46
   1  -7   1    4.35    2.34
  -1   7  -1    3.96    0.90
  -1   7  -1    3.17    1.33
  -1   7  -1    4.11    1.45
  -1   7  -1    4.77    1.78
  -1   7  -1    6.29    1.98
   1  -7   1    2.71    1.23
  -1   7  -1    2.06    1.56
  -1   7  -2   42.59    4.46
  -1   7  -2   52.91    5.38
  -1   7  -2   49.47    6.84
   1  -7   2   45.59    5.10
   1  -7   2   45.49    5.17
  -1   7  -2   49.02    5.60
  -1   7  -2   45.77    2.99
  -1   7  -2   61.01    5.35
  -1   7  -2   52.38    4.49
   1  -7   2   48.72    7.14
  -1   7  -3  168.21    9.80
  -1   7  -3  174.12    6.61
  -1   7  -3  153.82    9.11
  -1   7  -3  159.91    9.59
   1  -7   3  147.84    9.78
   1  -7   3  146.37   12.68
  -1   7  -3  185.80    9.05
  -1   7  -3  150.97   12.19
  -1   7  -3  171.58   11.00
  -1   7  -4   20.36    1.95
   1  -7   4   17.00    4.04
  -1   7  -4   13.80    2.57
  -1   7  -4   23.06    3.88
  -1   7  -4   21.57    2.86
   1  -7   4   17.84    3.24
  -1   7  -4   22.98    3.50
  -1   7  -4   18.66    4.11
  -1   7  -4   20.23    3.03
  -1   7  -5   -0.52    0.81
  -1   7  -5   -1.01    1.86
   1  -7   5    1.53    1.51
   1  -7   5   -0.09    0.59
  -1   7  -5    0.28    0.37
  -1   7  -5    0.48    0.50
  -1   7  -5    1.87    1.32
  -1   7  -5   -1.03    1.06
  -1   7  -5    0.17    0.57
  -1   7  -6  421.10   23.39
   1  -7   6  352.41   17.08
  -1   7  -6  393.90   15.18
  -1   7  -6  413.46   17.21
   1  -7   6  392.79   22.55
  -1   7  -6  339.56   16.07
  -1   7  -6  389.50   12.78
  -1   7  -6  407.72   18.30
   1  -7   6  360.96   19.50
  -1   7  -6  386.63   22.45
  -1   7  -6  389.43   15.44
  -1   7  -7   35.09    6.45
  -1   7  -7   33.43    3.77
  -1   7  -7   32.58    3.88
  -1   7  -7   39.02    3.23
  -1   7  -7   33.19    3.67
   1  -7   7   30.54    4.26
  -1   7  -7   35.91    5.09
   1  -7   7   29.04    5.09
  -1   7  -7   31.71    4.20
  -1   7  -8   45.72    5.14
  -1   7  -8   49.45    4.08
   1  -7   8   46.57    5.42
   1  -7   8   42.49    6.41
  -1   7  -8   49.31    4.48
  -1   7  -8   49.62    4.59
  -1   7  -8   54.26    8.23
  -1   7  -8   50.13    3.91
  -1   7  -9  265.40   11.68
  -1   7  -9  260.23   14.01
  -1   7  -9  269.91   12.08
  -1   7  -9  267.48   11.17
  -1   7  -9  287.28   20.31
   1  -7   9  264.38   16.73
  -1   7 -10  110.16    6.75
  -1   7 -10  110.31    8.57
   1  -7  10   96.77    9.82
  -1   7 -10  116.39    6.93
  -1   7 -10   96.11   11.77
  -1   7 -10  103.28    6.84
  -1   7 -11    2.95    1.49
  -1   7 -11    2.18    1.19
  -1   7 -11    5.48    1.55
   1  -7  11    4.02    2.12
  -1   7 -11    1.77    0.94
  -1   7 -11    1.45    1.82
  -1   7 -12   52.52    5.20
  -1   7 -12   53.39    5.09
  -1   7 -12   43.69    8.07
  -1   7 -12   55.11    4.59
   1  -7  12   49.06    7.06
  -1   7 -13    6.02    3.23
  -1   7 -13    5.92    1.67
   1  -7  13    2.83    1.82
  -1   7 -13    6.29    1.87
   1  -7  14    4.86    2.19
  -1   7 -14    4.39    2.75
  -1   7 -14    7.67    2.07
  -1   7 -15    3.50    2.95
   1  -7  15   -0.30    1.94
  -1   7 -15   -1.01    1.10
   1  -7  16   26.15    5.57
  -1   7 -16   16.47    5.87
  -1   7 -16   24.70    4.44
  -1   7 -17   -0.77    1.88
  -1   7 -17    0.22    0.98
   1  -7  17    1.98    2.21
   1  -6 -15   -0.19    1.20
  -1   6  15    1.61    1.87
  -1   6  14    4.73    3.09
   1  -6 -14   10.93    3.86
  -1   6  13    5.57    2.96
   1  -6 -13    4.15    2.39
  -1   6  13    1.97    0.92
  -1   6  12    2.72    1.54
   1  -6 -12    1.12    1.37
  -1   6  12    1.04    0.83
  -1   6  11   26.12    6.00
  -1   6  11   42.58    5.58
   1  -6 -11   33.82    5.76
  -1   6  11   35.53    3.97
  -1   6  10  131.25    7.98
  -1   6  10  136.83    9.67
   1  -6 -10  123.89   10.68
  -1   6  10  128.68   13.14
  -1   6  10  144.41   10.08
   1  -6 -10  119.08   10.94
  -1   6  10  123.62    7.52
  -1   6   9    7.51    2.14
   1  -6  -9    5.71    2.18
  -1   6   9    6.33    1.97
  -1   6   9    8.53    3.04
  -1   6   9    8.27    1.79
   1  -6  -8   72.58    7.64
  -1   6   8   74.23    5.46
  -1   6   8   80.09    5.59
  -1   6   8   83.48    9.78
  -1   6   8   78.65    6.88
  -1   6   8   76.31    7.06
   1  -6  -7  244.63   14.54
  -1   6   7  290.27   11.58
  -1   6   7  272.97   11.60
  -1   6   7  270.03   14.06
   1  -6  -7  297.21   20.63
  -1   6   7  291.91   13.95
  -1   6   7  273.26   17.99
  -1   6   6  400.56   17.31
  -1   6   6  410.60   14.89
  -1   6   6  410.50   16.98
   1  -6  -6  402.01   23.60
   1  -6  -6  368.95   17.53
   1  -6  -6  359.64   16.30
  -1   6   6  414.02   14.03
  -1   6   6  415.06   21.83
  -1   6   5   29.51    2.71
  -1   6   5   25.23    3.44
  -1   6   5   27.71    3.05
   1  -6  -5   29.98    3.89
   1  -6  -5   26.67    3.89
  -1   6   5   25.11    3.56
  -1   6   5   41.87    6.05
   1  -6  -5   25.83    5.35
  -1   6   4  356.13   15.58
   1  -6  -4  393.15   17.96
  -1   6   4  399.86   13.01
   1  -6  -4  370.58   16.08
  -1   6   4  411.71   16.04
   1  -6  -4  378.55   21.54
  -1   6   4  402.54   14.60
  -1   6   4  396.07   19.63
  -1   6   3   56.05    3.49
  -1   6   3   47.54    4.06
   1  -6  -3   51.24    5.02
   1  -6  -3   46.56    5.37
   1  -6  -3   50.04    7.08
  -1   6   3   51.64    5.02
  -1   6   3   50.20    6.07
  -1   6   3   48.11    4.67
  -1   6   2  179.31    8.60
   1  -6  -2  178.45    9.97
  -1   6   2  160.45    9.12
  -1   6   2  182.35   11.59
   1  -6  -2  173.29   10.57
  -1   6   2  172.95    6.99
   1  -6  -2  168.07   13.10
  -1   6   2  181.96    9.94
  -1   6   2  192.56   11.76
  -1   6   1    5.26    1.35
   1  -6  -1    6.61    1.84
  -1   6   1    6.98    1.83
  -1   6   1    5.85    2.01
   1  -6  -1    5.19    1.73
  -1   6   1    5.57    1.12
   1  -6  -1    3.45    2.03
  -1   6   1    4.13    1.57
  -1   6   0  358.26   14.82
  -1   6   0  384.86   12.87
  -1   6   0  421.98   21.02
  -1   6   0  396.02   17.83
   1  -6   0  368.90   15.78
   1  -6   0  381.03   20.52
  -1   6   0  398.89   14.44
  -1   6   0  412.42   17.15
  -1   6  -1   45.43    5.16
   1  -6   1   38.53    4.28
  -1   6  -1   37.92    5.54
  -1   6  -1   38.05    3.85
  -1   6  -1   44.06    4.61
  -1   6  -1   32.03    3.55
   1  -6   1   38.51    5.76
  -1   6  -2   58.17    5.09
  -1   6  -2   62.05    7.09
   1  -6   2   58.15    5.38
   1  -6   2   56.06    6.94
   1  -6   2   59.51    5.23
  -1   6  -2   65.56    5.13
  -1   6  -2   52.91    4.57
  -1   6  -3   10.26    1.84
   1  -6   3    9.76    2.13
  -1   6  -3    9.87    1.44
  -1   6  -3    8.46    1.88
  -1   6  -3    7.36    1.56
  -1   6  -3   11.26    2.16
  -1   6  -3   10.28    2.91
   1  -6   3    9.91    3.03
  -1   6  -4  244.83   10.96
   1  -6   4  249.07   15.76
  -1   6  -4  253.68    9.18
   1  -6   4  225.93   11.76
  -1   6  -4  269.36   12.68
  -1   6  -4  253.88   15.82
  -1   6  -4  258.31   12.42
  -1   6  -4  244.73   12.91
  -1   6  -4  259.19   10.65
  -1   6  -4  214.24   10.83
  -1   6  -5    3.40    1.50
  -1   6  -5    0.22    0.60
   1  -6   5    4.10    2.34
  -1   6  -5    2.75    1.54
  -1   6  -5    2.39    1.09
  -1   6  -5    0.89    0.76
   1  -6   5    1.68    1.05
  -1   6  -5    1.77    0.82
   1  -6   5    2.41    1.18
  -1   6  -5    1.79    0.75
  -1   6  -5    2.41    0.79
  -1   6  -5    1.09    0.78
   1  -6   6   37.14    5.24
  -1   6  -6   44.41    6.90
  -1   6  -6   42.99    3.33
  -1   6  -6   39.83    4.27
  -1   6  -6   42.96    4.28
   1  -6   6   55.80    7.43
   1  -6   6   42.24    4.63
  -1   6  -6   42.46    3.89
  -1   6  -6   40.71    4.99
  -1   6  -6   51.93    4.06
  -1   6  -6   43.62    5.03
  -1   6  -6   44.00    6.51
  -1   6  -7   11.77    3.70
  -1   6  -7    8.01    2.32
  -1   6  -7    7.05    1.76
   1  -6   7    7.71    1.96
   1  -6   7    8.67    2.57
  -1   6  -7    6.39    1.46
  -1   6  -7   10.28    1.64
  -1   6  -7    5.00    1.83
  -1   6  -7    9.01    3.31
  -1   6  -7    5.45    1.36
  -1   6  -7    8.55    1.62
   1  -6   8   15.69    3.59
   1  -6   8    9.82    2.21
  -1   6  -8   12.86    1.58
  -1   6  -8    9.91    3.45
  -1   6  -8   10.75    1.86
  -1   6  -8   13.69    2.66
  -1   6  -8    9.83    2.68
  -1   6  -8   12.51    2.02
  -1   6  -8   11.87    1.98
  -1   6  -8   14.69    4.13
  -1   6  -8   11.79    2.96
   1  -6   9  101.67    9.67
   1  -6   9  117.26    9.97
  -1   6  -9  118.98    6.90
  -1   6  -9  116.88    6.76
  -1   6  -9  120.26   11.82
  -1   6  -9  117.40    6.72
  -1   6  -9  101.91    7.77
  -1   6 -10    8.04    1.94
   1  -6  10   11.15    3.26
  -1   6 -10    8.73    3.53
  -1   6 -10   17.57    2.49
  -1   6 -10   12.67    2.18
   1  -6  10    9.66    3.03
  -1   6 -10   15.84    2.37
  -1   6 -11   11.87    2.21
  -1   6 -11   10.31    2.11
   1  -6  11   10.25    3.04
  -1   6 -11    8.24    3.46
  -1   6 -11   10.89    2.09
   1  -6  11   11.22    3.43
  -1   6 -11    7.46    2.16
  -1   6 -11    9.25    1.83
  -1   6 -12   35.43    4.10
   1  -6  12   30.77    5.95
  -1   6 -12   35.78    4.56
  -1   6 -12   32.62    3.71
  -1   6 -12   27.50    6.20
  -1   6 -12   33.69    3.69
  -1   6 -12   29.24    3.36
   1  -6  12   27.10    5.09
  -1   6 -13    0.18    0.57
  -1   6 -13   -1.67    2.04
  -1   6 -13    1.54    1.22
   1  -6  13    1.34    1.89
   1  -6  13   -0.07    1.14
  -1   6 -14  120.62   13.69
   1  -6  14  121.11   12.60
   1  -6  14  115.63   10.81
  -1   6 -14  109.56    8.43
   1  -6  15   21.32    5.41
   1  -6  15   17.07    4.18
  -1   6 -15   18.16    3.45
  -1   6 -15   16.55    5.10
  -1   6 -16    2.65    1.55
   1  -6  16    3.92    2.69
  -1   6 -16   -0.37    1.89
  -1   6 -17    7.28    3.49
  -1   6 -17    5.07    2.06
   1  -6  17   11.88    3.58
   1  -5 -16    1.88    1.79
  -1   5  16    7.29    3.67
  -1   5  15    2.26    1.47
  -1   5  15    1.47    2.54
   1  -5 -15    0.55    1.34
   1  -5 -14    8.79    3.52
  -1   5  14    5.02    2.92
  -1   5  14    8.25    2.73
  -1   5  13    1.18    1.60
   1  -5 -13    3.15    2.02
  -1   5  13    2.05    1.54
  -1   5  12    9.29    2.63
  -1   5  12    8.20    1.66
  -1   5  12    9.48    3.21
   1  -5 -12   10.27    3.18
  -1   5  11   42.29    7.40
  -1   5  11   38.86    4.49
   1  -5 -11   40.85    6.26
  -1   5  11   49.42    4.19
  -1   5  11   51.25    4.32
  -1   5  11   53.49    6.23
   1  -5 -11   53.34    7.26
  -1   5  10    1.65    0.97
   1  -5 -10    3.43    1.39
  -1   5  10    5.13    1.81
   1  -5 -10    3.08    2.13
  -1   5  10    1.72    1.96
  -1   5  10    2.87    0.95
  -1   5   9   83.94    9.68
  -1   5   9   67.80    6.19
   1  -5  -9   70.48    7.56
  -1   5   9   87.24    7.36
  -1   5   8   81.33    6.65
   1  -5  -8   77.37    7.58
  -1   5   8   73.05    8.63
  -1   5   8   81.38    6.86
  -1   5   8   84.46    5.73
   1  -5  -7   32.10    4.59
   1  -5  -7   30.90    4.44
  -1   5   7   37.36    4.20
  -1   5   7   34.90    4.21
  -1   5   7   34.32    3.25
  -1   5   7   33.99    5.57
  -1   5   6   35.15    4.06
  -1   5   6   27.61    6.59
   1  -5  -6   42.12    5.15
  -1   5   6   37.88    4.14
  -1   5   6   36.08    3.16
   1  -5  -6   30.16    4.35
  -1   5   6   45.25    6.24
  -1   5   5  114.03    9.58
   1  -5  -5  115.14   10.94
   1  -5  -5  122.11    8.25
  -1   5   5  109.79    7.25
   1  -5  -5  109.69    7.14
  -1   5   5  115.27    7.22
  -1   5   5  124.76    6.05
   1  -5  -5  118.21    8.55
   1  -5  -4  206.15   13.67
   1  -5  -4  195.78    9.57
   1  -5  -4  184.30    8.77
  -1   5   4  218.14   12.27
  -1   5   4  206.22    7.14
  -1   5   4  185.38    8.38
  -1   5   4  187.22    8.91
  -1   5   3   53.79    3.52
  -1   5   3   54.07    4.41
  -1   5   3   48.62    4.34
   1  -5  -3   46.91    6.24
   1  -5  -3   53.44    4.61
  -1   5   3   68.39    6.36
  -1   5   2  133.79    8.77
  -1   5   2  137.21    7.42
   1  -5  -2  126.32   10.39
  -1   5   2  125.44    5.88
   1  -5  -2  109.98    7.01
  -1   5   2  108.61    6.79
   1  -5  -1   37.43    4.05
  -1   5   1   43.58    4.53
   1  -5  -1   36.46    3.71
  -1   5   1   33.62    3.35
  -1   5   1   30.90    2.73
   1  -5  -1   37.16    5.25
   1  -5  -1   38.30    3.40
   1  -5   0    0.20    0.39
   1  -5   0    0.41    0.65
   1  -5   0    0.87    1.44
  -1   5   0   -0.21    0.59
  -1   5   0   -0.09    0.55
  -1   5   0    1.29    1.19
  -1   5   0    0.25    0.45
   1  -5   1  610.05   21.28
   1  -5   1  655.25   26.47
  -1   5  -1  613.16   20.68
  -1   5  -1  650.43   25.74
  -1   5  -1  681.72   20.71
   1  -5   1  618.63   21.55
  -1   5  -1  687.02   21.86
  -1   5  -2  239.32   13.63
  -1   5  -2  211.18    9.87
  -1   5  -2  245.23   10.42
   1  -5   2  224.76   13.65
   1  -5   2  212.04   10.38
   1  -5   2  215.43   10.39
  -1   5  -2  244.19   10.37
  -1   5  -3    2.59    1.43
   1  -5   3    6.81    1.64
  -1   5  -3    4.21    1.22
  -1   5  -3    4.01    1.11
  -1   5  -3    5.16    1.18
  -1   5  -3    5.21    1.06
   1  -5   3    2.78    1.47
  -1   5  -3    5.21    1.33
   1  -5   4   96.84    7.77
  -1   5  -4  105.25    9.29
  -1   5  -4  107.48    6.85
  -1   5  -4  105.38    5.74
  -1   5  -4  107.03    7.42
  -1   5  -4  107.99    5.97
   1  -5   4  101.41    6.63
   1  -5   4  106.25    9.35
  -1   5  -4   89.24    6.61
  -1   5  -4  109.84    5.45
  -1   5  -4   86.40    5.97
  -1   5  -5   48.37    4.38
  -1   5  -5   55.03    6.62
  -1   5  -5   55.66    7.01
   1  -5   5   48.28    5.38
  -1   5  -5   51.37    3.86
  -1   5  -5   50.52    3.78
  -1   5  -5   54.38    5.27
  -1   5  -5   52.10    4.45
  -1   5  -5   53.99    5.19
   1  -5   5   51.95    4.71
   1  -5   5   56.81    6.87
  -1   5  -5   56.87    3.79
   1  -5   6    1.49    0.60
  -1   5  -6    2.63    0.81
  -1   5  -6    3.93    1.10
  -1   5  -6    1.78    1.24
  -1   5  -6    3.50    1.57
  -1   5  -6    2.23    0.93
  -1   5  -6    2.11    0.91
   1  -5   6    2.57    1.35
  -1   5  -6    4.63    1.39
  -1   5  -6    4.08    1.50
   1  -5   6    3.89    1.87
  -1   5  -6    2.66    0.80
  -1   5  -7   27.45    5.28
  -1   5  -7   20.71    2.91
  -1   5  -7   26.70    2.48
  -1   5  -7   27.90    2.80
  -1   5  -7   22.44    4.50
  -1   5  -7   26.01    2.81
  -1   5  -7   21.48    3.60
   1  -5   7   29.57    4.42
   1  -5   7   25.56    3.35
  -1   5  -7   25.38    3.79
   1  -5   7   20.69    3.77
  -1   5  -7   27.94    2.67
  -1   5  -8    0.94    1.01
   1  -5   8    2.39    1.15
  -1   5  -8    2.68    0.54
  -1   5  -8    4.09    1.48
  -1   5  -8    2.04    1.57
  -1   5  -8    3.29    1.94
  -1   5  -8    3.44    1.20
  -1   5  -8    3.43    1.08
   1  -5   8    0.85    0.92
  -1   5  -8    1.35    0.46
  -1   5  -8    2.10    0.79
  -1   5  -9    0.14    0.56
  -1   5  -9   -0.88    1.29
   1  -5   9   -1.07    1.12
  -1   5  -9    0.93    1.20
  -1   5  -9   -0.69    0.46
  -1   5  -9    1.24    0.96
   1  -5   9    0.77    0.83
  -1   5  -9    0.37    0.44
   1  -5  10   11.74    2.93
  -1   5 -10   11.50    2.00
  -1   5 -10   13.31    2.32
   1  -5  10   13.47    3.55
  -1   5 -10   14.28    1.98
  -1   5 -10   12.23    2.89
  -1   5 -10   12.53    3.51
  -1   5 -10   13.47    2.56
   1  -5  11   41.06    5.77
  -1   5 -11   51.46    4.19
  -1   5 -11   43.48    4.77
  -1   5 -11   51.50    7.69
  -1   5 -11   43.56    3.71
  -1   5 -11   42.38    4.39
   1  -5  11   40.08    6.42
   1  -5  12   -1.22    1.32
  -1   5 -12    0.67    0.69
  -1   5 -12   -1.03    1.01
   1  -5  12    0.13    0.91
  -1   5 -12    1.12    0.74
  -1   5 -12   -0.37    0.78
  -1   5 -12    0.42    0.44
  -1   5 -12    0.52    0.73
  -1   5 -13   24.91    5.87
   1  -5  13   22.76    5.23
  -1   5 -13   21.66    3.46
  -1   5 -13   29.48    3.15
   1  -5  13   23.92    4.38
  -1   5 -14    1.12    0.99
   1  -5  14    0.64    0.80
   1  -5  14    2.38    1.95
   1  -5  15    1.13    0.76
  -1   5 -15    2.60    1.22
  -1   5 -15    2.15    2.55
   1  -5  15    1.91    1.24
  -1   5 -16   -1.36    2.53
   1  -5  16    2.22    1.63
  -1   5 -16    1.83    1.31
   1  -5  16    1.40    1.38
   1  -5  17    5.68    2.69
  -1   5 -17    0.79    1.86
  -1   5 -17    0.98    1.50
  -1   4  17    4.79    2.08
  -1   4  17    3.78    2.67
   1  -4 -16   -2.00    2.37
  -1   4  16    3.21    2.56
  -1   4  16    0.88    1.06
   1  -4 -15   19.26    4.80
  -1   4  15   29.04    5.42
  -1   4  15   20.77    5.56
   1  -4 -14   64.25    8.52
  -1   4  14   60.12    7.49
  -1   4  14   55.80    8.91
  -1   4  13    5.06    2.26
   1  -4 -13    3.14    2.20
  -1   4  13   -0.36    0.94
   1  -4 -12   -0.99    0.86
  -1   4  12    1.29    1.23
  -1   4  12    2.15    2.31
  -1   4  11    0.44    1.46
  -1   4  11    0.54    0.59
   1  -4 -11    0.48    1.32
  -1   4  11   -0.56    0.91
   1  -4 -11    0.24    1.17
  -1   4  11    0.98    0.53
  -1   4  10    6.47    2.21
  -1   4  10    6.42    1.33
  -1   4  10    5.31    1.52
  -1   4  10    6.09    3.08
   1  -4 -10    5.01    1.86
   1  -4 -10    6.51    2.17
  -1   4  10    5.12    1.07
   1  -4  -9   -0.48    0.63
  -1   4   9   -1.01    0.84
  -1   4   9   -0.22    0.31
  -1   4   9   -0.09    1.30
   1  -4  -9   -0.62    0.76
  -1   4   9   -0.40    0.57
  -1   4   9    0.13    0.64
   1  -4  -8    6.28    2.11
  -1   4   8    6.26    2.39
  -1   4   8    1.75    0.97
  -1   4   8    5.21    1.29
  -1   4   8    4.37    0.98
   1  -4  -8    3.44    1.51
   1  -4  -8    7.35    2.28
  -1   4   8    5.10    1.53
  -1   4   7   35.57    3.87
  -1   4   7   26.42    5.86
  -1   4   7   33.06    3.91
   1  -4  -7   30.06    4.15
  -1   4   7   30.70    4.99
  -1   4   7   29.21    2.55
  -1   4   7   29.16    2.95
   1  -4  -7   28.59    4.29
   1  -4  -7   30.39    4.24
   1  -4  -6   10.06    2.39
  -1   4   6   15.20    2.53
   1  -4  -6   14.74    2.72
  -1   4   6   13.23    3.19
  -1   4   6   14.13    1.77
   1  -4  -6   13.38    2.73
  -1   4   6   15.01    2.39
  -1   4   6   15.82    4.81
  -1   4   6   18.92    2.24
  -1   4   5   39.65    3.85
  -1   4   5   36.77    2.94
   1  -4  -5   36.53    4.12
   1  -4  -5   38.80    4.22
  -1   4   5   36.39    4.88
  -1   4   5   39.02    3.71
  -1   4   5   44.58    3.40
  -1   4   5   34.98    6.73
   1  -4  -4   82.17    4.57
  -1   4   4   76.15    6.79
  -1   4   4   69.08    5.05
   1  -4  -4   66.47    4.81
  -1   4   4   67.31    4.68
  -1   4   4   71.77    4.31
  -1   4   4   74.86    4.42
   1  -4  -4   64.95    5.43
  -1   4   3  156.06    6.82
  -1   4   3  134.86    7.41
   1  -4  -3  143.13    8.11
   1  -4  -3  148.44   10.80
   1  -4  -3  178.30    7.30
  -1   4   3  149.30    7.07
  -1   4   3  167.42    7.12
   1  -4  -3  145.62    7.58
  -1   4   3  160.21    9.59
   1  -4  -2   38.86    3.55
  -1   4   2   36.74    3.41
   1  -4  -2   40.66    4.02
   1  -4  -2   42.21    5.33
  -1   4   2   41.18    3.13
  -1   4   2   37.94    3.20
  -1   4   2   45.67    4.48
   1  -4  -2   46.28    3.36
  -1   4   2   45.80    3.45
   1  -4  -1   30.47    4.28
   1  -4  -1   26.16    3.03
  -1   4   1   30.85    3.38
  -1   4   1   29.28    2.62
  -1   4   1   30.23    2.77
   1  -4  -1   27.96    2.58
   1  -4  -1   23.30    2.71
  -1   4   1   26.60    2.79
  -1   4   0   69.76    6.35
  -1   4   0   62.81    4.70
   1  -4   0   52.27    4.17
   1  -4   0   68.59    4.23
   1  -4   0   61.93    4.54
  -1   4   0   57.18    4.15
   1  -4   0   56.91    5.92
   1  -4   1  619.23   20.61
  -1   4  -1  687.76   19.87
  -1   4  -1  697.89   20.79
  -1   4  -1  675.43   24.58
  -1   4  -1  607.25   20.10
   1  -4   1  655.51   20.53
   1  -4   1  685.84   24.94
  -1   4  -2  326.14   14.47
   1  -4   2  381.01   14.21
  -1   4  -2  439.81   13.89
   1  -4   2  438.65   13.75
   1  -4   2  392.50   17.74
   1  -4   2  367.89   13.65
  -1   4  -2  413.16   13.51
  -1   4  -2  410.86   14.03
  -1   4  -2  378.60   13.89
  -1   4  -2  412.07   17.82
   1  -4   3    5.48    1.71
  -1   4  -3    8.63    2.39
  -1   4  -3    6.74    1.45
   1  -4   3    5.61    1.68
  -1   4  -3    6.46    1.24
  -1   4  -3    6.34    1.47
   1  -4   3    8.50    1.67
  -1   4  -3    6.35    1.45
  -1   4  -3    7.50    1.81
  -1   4  -3    7.80    1.40
  -1   4  -3    9.96    1.44
   1  -4   3    8.89    1.48
  -1   4  -4   18.49    2.09
   1  -4   4   21.34    3.15
  -1   4  -4   19.36    2.12
  -1   4  -4   18.04    2.74
  -1   4  -4   16.40    1.90
  -1   4  -4   18.36    2.42
  -1   4  -4   17.71    2.58
  -1   4  -4   16.70    3.25
   1  -4   4   16.34    2.31
   1  -4   4   17.18    2.08
  -1   4  -4   16.91    3.37
   1  -4   4   17.87    3.39
   1  -4   4   18.96    2.84
  -1   4  -4   16.18    2.27
   1  -4   5   10.54    1.59
  -1   4  -5    5.87    1.62
  -1   4  -5    8.07    1.65
  -1   4  -5    9.45    1.43
   1  -4   5    8.20    1.97
  -1   4  -5   10.77    1.61
   1  -4   5   10.00    2.35
  -1   4  -5    9.68    2.52
  -1   4  -5    5.52    1.47
  -1   4  -5   11.42    3.00
  -1   4  -5    9.52    1.47
  -1   4  -5    8.35    1.50
   1  -4   5    7.51    1.64
  -1   4  -6   36.21    2.85
  -1   4  -6   33.52    3.46
  -1   4  -6   36.27    2.99
  -1   4  -6   40.33    3.35
  -1   4  -6   39.56    5.79
  -1   4  -6   38.35    4.48
  -1   4  -6   34.06    4.91
   1  -4   6   45.04    4.70
   1  -4   6   42.74    4.78
  -1   4  -6   42.19    4.57
  -1   4  -7    1.84    0.95
  -1   4  -7    1.73    0.69
   1  -4   7    1.62    1.06
   1  -4   7    1.33    0.80
  -1   4  -7    1.56    0.96
  -1   4  -7    1.61    0.55
  -1   4  -7    1.81    1.26
  -1   4  -7    1.19    1.26
  -1   4  -7    1.34    0.96
  -1   4  -7    1.28    0.59
   1  -4   7    1.65    1.01
  -1   4  -8    6.50    2.60
  -1   4  -8    9.19    1.90
  -1   4  -8    8.73    2.42
  -1   4  -8    9.86    2.91
   1  -4   8    7.41    2.26
  -1   4  -8    9.30    2.21
  -1   4  -8    8.48    1.58
   1  -4   8   11.42    2.45
   1  -4   8   10.61    3.17
  -1   4  -8   10.56    1.46
  -1   4  -8    9.49    1.75
   1  -4   9    2.97    1.55
  -1   4  -9    2.03    0.89
   1  -4   9    4.83    2.40
  -1   4  -9    2.63    1.60
  -1   4  -9    6.50    2.60
  -1   4  -9    4.33    1.41
   1  -4   9    3.29    0.70
  -1   4  -9    2.33    1.55
  -1   4  -9    1.03    0.60
   1  -4   9    2.28    1.85
  -1   4  -9    2.56    0.85
  -1   4  -9    1.42    0.57
  -1   4 -10    4.65    1.40
  -1   4 -10    3.38    1.01
   1  -4  10    4.44    1.71
  -1   4 -10    2.53    1.84
  -1   4 -10    3.48    1.47
   1  -4  10    3.86    0.80
  -1   4 -10    4.27    2.17
  -1   4 -10    2.30    1.97
   1  -4  10    3.31    1.66
  -1   4 -10    4.10    0.90
   1  -4  10    4.25    2.61
   1  -4  10    2.42    1.44
  -1   4 -11   15.35    4.15
   1  -4  11    6.46    0.92
  -1   4 -11    6.43    1.40
  -1   4 -11    9.17    2.06
   1  -4  11    7.96    2.75
  -1   4 -11    5.74    1.16
  -1   4 -11    8.63    1.88
   1  -4  11   10.58    2.81
  -1   4 -12    6.76    1.43
  -1   4 -12    5.42    1.19
   1  -4  12    7.76    0.98
   1  -4  12    8.47    2.44
  -1   4 -12    5.75    2.75
  -1   4 -12    6.67    1.79
  -1   4 -12    8.61    1.47
   1  -4  12    7.02    2.78
  -1   4 -13    0.90    0.54
  -1   4 -13    0.13    0.90
  -1   4 -13    0.39    1.01
   1  -4  13    1.92    1.70
   1  -4  13    0.19    0.76
  -1   4 -14   -0.03    0.82
   1  -4  14   -0.08    1.56
   1  -4  14   -0.44    1.12
  -1   4 -14   -0.69    1.74
   1  -4  15   35.92    5.31
   1  -4  15   36.97    7.00
  -1   4 -15   37.53    5.18
   1  -4  16    9.44    3.29
  -1   4 -16   11.98    3.08
   1  -4  16   13.38    3.26
  -1   4 -16   17.69    5.82
   1  -4  17   14.40    3.65
  -1   4 -17    9.13    4.52
  -1   4 -17   16.98    3.86
   1  -4  17   10.84    3.90
  -1   4 -18    1.62    1.64
  -1   3  18    2.06    1.81
  -1   3  17    2.03    1.58
  -1   3  16    2.42    2.34
  -1   3  16    4.07    2.46
   1  -3 -16   -0.19    1.66
  -1   3  15   38.31    7.51
   1  -3 -15   52.46    7.82
  -1   3  15   47.41    6.94
   1  -3 -14   14.39    3.89
  -1   3  14   13.89    4.28
  -1   3  14   11.22    3.33
  -1   3  13    0.52    1.31
  -1   3  13    1.20    1.91
   1  -3 -13    0.45    0.94
   1  -3 -12    1.66    1.34
  -1   3  12    1.16    1.46
  -1   3  12    0.43    0.89
   1  -3 -11  111.39   10.22
  -1   3  11  127.25   11.95
  -1   3  11  114.22    9.30
   1  -3 -11  106.75    9.46
  -1   3  11  112.30    4.92
   1  -3 -10    3.02    1.65
  -1   3  10    1.35    1.60
  -1   3  10    1.30    0.53
   1  -3 -10    1.74    1.53
  -1   3  10    2.84    1.64
  -1   3  10    1.30    0.42
   1  -3  -9   33.15    4.56
  -1   3   9   30.87    3.37
  -1   3   9   30.99    4.26
   1  -3  -9   28.02    4.09
  -1   3   9   32.24    2.29
  -1   3   9   23.50    4.57
  -1   3   8   93.90    8.89
  -1   3   8   83.20    5.71
   1  -3  -8  107.33    8.30
  -1   3   8  100.34    6.03
   1  -3  -8  102.15    7.74
  -1   3   8  101.17    4.46
  -1   3   8   92.05    9.85
   1  -3  -8  103.15    7.93
  -1   3   8   99.50    7.33
  -1   3   7  149.32    8.71
   1  -3  -7  143.77    9.15
   1  -3  -7  144.76    9.43
  -1   3   7  146.05    7.84
  -1   3   7  158.67    7.56
  -1   3   7  154.33   11.08
   1  -3  -7  152.86    9.68
  -1   3   7  152.08   12.92
  -1   3   7  152.02    5.95
  -1   3   6   28.43    2.17
  -1   3   6   23.96    4.04
   1  -3  -6   23.56    3.27
  -1   3   6   24.47    2.85
  -1   3   6   25.71    2.65
   1  -3  -6   26.36    3.64
  -1   3   6   27.01    5.13
  -1   3   6   28.74    3.28
   1  -3  -6   26.15    3.50
  -1   3   5  685.20   20.63
   1  -3  -5  658.00   22.93
  -1   3   5  693.13   21.73
   1  -3  -5  749.08   19.80
  -1   3   5  698.93   19.65
   1  -3  -5  678.90   22.99
  -1   3   5  648.84   21.54
  -1   3   5  658.65   30.21
  -1   3   5  674.28   25.50
  -1   3   4   17.74    1.88
  -1   3   4   14.38    2.66
  -1   3   4   17.92    2.09
  -1   3   4   16.11    2.18
  -1   3   4   10.59    3.22
   1  -3  -4   19.55    2.56
   1  -3  -4   21.24    2.76
  -1   3   4   18.00    2.14
   1  -3  -4   18.03    1.79
  -1   3   3  218.31    8.63
   1  -3  -3  209.38    9.75
  -1   3   3  229.41    8.45
   1  -3  -3  233.36    8.29
   1  -3  -3  210.02    8.64
  -1   3   3  237.50   11.19
  -1   3   3  217.33    9.17
  -1   3   3  221.35    8.13
   1  -3  -2  107.84    7.62
  -1   3   2  108.37    5.41
  -1   3   2  102.74    5.64
  -1   3   2  108.68    4.62
  -1   3   2  104.24    6.45
   1  -3  -2  109.75    5.10
   1  -3  -2   87.76    5.16
  -1   3   2  105.34    5.17
   1  -3  -2  103.30    6.14
  -1   3   1  719.92   22.35
   1  -3  -1  759.44   22.87
  -1   3   1  794.41   22.11
  -1   3   1  833.24   23.69
   1  -3  -1  805.34   21.81
  -1   3   1  748.78   22.20
   1  -3  -1  709.67   22.19
   1  -3  -1  763.17   25.87
  -1   3   0   78.56    3.47
   1  -3   0   67.57    4.33
   1  -3   0   75.98    5.94
   1  -3   0   70.64    4.26
  -1   3   0   73.77    4.42
  -1   3   0   71.00    4.41
   1  -3   1    2.96    0.82
   1  -3   1    3.23    1.29
  -1   3  -1    3.72    0.92
  -1   3  -1    4.36    0.99
  -1   3  -1    4.74    0.94
  -1   3  -1    3.41    0.97
   1  -3   1    4.07    0.85
  -1   3  -2   92.95    5.30
   1  -3   2   89.42    4.65
   1  -3   2   77.72    4.72
  -1   3  -2   86.50    6.62
  -1   3  -2   86.36    4.58
  -1   3  -2   88.87    4.84
   1  -3   2   86.08    4.85
  -1   3  -2   82.43    5.23
   1  -3   2   82.40    4.24
  -1   3  -2   81.25    4.87
  -1   3  -2   89.56    4.11
   1  -3   2   77.76    6.22
  -1   3  -3  372.95   13.41
   1  -3   3  381.01   12.06
   1  -3   3  371.70   13.42
  -1   3  -3  343.44   12.16
  -1   3  -3  344.47   12.62
  -1   3  -3  377.96   13.55
  -1   3  -3  397.86   16.70
  -1   3  -3  355.44   13.00
  -1   3  -3  374.70   11.01
  -1   3  -3  375.81   15.05
  -1   3  -3  392.99   12.22
   1  -3   3  369.44   16.04
   1  -3   3  357.02   13.89
   1  -3   3  332.20   12.44
   1  -3   4  211.15    7.73
   1  -3   4  202.04    9.61
  -1   3  -4  204.94    7.68
  -1   3  -4  200.37    9.12
  -1   3  -4  181.90    8.37
  -1   3  -4  194.65   10.50
   1  -3   4  190.87    9.34
  -1   3  -4  185.49    9.22
   1  -3   4  186.07    7.65
  -1   3  -4  200.44    8.17
  -1   3  -4  194.53    6.69
  -1   3  -4  218.07   12.14
  -1   3  -4  190.14    8.11
   1  -3   5   17.72    2.80
   1  -3   5   16.59    3.10
  -1   3  -5   15.51    1.72
  -1   3  -5   16.07    2.07
  -1   3  -5   19.18    3.75
  -1   3  -5   15.23    2.79
   1  -3   5   14.76    1.78
  -1   3  -5   15.10    2.31
  -1   3  -5   16.31    1.96
  -1   3  -5   13.18    2.32
  -1   3  -5   14.65    2.10
   1  -3   5   10.78    1.97
   1  -3   5   17.23    1.77
  -1   3  -6  113.18    8.66
  -1   3  -6  114.09    6.49
  -1   3  -6  126.55    6.35
   1  -3   6  130.35    8.55
  -1   3  -6  124.88    5.29
   1  -3   6  128.11    9.41
  -1   3  -6  116.49    5.43
   1  -3   6  132.41    5.62
  -1   3  -6  116.88    5.31
   1  -3   6  109.61    7.07
   1  -3   6  123.29    6.08
  -1   3  -6  120.58    7.26
  -1   3  -6  127.56    9.90
  -1   3  -6  115.71    8.02
   1  -3   7   49.62    3.76
  -1   3  -7   55.73    3.10
  -1   3  -7   52.70    3.57
   1  -3   7   57.65    6.59
   1  -3   7   51.48    4.68
   1  -3   7   53.30    5.73
  -1   3  -7   44.85    5.10
  -1   3  -7   48.20    4.06
  -1   3  -7   52.04    4.10
  -1   3  -7   52.18    6.13
  -1   3  -7   50.99    4.78
  -1   3  -8   66.47    6.61
   1  -3   8   51.12    4.05
  -1   3  -8   54.38    4.40
  -1   3  -8   59.30    4.52
   1  -3   8   50.29    5.00
   1  -3   8   50.66    4.83
  -1   3  -8   59.54    6.95
  -1   3  -8   59.67    3.20
   1  -3   8   58.62    7.01
   1  -3   8   52.51    5.99
  -1   3  -8   49.39    4.98
  -1   3  -8   56.77    3.83
   1  -3   9    9.36    1.74
  -1   3  -9   11.99    3.32
  -1   3  -9   11.40    1.30
  -1   3  -9    7.68    1.60
   1  -3   9    7.25    1.98
  -1   3  -9   10.56    2.36
   1  -3   9    9.15    2.69
   1  -3   9    9.21    2.15
  -1   3  -9   12.20    2.09
  -1   3  -9   10.29    1.66
  -1   3  -9   10.16    2.54
   1  -3   9   11.29    3.04
   1  -3  10    3.75    1.66
  -1   3 -10    2.60    2.06
   1  -3  10    1.49    1.67
   1  -3  10    0.14    1.07
   1  -3  10    3.91    1.55
  -1   3 -10    2.46    0.90
  -1   3 -10    3.35    1.21
   1  -3  10    0.96    0.74
  -1   3 -10    1.95    0.54
  -1   3 -11  130.81   12.48
   1  -3  11  128.46    8.88
  -1   3 -11  136.85    5.51
  -1   3 -11  133.87    8.36
   1  -3  11  131.53    7.54
  -1   3 -11  130.44    6.97
  -1   3 -11  130.90    5.43
   1  -3  11  133.71   11.57
  -1   3 -12    8.58    1.74
   1  -3  12    9.33    2.47
   1  -3  12    6.96    1.60
  -1   3 -12    9.23    3.42
   1  -3  12    9.05    3.06
  -1   3 -12    7.22    2.07
  -1   3 -13   70.09    6.40
  -1   3 -13   57.69    9.10
   1  -3  13   61.83    6.36
   1  -3  13   61.57    8.25
   1  -3  13   60.94    5.24
  -1   3 -13   60.40    4.72
   1  -3  14   -1.05    1.31
   1  -3  14   -1.19    1.49
  -1   3 -14   -0.06    2.19
  -1   3 -14    0.67    0.62
   1  -3  15   -0.76    2.17
   1  -3  15    0.19    0.66
  -1   3 -15   -0.82    1.33
  -1   3 -15    0.26    1.78
   1  -3  16    0.72    2.17
   1  -3  16    5.51    2.16
  -1   3 -16    7.98    4.32
  -1   3 -16    4.75    2.20
  -1   3 -17   36.71    5.65
   1  -3  17   26.69    6.17
  -1   3 -17   31.79    8.68
  -1   3 -18    6.80    5.00
  -1   2  18   10.54    3.85
   1  -2 -17   -2.21    1.73
  -1   2  17    6.18    3.17
  -1   2  16    2.76    1.94
   1  -2 -16    0.98    1.61
  -1   2  16   -0.27    1.01
  -1   2  15    4.00    1.52
  -1   2  15    3.19    2.02
   1  -2 -15    4.69    2.33
   1  -2 -14    6.96    5.26
  -1   2  14    9.62    3.56
  -1   2  14    9.26    3.26
   1  -2 -14    3.41    1.96
   1  -2 -13  118.66   18.48
   1  -2 -13  131.93   11.22
  -1   2  13  141.72   13.31
  -1   2  13  137.36   11.35
  -1   2  12   59.02    8.11
   1  -2 -12   51.15    6.41
   1  -2 -12   40.89   10.38
  -1   2  12   48.78    6.44
   1  -2 -11  135.68   10.22
  -1   2  11  141.92   10.42
   1  -2 -11  132.78   11.04
   1  -2 -11  143.87   10.37
   1  -2 -11  131.51   17.26
  -1   2  11  126.91   11.66
   1  -2 -10   16.21    3.30
  -1   2  10   16.73    3.30
   1  -2 -10   19.51    3.49
   1  -2 -10   26.18    7.27
  -1   2  10   16.93    3.95
   1  -2 -10   19.45    3.78
   1  -2  -9  220.14   20.37
   1  -2  -9  228.23   12.63
  -1   2   9  252.25   10.92
  -1   2   9  271.98   13.55
  -1   2   9  239.36   16.27
   1  -2  -9  247.32   13.18
  -1   2   9  257.35   15.56
  -1   2   9  245.98    7.37
  -1   2   8  160.38   11.40
   1  -2  -8  177.03   10.49
  -1   2   8  182.03   10.00
   1  -2  -8  166.72    9.61
   1  -2  -8  167.10   10.05
  -1   2   8  170.23   12.79
  -1   2   8  175.78    5.25
  -1   2   8  176.53    8.13
  -1   2   7  103.18    8.63
  -1   2   7  115.15    4.27
  -1   2   7  105.49    5.99
   1  -2  -7  105.47    7.12
  -1   2   7  125.99   10.63
  -1   2   7  111.36    7.18
   1  -2  -7  112.75    7.91
   1  -2  -7  102.39    7.47
  -1   2   6  101.72    6.42
  -1   2   6  115.67    9.63
  -1   2   6  104.12    8.20
  -1   2   6  122.42    4.71
   1  -2  -6  118.96    7.75
  -1   2   6  113.79    5.87
   1  -2  -6  117.07    4.47
   1  -2  -6  108.38    7.04
   1  -2  -6  103.84    6.94
  -1   2   6  110.25    5.82
   1  -2  -5 1081.06   33.16
  -1   2   5 1087.04   31.83
   1  -2  -5 1081.94   43.82
   1  -2  -5 1126.99   33.65
   1  -2  -5 1147.49   34.78
  -1   2   5 1162.65   30.08
  -1   2   5 1163.25   32.60
  -1   2   5 1233.77   40.16
  -1   2   5 1120.60   36.08
   1  -2  -5 1203.99   29.85
  -1   2   5 1181.87   31.83
   1  -2  -4   23.94    2.98
   1  -2  -4   20.81    2.60
  -1   2   4   19.98    2.25
  -1   2   4   19.39    2.05
   1  -2  -4   21.14    1.78
  -1   2   4   25.62    3.43
  -1   2   4   17.35    1.70
  -1   2   4   20.27    3.78
  -1   2   4   18.97    2.01
   1  -2  -4   22.06    2.38
   1  -2  -3  249.14   10.39
  -1   2   3  261.81    9.48
   1  -2  -3  248.82    8.94
   1  -2  -3  265.79    8.85
  -1   2   3  260.01    9.82
  -1   2   3  218.85   13.28
  -1   2   3  249.11    8.94
  -1   2   3  266.45    8.56
  -1   2   3  267.63   11.34
  -1   2   2  247.26    9.51
  -1   2   2  261.63    9.55
   1  -2  -2  279.44   11.96
  -1   2   2  257.16   10.47
  -1   2   2  248.33    9.02
   1  -2  -2  236.99    9.70
   1  -2  -2  261.45    8.96
   1  -2  -1  189.52    7.63
   1  -2  -1  195.94    7.36
   1  -2  -1  186.85    8.79
  -1   2   1  182.14    7.64
  -1   2   1  194.81    7.57
  -1   2   1  182.85    8.85
  -1   2   1  195.76    7.94
   1  -2   0   52.76    4.08
   1  -2   0   53.04    3.03
  -1   2   0   57.36    3.66
  -1   2   0   53.38    3.19
   1  -2   1   13.13    1.36
   1  -2   1   14.45    2.07
  -1   2  -1   11.36    1.29
   1  -2   1   16.58    1.86
  -1   2  -1   14.85    1.90
   1  -2   1   13.56    1.20
   1  -2   1   15.87    1.85
  -1   2  -1   15.74    1.84
  -1   2  -1   13.59    1.67
  -1   2  -1   14.21    1.26
  -1   2  -2    0.22    0.48
  -1   2  -2    0.15    0.43
   1  -2   2    0.57    0.31
   1  -2   2   -0.81    0.48
  -1   2  -2    0.87    0.69
   1  -2   2    0.03    0.39
  -1   2  -2   -0.26    0.36
  -1   2  -2    0.09    0.29
   1  -2   2    0.37    0.39
  -1   2  -2    0.33    0.20
  -1   2  -3   14.49    1.81
  -1   2  -3   12.60    1.62
  -1   2  -3   14.01    1.81
  -1   2  -3   12.47    1.69
   1  -2   3   10.88    1.92
  -1   2  -3   11.80    1.46
  -1   2  -3   11.50    1.90
  -1   2  -3   14.62    2.51
   1  -2   3   13.81    1.86
   1  -2   3   11.09    1.60
   1  -2   3   11.83    1.86
  -1   2  -3   13.55    1.96
   1  -2   3   13.36    1.54
   1  -2   4  212.51    8.87
  -1   2  -4  225.88    8.87
   1  -2   4  235.73    8.04
   1  -2   4  222.31   10.16
  -1   2  -4  219.71    8.98
   1  -2   4  226.17    9.11
  -1   2  -4  232.59    8.89
   1  -2   4  218.67   10.78
  -1   2  -4  229.72    7.96
  -1   2  -4  217.28   10.21
  -1   2  -4  222.62   10.63
  -1   2  -4  209.65    8.33
   1  -2   5  292.99    9.45
  -1   2  -5  279.52    9.91
  -1   2  -5  295.78    9.14
  -1   2  -5  284.30   11.03
   1  -2   5  282.76   11.06
   1  -2   5  308.02   11.30
  -1   2  -5  283.62   12.93
  -1   2  -5  297.90   10.98
   1  -2   5  292.61   13.05
  -1   2  -5  293.94   13.55
   1  -2   5  258.47   11.37
  -1   2  -5  297.06    9.40
   1  -2   5  288.80   13.88
  -1   2  -5  309.17   10.98
  -1   2  -6   51.24    3.13
   1  -2   6   49.16    4.33
  -1   2  -6   50.82    5.49
   1  -2   6   48.66    4.02
   1  -2   6   55.00    5.84
   1  -2   6   51.62    4.08
   1  -2   6   46.93    4.91
  -1   2  -6   58.58    4.07
  -1   2  -6   50.82    4.16
   1  -2   6   55.97    2.89
  -1   2  -6   55.19    2.84
  -1   2  -6   50.94    3.72
  -1   2  -7  356.27   10.26
   1  -2   7  348.48   17.43
   1  -2   7  321.04   13.23
   1  -2   7  345.91   16.35
  -1   2  -7  344.52   12.90
   1  -2   7  389.81   10.61
  -1   2  -7  319.25   13.62
   1  -2   7  334.18   13.21
  -1   2  -7  331.52   11.64
  -1   2  -7  341.64   17.11
  -1   2  -8    7.04    0.82
   1  -2   8    7.74    1.93
  -1   2  -8    6.63    1.35
   1  -2   8    7.21    2.68
  -1   2  -8    6.39    2.31
  -1   2  -8    7.51    1.58
   1  -2   8    9.59    2.58
   1  -2   8    6.51    1.53
   1  -2   8    5.28    1.46
  -1   2  -9   73.02    8.30
   1  -2   9   83.11    8.74
  -1   2  -9   79.81    5.73
  -1   2  -9   82.64    5.06
  -1   2  -9   65.85    7.16
   1  -2   9   84.82    7.88
  -1   2  -9   90.26    3.34
   1  -2   9   82.35    6.18
   1  -2   9   79.41    5.87
   1  -2   9   71.19    6.25
   1  -2  10   88.22    6.60
  -1   2 -10   99.18    6.67
  -1   2 -10   94.03    5.65
  -1   2 -10   86.86    3.18
  -1   2 -10   89.20    9.90
  -1   2 -10   84.25    3.19
   1  -2  10  100.21    9.25
   1  -2  10   92.80    9.75
   1  -2  10   91.03    6.63
  -1   2 -11    9.38    2.09
  -1   2 -11    3.51    1.09
   1  -2  11    5.30    1.57
  -1   2 -11    6.85    3.03
   1  -2  11    5.60    2.47
   1  -2  11    5.48    1.76
  -1   2 -12    5.11    1.38
  -1   2 -12    7.43    1.94
   1  -2  12    5.04    2.25
  -1   2 -12    5.69    3.00
   1  -2  12    8.43    2.12
   1  -2  12    5.18    1.83
   1  -2  13   93.34    7.57
  -1   2 -13   82.19    5.99
  -1   2 -13   77.47   11.39
  -1   2 -13   81.04    7.23
   1  -2  13   88.12    9.81
   1  -2  13   91.08    7.17
   1  -2  14   14.71    2.84
  -1   2 -14   11.15    4.54
   1  -2  14   17.23    4.40
  -1   2 -14   18.27    3.54
   1  -2  15   15.11    2.95
   1  -2  15   19.91    4.98
  -1   2 -15   12.00    2.87
  -1   2 -15   14.88    5.47
  -1   2 -16   26.67    4.84
  -1   2 -16   14.14    6.19
   1  -2  16   17.53    4.84
   1  -2  16   23.26    3.77
  -1   2 -17   13.42    3.47
  -1   2 -17    6.69    5.50
   1  -2  17    8.71    3.34
  -1   2 -18    5.51    4.51
  -1   1  18   42.50    7.55
  -1   1  17   -0.36    1.22
   1  -1 -17   -0.30    2.16
  -1   1  17    0.30    1.12
   1  -1 -17    0.62    1.25
   1  -1 -16    5.75    4.63
   1  -1 -16    3.76    2.09
  -1   1  16    2.26    1.73
  -1   1  16    4.71    2.34
   1  -1 -15    0.71    2.85
  -1   1  15    3.99    2.32
   1  -1 -15    4.95    2.51
  -1   1  15   -0.83    1.43
   1  -1 -14    1.42    1.56
  -1   1  14    3.50    1.86
   1  -1 -14    6.35    4.68
  -1   1  14    3.64    1.93
  -1   1  13   11.01    3.30
   1  -1 -13   11.09    5.99
  -1   1  13   12.80    3.26
   1  -1 -13    8.71    2.75
   1  -1 -12    3.44    1.55
   1  -1 -12    6.38    3.93
   1  -1 -12    2.56    1.48
  -1   1  12    4.98    2.01
  -1   1  12    5.09    2.39
  -1   1  11    1.23    1.32
   1  -1 -11    4.93    3.30
   1  -1 -11    1.85    1.31
  -1   1  11   -0.58    0.65
   1  -1 -11    5.37    1.90
   1  -1 -11    4.63    1.80
  -1   1  10    0.58    0.75
  -1   1  10    0.63    1.10
   1  -1 -10    0.48    0.42
   1  -1 -10   -0.08    1.05
  -1   1  10    0.80    1.04
  -1   1  10    1.17    0.63
   1  -1 -10   -1.17    1.16
   1  -1 -10    0.97    0.88
   1  -1  -9    0.96    0.57
   1  -1  -9    0.64    0.95
  -1   1   9    0.23    0.46
  -1   1   9    0.13    0.90
   1  -1  -9    0.65    1.22
   1  -1  -9    0.26    0.62
  -1   1   9    0.48    0.49
  -1   1   9    0.44    0.57
  -1   1   8    0.06    0.55
  -1   1   8    2.80    1.50
   1  -1  -8    3.47    1.43
  -1   1   8    1.63    1.04
   1  -1  -8    3.72    1.30
  -1   1   7   19.32    1.22
   1  -1  -7   18.30    2.66
   1  -1  -7   23.14    3.27
  -1   1   7   17.40    2.78
  -1   1   7   20.05    3.95
   1  -1  -7   17.04    2.82
   1  -1  -7   20.42    1.18
  -1   1   7   17.02    3.40
  -1   1   6   64.43    6.03
   1  -1  -6   65.92    2.90
   1  -1  -6   64.49    4.92
  -1   1   6   61.14    2.92
  -1   1   6   69.23    5.17
   1  -1  -6   63.40    5.07
   1  -1  -6   69.06    5.67
  -1   1   6   68.28    6.84
   1  -1  -5  156.73    8.57
   1  -1  -5  142.91    7.37
  -1   1   5  149.08    9.64
  -1   1   5  148.41    7.33
   1  -1  -5  147.61    5.53
  -1   1   5  147.46    8.81
   1  -1  -5  143.35    7.42
  -1   1   5  153.82    6.72
   1  -1  -4   62.49    3.39
  -1   1   4   59.79    3.77
  -1   1   4   64.13    3.96
   1  -1  -4   58.01    3.82
  -1   1   4   60.50    5.37
  -1   1   4   60.50    5.00
   1  -1  -4   60.89    4.78
   1  -1  -4   57.06    4.12
   1  -1  -4   61.26    6.00
   1  -1  -3  226.89   11.28
  -1   1   3  234.21    8.51
   1  -1  -3  214.81    7.85
   1  -1  -3  238.63    8.18
   1  -1  -3  225.60    8.98
   1  -1  -3  225.36    9.59
  -1   1   3  219.68    7.74
  -1   1   3  213.27    9.70
  -1   1   3  231.78   10.49
   1  -1  -2  145.86    6.55
   1  -1  -2  149.07    5.04
  -1   1   2  143.96    5.01
  -1   1   2  165.41    7.47
   1  -1  -2  150.84    7.96
  -1   1   2  157.41    7.07
   1  -1  -2  146.67    6.07
   1  -1  -1  971.91   29.12
  -1   1   1 1020.86   28.15
   1  -1  -1 1035.17   27.86
   1  -1  -1 1027.98   27.90
  -1   1   1 1058.05   27.95
   1  -1  -1 1038.94   27.88
  -1   1   1 1047.29   28.43
  -1   1   1 1055.30   28.04
   1  -1   0  958.99   25.33
   1  -1   0 1008.11   26.42
  -1   1   0  994.35   26.70
  -1   1   0  947.81   26.31
  -1   1   0  960.59   25.32
   1  -1   1  281.28    9.98
  -1   1  -1  287.80    9.97
  -1   1  -1  281.14    9.46
   1  -1   1  282.45    9.37
   1  -1   1  291.08    9.84
   1  -1   2 1291.74   33.69
  -1   1  -2 1275.11   33.45
   1  -1   2 1278.90   34.39
   1  -1   2 1254.77   33.64
  -1   1  -2 1282.99   32.30
   1  -1   2 1246.39   34.35
  -1   1  -2 1292.69   34.09
  -1   1  -2 1236.57   34.50
   1  -1   3  182.37    8.20
  -1   1  -3  183.82    8.18
   1  -1   3  180.98    6.43
   1  -1   3  186.14    7.87
  -1   1  -3  178.59    6.34
   1  -1   3  176.69    8.27
  -1   1  -3  196.93    7.51
  -1   1  -3  175.20    7.18
   1  -1   3  176.87    6.93
  -1   1  -4  222.39    7.18
   1  -1   4  222.67   10.32
  -1   1  -4  249.58    8.91
  -1   1  -4  233.97   10.71
  -1   1  -4  229.26    8.11
   1  -1   4  227.37    7.84
   1  -1   4  228.66    8.08
   1  -1   4  211.51   10.19
   1  -1   4  226.88    7.96
   1  -1   4  218.41    9.27
  -1   1  -5   49.49    3.47
   1  -1   5   58.39    5.32
   1  -1   5   49.14    4.74
  -1   1  -5   61.19    3.92
   1  -1   5   49.48    3.25
   1  -1   5   54.59    4.18
  -1   1  -5   58.00    5.38
   1  -1   5   52.25    3.57
  -1   1  -5   56.79    3.18
   1  -1   5   55.38    2.99
   1  -1   6   87.89    5.44
   1  -1   6   83.67    5.66
   1  -1   6   96.36    3.79
  -1   1  -6   99.53    5.40
  -1   1  -6  100.53    8.03
   1  -1   6   93.83    7.55
  -1   1  -6   89.14    4.62
  -1   1  -6   85.04    3.54
   1  -1   6   91.60    7.05
   1  -1   6   82.99    4.84
  -1   1  -7   70.13    7.29
   1  -1   7   58.18    4.18
   1  -1   7   64.01    2.57
  -1   1  -7   61.61    4.47
   1  -1   7   62.69    4.95
   1  -1   7   62.80    6.10
  -1   1  -7   61.37    4.05
  -1   1  -7   64.25    2.46
   1  -1   7   55.73    6.27
   1  -1   7   65.50    5.17
   1  -1   8    3.83    1.68
   1  -1   8    7.31    2.16
  -1   1  -8    4.53    2.18
   1  -1   8    4.60    1.48
  -1   1  -8    4.51    2.39
  -1   1  -8    6.00    1.28
   1  -1   8    5.93    1.39
   1  -1   8    6.30    1.65
  -1   1  -8    5.87    1.39
   1  -1   9    0.49    0.46
   1  -1   9    0.15    0.65
  -1   1  -9   -0.41    1.07
   1  -1   9    1.26    0.83
  -1   1  -9   -0.04    0.40
   1  -1   9    2.33    2.06
  -1   1  -9    0.78    1.36
   1  -1   9    0.55    1.04
   1  -1   9   -0.36    0.74
  -1   1  -9    1.77    0.94
  -1   1 -10    3.11    1.25
  -1   1 -10   -0.45    1.75
  -1   1 -10    0.29    0.33
   1  -1  10    1.36    1.22
   1  -1  10    1.80    0.93
   1  -1  10   -0.12    0.67
   1  -1  10    0.77    0.88
  -1   1 -10    1.77    1.14
   1  -1  10    0.52    1.01
   1  -1  11    1.60    1.30
  -1   1 -11    1.10    0.88
  -1   1 -11    0.29    2.03
   1  -1  11   -0.09    0.67
  -1   1 -11    0.20    0.53
  -1   1 -12   35.65    4.43
   1  -1  12   33.08    3.92
  -1   1 -12   35.38    7.81
  -1   1 -12   31.98    3.66
   1  -1  12   26.68    5.15
   1  -1  13   37.52    6.33
  -1   1 -13   31.20    3.73
  -1   1 -13   28.57    4.15
  -1   1 -13   43.03    9.10
   1  -1  13   33.65    4.03
   1  -1  13   36.95    4.99
  -1   1 -14   28.66    8.02
  -1   1 -14   32.42    4.79
   1  -1  14   35.20    4.23
   1  -1  14   26.33    5.41
   1  -1  14   28.25    4.64
   1  -1  15  115.92   11.91
  -1   1 -15  106.09    9.32
   1  -1  15  111.16    7.83
  -1   1 -16    5.91    4.26
   1  -1  16    7.12    3.16
  -1   1 -16    5.07    2.20
  -1   1 -17    4.64    2.34
  -1   1 -17    4.64    3.38
   1  -1  17    5.05    2.89
  -1   0  18    4.08    2.48
   1   0 -17   11.46    3.70
  -1   0  17   11.83    3.31
   1   0 -17    1.50    2.17
  -1   0  17   14.73    4.54
   1   0 -16    0.05    2.18
  -1   0  16    2.23    1.66
  -1   0  16    3.16    1.95
   1   0 -16    0.75    1.69
  -1   0  15    7.13    2.57
   1   0 -15   11.75    5.68
   1   0 -15    7.71    2.80
  -1   0  15    7.20    3.19
   1   0 -14    4.45    4.52
  -1   0  14    3.36    1.51
  -1   0  14   11.24    3.67
   1   0 -14    4.64    2.54
  -1   0  13   67.02    7.91
   1   0 -13   55.92    6.71
   1   0 -13   62.90   11.01
  -1   0  13   46.87    6.04
   1   0 -13   61.25    6.58
   1   0 -12   14.85    5.47
   1   0 -12   17.23    3.46
  -1   0  12   16.09    3.42
  -1   0  12   16.90    3.86
   1   0 -12   15.57    3.28
   1   0 -11   21.57    3.62
   1   0 -11   19.65    5.27
  -1   0  11   25.92    4.36
   1   0 -11   13.05    2.91
   1   0 -11   19.98    3.88
  -1   0  11   20.91    3.94
  -1   0  10   52.89    6.06
  -1   0  10   64.63    8.13
  -1   0  10   57.37    4.74
   1   0 -10   49.49    7.77
   1   0 -10   53.62    5.45
  -1   0  10   50.79    5.76
   1   0 -10   56.17    6.22
   1   0 -10   57.45    5.93
  -1   0   9   76.63    5.28
   1   0  -9   81.61    6.44
   1   0  -9   78.44    6.72
   1   0  -9   69.60    6.65
  -1   0   9   77.64    8.57
   1   0  -9   88.25    9.64
  -1   0   9   75.08    6.93
   1   0  -8  519.14   18.84
  -1   0   8  512.83   20.25
  -1   0   8  499.49   23.66
   1   0  -8  521.73   20.29
  -1   0   7   26.44    4.46
   1   0  -7   25.40    3.37
  -1   0   7   24.10    1.45
   1   0  -7   23.07    2.94
  -1   0   7   26.90    3.49
   1   0  -7   22.45    3.30
  -1   0   7   24.84    1.47
  -1   0   6   42.33    2.40
  -1   0   6   39.44    5.05
   1   0  -6   40.01    3.63
  -1   0   6   40.70    4.04
   1   0  -6   41.52    4.05
   1   0  -6   45.60    4.52
  -1   0   6   40.24    2.34
  -1   0   5   49.90    5.23
  -1   0   5   63.66    3.80
  -1   0   5   61.40    4.56
   1   0  -5   59.64    4.48
   1   0  -5   51.70    3.93
   1   0  -5   53.67    4.65
  -1   0   4   65.18    4.30
  -1   0   4   63.70    3.69
   1   0  -4   66.87    4.27
  -1   0   4   71.71    5.63
   1   0  -4   64.28    4.27
   1   0  -4   73.05    5.09
   1   0  -3 1051.41   28.29
  -1   0   3 1034.08   30.24
  -1   0   3 1027.00   27.45
  -1   0   3  996.11   27.85
   1   0  -3 1015.73   27.97
  -1   0   3 1009.38   27.53
   1   0  -3 1031.20   30.10
   1   0  -2  167.36    6.72
  -1   0   2  161.04    6.49
   1   0  -2  167.33    7.30
  -1   0   2  169.10    7.38
  -1   0   2  168.22    6.61
   1   0  -2  165.27    6.40
   1   0  -1  354.82   10.91
  -1   0   1  354.58   11.29
  -1   0   1  347.86   10.80
   1   0  -1  347.46   11.24
  -1   0   0  498.67   15.07
   1   0   1   35.44    2.95
  -1   0  -1   33.68    2.57
   1   0   2 1792.14   49.50
  -1   0  -2 2024.67   49.50
   1   0   2 1960.70   50.79
   1   0   2 1936.97   47.90
  -1   0  -2 1895.56   48.02
  -1   0  -2 1866.03   48.56
   1   0   2 2002.69   51.92
  -1   0  -3 1434.65   36.31
   1   0   3 1336.86   36.79
  -1   0  -3 1266.28   41.54
   1   0   3 1380.12   37.67
  -1   0  -3 1357.97   35.66
   1   0   3 1406.05   38.95
   1   0   3 1489.62   40.19
   1   0   3 1380.61   35.71
   1   0   4  108.38    4.07
   1   0   4  103.37    5.22
   1   0   4  105.73    6.79
   1   0   4  107.02    5.75
  -1   0  -4  107.41    5.06
   1   0   4  110.52    6.12
  -1   0  -4   97.60    8.19
  -1   0  -4   94.27    6.79
  -1   0  -4  113.16    5.28
   1   0   4  113.33    7.49
  -1   0  -5  478.91   14.81
  -1   0  -5  426.76   20.63
   1   0   5  460.28   13.52
   1   0   5  464.97   15.65
  -1   0  -5  423.70   14.29
  -1   0  -5  435.49   18.21
   1   0   5  460.33   18.88
   1   0   5  448.66   16.19
  -1   0  -5  456.44   13.05
   1   0   5  456.49   15.43
   1   0   5  470.89   17.90
   1   0   6    0.66    0.58
  -1   0  -6   -0.05    0.18
   1   0   6   -0.56    0.53
  -1   0  -6    0.57    0.52
  -1   0  -6    0.24    0.71
   1   0   6    0.04    0.61
   1   0   6   -0.61    0.85
  -1   0  -6    0.08    0.41
   1   0   6    0.59    0.44
  -1   0  -6    0.19    0.23
   1   0   7  102.67    5.40
  -1   0  -7   99.03    3.16
  -1   0  -7  113.04    6.15
   1   0   7   94.20    3.91
   1   0   7  101.04    6.86
  -1   0  -7   89.05    5.56
  -1   0  -7  115.02   11.31
   1   0   7   99.41    8.72
   1   0   7   98.90    6.73
   1   0   7   94.96    7.78
   1   0   8   24.52    3.43
  -1   0  -8   26.35    3.07
   1   0   8   21.68    4.16
   1   0   8   22.53    3.83
  -1   0  -8   21.30    5.09
   1   0   8   23.62    3.16
   1   0   8   21.56    2.50
  -1   0  -8   26.35    4.42
   1   0   8   27.77    3.71
  -1   0  -8   21.08    2.66
  -1   0  -9    8.04    3.67
   1   0   9    3.75    1.50
   1   0   9    6.84    2.24
   1   0   9    7.29    1.90
   1   0   9    6.80    1.52
  -1   0  -9    4.40    1.93
  -1   0  -9    5.49    1.44
   1   0   9    9.93    3.23
  -1   0  -9    6.04    1.51
   1   0  10  167.85   11.19
   1   0  10  173.05    8.76
   1   0  10  167.55   13.63
   1   0  10  186.00   12.68
  -1   0 -10  141.52   15.59
  -1   0 -10  158.61   12.64
  -1   0 -10  190.84    9.88
  -1   0 -10  160.04    8.84
   1   0  11    6.02    2.29
   1   0  11    6.77    2.16
  -1   0 -11    4.54    3.66
  -1   0 -11    3.05    1.15
   1   0  11    5.58    1.52
   1   0  11    9.21    2.98
  -1   0 -11    5.56    1.57
  -1   0 -12   64.18    5.75
  -1   0 -12   73.39    6.59
  -1   0 -12   53.69   10.69
   1   0  12   78.26    5.84
   1   0  12   63.00    6.85
   1   0  12   67.95    8.13
   1   0  12   70.04    7.82
   1   0  13   -0.53    1.65
   1   0  13    1.03    1.01
   1   0  13   -0.58    0.92
  -1   0 -13   -0.61    0.84
  -1   0 -13    0.17    0.48
   1   0  13    0.46    0.88
  -1   0 -14    6.27    5.03
   1   0  14    1.79    0.78
   1   0  14    0.42    0.96
  -1   0 -14    2.38    1.32
   1   0  14    4.09    2.18
  -1   0 -15   -0.08    3.06
  -1   0 -15   -1.07    1.20
   1   0  15    1.12    1.58
   1   0  16    4.81    2.72
  -1   0 -16    3.52    1.86
   1   0  17    4.28    2.97
  -1  -1  18   12.50    3.37
   1   1 -18   20.87    8.27
  -1  -1  18   10.28    4.00
   1   1 -17   28.71    8.56
   1   1 -17   34.42    6.27
  -1  -1  17   30.27    5.27
  -1  -1  17   26.37    5.92
  -1  -1  16   40.58    5.84
   1   1 -16   33.57    5.79
  -1  -1  16   28.16    5.84
   1   1 -16   26.60    7.79
   1   1 -15   12.65    5.76
  -1  -1  15   13.38    2.59
   1   1 -15   13.66    3.55
  -1  -1  15   14.15    4.20
  -1  -1  15   10.91    2.99
  -1  -1  14  413.93   16.34
   1   1 -14  407.02   28.50
  -1  -1  14  408.55   22.82
  -1  -1  14  444.69   21.01
   1   1 -14  394.76   20.50
   1   1 -13  159.24   11.06
  -1  -1  13  145.70   12.39
   1   1 -13  142.35   10.81
  -1  -1  13  156.34   11.41
   1   1 -13  154.95   16.00
  -1  -1  12   31.74    4.86
   1   1 -12   28.54    4.34
   1   1 -12   25.23    5.90
  -1  -1  12   33.44    5.44
   1   1 -12   26.92    4.28
  -1  -1  11   42.06    5.45
   1   1 -11   47.03    5.27
   1   1 -11   45.17    5.37
   1   1 -11   37.22    6.83
  -1  -1  11   40.86    5.82
  -1  -1  10  182.38   14.34
   1   1 -10  184.25   10.47
   1   1 -10  189.54   11.97
  -1  -1  10  185.69   11.66
   1   1 -10  170.18   14.10
  -1  -1  10  186.73    9.27
  -1  -1  10  187.70   12.26
   1   1 -10  176.57   10.94
  -1  -1   9   35.20    5.75
   1   1  -9   37.01    4.53
  -1  -1   9   38.95    1.96
   1   1  -9   42.25    1.92
   1   1  -9   31.33    4.37
  -1  -1   9   35.14    4.82
   1   1  -9   39.49    6.21
  -1  -1   9   30.91    4.42
  -1  -1   9   35.79    3.50
   1   1  -9   37.42    4.10
  -1  -1   8   11.14    0.98
  -1  -1   8    9.88    2.30
  -1  -1   8   12.84    3.40
   1   1  -8   11.20    2.11
   1   1  -8    9.16    2.25
  -1  -1   8   11.09    2.41
  -1  -1   7  117.27    9.75
   1   1  -7  113.44    6.66
  -1  -1   7  111.74    5.96
  -1  -1   7  113.35    7.98
   1   1  -7  119.56    8.03
  -1  -1   7  117.69    5.78
  -1  -1   7  124.43    4.42
   1   1  -7  120.10    8.03
  -1  -1   7  115.53    7.94
  -1  -1   6  457.10   12.76
   1   1  -6  438.93   15.24
  -1  -1   6  438.52   17.38
  -1  -1   6  459.96   17.22
   1   1  -6  405.02   16.86
  -1  -1   6  448.44   14.19
   1   1  -6  429.02   16.77
  -1  -1   6  435.84   13.81
  -1  -1   6  445.90   19.84
  -1  -1   5  409.23   12.19
  -1  -1   5  427.09   18.08
  -1  -1   5  407.24   12.82
   1   1  -5  405.05   15.34
  -1  -1   5  387.98   15.17
  -1  -1   5  389.16   12.03
  -1  -1   5  403.27   12.51
  -1  -1   5  431.18   16.05
   1   1  -5  410.36   13.74
   1   1  -4  507.93   17.62
  -1  -1   4  510.08   15.35
   1   1  -4  542.93   16.39
  -1  -1   4  537.24   15.39
  -1  -1   4  547.13   15.45
  -1  -1   4  517.16   18.17
  -1  -1   4  515.30   15.10
  -1  -1   4  560.20   20.35
   1   1  -3    9.00    1.33
  -1  -1   3    8.44    1.27
  -1  -1   3    7.99    1.13
  -1  -1   3    9.68    1.93
  -1  -1   3    9.81    1.35
   1   1  -3    9.26    1.12
  -1  -1   3    9.32    1.17
  -1  -1   3   10.83    1.73
  -1  -1   2  367.90   12.05
  -1  -1   2  395.83   12.89
   1   1  -2  373.97   11.83
   1   1  -2  361.79   13.61
  -1  -1   2  375.19   12.09
   1   1  -2  379.83   10.96
   1   1  -2  369.07   11.64
   1   1  -2  367.27   12.39
  -1  -1   2  380.45   11.53
  -1  -1   2  383.14   11.31
   1   1  -1  113.89    5.43
  -1  -1   1  129.07    5.44
  -1  -1   1  131.71    5.41
  -1  -1   1  131.71    5.73
   1   1  -1  116.31    5.29
  -1  -1   1  132.68    5.70
  -1  -1   1  127.95    4.66
  -1  -1   0  111.11    5.21
  -1  -1   0  119.49    4.59
   1   1   0  118.10    5.48
  -1  -1   0  119.01    5.35
   1   1   0  105.18    4.55
  -1  -1  -1  107.69    4.98
  -1  -1  -1  112.67    4.04
   1   1   1   99.72    5.12
  -1  -1  -1  102.70    5.31
   1   1   1  111.31    4.03
   1   1   1  100.66    5.20
   1   1   1  106.60    6.33
  -1  -1  -1   99.44    4.18
  -1  -1  -1  113.23    5.07
   1   1   2   51.24    2.28
  -1  -1  -2   51.52    2.88
  -1  -1  -2   47.67    3.51
   1   1   2   51.32    3.52
  -1  -1  -2   50.08    4.47
  -1  -1  -2   48.32    3.07
   1   1   2   54.65    4.53
  -1  -1  -2   50.62    3.21
  -1  -1  -3   -0.25    0.25
   1   1   3    0.04    0.29
  -1  -1  -3   -0.28    0.26
  -1  -1  -3    0.59    0.88
  -1  -1  -3    1.08    0.48
   1   1   3    0.11    0.68
  -1  -1  -3    0.16    0.22
   1   1   3   -0.07    0.75
   1   1   3    0.44    0.40
   1   1   4    7.54    1.93
  -1  -1  -4    6.95    1.34
  -1  -1  -4    7.02    1.14
   1   1   4    5.13    1.11
  -1  -1  -4    7.20    0.97
   1   1   4    5.60    1.24
  -1  -1  -4    5.42    0.85
  -1  -1  -4    8.13    2.15
   1   1   4    7.50    2.31
  -1  -1  -5 1098.35   32.05
  -1  -1  -5 1154.97   30.86
  -1  -1  -5 1143.23   28.85
  -1  -1  -5 1078.86   36.24
   1   1   5 1109.88   31.86
   1   1   5 1101.03   39.13
   1   1   5 1096.23   34.98
   1   1   5 1098.66   32.71
  -1  -1  -6  502.45   17.71
   1   1   6  515.18   18.75
  -1  -1  -6  520.31   16.73
   1   1   6  517.40   17.82
   1   1   6  518.64   20.74
  -1  -1  -6  473.15   21.15
   1   1   6  540.81   23.87
  -1  -1  -6  536.55   14.26
  -1  -1  -7   69.85    4.84
   1   1   7   64.19    5.14
   1   1   7   60.59    5.59
   1   1   7   70.60    6.67
   1   1   7   57.41    7.07
  -1  -1  -7   72.14    2.94
  -1  -1  -7   70.48    5.28
  -1  -1  -8  379.41   15.79
   1   1   8  413.52   21.67
  -1  -1  -8  456.92   11.87
  -1  -1  -8  388.68   15.43
   1   1   8  377.94   16.20
  -1  -1  -8  390.92   20.30
   1   1   8  389.28   19.05
   1   1   8  468.24   11.91
   1   1   8  414.25   18.21
   1   1   9    1.42    1.52
   1   1   9    2.24    0.90
  -1  -1  -9    1.65    1.06
   1   1   9    2.75    1.71
   1   1   9    1.65    1.01
   1   1   9    1.35    1.00
  -1  -1  -9    2.76    1.85
  -1  -1  -9    2.08    1.11
  -1  -1 -10  133.60    8.36
   1   1  10  132.14    9.66
   1   1  10  149.34   11.34
   1   1  10  136.47    7.50
  -1  -1 -10  125.15    8.17
   1   1  10  139.84   10.44
  -1  -1 -11  100.78    7.57
   1   1  11  107.55    9.85
   1   1  11  111.07    6.81
   1   1  11  109.69    9.09
  -1  -1 -11  114.51    8.04
   1   1  11   99.40    9.19
   1   1  12  110.96   10.51
   1   1  12  112.05    7.02
   1   1  12  117.48   10.51
  -1  -1 -12   98.76    7.71
   1   1  12  102.69    9.03
  -1  -1 -12  117.71    8.71
  -1  -1 -13    3.16    1.48
   1   1  13    1.06    1.60
   1   1  13    0.06    0.78
   1   1  13    1.84    2.10
   1   1  14   16.95    4.32
  -1  -1 -14   15.90    3.52
   1   1  14   15.71    2.50
   1   1  14   19.07    4.53
   1   1  15    9.68    3.20
  -1  -1 -15    5.64    2.19
   1   1  15    5.31    2.45
  -1  -1 -16    1.38    1.75
   1   1  16    1.04    0.97
   1   1  16    3.32    2.58
   1   1  17    3.50    2.45
   1   2 -18    7.78    5.38
  -1  -2  18    2.39    1.41
  -1  -2  18   11.58    4.33
  -1  -2  17    8.18    3.36
   1   2 -17   12.84    3.98
   1   2 -17   14.44    5.73
  -1  -2  17   11.26    3.25
   1   2 -16    2.40    1.30
  -1  -2  16   -0.39    1.57
   1   2 -16   -1.09    2.04
  -1  -2  16   -0.61    1.90
   1   2 -15   24.25    4.58
  -1  -2  15   30.13    5.99
  -1  -2  15   30.47    5.17
   1   2 -15   29.32    7.45
   1   2 -14   20.64    5.51
  -1  -2  14   25.17    2.87
  -1  -2  14   26.76    5.35
   1   2 -14   26.40    4.31
   1   2 -14   23.67    4.44
  -1  -2  14   26.43    2.82
  -1  -2  14   19.79    4.06
   1   2 -13    2.31    1.29
  -1  -2  13    3.84    1.93
  -1  -2  13    2.21    0.92
  -1  -2  13    1.29    0.50
  -1  -2  13    1.32    1.59
   1   2 -13    3.18    1.40
  -1  -2  12    0.30    0.35
   1   2 -12   -0.62    0.98
   1   2 -12    0.76    0.31
  -1  -2  12    0.73    1.13
   1   2 -12    1.56    1.24
   1   2 -12    1.16    1.67
  -1  -2  12    0.60    1.11
  -1  -2  12    0.90    0.56
  -1  -2  11    0.17    0.37
  -1  -2  11   -0.02    1.08
  -1  -2  11    0.44    0.47
   1   2 -11    2.28    2.14
  -1  -2  11    0.84    0.95
   1   2 -11    1.04    0.44
   1   2 -11   -0.06    0.46
   1   2 -11    3.60    1.63
  -1  -2  11    0.41    0.30
  -1  -2  10   15.80    2.38
  -1  -2  10   15.22    1.52
   1   2 -10   16.11    3.13
  -1  -2  10   13.22    1.70
   1   2 -10    8.68    2.95
   1   2 -10   13.93    2.62
  -1  -2  10   16.05    3.99
  -1  -2  10   15.66    1.63
   1   2 -10   17.33    1.56
  -1  -2  10   16.34    3.29
  -1  -2  10   14.23    3.34
   1   2 -10   17.30    3.40
  -1  -2   9   20.31    3.77
  -1  -2   9   21.57    1.98
  -1  -2   9   29.21    4.21
  -1  -2   9   21.82    2.69
   1   2  -9   20.71    3.48
  -1  -2   9   29.56    5.42
   1   2  -9   29.47    2.06
   1   2  -9   29.06    4.22
  -1  -2   9   26.92    2.09
   1   2  -9   23.92    3.21
   1   2  -9   17.20    4.02
   1   2  -8  166.18    8.58
  -1  -2   8  168.75   12.66
   1   2  -8  151.72    9.54
  -1  -2   8  153.29    5.75
  -1  -2   8  165.90   10.57
  -1  -2   8  162.40    6.06
   1   2  -8  147.86    9.91
  -1  -2   8  172.90   10.49
  -1  -2   7   15.20    1.51
  -1  -2   7   11.82    2.55
  -1  -2   7   13.90    2.71
  -1  -2   7   17.24    3.67
   1   2  -7   12.75    2.04
  -1  -2   7   15.85    1.94
   1   2  -6  375.56   13.24
   1   2  -6  347.89   13.11
  -1  -2   6  373.11   12.17
  -1  -2   6  369.39   11.47
  -1  -2   6  356.77   17.80
  -1  -2   6  399.11   15.97
   1   2  -6  352.99   13.29
   1   2  -5  180.91    8.23
   1   2  -5  192.96    8.45
   1   2  -5  197.18    8.00
  -1  -2   5  194.88    7.16
   1   2  -5  208.67   10.31
  -1  -2   5  192.04    7.08
   1   2  -5  178.37    9.75
  -1  -2   5  195.07    9.91
  -1  -2   5  174.06   11.06
  -1  -2   4  143.38    8.97
   1   2  -4  150.81    6.30
  -1  -2   4  135.42    5.36
   1   2  -4  132.26    6.67
  -1  -2   4  142.48    7.82
   1   2  -4  144.49    5.45
   1   2  -4  154.83    7.79
   1   2  -4  142.16    6.87
  -1  -2   4  134.68    5.81
  -1  -2   3   79.41    5.18
   1   2  -3   73.88    3.84
   1   2  -3   75.02    3.88
  -1  -2   3   69.19    3.12
   1   2  -3   67.68    4.45
  -1  -2   3   75.55    4.02
   1   2  -3   73.86    4.74
  -1  -2   3   77.08    4.71
   1   2  -3   75.05    4.66
   1   2  -2 7616.42  184.88
  -1  -2   2 7643.18  182.67
  -1  -2   2 7693.07  186.29
   1   2  -2 7585.37  185.99
   1   2  -2 7719.86  186.72
   1   2  -2 7645.24  183.64
  -1  -2   2 7660.06  185.80
   1   2  -2 7502.48  185.34
  -1  -2   2 7593.39  184.73
   1   2  -2 7689.91  186.08
  -1  -2   1 2388.18   60.91
   1   2  -1 2455.20   61.44
  -1  -2   1 2363.35   60.28
  -1  -2   1 2340.88   61.29
   1   2   0  695.51   21.54
  -1  -2   0  675.65   19.90
   1   2   0  644.29   20.51
  -1  -2   0  706.98   19.75
   1   2   0  660.56   20.62
   1   2   0  740.16   20.35
   1   2   1  427.28   15.20
   1   2   1  436.05   16.55
   1   2   1  436.56   14.70
  -1  -2  -1  406.28   15.51
   1   2   1  433.31   14.65
  -1  -2  -1  434.58   11.97
  -1  -2  -1  447.53   13.83
   1   2   1  471.71   13.88
  -1  -2  -1  462.08   13.79
   1   2   2  104.38    6.09
   1   2   2  101.49    5.67
   1   2   2  113.90    7.46
  -1  -2  -2  103.65    4.83
   1   2   2   97.71    5.53
  -1  -2  -2  102.33    4.12
   1   2   2  101.92    4.74
   1   2   2  100.58    4.74
  -1  -2  -2  102.38    6.29
  -1  -2  -3   94.44    5.96
  -1  -2  -3   94.81    4.21
   1   2   3   86.28    5.28
   1   2   3  101.86    6.19
   1   2   3   94.50    6.98
  -1  -2  -3   87.71    6.97
  -1  -2  -3   93.62    4.42
   1   2   3   87.45    5.28
   1   2   3   80.15    4.21
   1   2   3   93.50    4.85
  -1  -2  -4   61.88    4.94
   1   2   4   69.07    5.32
  -1  -2  -4   67.21    3.77
   1   2   4   64.87    4.23
  -1  -2  -4   62.09    6.19
  -1  -2  -4   69.64    3.58
   1   2   4   67.70    5.97
   1   2   4   56.70    4.26
   1   2   4   64.59    4.61
  -1  -2  -5   90.82    6.24
  -1  -2  -5   86.56    7.88
   1   2   5   83.47    9.62
  -1  -2  -5   89.01    4.87
   1   2   5   94.73    5.54
   1   2   5   83.80    5.44
  -1  -2  -5   94.42    4.30
   1   2   5   96.78    7.56
   1   2   5   99.03    6.83
   1   2   6   69.71    5.92
  -1  -2  -6   58.87    4.16
   1   2   6   56.99    4.53
   1   2   6   78.96    9.90
  -1  -2  -6   63.48    3.34
   1   2   6   60.78    6.16
  -1  -2  -6   62.88    5.28
  -1  -2  -7    0.94    1.32
  -1  -2  -7   13.98    1.43
   1   2   7   10.20    2.35
   1   2   7   14.75    1.49
   1   2   7   13.06    3.65
  -1  -2  -7   11.35    1.88
   1   2   7   11.34    2.70
   1   2   7   10.43    1.98
  -1  -2  -7   13.67    2.43
   1   2   8    7.21    2.70
  -1  -2  -8   10.22    1.93
   1   2   8    9.45    2.05
   1   2   8    7.20    2.25
  -1  -2  -8    7.22    2.32
  -1  -2  -8    9.56    1.23
   1   2   8    9.86    1.22
  -1  -2  -8    8.93    2.13
   1   2   8   12.58    3.12
  -1  -2  -9  101.47    7.62
   1   2   9  111.56   11.57
  -1  -2  -9  100.92   10.03
  -1  -2  -9  117.20    4.84
  -1  -2  -9  116.06    7.40
   1   2   9  107.91    7.77
   1   2   9  108.39    9.14
   1   2   9  120.53    4.96
   1   2   9  110.05    9.50
   1   2  10    0.69    0.35
   1   2  10    0.34    0.72
  -1  -2 -10    0.09    0.78
  -1  -2 -10    1.01    0.56
   1   2  10    0.34    0.52
  -1  -2 -11    2.73    1.12
   1   2  11    4.87    1.45
  -1  -2 -11    4.11    1.51
   1   2  11    4.01    2.10
   1   2  11    2.01    1.61
  -1  -2 -12   11.59    2.74
   1   2  12   10.66    3.28
   1   2  12    9.94    3.08
   1   2  12   11.93    2.17
   1   2  13    0.76    1.42
  -1  -2 -13    2.19    1.53
   1   2  13    3.19    1.06
   1   2  13    3.09    1.81
   1   2  14    0.52    1.44
   1   2  14    1.47    1.73
  -1  -2 -14    2.17    1.66
  -1  -2 -15    0.82    1.66
   1   2  15    1.24    1.35
   1   2  15   -1.60    2.47
  -1  -2 -16    5.87    2.41
   1   2  16    0.07    1.35
   1   2  16   10.47    4.00
   1   2  17    4.81    3.22
   1   2  17    6.26    3.49
  -1  -3  19    0.66    1.11
  -1  -3  18   15.69    4.05
   1   3 -18   13.43    4.04
   1   3 -18   14.61    6.24
  -1  -3  17    3.59    2.01
   1   3 -17    0.77    1.59
   1   3 -17    3.03    2.82
  -1  -3  16   72.16    9.70
   1   3 -16   65.37    8.05
  -1  -3  16   74.03    8.40
   1   3 -16   82.20   12.20
   1   3 -15    4.68    2.53
  -1  -3  15    3.87    1.86
  -1  -3  15    4.48    2.39
   1   3 -15    4.48    1.81
   1   3 -14   -1.43    1.32
   1   3 -14   -0.47    1.60
  -1  -3  14    0.90    1.23
  -1  -3  14    0.22    1.70
   1   3 -14    0.62    0.85
   1   3 -13   19.68    3.73
   1   3 -13   19.49    5.25
   1   3 -13   20.49    2.13
  -1  -3  13   17.73    4.27
   1   3 -13   18.81    3.61
  -1  -3  13   27.07    4.73
   1   3 -12    2.17    0.80
  -1  -3  12    0.24    1.23
   1   3 -12    2.01    1.78
  -1  -3  12    0.90    0.42
   1   3 -12    1.04    0.98
  -1  -3  12    1.84    1.58
   1   3 -12    0.03    0.98
   1   3 -11   31.31    4.14
   1   3 -11   33.79    6.34
  -1  -3  11   28.50    2.60
   1   3 -11   27.66    4.24
  -1  -3  11   25.87    4.80
   1   3 -11   29.59    2.53
  -1  -3  11   31.25    4.97
   1   3 -10    2.17    1.44
  -1  -3  10    5.27    1.15
   1   3 -10    3.21    1.85
  -1  -3  10    4.83    1.38
   1   3 -10    4.96    1.57
   1   3 -10    6.37    1.19
  -1  -3  10    6.43    2.27
   1   3  -9  373.60   15.52
  -1  -3   9  423.80   19.33
   1   3  -9  479.42   13.92
   1   3  -9  410.42   19.28
  -1  -3   9  390.22   21.93
  -1  -3   9  407.64   15.21
  -1  -3   9  454.16   13.99
   1   3  -9  398.06   22.09
   1   3  -9  383.99   15.95
  -1  -3   8   87.29    8.91
   1   3  -8   82.35    5.54
   1   3  -8   86.28    5.90
  -1  -3   8   89.06    7.59
   1   3  -8   79.24    5.55
  -1  -3   8   87.16    4.51
   1   3  -8   77.48    7.35
   1   3  -8   90.26    9.18
   1   3  -8   97.48    4.69
  -1  -3   7    4.44    0.95
  -1  -3   7    3.56    1.84
   1   3  -7    3.04    1.09
   1   3  -7    4.21    1.75
   1   3  -7    3.42    1.18
   1   3  -7    3.49    1.19
  -1  -3   7    3.67    0.94
   1   3  -7    2.39    1.37
  -1  -3   7    3.63    1.62
  -1  -3   6   64.49    5.83
   1   3  -6   56.05    5.56
   1   3  -6   59.02    4.10
  -1  -3   6   61.76    3.72
   1   3  -6   59.64    4.70
  -1  -3   6   60.17    3.74
   1   3  -6   64.92    6.15
   1   3  -6   60.30    4.69
   1   3  -5    1.04    0.55
  -1  -3   5    1.57    0.75
   1   3  -5    2.02    1.11
  -1  -3   5    1.84    0.65
   1   3  -5    0.88    0.57
  -1  -3   5    1.19    0.53
   1   3  -5    1.74    0.55
   1   3  -5    0.08    0.48
   1   3  -4   16.00    2.24
   1   3  -4   15.28    1.69
  -1  -3   4   17.45    1.47
   1   3  -4   19.17    1.91
   1   3  -4   18.42    2.72
  -1  -3   4   18.28    1.98
   1   3  -4   15.13    2.24
  -1  -3   4   11.24    2.22
  -1  -3   4   17.49    2.67
   1   3  -3  630.20   21.87
  -1  -3   3  634.23   16.78
  -1  -3   3  661.60   21.48
   1   3  -3  631.56   20.43
   1   3  -3  695.70   19.43
   1   3  -3  623.07   20.23
  -1  -3   3  613.23   21.53
   1   3  -3  659.85   18.19
  -1  -3   3  658.63   19.26
   1   3  -3  611.90   20.85
   1   3  -2  537.60   18.00
  -1  -3   2  556.84   13.96
   1   3  -2  528.62   18.59
  -1  -3   2  545.48   19.12
   1   3  -2  537.43   18.08
  -1  -3   2  570.55   17.05
  -1  -3   2  557.65   18.62
   1   3  -2  569.26   19.24
   1   3  -1  128.90    6.98
  -1  -3   1  110.69    7.11
  -1  -3   1  112.59    6.53
  -1  -3   1  126.71    5.84
   1   3  -1  113.95    7.05
  -1  -3   0   80.19    6.20
   1   3   0   75.66    5.01
   1   3   0   79.96    5.56
  -1  -3   0   75.14    5.01
   1   3   0   75.76    4.99
   1   3   0   70.91    4.90
  -1  -3   0   77.31    4.41
   1   3   1    0.60    0.89
   1   3   1    1.21    0.77
   1   3   1    0.20    0.33
  -1  -3  -1    0.48    0.26
   1   3   1    0.16    0.48
  -1  -3  -1    0.13    0.39
  -1  -3  -2   85.59    6.27
   1   3   2   91.43    6.32
  -1  -3  -2   83.55    3.56
   1   3   2   79.44    4.90
   1   3   2   81.41    5.37
  -1  -3  -2   88.71    4.69
   1   3   2   71.28    5.01
   1   3   2   77.16    4.05
   1   3   2   84.61    6.98
  -1  -3  -3  309.27    9.76
   1   3   3  286.39   10.47
   1   3   3  282.18   11.87
  -1  -3  -3  323.06   10.72
   1   3   3  289.07   11.04
   1   3   3  313.13   13.61
   1   3   3  309.35   15.17
   1   3   3  288.54   11.92
  -1  -3  -3  294.08   13.38
  -1  -3  -4  163.97    6.74
   1   3   4  156.41    8.20
   1   3   4  184.35   10.07
   1   3   4  186.93   11.11
  -1  -3  -4  167.76    6.97
   1   3   4  161.85    8.42
   1   3   4  151.36    7.27
  -1  -3  -4  159.44   10.70
  -1  -3  -4  159.58    9.24
   1   3   4  160.36    7.27
   1   3   5    9.35    2.38
  -1  -3  -5    8.60    2.01
  -1  -3  -5    7.03    2.40
   1   3   5    6.14    1.32
  -1  -3  -5    7.33    1.26
   1   3   5    6.10    2.46
   1   3   5    6.63    1.68
  -1  -3  -5    8.64    1.41
   1   3   5    8.70    1.87
   1   3   5    6.95    2.14
  -1  -3  -6   26.25    2.75
   1   3   6   31.13    4.27
   1   3   6   24.44    2.91
   1   3   6   21.74    2.98
  -1  -3  -6   26.91    2.42
  -1  -3  -6   26.29    3.63
   1   3   6   23.58    5.78
   1   3   6   22.48    2.93
   1   3   6   23.71    4.07
   1   3   7    2.76    1.11
  -1  -3  -7    3.49    1.53
  -1  -3  -7    4.99    1.09
  -1  -3  -7    4.18    1.24
   1   3   7    5.48    2.01
   1   3   7    4.01    2.33
   1   3   7    5.77    2.20
   1   3   7    4.34    1.01
  -1  -3  -7    2.05    0.97
   1   3   8    6.39    2.27
  -1  -3  -8    7.60    2.08
  -1  -3  -8    8.88    1.44
  -1  -3  -8    8.23    2.64
  -1  -3  -8    9.11    1.95
   1   3   8   12.66    4.15
   1   3   8    8.19    2.64
   1   3   8    9.88    1.49
   1   3   8    7.75    1.96
  -1  -3  -9  132.77    8.35
   1   3   9  127.63    8.66
   1   3   9  150.51    6.56
   1   3   9  149.33   11.39
  -1  -3  -9  144.33    6.45
   1   3   9  130.49   10.68
  -1  -3  -9  124.81    9.26
  -1  -3  -9  131.14   12.18
   1   3  10    7.45    2.82
   1   3  10   10.28    1.54
   1   3  10    9.57    2.86
  -1  -3 -10    7.12    1.27
  -1  -3 -10    8.56    2.15
   1   3  11  117.86   10.57
  -1  -3 -11   94.48    7.80
   1   3  11   99.36    5.17
   1   3  11   89.04    9.53
   1   3  12    0.58    1.29
   1   3  12   -0.28    1.15
  -1  -3 -12    1.82    1.24
   1   3  13   31.51    5.64
   1   3  13   39.26    6.62
  -1  -3 -13   29.02    4.78
   1   3  14    6.39    2.76
   1   3  14    4.26    1.87
  -1  -3 -14    7.28    2.52
   1   3  15    5.26    2.77
   1   3  15    4.45    2.44
  -1  -3 -15    4.30    2.31
   1   3  16    3.83    1.30
  -1  -3 -16    1.44    1.74
   1   3  16    3.25    1.97
   1   3  17   16.07    4.86
  -1  -4  19    2.48    1.58
   1   4 -18    4.29    2.25
  -1  -4  18    0.50    1.23
   1   4 -17    0.83    1.69
  -1  -4  17    1.44    2.02
  -1  -4  16  109.19   10.54
   1   4 -16  103.28   13.69
   1   4 -16  106.40   10.06
   1   4 -15   14.93    5.40
  -1  -4  15   22.64    4.62
   1   4 -15   21.77    4.23
  -1  -4  14   38.82    6.00
   1   4 -14   40.11    5.52
   1   4 -14   51.41    8.95
  -1  -4  13   15.75    2.19
   1   4 -13   12.64    4.13
   1   4 -13    9.88    2.52
   1   4 -13   20.45    3.96
  -1  -4  13   20.24    4.35
   1   4 -13   21.32    2.63
   1   4 -12   27.12    4.07
   1   4 -12   23.33    4.28
   1   4 -12   29.48    3.02
   1   4 -12   31.00    6.50
  -1  -4  12   24.86    2.83
   1   4 -12   25.95    5.12
  -1  -4  12   28.85    4.91
   1   4 -11   -0.01    0.59
   1   4 -11    2.91    1.32
  -1  -4  11    1.77    1.16
  -1  -4  11    1.95    1.19
   1   4 -11   -1.54    1.78
  -1  -4  11    1.90    0.85
   1   4 -11    2.09    1.12
   1   4 -11    0.26    0.31
  -1  -4  10   22.56    2.67
   1   4 -10   22.16    3.35
   1   4 -10   23.43    3.32
  -1  -4  10   22.35    3.04
  -1  -4  10   25.58    4.38
   1   4 -10   22.63    5.08
   1   4 -10   27.63    5.03
   1   4 -10   24.72    3.37
   1   4 -10   31.15    2.87
  -1  -4   9   72.11    5.26
  -1  -4   9   71.44    7.31
   1   4  -9   67.39    8.75
  -1  -4   9   82.19    5.16
   1   4  -9   76.24    5.78
   1   4  -9   82.02    6.45
   1   4  -9   86.22    8.11
   1   4  -9   73.83    5.92
   1   4  -9   97.19    9.07
   1   4  -9   78.73    4.84
   1   4  -8   68.24    5.76
   1   4  -8   66.89    5.79
   1   4  -8   81.36    5.00
   1   4  -8   78.61    9.03
  -1  -4   8   72.12    6.99
   1   4  -8   78.97    8.01
   1   4  -8   83.93    7.69
   1   4  -8   66.24    6.91
  -1  -4   8   81.74    5.03
   1   4  -8   71.52    5.19
   1   4  -7   22.01    2.55
  -1  -4   7   20.58    2.34
   1   4  -7   23.19    2.54
   1   4  -7   21.88    3.84
  -1  -4   7   22.01    3.63
   1   4  -7   17.94    2.88
   1   4  -7   20.82    3.80
   1   4  -7   14.45    3.76
  -1  -4   7   21.23    2.39
   1   4  -7   22.27    3.98
   1   4  -7   17.59    2.73
   1   4  -6  181.71    8.13
   1   4  -6  177.61    9.32
   1   4  -6  190.97    7.00
   1   4  -6  202.87   11.82
   1   4  -6  193.50   11.78
  -1  -4   6  188.89    8.23
  -1  -4   6  187.18   11.13
   1   4  -6  185.62    9.61
  -1  -4   6  183.08    7.55
  -1  -4   5  230.75    9.33
   1   4  -5  229.27    8.85
   1   4  -5  212.45   10.25
   1   4  -5  249.89   13.08
   1   4  -5  226.94   10.68
  -1  -4   5  233.40   12.09
   1   4  -5  213.70    8.52
  -1  -4   5  217.74   12.08
   1   4  -5  233.34   12.39
  -1  -4   5  228.10    8.13
   1   4  -4  229.49    8.19
  -1  -4   4  200.67   11.32
   1   4  -4  236.80    9.38
  -1  -4   4  214.78   11.30
  -1  -4   4  211.19    7.26
   1   4  -4  221.88   10.33
   1   4  -4  214.03   11.23
   1   4  -4  220.90   10.14
  -1  -4   4  221.57    9.13
   1   4  -3   84.26    5.78
   1   4  -3  100.03    7.20
   1   4  -3   93.79    4.03
  -1  -4   3   90.36    3.52
   1   4  -3   97.06    6.26
  -1  -4   3   91.09    6.63
   1   4  -3  101.74    7.28
  -1  -4   3  101.82    5.58
  -1  -4   3   86.77    6.83
   1   4  -3   88.66    6.66
   1   4  -2  121.10    8.06
  -1  -4   2  120.81    8.23
   1   4  -2  125.32    7.98
   1   4  -2  123.70    8.09
  -1  -4   2  133.09    6.48
  -1  -4   2  121.98    7.77
   1   4  -1   41.25    4.43
  -1  -4   1   40.45    4.77
   1   4  -1   43.70    4.33
  -1  -4   1   44.69    4.38
  -1  -4   1   52.24    3.80
  -1  -4   0  212.97   12.24
   1   4   0  234.19   10.81
  -1  -4   0  216.04   10.79
   1   4   0  224.58   10.51
   1   4   0  228.32   11.38
   1   4   0  228.92   10.33
  -1  -4   0  241.72    9.53
   1   4   1  313.51   13.95
  -1  -4  -1  311.37   11.37
   1   4   1  286.85   12.41
  -1  -4  -1  301.96    8.81
   1   4   1  305.14   12.56
   1   4   1  268.93   12.02
  -1  -4  -1  314.18   15.71
   1   4   2    4.20    1.92
   1   4   2    4.77    1.63
  -1  -4  -2    3.53    0.72
   1   4   2    2.57    1.05
   1   4   2    4.82    1.22
  -1  -4  -2    5.84    1.27
   1   4   3   20.54    3.77
   1   4   3   15.44    2.87
  -1  -4  -3   19.98    1.92
   1   4   3   12.56    1.69
   1   4   3   14.50    2.27
   1   4   3   14.38    2.35
  -1  -4  -3   18.24    2.20
  -1  -4  -4 1744.87   51.78
   1   4   4 1840.01   52.73
   1   4   4 1718.30   49.06
  -1  -4  -4 1743.90   45.83
   1   4   4 1677.65   46.21
  -1  -4  -4 1862.11   46.71
   1   4   4 1650.76   47.60
   1   4   4 1786.48   54.18
  -1  -4  -5    1.78    0.88
   1   4   5    2.34    0.89
   1   4   5    2.10    0.76
   1   4   5    2.38    1.43
   1   4   5    0.95    0.96
   1   4   5    1.94    0.99
  -1  -4  -5    3.41    1.13
   1   4   5    1.48    0.66
  -1  -4  -5    3.33    1.44
  -1  -4  -6    4.27    2.19
   1   4   6    4.28    1.57
  -1  -4  -6    6.45    1.95
   1   4   6    4.75    1.34
  -1  -4  -6    6.70    1.43
   1   4   6   10.15    4.38
   1   4   6    5.30    1.54
  -1  -4  -6    6.06    1.49
   1   4   6    4.12    1.09
   1   4   6    5.78    2.04
   1   4   6    6.00    1.30
   1   4   7   75.53    7.78
  -1  -4  -7   84.89    7.61
   1   4   7   80.42    6.42
   1   4   7   92.86    5.34
  -1  -4  -7   90.64    6.18
   1   4   7   86.75    6.16
   1   4   7   85.12    8.28
  -1  -4  -7   80.10    8.82
  -1  -4  -7   97.19    5.75
   1   4   8  123.85   10.22
   1   4   8  115.30    6.20
  -1  -4  -8  108.96    7.41
   1   4   8  102.21    7.40
  -1  -4  -8  110.76   11.08
  -1  -4  -8  115.59    6.39
   1   4   8  118.04   10.32
   1   4   9    1.10    1.09
  -1  -4  -9    1.76    0.74
  -1  -4  -9    0.94    1.03
   1   4   9    2.03    0.99
   1   4   9    2.69    1.61
  -1  -4 -10   19.00    2.41
   1   4  10   24.42    4.83
  -1  -4 -10   17.55    3.28
   1   4  10   24.17    2.84
   1   4  10   22.54    4.82
  -1  -4 -11  119.95    9.24
   1   4  11  120.58   11.04
   1   4  11  114.37   11.45
   1   4  12    1.65    1.95
  -1  -4 -12    6.26    2.69
   1   4  12    3.61    2.33
  -1  -4 -13   17.01    3.68
   1   4  13   20.97    5.22
   1   4  13   15.01    3.87
   1   4  14   19.83    4.97
   1   4  14   10.29    3.53
  -1  -4 -14   10.25    3.21
  -1  -4 -15    5.81    2.62
   1   4  15    2.29    2.20
   1   4  15    2.02    1.29
   1   4  16   33.00    7.02
   1   4  16   44.52    7.47
  -1  -5  19    3.67    1.89
   1   5 -18   10.99    3.48
  -1  -5  18   10.72    3.44
   1   5 -17    0.68    2.73
   1   5 -17    2.23    2.64
  -1  -5  17    0.98    2.06
   1   5 -16   10.61    3.10
   1   5 -16    4.36    2.93
  -1  -5  16    4.76    2.54
   1   5 -15   69.84   10.95
   1   5 -15   79.01    8.19
  -1  -5  15   74.47    8.89
   1   5 -14   29.79    6.94
   1   5 -14   35.54    5.12
  -1  -5  14   45.99    6.78
  -1  -5  14   35.69    3.64
   1   5 -13   28.10    4.35
   1   5 -13   24.85    4.28
  -1  -5  13   22.17    2.97
  -1  -5  13   27.27    5.14
   1   5 -13   17.40    5.23
  -1  -5  12   57.68    7.28
   1   5 -12   60.65    9.68
   1   5 -12   76.44    5.51
   1   5 -12   54.85    5.83
  -1  -5  12   52.30    4.75
   1   5 -12   63.13    7.02
   1   5 -11   18.58    3.30
   1   5 -11   18.42    3.08
  -1  -5  11   19.38    2.74
  -1  -5  11   18.98    3.15
   1   5 -11   23.58    5.65
   1   5 -11   14.72    2.33
   1   5 -11   14.78    4.02
  -1  -5  11   15.62    3.56
   1   5 -11   18.85    3.29
   1   5 -10   95.65    7.77
   1   5 -10   91.88    6.92
  -1  -5  10  115.98    7.04
   1   5 -10  117.40    6.80
   1   5 -10  111.93   11.12
  -1  -5  10  110.22    9.84
   1   5 -10   97.23   11.54
   1   5 -10  106.37    8.33
  -1  -5  10  101.22    7.10
   1   5  -9   58.59    8.63
   1   5  -9   52.25    5.41
  -1  -5   9   37.97    3.95
  -1  -5   9   65.33    5.05
  -1  -5   9   55.06    6.58
   1   5  -9   69.92    8.16
   1   5  -9   53.16    4.80
   1   5  -9   65.06    4.76
   1   5  -9   57.31    5.75
   1   5  -8   20.05    3.95
  -1  -5   8   26.52    3.11
   1   5  -8   30.72    4.88
   1   5  -8   30.73    4.15
   1   5  -8   29.58    5.92
  -1  -5   8   30.94    4.85
   1   5  -8   30.61    3.22
   1   5  -8   27.70    3.16
   1   5  -8   23.30    3.49
   1   5  -8   28.18    5.00
   1   5  -7    1.71    0.77
   1   5  -7    5.11    1.29
   1   5  -7    6.34    1.01
  -1  -5   7    4.24    1.13
  -1  -5   7    6.36    1.35
   1   5  -7    6.86    2.81
   1   5  -7    6.86    2.18
   1   5  -7    6.94    1.47
   1   5  -7    4.56    1.41
   1   5  -7    5.81    2.38
   1   5  -7    7.24    2.31
  -1  -5   7    6.09    2.12
  -1  -5   6   74.01    7.03
   1   5  -6   83.85    7.65
  -1  -5   6   82.18    5.50
   1   5  -6   82.21    6.29
   1   5  -6   76.48    4.83
   1   5  -6   83.92    7.76
  -1  -5   6   78.36    4.69
   1   5  -6   78.28    4.65
   1   5  -6   70.37    6.04
   1   5  -6   98.56    6.07
   1   5  -6   73.11    7.32
   1   5  -6   88.01    9.81
  -1  -5   6   83.32    7.83
   1   5  -5   49.34    3.42
  -1  -5   5   51.13    4.16
  -1  -5   5   46.10    5.60
  -1  -5   5   47.51    5.46
   1   5  -5   51.92    6.01
   1   5  -5   47.30    5.49
   1   5  -5   41.72    4.50
   1   5  -5   38.27    5.03
  -1  -5   5   41.42    3.00
   1   5  -5   52.30    4.04
   1   5  -5   49.16    6.82
   1   5  -5   47.69    4.62
   1   5  -4  811.09   26.52
  -1  -5   4  843.29   29.08
   1   5  -4  844.24   29.36
   1   5  -4  811.23   22.53
   1   5  -4  831.22   29.29
   1   5  -4  809.66   28.90
   1   5  -4  840.85   27.24
  -1  -5   4  793.10   29.75
  -1  -5   4  824.56   25.24
   1   5  -3 4109.34  101.26
   1   5  -3 3937.87   98.59
  -1  -5   3 4039.92  100.89
   1   5  -3 3972.26  101.10
  -1  -5   3 3957.77  102.31
  -1  -5   3 3996.41   96.37
   1   5  -3 3851.85   97.89
   1   5  -2   93.74    7.40
   1   5  -2  104.07    8.42
  -1  -5   2   93.48    8.11
  -1  -5   2   96.52    7.60
  -1  -5   2  101.68    6.19
  -1  -5   1  130.78    9.76
   1   5  -1  138.39    8.94
  -1  -5   1  139.46    7.35
  -1  -5   1  122.41    8.62
   1   5   0  124.27    8.56
  -1  -5   0  115.02    6.61
   1   5   0  108.09    7.35
  -1  -5   0  113.92    9.29
   1   5   0  106.88    7.09
  -1  -5  -1  290.74    9.01
  -1  -5  -1  268.42   15.68
   1   5   1  317.43   13.78
   1   5   1  310.73   13.31
   1   5   1  300.95   14.78
  -1  -5  -1  337.12   12.40
  -1  -5  -2    1.71    0.59
   1   5   2    1.00    0.77
   1   5   2    1.74    1.32
   1   5   2    1.56    0.99
   1   5   2    3.04    1.18
  -1  -5  -2    1.86    0.95
   1   5   2    0.07    0.66
  -1  -5  -2    1.83    1.28
  -1  -5  -2    1.16    1.34
  -1  -5  -3   14.57    1.85
   1   5   3   15.13    2.53
   1   5   3   13.64    3.11
  -1  -5  -3   10.98    2.71
  -1  -5  -3   11.26    1.95
   1   5   3   13.37    2.12
   1   5   3   11.14    2.42
   1   5   3    9.00    1.45
   1   5   3   14.85    2.65
   1   5   3   13.65    3.39
  -1  -5  -4   58.41    4.25
   1   5   4   55.27    5.25
   1   5   4   50.32    3.85
  -1  -5  -4   65.36    4.88
   1   5   4   56.59    6.90
   1   5   4   69.52    4.93
  -1  -5  -4   54.01    6.15
   1   5   4   54.33    4.82
   1   5   4   51.51    5.30
   1   5   4   59.36    6.49
  -1  -5  -5  116.44    6.72
  -1  -5  -5  123.13    7.00
   1   5   5  116.01    8.02
   1   5   5  102.37    7.03
   1   5   5  114.40    8.30
   1   5   5  111.94    9.85
   1   5   5  126.32    6.87
   1   5   5  110.29    9.45
   1   5   5  100.67    6.13
   1   5   6   61.82    6.13
   1   5   6   57.96    6.98
  -1  -5  -6   56.76    4.83
   1   5   6   49.26    4.42
  -1  -5  -6   70.63    5.27
   1   5   6   53.25    5.43
   1   5   6   53.09    4.89
   1   5   6   59.82    4.59
   1   5   6   56.55    7.00
  -1  -5  -7    1.96    0.84
   1   5   7    0.95    0.61
   1   5   7    1.06    0.89
  -1  -5  -7    1.25    0.90
   1   5   7    1.17    0.72
   1   5   7    1.70    0.95
   1   5   7    1.72    1.52
   1   5   7    1.76    0.96
   1   5   7    1.34    0.83
   1   5   8    0.99    0.85
   1   5   8    1.99    0.85
   1   5   8    7.97    2.93
   1   5   8    4.89    1.44
  -1  -5  -8    1.63    0.87
  -1  -5  -8    2.97    1.46
   1   5   8    4.82    1.49
   1   5   8    2.24    1.25
   1   5   8    3.37    1.81
  -1  -5  -9    8.45    1.84
   1   5   9    7.24    2.75
  -1  -5  -9   11.40    2.58
   1   5   9   11.10    2.11
   1   5   9   11.18    3.18
  -1  -5 -10   61.25    6.40
   1   5  10   67.85    8.05
   1   5  10   64.21    5.28
  -1  -5 -10   62.37    5.05
   1   5  10   59.80    8.36
   1   5  11   17.80    4.61
   1   5  11   16.42    4.13
  -1  -5 -11   18.88    3.74
   1   5  12   -0.96    1.89
  -1  -5 -12    2.94    1.57
   1   5  12    0.26    0.89
   1   5  13    5.60    2.72
  -1  -5 -13    3.34    1.58
   1   5  13    6.98    2.65
   1   5  14    8.75    3.74
   1   5  14    2.22    1.66
  -1  -5 -14    4.48    2.31
   1   5  15   -0.21    1.77
  -1  -5 -15   -0.07    1.13
   1   5  15   -0.14    1.40
  -1  -6  18    5.65    2.59
   1   6 -18    5.09    2.40
  -1  -6  17   36.51    6.67
   1   6 -17   28.11    6.00
   1   6 -16   12.18    3.49
   1   6 -16   14.62    5.34
  -1  -6  16   11.86    3.52
   1   6 -15   -1.36    2.43
   1   6 -15    5.58    2.08
  -1  -6  15    3.91    2.15
  -1  -6  14    7.38    1.83
   1   6 -14    5.31    3.35
   1   6 -14    4.63    2.06
  -1  -6  14    9.16    3.39
   1   6 -13   19.55    3.68
   1   6 -13    9.23    3.88
  -1  -6  13   17.44    2.91
  -1  -6  13   16.09    4.05
  -1  -6  12   40.56    4.52
   1   6 -12   39.66    7.97
   1   6 -12   43.01    5.12
   1   6 -12   35.75    5.18
   1   6 -12   45.65    4.64
  -1  -6  12   33.90    5.96
   1   6 -12   38.94    5.15
   1   6 -11   97.88   12.66
   1   6 -11  119.53    7.57
   1   6 -11  110.56    8.00
  -1  -6  11  105.10    7.49
  -1  -6  11   96.85    7.50
   1   6 -11  116.20   12.00
  -1  -6  11  113.42   10.69
   1   6 -11  117.13    9.50
   1   6 -11  107.15    8.74
  -1  -6  10   82.96    6.61
   1   6 -10   85.99    6.70
   1   6 -10  100.94   10.85
  -1  -6  10   84.49    6.48
   1   6 -10   94.07    8.28
  -1  -6  10   97.59    9.57
   1   6 -10   87.56   11.59
   1   6 -10   92.18    6.59
   1   6 -10   98.42    8.18
   1   6  -9  122.36    9.22
  -1  -6   9  138.15    8.46
  -1  -6   9  116.52   10.54
   1   6  -9  129.87    7.89
   1   6  -9  131.84   13.91
   1   6  -9  145.50   12.69
   1   6  -9  115.74    9.13
   1   6  -9  144.91    8.35
   1   6  -8   41.47    5.12
   1   6  -8   32.30    3.48
   1   6  -8   28.86    6.25
  -1  -6   8   27.40    3.12
   1   6  -8   36.46    4.01
   1   6  -8   36.20    4.73
  -1  -6   8   41.94    4.36
  -1  -6   8   36.05    5.50
   1   6  -8   35.28    5.83
   1   6  -7  126.21    8.96
   1   6  -7  131.28   10.84
   1   6  -7  134.10    7.24
  -1  -6   7  134.30   10.71
   1   6  -7  122.69   12.87
  -1  -6   7  142.71    8.44
   1   6  -7  139.33    9.50
   1   6  -7  168.72    8.98
   1   6  -7  131.21   10.23
   1   6  -7  137.23    6.72
   1   6  -6   11.54    3.92
  -1  -6   6   13.20    3.16
   1   6  -6   13.24    2.76
  -1  -6   6   11.70    2.28
   1   6  -6   12.03    1.81
   1   6  -6   13.96    2.16
   1   6  -6   16.40    3.73
  -1  -6   6   13.73    3.38
   1   6  -6    7.49    2.44
   1   6  -6   11.40    2.42
   1   6  -6   17.07    2.62
   1   6  -6   13.38    3.19
   1   6  -5   23.57    3.40
  -1  -6   5   31.68    3.58
   1   6  -5   21.94    3.80
   1   6  -5   24.46    4.33
  -1  -6   5   22.50    3.92
   1   6  -5   20.48    3.77
   1   6  -5   17.84    3.16
   1   6  -5   25.52    3.23
   1   6  -5   22.38    2.19
  -1  -6   5   23.64    4.36
   1   6  -5   19.61    3.69
   1   6  -4  239.32   13.65
   1   6  -4  215.20   11.83
  -1  -6   4  236.45   11.14
   1   6  -4  205.88   13.00
  -1  -6   4  201.05   12.81
  -1  -6   4  218.15   14.01
   1   6  -4  223.80   13.11
   1   6  -4  215.97   11.31
  -1  -6   3  462.91   20.93
  -1  -6   3  451.41   21.97
   1   6  -3  493.83   21.05
   1   6  -3  463.71   21.25
   1   6  -3  483.70   20.68
  -1  -6   3  496.09   18.01
   1   6  -3  475.94   19.31
   1   6  -3  456.94   18.60
   1   6  -2   73.02    6.34
   1   6  -2   66.70    6.55
   1   6  -2   90.63    6.18
   1   6  -2   63.38    5.66
  -1  -6   2   67.80    6.76
   1   6  -2   72.18    6.70
  -1  -6   2   69.91    5.48
  -1  -6   2   56.33    6.76
   1   6  -1   90.57    7.89
   1   6  -1   96.78    7.70
   1   6  -1  113.70    8.07
  -1  -6   1   98.93    9.35
  -1  -6   1  110.55    7.06
   1   6  -1  125.23    7.43
   1   6  -1   91.37    7.04
   1   6   0    8.32    2.19
  -1  -6   0    5.45    1.47
   1   6   0    2.49    1.19
   1   6   0    3.93    1.39
   1   6   0    4.27    1.55
  -1  -6   0    4.83    2.29
   1   6   0    5.66    1.53
   1   6   1    4.76    1.39
  -1  -6  -1    5.84    1.58
   1   6   1    6.24    2.07
  -1  -6  -1    7.02    2.37
  -1  -6  -1    5.75    2.29
   1   6   1    4.58    1.60
   1   6   1    4.12    1.41
   1   6   1    3.52    1.49
   1   6   2  209.84   12.96
  -1  -6  -2  216.80   10.52
  -1  -6  -2  200.16   14.64
  -1  -6  -2  190.32   12.94
   1   6   2  196.04   10.95
   1   6   2  201.49   11.69
   1   6   2  221.36   14.81
   1   6   2  228.53   10.58
   1   6   2  192.25   10.97
  -1  -6  -3    5.71    1.26
  -1  -6  -3    8.75    1.94
   1   6   3   12.61    2.29
   1   6   3    8.50    2.09
   1   6   3    8.29    2.13
   1   6   3   11.66    3.47
   1   6   3   11.43    2.99
   1   6   3    5.01    1.70
  -1  -6  -3    9.62    3.15
   1   6   4   21.19    4.44
  -1  -6  -4   19.80    2.97
   1   6   4   15.01    2.95
  -1  -6  -4   20.77    2.66
   1   6   4   19.88    2.86
   1   6   4    6.96    1.94
  -1  -6  -4   16.57    4.32
   1   6   4   18.39    3.44
   1   6   4   21.35    4.24
   1   6   5   64.27    6.35
  -1  -6  -5   66.66    5.21
   1   6   5   76.05    8.31
   1   6   5   64.09    5.24
   1   6   5   78.80    8.40
   1   6   5   63.67    6.45
   1   6   5   53.14    4.27
  -1  -6  -5   84.77    6.25
   1   6   6   17.57    4.09
  -1  -6  -6   22.93    3.17
   1   6   6   19.70    4.34
   1   6   6   25.89    4.16
   1   6   6   20.95    2.97
   1   6   6   17.17    2.58
  -1  -6  -6   27.43    3.56
   1   6   6   17.96    3.54
   1   6   7   26.80    4.38
  -1  -6  -7   32.92    4.15
   1   6   7   31.72    5.77
   1   6   7   28.47    5.06
   1   6   7   31.56    4.63
   1   6   7   32.57    3.86
   1   6   7   10.22    2.29
  -1  -6  -7   29.92    3.79
   1   6   7   26.18    3.46
   1   6   8  275.40   12.51
   1   6   8  294.00   18.81
  -1  -6  -8  278.22   14.10
   1   6   8  249.89   12.55
  -1  -6  -8  282.05   13.00
   1   6   8  260.96   14.50
   1   6   8  285.55   17.37
   1   6   8  250.14   14.87
  -1  -6  -9   96.99    8.34
  -1  -6  -9  104.47    7.41
   1   6   9  106.28    7.40
   1   6   9  118.52   12.07
   1   6   9  111.57   10.64
   1   6   9  109.12    9.22
   1   6  10  187.01   14.19
  -1  -6 -10  187.10   12.46
   1   6  10  200.15   16.43
  -1  -6 -10  182.29   10.18
  -1  -6 -11   32.37    5.12
   1   6  11   32.08    6.57
   1   6  11   36.20    6.13
   1   6  12   37.78    7.28
  -1  -6 -12   31.08    5.45
   1   6  12   37.73    6.37
   1   6  13    1.45    1.21
  -1  -6 -13    2.13    1.80
   1   6  13    0.86    1.26
   1   6  14    5.35    2.83
   1   6  14    1.18    1.38
  -1  -6 -14    2.90    2.01
  -1  -6 -15    1.44    1.94
  -1  -7  17  100.17   11.86
   1   7 -17   90.79    9.74
   1   7 -16    0.37    1.10
  -1  -7  16    3.32    2.75
   1   7 -16   -1.54    2.87
   1   7 -15   24.21    6.94
   1   7 -15   24.27    4.62
  -1  -7  15   21.14    5.17
   1   7 -14    6.75    3.60
  -1  -7  14    3.97    1.71
   1   7 -14    6.00    2.23
  -1  -7  14    5.30    3.26
   1   7 -13    9.32    2.87
   1   7 -13   12.06    2.95
   1   7 -13   15.12    5.58
  -1  -7  13   13.95    4.11
  -1  -7  13   11.10    2.62
   1   7 -12    5.07    3.42
  -1  -7  12    4.58    1.69
   1   7 -12    3.37    1.46
   1   7 -12    1.44    0.69
  -1  -7  12    1.35    1.83
   1   7 -11   10.20    2.94
   1   7 -11   12.30    4.62
   1   7 -11   13.65    2.73
  -1  -7  11   13.70    3.89
  -1  -7  11   11.14    2.54
  -1  -7  10  159.78   13.37
   1   7 -10  160.06    9.63
   1   7 -10  160.52   11.81
   1   7 -10  160.46   16.73
  -1  -7  10  171.65   10.42
   1   7  -9   11.45    2.26
  -1  -7   9   12.94    3.60
  -1  -7   9   10.99    2.39
   1   7  -9   11.04    2.90
   1   7  -9   10.24    3.84
   1   7  -9   14.04    3.85
   1   7  -9   15.80    3.45
   1   7  -8  126.06    6.39
   1   7  -8  108.30    6.74
   1   7  -8  118.17   11.26
   1   7  -8  103.02   12.52
  -1  -7   8   94.81    9.71
   1   7  -8  128.41   10.72
  -1  -7   8  108.41    7.87
   1   7  -8   97.82    5.54
   1   7  -8   91.18    8.48
   1   7  -7  167.41   12.14
   1   7  -7  167.18    8.08
   1   7  -7  144.37   14.54
  -1  -7   7  164.74   13.13
   1   7  -7  148.37    7.91
   1   7  -7  136.72   10.15
   1   7  -7  155.57   12.64
  -1  -7   7  177.30   10.41
  -1  -7   7  157.05   12.19
   1   7  -6   97.82    8.86
   1   7  -6   90.42    5.05
   1   7  -6   89.32    6.30
  -1  -7   6   79.71    8.60
   1   7  -6   78.09   10.30
   1   7  -6   91.77    7.95
  -1  -7   6   96.40    7.26
  -1  -7   6   76.54    8.60
   1   7  -6   85.79    8.97
   1   7  -5  461.87   21.44
  -1  -7   5  444.96   21.91
   1   7  -5  551.92   25.02
   1   7  -5  428.89   19.75
  -1  -7   5  406.33   22.07
   1   7  -5  451.69   22.31
  -1  -7   5  505.43   19.26
  -1  -7   4   -0.12    1.24
  -1  -7   4    1.70    1.25
   1   7  -4    2.33    1.69
   1   7  -4    3.07    1.71
  -1  -7   4    0.01    0.68
   1   7  -4    0.55    1.42
   1   7  -3   28.93    4.52
  -1  -7   3   35.51    4.25
  -1  -7   3   21.27    4.09
   1   7  -3   37.58    4.92
  -1  -7   3   32.62    5.59
   1   7  -3   35.63    5.49
  -1  -7   2   11.57    2.46
   1   7  -2    9.08    2.42
  -1  -7   2    7.44    2.56
   1   7  -2   12.71    3.22
   1   7  -1   34.02    5.12
   1   7  -1   34.37    4.77
   1   7  -1   32.89    4.90
  -1  -7   1   36.79    4.32
  -1  -7   1   32.75    5.61
   1   7   0   29.45    4.40
   1   7   0   33.47    4.96
  -1  -7   0   22.74    4.84
   1   7   0   26.01    4.09
  -1  -7   0   32.76    4.07
   1   7   1    0.60    1.04
   1   7   1    3.08    1.78
  -1  -7  -1    1.54    0.89
  -1  -7  -1    0.15    0.68
   1   7   1    0.06    0.47
   1   7   1    0.72    1.09
   1   7   2   -0.01    0.83
  -1  -7  -2   -0.20    0.43
  -1  -7  -2    0.56    1.29
   1   7   2   -0.11    0.51
   1   7   2   -0.69    0.72
   1   7   2    1.17    1.54
   1   7   3  571.09   25.76
  -1  -7  -3  472.61   26.47
   1   7   3  511.67   21.71
  -1  -7  -3  602.72   21.92
   1   7   3  579.77   27.83
   1   7   3  526.22   23.23
  -1  -7  -4   84.25    6.75
   1   7   4   73.51    8.42
  -1  -7  -4   61.69    4.90
  -1  -7  -4   63.57    8.82
   1   7   4   69.12    8.59
   1   7   4   66.51    6.32
   1   7   4   72.98    7.48
   1   7   5    2.28    1.48
  -1  -7  -5    1.91    1.08
   1   7   5    1.10    1.33
  -1  -7  -5    0.40    0.52
   1   7   5    1.00    1.10
   1   7   5    2.19    1.85
  -1  -7  -5    2.12    2.24
  -1  -7  -6    4.21    1.54
   1   7   6    1.94    2.05
  -1  -7  -6    4.19    1.33
   1   7   6    1.46    1.08
   1   7   6    3.16    1.73
  -1  -7  -6    0.24    1.01
   1   7   6    1.06    0.87
   1   7   7   25.13    4.60
  -1  -7  -7   23.98    3.64
  -1  -7  -7   24.64    3.75
   1   7   7   25.42    3.80
  -1  -7  -7   21.31    5.97
   1   7   7   29.70    5.96
   1   7   7   21.23    4.58
   1   7   8   16.43    3.87
  -1  -7  -8   20.84    3.65
  -1  -7  -8   14.74    2.94
   1   7   8   21.95    4.71
   1   7   8   18.38    5.06
   1   7   9   27.31    4.79
  -1  -7  -9   22.46    3.70
   1   7   9   30.67    6.32
  -1  -7  -9   23.99    4.25
   1   7   9   24.78    4.87
  -1  -7 -10   21.91    4.18
   1   7  10   31.78    5.75
  -1  -7 -10   24.20    3.68
   1   7  10   27.99    6.31
   1   7  11    5.93    2.62
  -1  -7 -11    4.81    2.02
   1   7  11   10.66    3.95
  -1  -7 -12   -1.02    1.60
   1   7  12   -2.35    2.09
   1   7  12   -0.05    2.65
  -1  -7 -13    3.04    2.29
   1   8 -15    6.74    4.28
  -1  -8  15    0.08    1.80
   1   8 -14    0.52    0.93
   1   8 -14    1.81    2.41
   1   8 -14   -0.80    0.77
  -1  -8  14   -0.19    1.17
  -1  -8  14    4.09    1.71
   1   8 -13   32.95    5.66
   1   8 -13   35.11    6.12
  -1  -8  13   30.56    4.77
  -1  -8  13   21.24    5.30
   1   8 -13   29.70    4.50
   1   8 -13   38.54    9.02
   1   8 -12    7.39    2.65
   1   8 -12   10.64    3.23
   1   8 -12    7.42    3.90
   1   8 -12    6.10    1.75
  -1  -8  12    7.00    2.92
  -1  -8  12    2.77    1.49
   1   8 -11   28.98    5.12
  -1  -8  11   29.54    4.40
   1   8 -11   27.58    5.22
   1   8 -11   31.69    7.80
   1   8 -11   29.52    4.06
  -1  -8  11   27.87    5.89
   1   8 -10   19.33    4.34
  -1  -8  10   19.30    3.55
   1   8 -10   18.41    2.97
  -1  -8  10   17.70    4.51
   1   8 -10   19.41    5.91
   1   8 -10   13.38    3.53
  -1  -8   9   27.95    4.14
   1   8  -9   17.80    5.66
   1   8  -9   23.45    3.16
  -1  -8   9   20.66    4.75
   1   8  -9   29.62    5.02
   1   8  -9   29.89    5.22
  -1  -8   8    8.20    2.21
   1   8  -8   11.26    3.30
   1   8  -8    6.19    2.63
   1   8  -8   10.69    1.98
  -1  -8   8    5.74    2.42
   1   8  -8    7.27    2.61
   1   8  -7   20.23    3.00
  -1  -8   7   22.71    3.85
   1   8  -7   22.71    2.40
   1   8  -7   22.61    5.92
  -1  -8   7   15.01    4.02
   1   8  -7   28.37    5.08
  -1  -8   7   25.44    5.20
   1   8  -7   26.52    4.56
  -1  -8   6   -0.54    1.09
   1   8  -6    0.09    0.86
   1   8  -6    3.35    2.88
   1   8  -6   -1.24    1.07
   1   8  -6    3.17    1.89
  -1  -8   6    0.23    1.01
   1   8  -6    1.14    1.32
  -1  -8   6    0.46    1.09
  -1  -8   5  614.17   29.72
  -1  -8   5  704.85   25.95
   1   8  -5  648.53   26.97
   1   8  -5  659.78   29.56
  -1  -8   5  599.87   28.47
   1   8  -5  706.01   28.15
   1   8  -4  405.82   20.14
  -1  -8   4  340.85   19.83
   1   8  -4  361.47   21.04
  -1  -8   4  371.78   21.60
   1   8  -4  356.41   18.38
   1   8  -3   -0.04    0.97
   1   8  -3    1.33    1.43
  -1  -8   3    2.14    1.60
  -1  -8   3    2.00    1.88
   1   8  -2   63.70    7.39
   1   8  -2   53.41    6.40
  -1  -8   2   52.66    7.83
  -1  -8   2   60.91    6.23
   1   8  -1   38.86    5.79
   1   8  -1   37.26    5.36
  -1  -8   1   43.83    5.27
  -1  -8   1   44.30    7.23
   1   8   0   51.42    6.71
  -1  -8   0   35.30    6.45
   1   8   0   41.73    5.77
  -1  -8   0   50.76    5.72
   1   8   1   23.16    5.32
   1   8   1   19.86    4.22
   1   8   1   17.75    3.75
  -1  -8  -1   27.07    4.16
  -1  -8  -1   17.03    4.40
  -1  -8  -2   14.03    3.03
   1   8   2   18.33    4.80
  -1  -8  -2   11.56    3.81
   1   8   2   20.08    4.43
   1   8   2   14.89    3.43
   1   8   3    1.75    1.15
  -1  -8  -3    1.12    1.15
  -1  -8  -3    2.67    2.24
   1   8   3   -1.26    0.85
   1   8   3    0.22    0.98
   1   8   4   47.32    7.25
  -1  -8  -4   37.73    4.91
   1   8   4   54.96    7.98
   1   8   4   44.54    6.27
  -1  -8  -4   34.64    6.83
  -1  -8  -5   22.25    3.79
   1   8   5   17.09    4.36
   1   8   5   23.44    4.72
  -1  -8  -5   27.83    6.39
   1   8   5   31.92    5.92
  -1  -8  -6    2.02    1.09
  -1  -8  -6   -0.39    1.89
  -1  -8  -6    2.19    1.23
   1   8   6    2.55    2.26
   1   8   6    2.54    1.98
   1   8   6    4.63    2.19
  -1  -8  -7   -0.22    0.56
   1   8   7    0.31    0.88
  -1  -8  -7   -0.78    1.13
  -1  -8  -7    0.57    1.56
   1   8   7    2.08    2.17
   1   8   7   -0.42    0.99
   1   8   8    2.99    2.09
  -1  -8  -8    3.09    2.25
  -1  -8  -8   -0.28    0.80
   1   8   8    0.06    1.19
  -1  -8  -8   -0.79    0.89
   1   8   8    3.40    2.31
   1   8   9   51.32    7.26
   1   8   9   37.89    7.46
  -1  -8  -9   37.83    8.27
   1   8   9   41.39    6.49
  -1  -8  -9   41.01    5.38
  -1  -8 -10    0.14    1.99
   1   8  10   -0.94    1.55
   1   8  10    1.17    1.72
  -1  -9  14   -0.93    1.05
   1   9 -14   -2.21    2.75
   1   9 -13   10.49    3.54
   1   9 -13   16.41    5.90
  -1  -9  13    7.43    2.51
  -1  -9  13   20.51    5.47
   1   9 -12  141.80   17.23
  -1  -9  12  136.47   13.94
  -1  -9  12  133.10   10.83
   1   9 -12  144.69   12.85
   1   9 -12  183.22   14.14
  -1  -9  11    5.64    3.15
  -1  -9  11    9.64    2.81
   1   9 -11   10.45    4.93
   1   9 -11   17.65    4.21
   1   9 -11   10.03    3.22
   1   9 -10    4.36    1.78
   1   9 -10    7.29    4.31
   1   9 -10    7.24    2.90
  -1  -9  10   10.86    3.86
  -1  -9  10    8.72    2.53
   1   9  -9    2.82    2.46
  -1  -9   9    2.83    2.10
  -1  -9   9    2.03    1.55
   1   9  -9   -0.03    0.96
   1   9  -9    1.50    2.12
   1   9  -8   50.12    6.88
   1   9  -8   50.00    9.40
  -1  -9   8   42.91    5.69
  -1  -9   8   44.54    7.44
   1   9  -8   40.63    6.26
  -1  -9   7    3.64    1.70
   1   9  -7   -0.59    0.66
  -1  -9   7    3.42    1.88
  -1  -9   7    5.15    2.72
   1   9  -7    3.55    1.89
  -1  -9   6   13.78    4.01
  -1  -9   6   22.30    4.05
   1   9  -6   20.97    4.40
   1   9  -6   20.76    5.88
   1   9  -6   21.93    4.47
  -1  -9   6   22.11    5.00
   1   9  -5    7.89    2.68
  -1  -9   5    9.78    2.64
  -1  -9   5    8.96    3.21
  -1  -9   5   13.63    4.19
   1   9  -5    9.31    2.99
   1   9  -4  254.40   15.97
  -1  -9   4  250.67   14.34
  -1  -9   4  216.36   16.80
   1   9  -4  218.10   14.74
   1   9  -3   19.78    4.27
  -1  -9   3   23.09    4.10
  -1  -9   3   12.02    3.61
   1   9  -3   16.53    3.78
   1   9  -2   29.30    5.06
  -1  -9   2   27.62    4.54
   1   9  -2   25.70    4.81
  -1  -9   2   32.12    6.33
   1   9  -1    0.03    1.22
  -1  -9   1    0.23    1.01
  -1  -9   1    3.10    2.08
   1   9  -1    4.89    2.07
  -1  -9   0    3.66    1.86
   1   9   0    4.74    2.36
   1   9   0    1.29    1.19
  -1  -9   0    3.58    1.90
   1   9   1    6.67    2.94
  -1  -9  -1    1.43    1.48
   1   9   1    3.14    1.81
   1   9   1    5.94    2.84
  -1  -9  -1    1.01    1.42
   1   9   2   13.93    4.51
  -1  -9  -2   16.05    3.38
   1   9   2   16.35    4.30
   1   9   2    8.65    2.91
  -1  -9  -2    5.41    2.76
   1   9   3    7.68    3.06
  -1  -9  -3    7.51    2.31
   1   9   3   11.01    3.63
  -1  -9  -3    5.23    2.86
   1   9   3   12.23    3.54
   1   9   4    5.11    2.48
  -1  -9  -4    4.87    1.97
   1   9   4    5.13    2.60
  -1  -9  -4    1.42    1.46
   1   9   4    3.57    2.19
  -1  -9  -5   -0.79    0.85
  -1  -9  -5    0.42    0.97
   1   9   5    3.12    2.73
   1   9   5    1.99    1.50
   1   9   5    4.57    2.43
   1   9   6   -1.05    2.09
  -1  -9  -6   -0.07    0.60
   1   9   6    4.01    2.49
  -1  -9  -6   -1.77    2.85
   1   9   6    3.69    2.51
   1   9   7    8.45    2.98
  -1  -9  -7    7.50    2.21
   1   9   7   12.55    4.11
   1   9   7    9.14    3.19
  -1  -9  -7   14.13    5.13
  -1  -9  -8   70.44   11.49
   1   9   8   68.59    8.99
   1   9   8   65.94   10.04
  -1  -9  -8   63.38    7.30
   1   9   9    3.63    1.66
  -1 -10  14   -1.26    1.76
   1  10 -13    1.42    1.60
  -1 -10  13    3.29    1.75
   1  10 -12    2.24    2.04
  -1 -10  12    1.17    0.74
   1  10 -11   16.28    4.33
  -1 -10  11   16.10    3.85
  -1 -10  11   15.68    4.59
   1  10 -11   19.87    6.42
   1  10 -11   27.03    5.29
  -1 -10  10   11.69    3.24
   1  10 -10    0.26    1.73
  -1 -10  10    8.32    3.64
   1  10 -10   11.73    3.64
   1  10 -10   10.35    3.23
   1  10  -9    1.96    2.08
  -1 -10   9    1.58    1.95
   1  10  -9    1.38    2.32
   1  10  -9    1.27    1.17
  -1 -10   9   -0.52    1.20
  -1 -10   8   22.84    4.35
  -1 -10   8   16.13    4.66
  -1 -10   8   19.49    4.82
   1  10  -8   38.13    6.15
   1  10  -8   27.48    6.94
   1  10  -8   22.01    4.83
   1  10  -7    2.17    2.44
   1  10  -7    1.50    1.56
  -1 -10   7    1.36    1.70
  -1 -10   7    0.32    0.85
   1  10  -7    1.32    1.48
  -1 -10   7   -1.34    1.36
  -1 -10   6   17.74    3.75
   1  10  -6   23.31    4.90
  -1 -10   6   14.48    4.23
   1  10  -6   12.56    3.58
   1  10  -5   15.81    4.36
  -1 -10   5   16.84    3.92
   1  10  -5   11.48    3.51
  -1 -10   5   11.00    3.61
   1  10  -4    6.05    1.91
  -1 -10   4    7.15    2.47
   1  10  -4    6.34    2.46
  -1 -10   4    5.83    2.76
   1  10  -3    6.62    2.70
  -1 -10   3    6.07    2.44
   1  10  -3    8.88    3.31
  -1 -10   3    3.41    2.25
   1  10  -2    0.94    1.82
   1  10  -2    1.68    1.16
  -1 -10   2    0.24    0.74
  -1 -10   2    2.13    1.21
   1  10  -1   19.53    4.54
  -1 -10   1   23.79    4.31
  -1 -10   1   18.20    5.03
   1  10  -1   24.08    5.14
  -1 -10   0   25.43    4.48
   1  10   0   31.34    6.38
   1  10   0   26.99    5.47
  -1 -10   0   21.82    5.99
   1  10   0   23.68    5.07
  -1 -10  -1   14.36    3.52
   1  10   1   21.73    5.50
  -1 -10  -1   13.53    4.53
   1  10   1   17.07    4.42
   1  10   1   23.40    5.23
   1  10   2   63.22    8.44
  -1 -10  -2   79.08    8.09
   1  10   2   64.41    8.84
  -1 -10  -2   68.08   10.27
   1  10   2   92.26   11.42
   1  10   3   86.23   10.25
  -1 -10  -3   83.84    8.41
   1  10   3   70.86    9.06
   1  10   3   92.36   11.51
  -1 -10  -3   70.23   10.59
   1  10   4   13.57    4.74
  -1 -10  -4    7.90    2.54
   1  10   4   12.63    3.88
  -1 -10  -4    7.98    3.63
   1  10   4    6.95    3.24
  -1 -10  -5   -0.52    0.80
   1  10   5    0.86    1.66
   1  10   5   -1.73    2.27
  -1 -10  -5   -0.05    1.66
   1  10   6   34.93    6.62
  -1 -10  -6   37.84    5.86
  -1 -10  -6   29.97    7.45
   1  10   7   17.03    4.90
  -1 -10  -7   14.51    3.60
   1  10   8   15.97    4.74
  -1 -10  -8   14.74    3.50
   1  11 -12    0.79    1.24
  -1 -11  12    1.53    1.24
   1  11 -11    5.96    2.62
  -1 -11  11    2.79    2.00
   1  11 -10   23.92    5.54
  -1 -11  10   27.04    5.36
   1  11 -10   40.14    6.77
   1  11  -9   60.50    8.21
   1  11  -9   51.68   10.65
  -1 -11   9   56.48    7.70
   1  11  -9   56.70    8.43
  -1 -11   8    5.10    2.18
   1  11  -8    4.78    2.54
   1  11  -8    5.08    2.36
  -1 -11   8    2.16    1.92
   1  11  -8   10.64    4.51
   1  11  -7   39.59    9.45
  -1 -11   7   34.64    5.79
   1  11  -7   43.55    7.18
  -1 -11   7   28.13    6.75
   1  11  -7   33.42    6.40
   1  11  -6  326.15   20.95
   1  11  -6  344.85   27.20
   1  11  -6  369.60   21.71
  -1 -11   6  314.31   22.72
  -1 -11   6  332.32   19.24
   1  11  -5    7.54    3.01
  -1 -11   5   12.87    4.36
   1  11  -5   13.50    4.03
  -1 -11   5   11.97    3.46
  -1 -11   4   38.22    5.99
   1  11  -4   50.39    7.60
   1  11  -4   45.69    7.28
  -1 -11   4   39.46    7.53
   1  11  -3   75.55    9.40
   1  11  -3   63.69    8.60
  -1 -11   3   72.00    8.21
  -1 -11   3   65.73    9.72
   1  11  -2   71.51    9.19
  -1 -11   2   68.11    8.03
   1  11  -2   59.68    8.38
  -1 -11   2   57.46    9.43
  -1 -11   1    1.11    1.59
   1  11  -1    0.35    1.13
  -1 -11   1    3.74    2.81
   1  11  -1    2.75    1.28
   1  11   0   13.97    4.07
   1  11   0   16.06    4.48
  -1 -11   0    2.10    1.66
  -1 -11   0   15.38    3.81
   1  11   0    9.45    3.58
  -1 -11  -1    3.80    1.95
   1  11   1    3.45    2.42
   1  11   1    2.13    2.08
  -1 -11  -1    2.15    2.69
   1  11   1    7.00    3.51
   1  11   2   12.47    4.70
  -1 -11  -2   11.34    3.54
   1  11   2   14.50    4.38
  -1 -11  -2    8.18    4.07
   1  11   3    1.61    1.53
  -1 -11  -3   -0.73    1.07
  -1 -11  -3    0.16    1.07
   1  11   4   11.21    4.19
  -1 -11  -4   17.32    4.14
  -1 -11  -4   16.56    5.78
   1  11   5    7.86    3.22
  -1 -11  -5    9.93    3.00
  -1 -12   8   -0.84    2.63
   1  12  -8    0.60    1.11
   1  12  -7    6.34    2.87
  -1 -12   7    3.54    3.05
   1  12  -6    3.04    2.38
  -1 -12   6    1.69    1.76
   1  12  -5   18.07    4.83
  -1 -12   5   15.02    5.02
  -1 -12   4    2.65    2.28
   1  12  -4    2.55    2.19
  -1 -12   3    3.09    1.31
   1  12  -3    3.90    2.46
  -1 -12   2    1.74    2.53
  -1 -12   1    1.12    1.95
  -1 -12   0    3.14    1.94
  -1 -12  -1   -0.15    1.91
  -2  13   0   37.66    7.09
  -2  13  -1    3.33    2.07
  -2  13  -1    8.93    2.91
  -2  13  -2  160.27   17.22
  -2  13  -2  105.17   11.36
  -2  13  -3   28.11    7.17
  -2  13  -3   17.21    4.09
  -2  13  -4    1.88    1.47
  -2  13  -6    5.32    1.77
  -2  13  -7    1.17    2.40
  -2  12   4    1.22    1.53
  -2  12   3    2.60    1.96
   2 -12  -3   -0.99    2.04
  -2  12   2   28.15    6.21
   2 -12  -2   20.96    6.39
   2 -12  -1   -1.21    2.36
  -2  12   1    0.31    1.94
  -2  12   0    9.71    3.46
   2 -12   0    9.62    3.72
  -2  12  -1   11.77    3.67
   2 -12   1   11.04    4.85
  -2  12  -2   19.43    5.58
   2 -12   2   16.23    5.58
  -2  12  -2   15.64    3.96
  -2  12  -3   36.46    7.33
  -2  12  -3   40.76    6.41
   2 -12   3   36.18    8.27
  -2  12  -4   98.22    9.57
  -2  12  -4  123.62   13.76
   2 -12   4   85.76   12.47
  -2  12  -5   29.91    5.05
  -2  12  -5   42.11    7.77
   2 -12   5   22.29    6.19
  -2  12  -6    0.36    1.09
   2 -12   6   -1.02    1.64
  -2  12  -6   -0.32    2.25
  -2  12  -7   23.26    6.76
   2 -12   7   27.71    7.29
  -2  12  -8  131.04   16.32
  -2  12  -9    1.47    1.37
  -2  12 -10   63.61   11.38
  -2  12 -11   32.49    8.24
  -2  11   9   24.47    4.63
  -2  11   6   14.81    4.87
   2 -11  -6   19.69    5.77
   2 -11  -5  250.29   22.01
  -2  11   5  278.11   21.02
  -2  11   4    0.21    1.53
   2 -11  -4   -0.47    1.04
  -2  11   3   14.08    4.64
   2 -11  -3   15.31    5.28
  -2  11   2   51.61    7.88
   2 -11  -2   46.02    9.07
  -2  11   1   11.95    3.94
   2 -11  -1   13.06    4.85
  -2  11   0   35.48    6.09
   2 -11   0   38.50    8.41
  -2  11  -1    4.40    2.45
   2 -11   1    3.56    2.67
  -2  11  -2   12.72    3.36
   2 -11   2    8.07    4.11
  -2  11  -2    7.14    3.12
  -2  11  -3   -0.43    1.18
  -2  11  -3    0.65    1.46
   2 -11   4   10.49    4.43
  -2  11  -4   13.53    4.26
  -2  11  -4    5.86    2.17
  -2  11  -5   30.89    4.61
  -2  11  -5   26.78    5.51
   2 -11   5   26.11    6.70
   2 -11   6    8.02    3.96
  -2  11  -6    5.37    2.91
  -2  11  -6    1.11    1.33
  -2  11  -6    2.70    3.04
  -2  11  -7   25.01    3.93
  -2  11  -7   19.46    5.69
   2 -11   7   30.68    6.97
  -2  11  -8   58.79    9.96
  -2  11  -9   15.67    5.62
  -2  11 -10    0.06    1.88
  -2  11 -11    2.07    1.81
  -2  11 -12    2.02    2.94
  -2  11 -13    4.15    3.27
  -2  11 -13    6.66    2.52
  -2  10  10    4.02    2.02
  -2  10   8   12.33    4.25
   2 -10  -8   14.07    5.25
  -2  10   7   76.36   10.96
   2 -10  -7   61.71   10.32
   2 -10  -6   42.24    8.54
  -2  10   6   49.86    8.55
  -2  10   5   61.29    9.23
   2 -10  -5   52.80    9.53
   2 -10  -4   55.27    9.60
  -2  10   4   67.27    9.36
  -2  10   3   22.95    5.34
   2 -10  -3   19.35    5.54
  -2  10   2   11.86    2.54
   2 -10  -2    7.76    3.81
  -2  10   2    9.53    3.41
  -2  10   1    5.00    2.29
  -2  10   1    9.00    2.42
   2 -10  -1    9.16    4.43
  -2  10   0   49.39    6.76
   2 -10   0   45.33    8.57
  -2  10  -1  105.65    9.60
   2 -10   1  102.24   12.96
   2 -10   2   20.34    5.68
  -2  10  -2   19.62    4.82
  -2  10  -2   16.68    1.93
  -2  10  -2   15.29    2.70
  -2  10  -2   17.64    3.68
  -2  10  -3   18.66    4.54
  -2  10  -3   14.03    3.12
  -2  10  -3   16.60    2.88
  -2  10  -3   18.22    1.95
   2 -10   3    9.68    3.96
  -2  10  -4    9.00    2.48
  -2  10  -4   16.62    1.89
  -2  10  -4   19.19    4.43
   2 -10   4   13.26    4.91
  -2  10  -4   12.54    2.72
  -2  10  -5   25.25    3.87
   2 -10   5   17.56    5.03
  -2  10  -5   33.25    2.71
  -2  10  -5   32.68    5.87
  -2  10  -6   49.00    3.49
  -2  10  -6   54.48    7.45
  -2  10  -6   30.41    6.70
   2 -10   6   44.76    8.37
  -2  10  -6   35.45    4.54
  -2  10  -7    2.09    1.15
  -2  10  -7    0.82    0.56
  -2  10  -7    2.01    1.95
  -2  10  -7    6.69    3.44
   2 -10   7    2.31    2.47
  -2  10  -8   81.84    6.31
  -2  10  -8   81.95   11.34
  -2  10  -8   93.59    5.53
  -2  10  -9   28.49    3.13
  -2  10  -9   17.45    5.38
  -2  10 -10    4.57    1.52
  -2  10 -10    3.64    3.34
  -2  10 -11   11.41    4.62
  -2  10 -11    7.07    1.85
  -2  10 -12   21.30    6.50
  -2  10 -13   37.84    8.43
  -2  10 -14   99.74   13.82
  -2   9  10    1.01    2.48
   2  -9 -10    4.58    3.02
  -2   9   9    1.31    1.97
   2  -9  -9   -3.06    2.39
  -2   9   8   -1.91    1.16
   2  -9  -8    2.90    3.00
   2  -9  -7  330.38   24.20
  -2   9   7  368.34   24.28
  -2   9   6  178.01   15.99
   2  -9  -6  158.44   16.11
  -2   9   5   28.92    5.93
  -2   9   5   29.67    3.19
   2  -9  -5   32.43    6.76
  -2   9   4   18.74    4.78
  -2   9   4   20.71    2.33
   2  -9  -4   19.23    5.43
  -2   9   4   21.83    2.76
  -2   9   3  100.95    5.50
  -2   9   3   96.05    5.75
  -2   9   3  104.34    6.72
  -2   9   3   87.28    9.79
   2  -9  -3   81.64   11.05
  -2   9   2   14.55    2.63
  -2   9   2   17.35    4.20
  -2   9   2   17.73    2.08
   2  -9  -2   11.71    4.28
  -2   9   2   17.96    2.35
  -2   9   1    4.27    1.63
  -2   9   1    1.37    1.51
   2  -9  -1    1.93    1.87
  -2   9   1    4.13    0.97
  -2   9   1    2.00    0.78
  -2   9   0    0.24    0.38
  -2   9   0    2.05    0.92
   2  -9   0    1.08    1.52
  -2   9   0    2.00    1.72
  -2   9  -1  174.82   11.91
   2  -9   1  175.90   16.17
  -2   9  -1  194.03    9.06
  -2   9  -1  174.29    9.25
  -2   9  -2   13.91    3.17
   2  -9   2   10.55    2.67
   2  -9   2   11.15    4.01
  -2   9  -2   12.00    3.56
  -2   9  -2   10.52    2.23
  -2   9  -3  101.57   10.04
   2  -9   3   90.84   11.27
  -2   9  -3   97.90    8.00
  -2   9  -3  101.05    5.85
  -2   9  -3   91.83    7.00
  -2   9  -4   49.43    3.81
  -2   9  -4   38.44    4.72
  -2   9  -4   60.06    7.57
   2  -9   4   45.64    8.02
  -2   9  -4   45.71    5.14
  -2   9  -5   -0.07    0.76
  -2   9  -5    0.21    0.76
   2  -9   5   -0.15    0.91
  -2   9  -5    0.38    1.79
  -2   9  -5   -0.14    0.46
  -2   9  -6    2.30    1.08
  -2   9  -6   -0.10    1.41
  -2   9  -6    3.65    1.12
  -2   9  -6    1.90    1.51
   2  -9   6    0.22    1.36
  -2   9  -7   77.48    5.90
  -2   9  -7   87.69   11.10
  -2   9  -7   91.72    5.54
  -2   9  -7   92.40    8.40
   2  -9   7   76.68   10.78
  -2   9  -8    1.17    0.71
  -2   9  -8    1.10    2.59
  -2   9  -8    1.60    0.75
  -2   9  -8    3.00    1.61
  -2   9  -9   26.13    2.91
  -2   9  -9   32.33    3.37
  -2   9  -9   38.31    7.56
  -2   9 -10    8.73    3.85
  -2   9 -10   13.48    2.34
  -2   9 -11    6.15    3.46
  -2   9 -11    4.82    1.59
  -2   9 -12    6.85    3.65
  -2   9 -12    4.18    1.55
  -2   9 -13  271.93   22.51
  -2   9 -13  284.44   13.83
  -2   9 -14   67.90    6.35
  -2   9 -14   44.22    9.03
  -2   9 -15    7.57    2.34
  -2   9 -15    2.02    1.70
   2  -8 -12   87.27   13.18
  -2   8  12  105.16   13.83
  -2   8  11   30.32    7.30
   2  -8 -11   17.24    5.64
   2  -8 -10    2.51    2.51
  -2   8  10   -5.08    2.94
  -2   8   9   22.70    5.80
   2  -8  -9   13.92    4.80
  -2   8   8    1.17    2.02
   2  -8  -8   -1.49    2.70
  -2   8   8    0.48    0.73
  -2   8   7   44.81    7.79
  -2   8   7   42.10    3.74
  -2   8   7   37.00    3.55
   2  -8  -7   31.85    6.98
  -2   8   6  126.48   12.66
  -2   8   6  121.13    6.84
   2  -8  -6  120.69   13.34
  -2   8   6  133.69    6.99
   2  -8  -5   13.01    4.01
  -2   8   5   12.36    1.92
  -2   8   5   11.20    3.65
  -2   8   5   10.62    1.83
  -2   8   4  113.22    6.36
  -2   8   4  107.95    6.10
  -2   8   4  104.80   10.71
   2  -8  -4   90.17   11.06
  -2   8   3   41.46    3.85
  -2   8   3   43.95    3.66
   2  -8  -3   37.19    7.21
  -2   8   3   49.02    6.90
  -2   8   2   67.11    4.67
  -2   8   2   62.06    4.18
  -2   8   2   74.75    5.82
   2  -8  -2   77.55   10.01
  -2   8   2   71.97    7.94
  -2   8   1   36.57    5.27
  -2   8   1   31.36    3.20
  -2   8   1   35.94    3.13
   2  -8  -1   29.24    6.18
  -2   8   0    0.88    0.56
  -2   8   0    0.84    0.76
  -2   8   0    0.94    0.70
   2  -8   0    0.97    0.87
   2  -8   0    0.81    1.23
   2  -8   1   72.24    6.81
  -2   8  -1   94.87    7.88
   2  -8   1   84.09   10.33
  -2   8  -1   85.36    5.61
  -2   8  -2   43.02    4.94
   2  -8   2   34.76    4.48
  -2   8  -2   39.53    5.88
  -2   8  -2   36.91    3.82
   2  -8   2   24.58    5.56
  -2   8  -3    1.03    1.11
   2  -8   3   -0.12    0.79
  -2   8  -3    4.91    1.98
  -2   8  -3    7.53    2.44
  -2   8  -4    3.45    1.92
  -2   8  -4    1.46    0.66
  -2   8  -4    3.35    1.41
  -2   8  -4    1.06    0.64
  -2   8  -5   92.85    6.52
  -2   8  -5   99.77    9.11
  -2   8  -5   97.01    5.94
  -2   8  -5   94.43    7.63
   2  -8   5   81.12   10.36
  -2   8  -6    7.46    2.29
  -2   8  -6    5.80    1.53
  -2   8  -6   11.38    3.85
  -2   8  -6    7.37    1.55
   2  -8   6    5.15    3.09
  -2   8  -6    8.41    2.63
  -2   8  -7  555.64   22.30
  -2   8  -7  552.97   28.59
  -2   8  -7  533.21   17.65
  -2   8  -8    2.22    0.87
  -2   8  -8    4.46    1.47
  -2   8  -8    2.65    1.86
  -2   8  -8    3.61    1.27
  -2   8  -9   87.97   11.16
  -2   8  -9   89.67    6.01
  -2   8  -9   91.83    6.15
  -2   8  -9   74.68    4.62
  -2   8 -10   44.37    8.00
  -2   8 -10   42.77    4.17
  -2   8 -10   42.09    3.02
  -2   8 -11    1.76    1.17
  -2   8 -11    0.89    2.10
  -2   8 -12   62.70    5.50
  -2   8 -12   55.47    9.15
  -2   8 -13   58.33    9.35
  -2   8 -13   54.59    5.33
  -2   8 -14   93.08   12.62
  -2   8 -14  109.04    8.28
  -2   8 -15   13.78    4.95
  -2   8 -15   10.99    2.67
  -2   8 -16    9.14    4.51
  -2   8 -16    4.71    1.85
   2  -7 -15    0.94    2.62
   2  -7 -14   14.76    4.62
  -2   7  13   25.31    6.49
   2  -7 -13   29.60    6.36
   2  -7 -13   35.31    8.49
  -2   7  12   13.79    4.91
   2  -7 -12   11.70    3.85
   2  -7 -12    6.51    3.26
   2  -7 -11    2.10    2.37
  -2   7  11    2.41    1.90
   2  -7 -11    5.24    2.59
  -2   7  10    5.58    3.05
   2  -7 -10    2.48    1.67
  -2   7  10    3.32    1.28
   2  -7 -10    7.94    3.43
  -2   7   9   11.26    2.17
  -2   7   9    5.52    2.89
  -2   7   9    6.13    1.95
   2  -7  -9    5.42    2.24
   2  -7  -9    8.31    3.54
  -2   7   9    5.47    1.41
  -2   7   8  141.68   11.07
  -2   7   8  138.96    7.76
  -2   7   8  144.68   13.91
  -2   7   8  130.08    7.62
   2  -7  -8  144.87   14.62
  -2   7   7  260.82   15.51
  -2   7   7  252.87   10.96
  -2   7   7  254.72   10.80
   2  -7  -7  231.67   18.45
  -2   7   7  247.48   11.29
  -2   7   7  270.32   18.82
  -2   7   6   64.16    4.84
  -2   7   6   58.97    6.83
  -2   7   6   69.47    4.75
   2  -7  -6   60.56    8.74
  -2   7   6   62.93    5.12
  -2   7   6   74.87    9.12
  -2   7   5    0.25    1.04
  -2   7   5    0.22    0.81
  -2   7   5    0.87    0.72
  -2   7   5    0.28    0.42
   2  -7  -5   -1.14    1.96
  -2   7   5   -0.07    0.37
  -2   7   4  156.85    7.83
   2  -7  -4  160.25   14.10
  -2   7   4  165.84    8.91
  -2   7   4  148.54   12.06
  -2   7   4  164.74    7.43
  -2   7   4  150.24   10.65
   2  -7  -3   59.50    6.34
  -2   7   3   57.80    4.47
  -2   7   3   58.51    6.16
  -2   7   3   63.31    5.25
  -2   7   3   62.26    4.27
   2  -7  -3   67.05    8.71
   2  -7  -3   75.30    5.75
  -2   7   3   60.65    7.15
  -2   7   2   -0.11    0.82
  -2   7   2    1.11    0.89
   2  -7  -2    0.97    1.08
  -2   7   2    0.06    0.31
   2  -7  -2   -0.49    1.61
   2  -7  -2    0.96    0.89
  -2   7   2    0.67    0.36
  -2   7   2    0.08    0.50
  -2   7   2    0.38    0.58
   2  -7  -1  216.04   11.92
  -2   7   1  244.21   15.16
   2  -7  -1  266.09   11.79
  -2   7   1  220.61   13.05
  -2   7   1  198.91   11.84
  -2   7   1  253.28   17.29
  -2   7   1  226.88   10.62
  -2   7   1  211.50    8.65
   2  -7  -1  245.46   17.07
  -2   7   1  247.34   11.47
  -2   7   0   70.23    6.49
   2  -7   0   58.52    5.59
  -2   7   0   68.27    8.26
   2  -7   0   63.66    5.38
  -2   7   0   57.34    5.71
  -2   7   0   65.23    7.27
  -2   7   0   60.12    4.11
  -2   7   0   58.97    4.95
   2  -7   0   59.26    8.14
  -2   7   0   77.45    5.86
  -2   7  -1  102.58    7.38
  -2   7  -1  128.56    9.72
  -2   7  -1   93.32    7.12
  -2   7  -1  115.98    6.96
   2  -7   1  130.38    7.58
  -2   7  -1   94.79    5.32
   2  -7   1   99.80   10.31
  -2   7  -1  105.69   10.09
  -2   7  -2    1.05    0.93
  -2   7  -2    0.38    0.87
  -2   7  -2   -0.27    0.75
  -2   7  -2    0.87    0.51
  -2   7  -2    1.83    1.52
  -2   7  -2    2.02    1.51
  -2   7  -2    0.40    0.27
   2  -7   2    0.73    0.74
   2  -7   2    1.15    1.48
  -2   7  -3    5.96    1.64
  -2   7  -3    5.89    2.29
  -2   7  -3    6.82    2.20
   2  -7   3    3.85    1.37
   2  -7   3    5.19    1.53
  -2   7  -3    2.42    1.20
  -2   7  -3    4.51    1.30
  -2   7  -3    7.78    1.80
   2  -7   3    1.30    1.37
  -2   7  -3    5.43    2.45
  -2   7  -4    3.67    1.21
  -2   7  -4    3.09    1.22
  -2   7  -4    2.38    1.43
  -2   7  -4    1.77    1.03
   2  -7   4    5.88    1.52
  -2   7  -4    2.05    0.69
   2  -7   4    5.05    2.40
  -2   7  -4    2.32    1.41
  -2   7  -4    3.82    1.25
  -2   7  -4    3.65    2.36
  -2   7  -5  133.88    7.34
  -2   7  -5  137.10   10.26
  -2   7  -5  157.45    7.99
  -2   7  -5  122.65    9.12
  -2   7  -5  133.71   11.63
  -2   7  -5  135.89    9.91
  -2   7  -5  120.07    8.55
   2  -7   5  142.60   12.82
  -2   7  -5  159.14   13.80
   2  -7   5  174.99    9.30
  -2   7  -5  156.82    8.56
  -2   7  -6  227.36   16.00
  -2   7  -6  201.50   12.03
  -2   7  -6  196.09    8.94
  -2   7  -6  201.34   12.29
  -2   7  -6  229.08   10.17
  -2   7  -6  242.72   13.29
  -2   7  -6  257.19   11.23
   2  -7   6  202.82   16.26
  -2   7  -7    2.82    1.16
  -2   7  -7    4.37    1.33
  -2   7  -7    3.08    1.97
  -2   7  -7    3.79    1.75
  -2   7  -7    2.25    0.88
  -2   7  -7    2.72    1.05
  -2   7  -7    3.95    1.67
  -2   7  -8  100.91   10.86
  -2   7  -8   81.36    4.56
  -2   7  -8   87.97    8.01
  -2   7  -8   93.73    6.13
  -2   7  -8   95.23    6.26
   2  -7   8   82.38    8.48
  -2   7  -8   97.77    6.99
  -2   7  -9    3.80    0.80
  -2   7  -9    6.25    2.14
  -2   7  -9    7.41    1.69
  -2   7  -9    6.22    1.42
  -2   7  -9    2.01    2.13
   2  -7   9    3.26    1.81
  -2   7  -9    6.84    1.60
  -2   7 -10    1.22    0.43
  -2   7 -10    0.33    0.96
  -2   7 -10    3.99    1.26
  -2   7 -10    1.17    0.80
  -2   7 -10    1.79    0.57
  -2   7 -10    1.29    0.84
  -2   7 -10    1.64    0.54
   2  -7  10    0.35    1.29
   2  -7  10    0.80    0.75
  -2   7 -11  120.54   12.72
  -2   7 -11  100.74    7.07
   2  -7  11  109.06   11.02
   2  -7  11   91.11    9.53
  -2   7 -11  107.00    6.43
  -2   7 -11  109.92    9.16
  -2   7 -12   48.31    8.10
   2  -7  12   47.33    6.78
  -2   7 -12   56.55    5.39
   2  -7  12   54.99    8.05
  -2   7 -13   34.97    4.26
   2  -7  13   34.50    6.69
  -2   7 -13   41.68    7.57
   2  -7  13   35.93    5.81
  -2   7 -14    3.97    1.66
   2  -7  14    2.19    2.61
   2  -7  14    2.40    1.60
  -2   7 -14    3.89    2.07
   2  -7  15    0.70    1.66
  -2   7 -15    5.77    2.04
   2  -7  15    1.87    1.85
  -2   7 -15    2.24    2.52
  -2   7 -16   10.67    2.83
  -2   7 -16    7.66    3.53
   2  -7  16    2.36    1.69
  -2   7 -17   -6.51    3.62
   2  -6 -15    3.00    2.05
  -2   6  15   -0.55    1.24
   2  -6 -14    7.71    3.36
  -2   6  14   12.36    4.60
  -2   6  13   -0.65    1.38
   2  -6 -13    1.98    1.59
  -2   6  13   -0.56    0.84
  -2   6  12    6.86    3.00
   2  -6 -12    3.29    2.05
  -2   6  12    3.76    1.74
   2  -6 -11   45.27    7.04
  -2   6  11   55.22    8.85
  -2   6  11   50.35    5.20
  -2   6  10   13.39    2.05
   2  -6 -10   10.11    3.23
  -2   6  10   13.48    4.45
  -2   6  10   11.28    2.38
  -2   6  10   14.63    3.11
   2  -6  -9   82.61    7.30
  -2   6   9   81.44    6.08
  -2   6   9   73.10    5.06
  -2   6   9   74.02    7.50
   2  -6  -9   80.27   11.01
  -2   6   9   85.28   10.44
   2  -6  -9   74.24    8.34
  -2   6   8  623.81   26.34
  -2   6   8  663.19   21.81
  -2   6   8  628.73   20.74
  -2   6   8  672.76   21.73
  -2   6   8  644.96   31.08
   2  -6  -8  658.33   32.87
   2  -6  -8  604.56   26.93
  -2   6   7   -0.68    1.35
  -2   6   7   -0.65    0.62
  -2   6   7    2.02    1.21
   2  -6  -7    1.96    1.48
  -2   6   7    0.56    0.54
   2  -6  -7    0.45    1.15
  -2   6   7    0.27    0.61
  -2   6   6   17.56    4.24
  -2   6   6   15.56    2.27
  -2   6   6   13.77    2.17
  -2   6   6   12.23    2.75
   2  -6  -6   10.95    3.54
  -2   6   6   14.46    1.93
  -2   6   5   25.03    4.66
  -2   6   5   20.95    3.63
  -2   6   5   22.70    2.31
   2  -6  -5   19.40    3.56
  -2   6   5   20.37    2.62
  -2   6   5   12.47    4.29
   2  -6  -5   26.59    3.19
  -2   6   5   24.12    2.92
   2  -6  -5   17.28    4.10
   2  -6  -4  198.46   11.89
  -2   6   4  199.81    9.50
  -2   6   4  235.48   10.54
   2  -6  -4  238.62   10.57
  -2   6   4  224.72    8.26
   2  -6  -4  208.42   15.33
  -2   6   4  191.13   11.61
  -2   6   4  222.98   14.13
   2  -6  -3   35.76    4.49
  -2   6   3   35.15    5.17
  -2   6   3   38.65    3.93
  -2   6   3   35.22    3.56
   2  -6  -3   30.25    5.48
  -2   6   3   36.37    4.62
  -2   6   3   36.06    2.64
   2  -6  -3   42.32    4.00
   2  -6  -2   20.83    3.36
   2  -6  -2   13.78    3.68
  -2   6   2   26.67    3.26
  -2   6   2   20.65    2.87
  -2   6   2   20.81    1.76
  -2   6   2   23.03    2.29
   2  -6  -2   24.05    3.05
  -2   6   2   17.89    3.05
  -2   6   2   19.93    3.58
   2  -6  -1   35.53    3.71
  -2   6   1   24.19    3.61
  -2   6   1   39.33    4.04
  -2   6   1   30.87    2.31
  -2   6   1   27.19    3.36
   2  -6  -1   33.42    5.57
  -2   6   1   35.97    4.47
   2  -6   0    8.31    1.86
  -2   6   0   21.80    2.11
  -2   6   0   20.66    3.29
   2  -6   0   24.33    4.77
  -2   6   0   26.16    3.58
  -2   6  -1   67.39    5.51
  -2   6  -1   63.09    5.80
  -2   6  -1   70.46    6.89
   2  -6   1   67.15    5.27
  -2   6  -1   61.58    4.18
   2  -6   1   69.16    7.95
  -2   6  -2   35.67    3.66
  -2   6  -2   31.07    3.93
  -2   6  -2   31.91    3.22
   2  -6   2   36.02    3.75
   2  -6   2   34.99    5.74
   2  -6   2   44.62    4.21
  -2   6  -2   50.06    4.48
  -2   6  -2   36.29    4.78
  -2   6  -2   37.72    5.80
  -2   6  -3  174.34    8.47
  -2   6  -3  147.74    9.49
  -2   6  -3  174.71   10.60
   2  -6   3  162.15    8.69
  -2   6  -3  178.24   11.26
  -2   6  -3  152.34    8.51
   2  -6   3  182.41    9.20
  -2   6  -3  187.33   13.46
   2  -6   3  173.24   13.20
  -2   6  -4    0.37    0.99
  -2   6  -4    0.75    0.68
  -2   6  -4    1.20    0.60
   2  -6   4    1.07    0.69
   2  -6   4    0.51    1.00
  -2   6  -4    0.05    0.45
  -2   6  -4    2.02    0.99
  -2   6  -4    0.41    0.44
  -2   6  -4    3.30    2.01
  -2   6  -5   27.86    2.63
  -2   6  -5   26.44    3.81
  -2   6  -5   19.42    4.05
  -2   6  -5   27.43    3.98
  -2   6  -5   31.44    3.38
  -2   6  -5   27.43    3.65
   2  -6   5   30.42    5.55
  -2   6  -5   28.96    3.93
   2  -6   5   33.99    3.61
  -2   6  -5   27.58    5.26
  -2   6  -5   31.91    3.52
   2  -6   5   20.66    3.46
  -2   6  -6  218.50    8.61
  -2   6  -6  223.65   12.45
   2  -6   6  238.23   13.44
  -2   6  -6  235.91   12.39
  -2   6  -6  255.82   15.96
  -2   6  -6  261.83   11.00
  -2   6  -6  238.87   10.72
  -2   6  -6  248.96   13.00
   2  -6   6  283.86   11.76
  -2   6  -6  283.47   18.28
  -2   6  -6  222.27   12.50
  -2   6  -7   99.02    4.74
  -2   6  -7  117.14    7.81
  -2   6  -7  111.10   10.43
  -2   6  -7  120.85    8.88
  -2   6  -7  112.74    6.84
   2  -6   7  112.69    9.12
  -2   6  -7  129.28   12.49
   2  -6   7  131.80    7.49
  -2   6  -7  113.35    8.85
  -2   6  -7  112.47    8.60
  -2   6  -7  120.97    6.74
   2  -6   8    1.64    1.27
  -2   6  -8    0.91    0.71
   2  -6   8    2.50    1.85
  -2   6  -8    1.13    0.97
  -2   6  -8   -0.05    1.16
  -2   6  -8    0.30    0.27
  -2   6  -8    1.56    0.92
  -2   6  -8    1.74    0.99
  -2   6  -8    0.41    1.25
  -2   6  -8    2.02    1.27
  -2   6  -9   57.67    2.70
  -2   6  -9   69.34    8.51
  -2   6  -9   59.05    6.47
  -2   6  -9   73.60    5.55
   2  -6   9   62.71    7.54
  -2   6  -9   65.04    4.48
  -2   6  -9   70.52    4.84
  -2   6  -9   69.76    7.11
   2  -6   9   65.14    7.29
  -2   6  -9   69.40    3.41
  -2   6 -10    7.93    2.22
  -2   6 -10    9.51    1.72
   2  -6  10    9.77    2.83
  -2   6 -10    9.07    2.00
  -2   6 -10   11.27    3.36
   2  -6  10    8.82    2.88
  -2   6 -11   94.60   10.80
  -2   6 -11  102.12    8.58
  -2   6 -11  129.08    8.09
   2  -6  11  113.88   11.06
  -2   6 -11  119.89    6.42
   2  -6  11   99.35    9.33
  -2   6 -12  305.13   13.83
   2  -6  12  281.70   18.98
   2  -6  12  252.03   15.99
  -2   6 -12  292.72   11.32
  -2   6 -12  271.72   19.56
   2  -6  13   13.26    3.98
  -2   6 -13   14.02    2.73
  -2   6 -13    3.65    2.14
   2  -6  13   12.18    3.25
  -2   6 -14    5.65    1.86
  -2   6 -14    6.80    3.16
   2  -6  14    6.39    2.57
   2  -6  14    3.51    1.97
  -2   6 -15   11.00    2.64
  -2   6 -15   13.15    4.72
   2  -6  15    9.51    2.96
   2  -6  15   15.93    4.81
  -2   6 -16   46.50    5.78
  -2   6 -16   46.19    9.29
   2  -6  16   49.66    6.91
   2  -6  16   33.20    7.11
  -2   6 -17   12.74    5.16
  -2   5  16   66.32   10.76
   2  -5 -16   66.58   10.38
  -2   5  15   14.63    5.02
   2  -5 -15   18.52    4.90
  -2   5  14    7.79    3.52
   2  -5 -14    5.78    3.16
  -2   5  14    9.04    2.57
  -2   5  13   22.19    3.92
   2  -5 -13   16.30    4.65
  -2   5  13   21.98    5.57
  -2   5  12   46.24    5.42
  -2   5  12   47.14    8.06
   2  -5 -12   48.52    7.27
   2  -5 -11   18.50    3.94
  -2   5  11   14.17    4.34
   2  -5 -11   16.47    4.19
  -2   5  11   20.72    2.24
  -2   5  11   22.60    3.60
  -2   5  10   22.97    3.44
   2  -5 -10   16.16    3.88
  -2   5  10   22.57    5.39
   2  -5  -9    3.61    1.45
  -2   5   9    4.42    1.40
  -2   5   9    2.76    1.94
   2  -5  -9    2.35    1.48
  -2   5   9    5.31    1.85
  -2   5   8  160.69    8.54
  -2   5   8  158.51   13.21
   2  -5  -8  170.46   10.58
  -2   5   8  150.72    8.31
  -2   5   8  157.26   10.25
   2  -5  -8  142.17   11.42
  -2   5   7   32.73    3.20
  -2   5   7   35.46    4.69
  -2   5   7   26.22    3.04
   2  -5  -7   33.27    4.85
  -2   5   7   33.63    6.57
  -2   5   7   22.28    4.71
   2  -5  -7   31.64    3.95
   2  -5  -7   35.84    3.29
   2  -5  -7   32.09    6.06
   2  -5  -6  110.79    8.62
   2  -5  -6  102.13    8.51
  -2   5   6   98.99    6.28
  -2   5   6  120.63   10.42
   2  -5  -6  102.26    6.56
  -2   5   6   91.43   11.11
   2  -5  -6  128.69    6.64
  -2   5   6  105.38    5.65
   2  -5  -6  124.04   11.19
  -2   5   6  106.14    8.25
   2  -5  -5   47.46    5.33
  -2   5   5   44.57    4.02
  -2   5   5   40.91    4.88
  -2   5   5   31.71    6.65
  -2   5   5   46.31    3.06
   2  -5  -5   47.80    3.90
   2  -5  -5   46.37    6.68
  -2   5   5   43.86    5.90
   2  -5  -4  111.02    6.26
  -2   5   4  103.10    6.44
  -2   5   4   97.08    7.58
   2  -5  -4   87.87    8.92
   2  -5  -4  101.51    7.78
  -2   5   4  111.39    9.11
  -2   5   4  108.08    4.50
   2  -5  -3  159.97   11.94
  -2   5   3  159.01    8.54
  -2   5   3  155.37    9.70
   2  -5  -3  173.93    8.37
  -2   5   3  164.68    5.49
  -2   5   3  177.63   11.09
  -2   5   2   81.91    3.08
  -2   5   2   69.13    6.14
   2  -5  -2   73.35    7.77
   2  -5  -2   96.50    5.92
  -2   5   2   85.59    3.55
  -2   5   2   91.98    6.29
  -2   5   2   89.94    7.25
   2  -5  -1   72.80    5.56
   2  -5  -1   85.11    5.56
  -2   5   1   70.93    6.05
   2  -5  -1   77.99    7.95
  -2   5   1   70.56    3.17
  -2   5   1   69.45    5.87
  -2   5   0  153.57    6.11
  -2   5   0  169.31    9.06
   2  -5   0  168.13    8.41
  -2   5   0  153.70    9.23
   2  -5   0  146.98   11.11
  -2   5  -1  522.02   16.29
   2  -5   1  515.54   17.58
  -2   5  -1  485.22   19.45
  -2   5  -1  554.44   21.33
   2  -5   1  553.17   23.70
  -2   5  -1  543.31   18.34
  -2   5  -2    0.14    0.35
  -2   5  -2   -0.32    0.31
  -2   5  -2   -0.27    0.69
   2  -5   2    0.31    1.65
  -2   5  -2    0.55    0.94
  -2   5  -2   -0.05    0.53
   2  -5   2    0.07    0.24
  -2   5  -2    0.15    0.29
  -2   5  -3    0.71    0.88
  -2   5  -3    1.85    0.94
  -2   5  -3    1.73    1.22
  -2   5  -3    1.08    0.90
   2  -5   3    2.00    1.07
  -2   5  -3    1.33    1.20
   2  -5   3    1.76    1.53
  -2   5  -3    1.16    0.82
   2  -5   3    0.29    0.58
  -2   5  -4  942.62   26.76
  -2   5  -4 1009.23   34.17
   2  -5   4 1011.26   31.19
  -2   5  -4 1085.12   33.10
  -2   5  -4  953.88   31.79
  -2   5  -4  976.69   30.73
   2  -5   4 1026.37   37.18
  -2   5  -4  975.62   31.44
  -2   5  -5  100.53    7.18
  -2   5  -5   72.67    3.77
  -2   5  -5   74.48    6.24
  -2   5  -5   80.04    6.68
  -2   5  -5   81.15    5.71
  -2   5  -5   81.13    7.68
  -2   5  -5  102.45    9.86
  -2   5  -5   92.55    5.80
   2  -5   5   88.91    6.91
  -2   5  -5   76.66    6.23
  -2   5  -6  103.26    4.21
  -2   5  -6  122.71   11.22
  -2   5  -6  107.32    7.60
  -2   5  -6  114.70    9.38
   2  -5   6  107.99    8.34
  -2   5  -6  103.85    7.76
  -2   5  -6  117.18    7.70
  -2   5  -6  106.36    6.70
  -2   5  -6  126.83    6.82
  -2   5  -6  109.20    8.22
  -2   5  -7   22.14    1.40
  -2   5  -7   28.50    4.10
  -2   5  -7   30.10    3.54
  -2   5  -7   24.76    4.42
  -2   5  -7   29.12    3.89
   2  -5   7   23.29    3.78
   2  -5   7   27.01    4.23
  -2   5  -7   33.55    3.25
  -2   5  -7   40.96    6.54
  -2   5  -7   26.44    3.15
  -2   5  -7   25.37    4.02
   2  -5   8  165.85   11.03
   2  -5   8  167.85   11.86
  -2   5  -8  164.70   12.40
  -2   5  -8  168.57   10.35
  -2   5  -8  157.63   10.20
  -2   5  -8  177.45    9.11
  -2   5  -8  171.24    8.48
  -2   5  -8  155.12   11.22
   2  -5   8  165.55    8.34
  -2   5  -8  184.13   14.66
  -2   5  -8  174.23    7.94
  -2   5  -9   18.07    3.37
  -2   5  -9   16.82    2.13
   2  -5   9   12.89    2.95
   2  -5   9   16.72    2.32
   2  -5   9   18.59    3.98
  -2   5  -9   16.17    2.66
  -2   5  -9   17.98    3.35
  -2   5  -9   19.48    4.13
  -2   5  -9   21.14    2.31
  -2   5 -10   13.15    1.83
  -2   5 -10   14.25    3.71
  -2   5 -10   11.11    2.22
  -2   5 -10   13.96    3.04
   2  -5  10   11.29    3.73
   2  -5  10   12.27    2.82
   2  -5  10   13.14    3.48
  -2   5 -10   12.82    2.70
   2  -5  10   14.10    2.07
  -2   5 -11   11.95    3.66
   2  -5  11   18.84    2.34
  -2   5 -11   13.62    3.15
   2  -5  11   18.40    3.66
   2  -5  11   13.31    3.82
  -2   5 -11   22.10    3.22
  -2   5 -11   18.58    2.12
  -2   5 -12  125.89    6.01
  -2   5 -12  116.48    8.13
   2  -5  12  107.94   11.23
   2  -5  12  116.67    9.66
  -2   5 -12  108.74    9.36
  -2   5 -12  107.65   11.61
   2  -5  12  131.67    6.48
  -2   5 -13   26.34    5.96
   2  -5  13   28.11    4.64
  -2   5 -13   26.77    3.84
   2  -5  13   22.30    5.16
  -2   5 -14   58.55    5.99
   2  -5  14   55.22    8.42
  -2   5 -14   63.50    9.72
   2  -5  14   53.67    6.54
   2  -5  15    8.17    2.78
  -2   5 -15   12.28    4.50
  -2   5 -15    7.27    2.19
   2  -5  15   11.76    4.23
  -2   5 -16   -0.98    1.27
   2  -5  16    1.01    1.41
  -2   5 -16   -1.71    1.83
   2  -5  16    0.57    1.29
  -2   5 -17    1.16    1.52
  -2   5 -18   14.11    5.67
   2  -4 -16    0.36    1.57
  -2   4  16    0.44    1.72
  -2   4  16    1.78    2.21
   2  -4 -15   34.51    6.69
  -2   4  15   34.39    5.51
  -2   4  15   30.47    7.10
   2  -4 -14   -1.54    1.70
  -2   4  14    3.31    2.26
  -2   4  14    2.70    2.46
  -2   4  13  106.49    9.06
   2  -4 -13  102.68   11.15
  -2   4  13   99.04   11.94
  -2   4  12   36.60    7.05
   2  -4 -12   49.70    7.43
  -2   4  12   49.13    5.71
  -2   4  12   48.57    3.07
   2  -4 -12   43.66    6.24
  -2   4  11    9.76    1.31
  -2   4  11    8.93    2.29
   2  -4 -11    9.77    3.10
  -2   4  11    5.02    2.34
   2  -4 -11    8.96    2.75
  -2   4  10   62.23    8.35
   2  -4 -10   58.68    7.38
  -2   4  10   60.43    5.72
  -2   4  10   59.43    3.54
  -2   4   9    5.80    1.12
   2  -4  -9    6.84    2.52
  -2   4   9    7.52    3.15
  -2   4   9   10.08    2.19
   2  -4  -9    4.36    1.65
  -2   4   9   11.85    2.20
   2  -4  -8  154.53   10.86
   2  -4  -8  149.61   11.12
  -2   4   8  153.00    8.25
  -2   4   8  158.33    7.14
  -2   4   8  165.72   13.83
   2  -4  -8  172.49    7.25
   2  -4  -8  156.43    9.70
  -2   4   8  142.77   12.19
  -2   4   8  150.39    8.34
  -2   4   7    2.50    1.68
   2  -4  -7    2.64    1.43
   2  -4  -7   -0.03    0.43
  -2   4   7    1.02    1.33
  -2   4   7    2.32    1.07
  -2   4   7    2.47    0.89
  -2   4   7    1.75    0.67
   2  -4  -7    1.52    0.69
  -2   4   7    1.03    0.84
   2  -4  -7    0.14    0.41
   2  -4  -6    0.00    0.44
  -2   4   6    0.28    0.41
  -2   4   6   -0.23    1.37
   2  -4  -6   -0.09    0.39
   2  -4  -6    1.83    1.11
  -2   4   6    1.42    0.78
  -2   4   6    1.40    0.91
   2  -4  -6    1.17    0.71
  -2   4   6    0.03    0.38
  -2   4   6   -1.00    1.18
   2  -4  -5    7.97    1.61
  -2   4   5    6.11    1.45
  -2   4   5    6.49    1.75
  -2   4   5    4.92    1.34
  -2   4   5    5.54    2.00
  -2   4   5    6.66    2.91
   2  -4  -5    2.66    1.01
   2  -4  -5    7.49    2.65
  -2   4   5    5.26    0.98
   2  -4  -5    6.38    1.31
  -2   4   4  197.14    9.45
  -2   4   4  179.59    6.19
   2  -4  -4  187.60    8.58
  -2   4   4  203.71    9.35
   2  -4  -4  186.49   12.31
   2  -4  -4  178.31    6.99
  -2   4   4  197.93   10.84
  -2   4   4  155.83   13.34
  -2   4   4  216.81   12.25
  -2   4   3    2.63    1.11
  -2   4   3    2.10    0.92
   2  -4  -3    1.82    0.85
  -2   4   3    1.76    0.94
   2  -4  -3    0.74    0.92
   2  -4  -3    1.88    0.92
  -2   4   3    2.20    1.15
   2  -4  -2  288.82   12.52
  -2   4   2  278.07   12.34
  -2   4   2  251.45   12.78
  -2   4   2  311.24   12.75
   2  -4  -2  291.23   11.92
   2  -4  -2  270.81   14.53
  -2   4   2  302.92   15.78
  -2   4   2  292.56   13.32
  -2   4   1    1.27    0.89
   2  -4  -1    1.30    0.79
   2  -4  -1    2.67    1.06
  -2   4   1    3.70    1.33
  -2   4   1    0.67    0.71
   2  -4  -1    1.86    1.12
  -2   4   1    2.42    1.24
  -2   4   0    5.74    1.45
   2  -4   0    3.21    0.97
  -2   4   0    5.41    1.59
  -2   4   0    5.97    1.90
   2  -4   0    5.51    1.70
  -2   4   0    5.65    0.89
  -2   4   0    6.41    2.01
   2  -4   1   19.95    2.19
  -2   4  -1   20.04    2.98
   2  -4   1   20.97    2.11
  -2   4  -1   20.28    2.09
  -2   4  -1   19.11    3.04
  -2   4  -1   20.76    2.42
   2  -4   1   21.08    3.69
  -2   4  -1   22.52    3.04
  -2   4  -2    0.86    0.59
  -2   4  -2    0.17    0.41
   2  -4   2    0.21    0.52
   2  -4   2   -0.34    0.47
  -2   4  -2    1.79    1.14
  -2   4  -2    1.40    1.07
   2  -4   2    0.08    0.45
  -2   4  -2    0.37    0.54
  -2   4  -2    0.26    0.43
   2  -4   2   -0.01    0.66
  -2   4  -3    6.00    1.61
   2  -4   3    5.47    0.96
  -2   4  -3    4.54    1.43
  -2   4  -3    6.83    1.80
   2  -4   3    7.49    1.62
   2  -4   3    4.78    1.42
  -2   4  -3    4.31    0.91
  -2   4  -3    3.59    1.32
  -2   4  -3    5.44    1.50
   2  -4   3    6.02    1.43
   2  -4   3    3.56    1.70
  -2   4  -3    5.38    1.41
  -2   4  -4    1.26    0.45
  -2   4  -4   -0.09    0.48
  -2   4  -4    1.30    0.96
  -2   4  -4    1.07    0.77
   2  -4   4    0.54    0.51
  -2   4  -4    0.50    0.50
   2  -4   4    0.40    0.48
  -2   4  -4    0.55    0.33
   2  -4   4    1.33    0.88
  -2   4  -4    0.98    0.77
  -2   4  -5   56.23    5.12
  -2   4  -5   63.13    6.05
  -2   4  -5   53.70    5.30
  -2   4  -5   59.76    4.80
   2  -4   5   63.76    5.18
  -2   4  -5   60.54    5.60
   2  -4   5   68.34    5.90
  -2   4  -5   62.71    5.14
  -2   4  -5   65.12    4.73
   2  -4   5   66.12    4.70
  -2   4  -6   23.25    3.45
  -2   4  -6   36.62    3.76
   2  -4   6   27.68    3.40
  -2   4  -6   32.53    3.72
   2  -4   6   38.01    4.71
   2  -4   6   35.68    3.33
   2  -4   6   25.90    3.63
  -2   4  -6   29.54    4.13
  -2   4  -6   35.77    3.88
  -2   4  -6   39.01    3.45
  -2   4  -6   45.28    6.48
  -2   4  -6   33.06    4.53
  -2   4  -7  100.38    8.54
  -2   4  -7   92.79    7.17
   2  -4   7   87.83    8.16
  -2   4  -7   99.80    6.54
  -2   4  -7  103.51    7.20
   2  -4   7  108.75    5.90
  -2   4  -7  107.28    5.82
  -2   4  -7   94.46    8.06
   2  -4   7  108.40    7.14
  -2   4  -7   96.96    9.78
   2  -4   7   96.37    8.16
   2  -4   7  101.12    7.41
  -2   4  -7  104.40    6.49
  -2   4  -8  101.21    6.04
   2  -4   8  103.40    9.26
  -2   4  -8   96.18    8.84
  -2   4  -8  104.33    5.51
  -2   4  -8   99.42    6.59
   2  -4   8  104.96    5.72
   2  -4   8   89.46    7.24
   2  -4   8   94.54    8.57
  -2   4  -8   91.25    6.87
  -2   4  -8  103.34    8.79
   2  -4   8   86.58    6.39
  -2   4  -8   97.57   10.09
   2  -4   9    0.16    0.89
   2  -4   9    0.53    0.73
  -2   4  -9    0.91    0.48
   2  -4   9    0.88    1.25
   2  -4   9   -0.02    0.83
  -2   4  -9    0.61    0.68
  -2   4  -9    2.09    1.09
  -2   4  -9   -0.67    0.98
   2  -4   9    0.96    0.65
  -2   4 -10   16.34    1.10
  -2   4 -10   18.84    2.89
  -2   4 -10   16.69    3.22
   2  -4  10   18.78    4.29
   2  -4  10   20.07    3.52
   2  -4  10   20.30    3.09
  -2   4 -10   22.68    4.77
   2  -4  10   20.62    4.32
  -2   4 -10   20.72    2.02
   2  -4  11   42.40    5.04
  -2   4 -11   34.51    1.96
  -2   4 -11   45.12    4.71
   2  -4  11   41.61    6.48
  -2   4 -11   46.96    2.98
   2  -4  11   35.65    4.09
  -2   4 -11   44.27    7.02
  -2   4 -12   15.45    1.36
  -2   4 -12   18.28    3.05
  -2   4 -12   21.31    5.35
   2  -4  12   13.57    2.53
   2  -4  12   19.49    4.64
   2  -4  12   18.22    3.36
  -2   4 -12   15.16    1.63
  -2   4 -13    1.08    0.53
  -2   4 -13    1.44    1.44
   2  -4  13    1.09    0.95
   2  -4  13    1.01    1.81
  -2   4 -13    0.89    0.80
  -2   4 -14    6.83    2.07
   2  -4  14    7.44    2.40
   2  -4  14    5.01    2.52
  -2   4 -14   10.58    4.03
  -2   4 -15    4.00    3.27
   2  -4  15    8.57    2.47
  -2   4 -15    8.95    2.53
   2  -4  15    5.50    2.65
  -2   4 -16    4.50    3.10
  -2   4 -16    6.82    2.51
   2  -4  16    7.27    3.18
  -2   4 -17    1.97    3.22
  -2   4 -18   15.79    7.04
  -2   3  18    1.93    2.10
  -2   3  17   18.51    4.63
  -2   3  17   21.08    4.75
   2  -3 -16    1.98    2.35
  -2   3  16    1.06    1.01
   2  -3 -15    1.73    1.96
  -2   3  15   -0.32    0.98
  -2   3  14   10.31    4.02
   2  -3 -14    9.16    3.17
  -2   3  14    4.97    1.90
  -2   3  13   -0.31    1.57
   2  -3 -13    2.48    1.51
  -2   3  13    0.70    0.93
   2  -3 -12   41.29    6.50
   2  -3 -12   47.18    6.42
  -2   3  12   32.99    4.86
  -2   3  12   35.43    6.68
  -2   3  12   42.29    2.24
  -2   3  11   20.63    4.84
   2  -3 -11   25.46    4.91
  -2   3  11   28.32    4.16
  -2   3  11   25.98    1.82
   2  -3 -11   29.77    4.75
   2  -3 -10  118.26    9.99
   2  -3 -10  144.60   18.35
  -2   3  10  111.05    7.69
  -2   3  10  123.46    4.43
  -2   3  10  109.71   10.93
   2  -3  -9  150.06   10.65
  -2   3   9  160.89   13.39
   2  -3  -9  183.64   19.41
   2  -3  -9  142.01   10.84
  -2   3   9  158.56    8.55
  -2   3   9  152.00    9.16
   2  -3  -9  169.44    6.61
  -2   3   9  171.13    6.76
  -2   3   9  159.53   12.87
  -2   3   8    1.16    0.81
  -2   3   8    0.45    0.84
   2  -3  -8    1.34    0.90
   2  -3  -8    2.24    0.62
  -2   3   8    1.34    0.81
   2  -3  -8    1.87    1.11
  -2   3   8    1.57    0.70
   2  -3  -8    1.23    1.15
  -2   3   8    1.74    1.34
  -2   3   7   22.66    4.26
   2  -3  -7   17.10    2.02
   2  -3  -7   17.66    3.20
  -2   3   7   21.81    2.78
   2  -3  -7   15.98    3.35
  -2   3   7   18.06    4.02
  -2   3   7   21.29    2.66
  -2   3   7   19.81    2.27
   2  -3  -7   18.93    2.81
   2  -3  -6   55.96    5.83
   2  -3  -6   59.65    4.11
  -2   3   6   61.71    4.79
   2  -3  -6   55.52    4.46
  -2   3   6   51.60    3.83
  -2   3   6   60.17    7.06
  -2   3   6   61.97    6.78
  -2   3   6   56.23    4.26
  -2   3   5    1.14    0.85
  -2   3   5    1.78    1.07
   2  -3  -5    2.25    0.96
   2  -3  -5    0.17    0.68
  -2   3   5    3.29    2.15
  -2   3   5    1.38    0.56
   2  -3  -5    2.00    0.77
  -2   3   5    2.45    0.97
  -2   3   4    0.00    0.51
  -2   3   4    1.20    0.86
   2  -3  -4    1.07    0.48
  -2   3   4    0.03    1.08
  -2   3   4    0.70    0.36
   2  -3  -4    0.77    0.57
   2  -3  -4    0.70    0.74
  -2   3   4    2.35    1.09
  -2   3   3    7.55    1.97
   2  -3  -3    3.33    1.16
  -2   3   3    2.39    0.97
  -2   3   3    2.58    1.76
  -2   3   3    3.14    1.21
   2  -3  -3    4.54    1.24
   2  -3  -3    6.64    2.03
   2  -3  -2   94.78    6.11
  -2   3   2  104.35    7.15
  -2   3   2   95.15    7.27
  -2   3   2   99.14    6.90
   2  -3  -2   98.41    7.15
  -2   3   2   87.20    6.04
  -2   3   2  101.94    6.79
   2  -3  -2   93.99    6.16
  -2   3   1    0.17    0.58
   2  -3  -1    0.48    0.40
  -2   3   1    1.19    0.83
  -2   3   1    1.34    1.02
  -2   3   1    0.35    0.66
   2  -3  -1    0.91    0.55
   2  -3  -1    0.31    0.63
   2  -3   0    0.12    0.50
  -2   3   0   -0.11    0.47
  -2   3   0    0.18    0.56
   2  -3   0   -0.31    0.83
  -2   3   0   -0.74    0.82
   2  -3   0    0.07    0.17
  -2   3   0    0.36    0.61
  -2   3   0   -0.13    0.23
   2  -3   1   10.30    1.37
   2  -3   1   12.08    2.21
  -2   3  -1   11.11    1.57
  -2   3  -1   11.57    2.22
   2  -3   1   12.49    2.13
   2  -3   1    8.34    1.26
  -2   3  -1   11.71    2.46
  -2   3  -1   11.78    2.28
  -2   3  -1   11.81    1.63
   2  -3   1    9.67    2.09
   2  -3   2  436.20   12.62
  -2   3  -2  448.10   17.30
   2  -3   2  427.59   16.05
  -2   3  -2  445.23   15.15
   2  -3   2  434.47   16.69
  -2   3  -2  436.32   15.44
   2  -3   2  456.82   15.16
   2  -3   2  484.52   18.91
  -2   3  -2  438.56   16.96
  -2   3  -2  461.01   13.43
  -2   3  -3   -0.19    0.37
   2  -3   3    0.90    0.81
  -2   3  -3    0.80    0.82
  -2   3  -3    0.74    0.60
   2  -3   3    0.25    0.56
  -2   3  -3    0.81    0.79
  -2   3  -3    1.07    0.62
   2  -3   3    0.03    0.45
  -2   3  -4    4.13    1.06
   2  -3   4    3.07    1.13
   2  -3   4    2.63    0.90
  -2   3  -4    3.23    1.23
   2  -3   4    2.88    1.01
  -2   3  -4    4.61    1.35
   2  -3   4    4.66    1.43
  -2   3  -4    3.75    1.31
  -2   3  -4    3.96    1.21
  -2   3  -5  220.25   10.59
  -2   3  -5  203.58   11.00
  -2   3  -5  206.73    9.94
   2  -3   5  223.76   11.54
   2  -3   5  202.51   10.67
  -2   3  -5  235.06   10.03
  -2   3  -5  221.58    9.60
  -2   3  -5  209.21   11.42
   2  -3   5  218.40    9.59
   2  -3   5  230.27   11.59
   2  -3   6  144.37    9.83
  -2   3  -6  143.44    9.49
   2  -3   6  164.63   10.17
  -2   3  -6  152.26    7.82
  -2   3  -6  145.38    8.00
   2  -3   6  141.30    8.76
  -2   3  -6  145.97    8.01
   2  -3   6  133.70    7.89
  -2   3  -6  146.79    9.83
  -2   3  -6  161.15    7.63
   2  -3   6  155.98    7.51
   2  -3   7  251.06   14.18
  -2   3  -7  220.82   10.51
   2  -3   7  229.20   11.05
  -2   3  -7  239.88   10.56
  -2   3  -7  212.63   12.97
  -2   3  -7  243.94   10.98
  -2   3  -7  254.72    9.73
   2  -3   7  249.90   13.80
   2  -3   7  239.92    9.58
   2  -3   7  228.01   11.83
  -2   3  -7  244.54   13.73
  -2   3  -8   14.09    1.07
   2  -3   8   16.05    1.95
   2  -3   8   15.40    3.40
  -2   3  -8   19.88    2.76
  -2   3  -8   12.67    3.26
  -2   3  -8   15.98    2.57
   2  -3   8   14.91    2.53
   2  -3   8   17.54    2.95
   2  -3   8   20.03    3.81
  -2   3  -8   17.76    1.99
  -2   3  -8   12.27    2.89
   2  -3   9   32.73    4.21
  -2   3  -9   36.51    3.94
   2  -3   9   31.10    5.28
   2  -3   9   36.20    5.42
  -2   3  -9   32.91    5.29
   2  -3   9   42.32    3.00
  -2   3  -9   40.13    2.79
  -2   3  -9   34.01    2.10
  -2   3  -9   32.37    3.92
   2  -3   9   35.61    4.04
  -2   3  -9   32.71    5.14
  -2   3 -10  157.37    6.55
   2  -3  10  202.31   14.69
  -2   3 -10  203.55   14.84
  -2   3 -10  203.33   10.46
   2  -3  10  226.57    7.78
   2  -3  10  198.45   13.93
   2  -3  10  191.73   11.08
   2  -3  10  188.90   10.28
  -2   3 -10  210.83    7.08
  -2   3 -11   53.86    3.29
   2  -3  11   60.50    8.20
   2  -3  11   63.29    7.96
  -2   3 -11   63.40    5.67
   2  -3  11   60.62    5.64
  -2   3 -11   65.22    3.07
   2  -3  11   63.10    6.16
  -2   3 -11   56.50    8.19
  -2   3 -12    4.63    0.98
  -2   3 -12    4.17    2.03
  -2   3 -12    4.92    0.70
   2  -3  12    4.73    1.79
  -2   3 -12    4.13    1.56
   2  -3  12    2.72    1.20
   2  -3  12    2.24    2.12
  -2   3 -13    0.24    0.75
  -2   3 -13    1.22    1.00
   2  -3  13    0.37    1.36
   2  -3  13    0.58    0.84
  -2   3 -14    9.95    2.54
  -2   3 -14   16.82    5.64
   2  -3  14    9.55    3.29
   2  -3  14    9.31    2.26
   2  -3  15    1.57    1.81
  -2   3 -15   -0.50    1.64
  -2   3 -15    4.70    2.08
   2  -3  15    3.05    1.15
  -2   3 -16   -0.60    0.98
  -2   3 -16   -2.86    2.86
  -2   3 -17   -8.61    5.02
  -2   3 -18    4.96    4.19
  -2   2  18    2.63    2.23
   2  -2 -17   14.31    4.70
  -2   2  17   26.56    5.39
  -2   2  17   24.38    5.16
  -2   2  17   18.27    4.64
   2  -2 -16   -1.00    1.56
  -2   2  16    1.43    1.98
   2  -2 -16    4.60    4.54
  -2   2  16    0.15    1.05
   2  -2 -15   -1.91    2.79
  -2   2  15    3.59    2.17
   2  -2 -15    0.85    1.40
   2  -2 -14   -1.75    1.55
   2  -2 -14    4.28    5.10
  -2   2  14   -0.69    1.41
   2  -2 -13   -0.04    1.10
   2  -2 -13    3.87    3.66
  -2   2  13    1.19    1.02
  -2   2  12    0.01    0.73
   2  -2 -12    0.33    2.14
  -2   2  12    0.04    1.39
   2  -2 -12   -0.50    1.35
   2  -2 -12    0.73    1.18
  -2   2  11   15.61    4.36
   2  -2 -11   11.97    3.35
   2  -2 -11   10.74    5.12
  -2   2  11   11.08    2.67
  -2   2  11   12.72    0.98
   2  -2 -11   12.67    3.01
   2  -2 -10    0.18    1.14
   2  -2 -10    0.32    1.19
  -2   2  10    0.39    0.36
   2  -2 -10    1.83    0.84
  -2   2  10   -0.49    1.10
   2  -2 -10    0.20    0.21
  -2   2  10    0.26    0.40
   2  -2 -10    0.21    0.45
   2  -2  -9   52.23    6.10
  -2   2   9   55.49    4.64
   2  -2  -9   35.23    7.76
   2  -2  -9   47.37    5.74
  -2   2   9   41.17    6.34
  -2   2   9   50.60    3.16
  -2   2   9   46.96    4.86
  -2   2   9   43.06    6.29
   2  -2  -9   49.56    3.00
  -2   2   8   30.99    4.91
   2  -2  -8   31.42    4.57
  -2   2   8   36.53    3.66
  -2   2   8   32.80    5.36
  -2   2   8   34.44    3.89
   2  -2  -8   41.33    4.48
   2  -2  -8   25.74    5.91
  -2   2   8   38.00    3.02
   2  -2  -8   40.57    3.00
   2  -2  -8   36.89    4.87
  -2   2   7  232.02   14.42
   2  -2  -7  220.06   12.51
   2  -2  -7  222.13    9.10
   2  -2  -7  231.38   10.91
   2  -2  -7  236.17   12.92
  -2   2   7  246.31   10.47
  -2   2   7  218.38   10.26
  -2   2   7  216.04   13.71
  -2   2   6  461.39   20.39
   2  -2  -6  457.32   18.97
   2  -2  -6  482.38   19.59
  -2   2   6  471.74   16.68
   2  -2  -6  452.28   15.75
  -2   2   6  474.40   20.91
  -2   2   6  441.75   15.65
   2  -2  -6  461.86   16.14
   2  -2  -5    1.15    0.58
  -2   2   5    2.27    1.37
   2  -2  -5    0.92    1.09
   2  -2  -5    1.49    0.69
   2  -2  -5    1.38    1.14
  -2   2   5    0.69    0.30
  -2   2   5    1.82    0.69
  -2   2   5    1.25    0.85
   2  -2  -4  156.41    8.10
  -2   2   4  158.67    9.07
  -2   2   4  170.42   10.05
   2  -2  -4  159.64    9.12
  -2   2   4  166.05    8.54
   2  -2  -4  161.43    6.48
   2  -2  -4  148.65   11.36
  -2   2   4  163.37    9.71
   2  -2  -3 1196.84   34.69
  -2   2   3 1134.33   34.62
  -2   2   3 1262.71   35.57
   2  -2  -3 1138.61   33.51
   2  -2  -3 1077.01   38.02
  -2   2   3 1153.62   34.17
   2  -2  -3 1123.50   29.47
   2  -2  -3 1116.08   34.13
  -2   2   3 1147.59   35.09
   2  -2  -2 1218.26   36.01
  -2   2   2 1314.82   36.77
  -2   2   2 1258.40   37.20
  -2   2   2 1343.92   37.01
   2  -2  -2 1236.89   36.20
  -2   2   2 1218.95   36.61
   2  -2  -2 1245.72   36.30
   2  -2  -1  127.74    7.12
  -2   2   1  131.95    6.91
   2  -2  -1  131.96    5.29
   2  -2  -1  137.22    7.56
  -2   2   1  120.21    7.02
  -2   2   1  134.07    7.07
  -2   2   1  135.76    7.92
   2  -2  -1  133.24    6.90
   2  -2   0  489.18   17.90
   2  -2   0  526.26   15.38
  -2   2   0  509.53   18.00
  -2   2   0  484.90   15.32
   2  -2   0  532.61   17.99
   2  -2   0  511.00   16.07
  -2   2   0  510.05   18.52
   2  -2   1  191.26    9.37
  -2   2  -1  183.27    6.18
   2  -2   1  192.39    9.56
   2  -2   1  194.66    8.12
  -2   2  -1  186.96    8.16
   2  -2   1  187.52    9.59
  -2   2  -1  181.31    9.52
   2  -2   1  192.05    7.16
  -2   2  -1  197.73    9.73
  -2   2  -2  460.20   13.96
   2  -2   2  467.40   16.93
  -2   2  -2  470.35   17.22
  -2   2  -2  460.76   16.46
  -2   2  -2  467.67   18.30
   2  -2   2  457.49   17.42
   2  -2   2  475.33   16.19
   2  -2   2  466.14   13.10
   2  -2   3  254.54   11.95
  -2   2  -3  266.77   11.86
   2  -2   3  266.16   10.28
   2  -2   3  271.36   11.54
  -2   2  -3  260.55   10.06
  -2   2  -3  255.76    9.52
  -2   2  -3  263.31   11.97
   2  -2   3  265.55   11.64
  -2   2  -4    4.56    1.16
   2  -2   4    4.34    1.36
   2  -2   4    4.89    1.27
   2  -2   4    2.06    0.95
  -2   2  -4    5.61    1.44
  -2   2  -4    4.01    0.97
  -2   2  -4    5.27    1.43
   2  -2   4    3.99    1.48
  -2   2  -4    4.63    1.64
   2  -2   5   35.44    4.10
   2  -2   5   42.93    3.80
  -2   2  -5   41.81    3.87
  -2   2  -5   37.29    3.00
  -2   2  -5   41.32    4.34
  -2   2  -5   42.44    3.99
   2  -2   5   40.42    4.55
  -2   2  -5   40.91    4.85
   2  -2   5   39.28    4.43
   2  -2   6   22.57    2.63
  -2   2  -6   24.81    3.03
   2  -2   6   24.64    3.73
  -2   2  -6   24.03    2.90
  -2   2  -6   21.49    3.47
   2  -2   6   24.08    2.56
   2  -2   6   23.17    3.49
   2  -2   6   29.16    4.11
  -2   2  -6   19.69    1.51
   2  -2   6   21.14    1.80
  -2   2  -6   24.57    2.53
   2  -2   7  431.73   19.24
  -2   2  -7  456.86   20.13
  -2   2  -7  458.38   16.11
   2  -2   7  441.48   14.45
   2  -2   7  452.14   19.64
   2  -2   7  423.43   14.70
   2  -2   7  408.85   13.54
  -2   2  -7  377.62   12.02
   2  -2   7  419.61   17.86
  -2   2  -7  410.27   14.70
  -2   2  -8  123.85    5.44
   2  -2   8  143.07   10.78
   2  -2   8  147.33    7.48
  -2   2  -8  166.05   12.21
  -2   2  -8  145.91    8.20
   2  -2   8  139.84    6.37
   2  -2   8  138.28    9.41
   2  -2   8  141.52   10.49
  -2   2  -8  147.85   11.06
  -2   2  -8  141.31    6.21
   2  -2   9   36.87    4.77
  -2   2  -9   49.36    4.57
   2  -2   9   46.33    6.25
  -2   2  -9   40.46    2.91
   2  -2   9   47.80    2.95
   2  -2   9   46.70    4.04
   2  -2   9   46.68    5.98
  -2   2  -9   42.75    2.70
  -2   2  -9   38.21    6.26
  -2   2  -9   42.02    6.04
  -2   2 -10   24.98    2.42
  -2   2 -10   33.49    3.96
   2  -2  10   34.74    5.72
  -2   2 -10   28.80    6.05
   2  -2  10   24.39    3.99
   2  -2  10   31.00    3.37
   2  -2  10   35.34    2.17
  -2   2 -10   35.34    2.04
   2  -2  10   32.12    5.31
   2  -2  11   71.34    5.52
  -2   2 -11   61.91    4.21
  -2   2 -11   75.66    2.63
  -2   2 -11   76.48    6.31
   2  -2  11   63.36    7.90
  -2   2 -11   68.10    9.94
  -2   2 -12   14.97    2.08
  -2   2 -12   15.09    2.84
  -2   2 -12    8.74    4.35
   2  -2  12   14.36    2.45
   2  -2  12   12.62    3.80
  -2   2 -13   40.87    4.88
  -2   2 -13   42.51    8.85
   2  -2  13   36.82    4.05
   2  -2  13   34.93    6.25
   2  -2  13   36.90    5.30
   2  -2  14    4.20    2.55
   2  -2  14    3.92    1.41
  -2   2 -14    2.78    1.30
  -2   2 -14    2.07    1.27
  -2   2 -15    5.90    4.00
  -2   2 -15   10.69    2.87
   2  -2  15   14.68    4.50
  -2   2 -16   43.56    5.93
  -2   2 -16   36.43    9.54
   2  -2  16   37.16    6.97
  -2   2 -17   -1.58    3.45
  -2   2 -18   26.59    8.95
  -2   1  19   77.76   10.51
  -2   1  18   35.94    6.80
  -2   1  18   25.42    5.20
  -2   1  17   -0.30    1.33
   2  -1 -17   -3.08    2.11
   2  -1 -16   10.32    3.58
  -2   1  16    5.82    2.31
  -2   1  16    8.42    3.64
   2  -1 -16    2.27    2.05
  -2   1  16    7.99    2.78
  -2   1  15   17.48    4.17
   2  -1 -15   18.82    4.54
  -2   1  15   18.33    3.79
   2  -1 -15   21.80    8.68
  -2   1  15   17.03    3.95
  -2   1  14   10.22    3.17
  -2   1  14    8.10    2.50
   2  -1 -14    5.49    2.46
  -2   1  13   14.12    3.81
   2  -1 -13   18.63    4.11
   2  -1 -13    6.83    3.36
   2  -1 -12   11.23    3.09
   2  -1 -12   11.21    4.57
  -2   1  12    8.24    2.45
   2  -1 -11    1.78    1.26
  -2   1  11   -0.10    0.08
  -2   1  11   -0.38    0.89
   2  -1 -11   -0.45    1.22
  -2   1  11    0.25    0.19
   2  -1 -11    0.04    0.89
   2  -1 -11   -0.85    2.06
  -2   1  11    0.04    0.14
  -2   1  10   16.21    3.11
   2  -1 -10   18.79    3.76
  -2   1  10   20.17    2.78
   2  -1 -10   10.88    3.76
   2  -1 -10   18.51    1.59
   2  -1 -10   15.26    3.33
   2  -1 -10   20.02    3.57
  -2   1  10   25.89    5.31
   2  -1  -9   98.70    8.18
  -2   1   9  101.07    6.30
  -2   1   9   85.92    7.05
  -2   1   9   90.73    9.38
   2  -1  -9   94.43   10.70
   2  -1  -9   89.36    4.74
   2  -1  -9  105.90    8.58
  -2   1   8    0.25    0.68
   2  -1  -8    0.31    0.75
   2  -1  -8   -0.17    0.47
   2  -1  -8   -0.53    0.88
   2  -1  -8   -0.92    0.74
  -2   1   8    0.09    0.48
   2  -1  -8   -0.31    0.67
   2  -1  -7  113.91    8.53
   2  -1  -7  104.19    6.07
  -2   1   7  112.19    9.43
  -2   1   7  111.48    7.11
   2  -1  -7  112.29    8.06
   2  -1  -7  109.38    7.02
   2  -1  -6    0.84    0.83
   2  -1  -6    0.14    0.51
  -2   1   6    0.34    1.04
  -2   1   6    0.65    0.79
  -2   1   6   -0.08    0.50
   2  -1  -6    1.08    1.26
   2  -1  -6    0.94    0.62
  -2   1   5  668.54   24.33
   2  -1  -5  663.06   20.59
   2  -1  -5  667.83   24.91
  -2   1   5  638.90   22.30
   2  -1  -5  640.47   22.83
   2  -1  -5  663.29   23.88
   2  -1  -4    0.46    0.84
  -2   1   4   -0.39    0.72
   2  -1  -4    1.20    0.59
   2  -1  -4    0.00    0.26
  -2   1   4    0.03    0.60
   2  -1  -3 1081.62   32.35
  -2   1   3 1096.21   32.14
   2  -1  -3 1092.39   31.82
   2  -1  -3 1152.49   31.11
  -2   1   3 1020.97   32.48
   2  -1  -2  260.74    9.40
  -2   1   2  265.26   10.03
   2  -1  -2  256.42    9.97
  -2   1   2  247.48   11.36
  -2   1   2  271.25    9.72
   2  -1  -2  262.33   11.19
  -2   1   1 1780.66   50.97
   2  -1  -1 1839.58   48.17
  -2   1   1 1966.99   47.37
   2  -1  -1 1883.54   47.19
  -2   1   1 1804.73   48.23
  -2   1   0 2255.63   60.92
   2  -1   0 2238.98   59.41
  -2   1   0 2321.68   59.02
  -2   1  -1   48.32    4.44
  -2   1  -1   49.86    4.12
   2  -1   1   47.15    4.11
   2  -1   1   50.33    4.58
   2  -1   2 1211.57   32.03
   2  -1   2 1267.87   36.84
  -2   1  -2 1230.05   36.13
   2  -1   2 1225.22   35.69
  -2   1  -2 1196.76   36.00
  -2   1  -3  908.59   27.73
   2  -1   3  886.99   23.58
   2  -1   3  885.39   25.82
   2  -1   3  878.58   28.63
   2  -1   3  893.03   28.45
  -2   1  -3  907.63   29.20
  -2   1  -3  896.26   23.31
  -2   1  -3  859.50   27.89
   2  -1   4   84.09    4.01
  -2   1  -4   92.64    7.17
   2  -1   4   78.14    6.31
   2  -1   4   95.27    6.15
  -2   1  -4   87.86    5.65
  -2   1  -4   93.30    6.14
   2  -1   4   87.00    6.76
  -2   1  -4   95.09    3.83
  -2   1  -4   95.49    7.42
  -2   1  -5  555.96   18.55
  -2   1  -5  522.82   14.76
   2  -1   5  492.92   19.05
   2  -1   5  496.07   15.16
  -2   1  -5  529.73   22.01
  -2   1  -5  528.91   17.83
   2  -1   5  478.02   19.38
   2  -1   5  516.52   20.43
  -2   1  -5  488.17   15.25
  -2   1  -6   38.76    2.89
   2  -1   6   34.26    4.33
   2  -1   6   36.35    4.59
  -2   1  -6   42.86    3.88
  -2   1  -6   34.06    5.30
   2  -1   6   43.34    3.35
   2  -1   6   37.80    2.60
   2  -1   6   40.78    5.01
   2  -1   7   27.93    2.94
   2  -1   7   29.51    4.39
  -2   1  -7   27.69    2.51
   2  -1   7   35.50    4.94
  -2   1  -7   34.98    5.76
  -2   1  -7   31.54    3.40
   2  -1   7   36.52    2.68
   2  -1   7   30.46    4.20
   2  -1   7   33.37    3.31
  -2   1  -8   45.55    3.47
   2  -1   8   53.80    4.65
   2  -1   8   43.50    5.84
   2  -1   8   44.91    5.24
   2  -1   8   49.41    3.63
  -2   1  -8   47.28    6.33
  -2   1  -8   54.03    4.61
   2  -1   8   39.73    5.50
  -2   1  -8   63.60    8.58
   2  -1   8   43.17    3.20
   2  -1   9    8.82    2.18
  -2   1  -9    6.65    1.33
   2  -1   9    5.45    2.21
  -2   1  -9    2.45    2.34
   2  -1   9    7.40    1.32
  -2   1  -9    9.20    1.94
   2  -1   9   10.79    3.07
   2  -1   9    8.61    1.22
  -2   1  -9    7.76    2.86
  -2   1 -10    2.57    0.50
   2  -1  10    3.14    1.27
  -2   1 -10    2.18    0.41
  -2   1 -10    1.21    0.55
   2  -1  10    1.15    1.19
  -2   1 -10    1.89    0.99
   2  -1  10    1.69    0.41
  -2   1 -10    3.51    3.42
   2  -1  10   -0.12    0.91
   2  -1  10    3.08    0.96
   2  -1  10   -0.19    0.63
  -2   1 -10    2.15    0.45
   2  -1  11   54.53    6.57
  -2   1 -11   53.36    5.22
  -2   1 -11   39.55    3.80
   2  -1  11   54.95    4.13
  -2   1 -11   46.65    9.09
   2  -1  11   52.02    7.07
   2  -1  11   56.43    5.94
   2  -1  12    0.77    1.26
   2  -1  12    1.62    0.84
  -2   1 -12    1.05    0.52
   2  -1  12    2.45    1.49
   2  -1  12    1.38    1.09
  -2   1 -12    1.56    1.23
   2  -1  13    6.72    2.77
  -2   1 -13    5.41    1.45
  -2   1 -13    6.84    2.12
   2  -1  13    6.62    2.57
  -2   1 -13    7.10    4.91
   2  -1  13    8.63    1.75
  -2   1 -14   18.72    3.46
  -2   1 -14    6.86    4.74
   2  -1  14   15.55    2.26
   2  -1  14   10.40    3.61
  -2   1 -15  117.74    9.66
  -2   1 -15  113.37   17.57
   2  -1  15  120.47   12.40
  -2   1 -16    0.63    1.34
   2  -1  16    3.67    2.23
  -2   0  18    2.20    1.54
  -2   0  17    1.19    1.14
   2   0 -17   -0.38    2.07
  -2   0  17    1.05    1.23
  -2   0  16   10.50    3.67
   2   0 -16    4.21    1.96
   2   0 -16    0.12    2.26
  -2   0  16    6.09    2.34
   2   0 -15    0.10    1.42
   2   0 -15    0.88    1.86
  -2   0  15    2.83    1.79
  -2   0  15    4.50    2.51
  -2   0  15    0.33    1.12
  -2   0  14  121.80   11.12
   2   0 -14  103.90   14.39
   2   0 -14  121.27   11.30
  -2   0  14  125.49    9.53
  -2   0  14  117.73   10.69
   2   0 -13  165.85   17.31
   2   0 -13  159.52   12.49
  -2   0  13  163.55   12.45
  -2   0  13  170.01   11.00
  -2   0  13  154.17   12.26
  -2   0  12   31.35    5.08
   2   0 -12   29.04    4.81
   2   0 -12   24.77    4.43
   2   0 -12   35.00    7.35
  -2   0  12   26.92    4.05
  -2   0  12   31.54    5.03
  -2   0  11  349.08   18.48
   2   0 -11  352.34   23.05
   2   0 -11  335.79   10.61
   2   0 -11  335.62   17.63
  -2   0  11  317.13   17.06
  -2   0  11  352.96   16.12
   2   0 -11  331.94   17.33
   2   0 -11  354.65   18.33
  -2   0  11  364.84    9.83
   2   0 -10  108.26    9.07
  -2   0  10  113.13   11.23
   2   0 -10  123.83   12.14
   2   0 -10  111.08    8.98
  -2   0  10  110.81    7.97
  -2   0  10  105.31    8.66
   2   0 -10  115.28    8.83
  -2   0  10  121.47    7.18
  -2   0  10  121.11    4.93
  -2   0  10  115.18    4.86
  -2   0   9   33.21    2.72
   2   0  -9   33.89    4.37
   2   0  -9   35.80    4.71
  -2   0   9   31.91    3.37
   2   0  -9   35.92    4.92
  -2   0   9   36.36    4.62
  -2   0   9   40.45    4.39
  -2   0   9   35.03    2.74
   2   0  -9   28.62    5.50
  -2   0   9   42.30    6.29
   2   0  -8    8.63    2.51
  -2   0   8    6.10    1.80
  -2   0   8    7.29    2.46
   2   0  -8    5.49    1.85
  -2   0   8    6.72    1.33
  -2   0   8    6.12    1.42
  -2   0   8    7.41    1.88
   2   0  -7  114.83    8.12
  -2   0   7  108.79    7.12
   2   0  -7  121.58    7.69
  -2   0   7  122.27    9.84
   2   0  -7  114.00    8.65
   2   0  -6   24.65    3.73
  -2   0   6   29.60    3.12
   2   0  -6   33.48    4.78
  -2   0   6   30.03    3.48
   2   0  -6   35.54    4.04
   2   0  -6   35.06    3.72
  -2   0   6   34.74    4.80
  -2   0   5    8.61    2.25
  -2   0   5    6.81    1.67
  -2   0   5    8.47    1.61
   2   0  -5    6.40    1.50
   2   0  -5    6.12    1.75
   2   0  -5   10.05    2.19
  -2   0   4   66.28    5.73
   2   0  -4   66.84    5.78
   2   0  -4   74.63    5.46
  -2   0   4   75.18    5.19
  -2   0   4   71.98    5.27
   2   0  -4   74.91    4.96
  -2   0   3    7.47    1.64
  -2   0   3    6.73    1.51
   2   0  -3    9.87    1.90
   2   0  -3   10.01    1.85
  -2   0   3    8.08    1.76
  -2   0   2  673.98   21.12
   2   0  -2  702.31   21.63
  -2   0   2  683.88   22.31
   2   0  -2  687.71   22.16
   2   0  -1  562.25   17.52
   2   0  -1  569.60   19.63
  -2   0   1  585.00   19.78
  -2   0   1  583.30   15.78
   2   0   0    8.42    1.81
  -2   0   0   10.47    2.03
  -2   0  -1 1579.62   46.00
  -2   0  -1 1689.16   46.02
   2   0   1 1675.34   47.02
   2   0   2 1639.01   44.93
   2   0   2 1611.86   47.51
   2   0   2 1787.31   49.19
  -2   0  -2 1831.01   47.71
   2   0   3   21.33    2.20
   2   0   3   18.85    2.83
  -2   0  -3   21.84    2.46
  -2   0  -3   20.76    2.72
   2   0   3   23.88    3.58
   2   0   3   20.32    3.19
   2   0   4  737.91   21.41
  -2   0  -4  683.75   21.65
   2   0   4  732.73   26.11
  -2   0  -4  746.85   22.54
   2   0   4  685.54   24.54
   2   0   4  732.92   25.98
  -2   0  -5  137.32    7.06
   2   0   5  150.10    9.56
  -2   0  -5  156.05    7.61
   2   0   5  136.37    8.91
   2   0   5  157.16   10.11
   2   0   5  145.83    7.11
  -2   0  -6   36.33    3.28
   2   0   6   29.89    4.49
  -2   0  -6   32.15    3.23
   2   0   6   32.61    4.71
   2   0   6   31.13    4.15
   2   0   6   33.20    3.29
  -2   0  -7    0.09    0.23
   2   0   7    0.74    0.63
  -2   0  -7    0.67    0.42
  -2   0  -7    1.07    0.64
  -2   0  -7    0.23    0.88
   2   0   7    0.77    0.33
   2   0   7   -0.58    0.73
  -2   0  -7   -0.09    0.40
   2   0   7    1.15    0.98
  -2   0  -8   43.09    2.95
   2   0   8   45.63    6.11
  -2   0  -8   47.30    4.32
  -2   0  -8   37.78    3.59
  -2   0  -8   45.04    2.94
  -2   0  -8   43.12    6.33
   2   0   8   50.26    6.33
   2   0   8   45.19    4.60
   2   0   8   47.04    2.64
   2   0   9    1.77    1.92
   2   0   9   -0.33    0.50
  -2   0  -9    0.18    0.48
  -2   0  -9    0.41    0.34
   2   0   9    0.45    1.07
   2   0   9   -0.26    0.57
  -2   0  -9    0.49    0.41
   2   0   9    2.24    1.49
   2   0   9    0.20    0.27
  -2   0  -9   -0.16    0.95
   2   0  10    6.36    1.14
   2   0  10    7.93    2.28
  -2   0 -10    5.28    1.45
  -2   0 -10    6.81    0.66
   2   0  10    4.08    1.86
   2   0  10   10.82    3.62
   2   0  10    5.55    2.29
  -2   0 -10    6.25    1.66
   2   0  10    5.85    0.90
   2   0  11   -0.75    0.76
  -2   0 -11   -0.30    0.44
  -2   0 -11   -0.09    0.76
   2   0  11    0.33    0.27
   2   0  11   -0.89    1.52
   2   0  12    2.15    1.87
  -2   0 -12    4.05    1.66
   2   0  12    1.66    0.63
   2   0  12    5.62    2.31
  -2   0 -13    4.10    1.57
   2   0  13    6.10    2.63
   2   0  13    5.17    2.13
  -2   0 -13    7.32    2.20
   2   0  13    6.52    1.21
   2   0  14    3.46    1.87
   2   0  14    2.03    1.53
  -2   0 -14    2.84    1.52
   2   0  15    1.24    1.46
  -2   0 -15    2.33    1.05
   2   0  15    2.24    2.38
  -2   0 -16    2.62    1.13
   2   0  16    0.42    1.36
  -2  -1  19    2.40    1.23
  -2  -1  18    4.50    2.73
   2   1 -17   17.67    4.51
   2   1 -17   16.93    5.98
  -2  -1  17   10.24    3.12
   2   1 -16   -0.44    1.02
   2   1 -16    1.06    2.53
  -2  -1  16    0.31    1.25
  -2  -1  15   14.69    2.70
   2   1 -15   17.09    5.84
  -2  -1  15    9.45    3.01
   2   1 -15    8.03    2.96
   2   1 -14   15.95    5.05
  -2  -1  14   21.80    3.35
   2   1 -14   23.71    5.12
  -2  -1  14   20.96    4.73
  -2  -1  14   20.83    4.42
   2   1 -13    7.71    2.57
  -2  -1  13    7.17    2.45
   2   1 -13    9.75    3.96
  -2  -1  13    7.52    1.96
  -2  -1  13    8.37    2.87
  -2  -1  12   64.07    7.48
  -2  -1  12   65.16    7.51
   2   1 -12   55.46    8.93
   2   1 -12   67.49    7.36
   2   1 -12   55.26    6.87
   2   1 -12   79.75    3.17
  -2  -1  12   72.51    6.04
  -2  -1  12   68.04    3.07
   2   1 -11   57.89    8.48
   2   1 -11   56.11    6.48
  -2  -1  11   62.13    3.11
  -2  -1  11   53.65    6.68
  -2  -1  11   57.29    5.22
   2   1 -11   63.14    7.10
   2   1 -10    4.40    1.81
  -2  -1  10    2.18    1.17
  -2  -1  10    4.15    2.72
  -2  -1  10    1.71    0.66
   2   1 -10    1.66    1.02
   2   1 -10    1.40    1.01
   2   1 -10    2.30    1.54
  -2  -1  10    2.46    1.80
  -2  -1  10    1.88    0.87
  -2  -1   9    3.01    1.78
  -2  -1   9    3.67    0.83
   2   1  -9    3.57    1.59
   2   1  -9    1.74    0.88
  -2  -1   9    3.56    1.07
  -2  -1   9    1.79    0.85
  -2  -1   9   -0.08    0.92
   2   1  -9    4.27    1.76
   2   1  -9    1.91    0.88
  -2  -1   8    3.20    1.10
   2   1  -8    5.59    1.93
  -2  -1   8    3.16    0.93
  -2  -1   8    2.58    1.58
   2   1  -8    2.54    1.24
  -2  -1   8    1.83    0.77
   2   1  -8    0.38    0.69
  -2  -1   8    0.06    0.24
  -2  -1   8    3.17    0.90
  -2  -1   7  155.55   11.56
   2   1  -7  137.79    8.68
  -2  -1   7  138.59    6.98
  -2  -1   7  144.88    7.74
  -2  -1   7  146.67    7.00
  -2  -1   7  140.24    9.71
  -2  -1   6    0.29    0.32
  -2  -1   6    0.37    0.52
  -2  -1   6    0.12    0.57
   2   1  -6   -0.23    0.81
  -2  -1   6   -0.32    0.81
   2   1  -6    0.23    1.06
   2   1  -6    0.11    0.66
  -2  -1   6    0.15    0.35
  -2  -1   6   -0.16    0.45
  -2  -1   5   10.53    1.81
  -2  -1   5    9.52    2.31
   2   1  -5   11.85    2.09
   2   1  -5   13.91    2.88
   2   1  -5   13.56    1.93
  -2  -1   5   10.45    1.73
  -2  -1   5   13.12    2.07
  -2  -1   5   10.37    2.19
  -2  -1   5   13.08    2.11
   2   1  -5   13.16    2.36
  -2  -1   4  376.80   14.29
  -2  -1   4  393.69   16.82
   2   1  -4  376.82   16.65
   2   1  -4  385.71   14.66
  -2  -1   4  382.36   14.32
  -2  -1   4  407.96   16.06
  -2  -1   4  387.67   14.51
  -2  -1   4  399.94   13.87
   2   1  -4  385.35   14.08
  -2  -1   3  993.88   30.12
   2   1  -3 1005.87   32.27
  -2  -1   3 1023.29   30.57
  -2  -1   3 1053.64   29.89
   2   1  -3 1028.03   30.48
  -2  -1   3 1084.33   31.45
   2   1  -2    1.43    0.73
  -2  -1   2    2.45    0.95
   2   1  -2    2.13    1.01
  -2  -1   2    2.86    1.05
  -2  -1   2    1.20    0.90
   2   1  -1  786.01   25.28
  -2  -1   1  806.67   24.98
  -2  -1   1  830.60   24.14
  -2  -1   0   38.20    3.72
   2   1   0   40.58    4.02
  -2  -1   0   48.62    3.25
  -2  -1   0   35.82    3.60
   2   1   1    2.54    0.97
  -2  -1  -1    3.40    1.14
   2   1   1    3.66    1.24
  -2  -1  -1    2.80    1.07
  -2  -1  -1    2.71    0.59
   2   1   2   16.61    2.98
  -2  -1  -2   14.82    2.24
   2   1   2   13.50    2.12
  -2  -1  -2   13.61    2.70
  -2  -1  -2   14.64    1.23
   2   1   3  351.18   13.36
  -2  -1  -3  348.53   13.80
  -2  -1  -3  354.96   12.59
   2   1   3  332.24   14.83
  -2  -1  -3  353.94   16.71
   2   1   3  359.82   16.54
  -2  -1  -3  362.47   13.58
  -2  -1  -3  372.55   13.79
   2   1   4  235.69   10.40
  -2  -1  -4  240.91   10.22
   2   1   4  239.28   13.14
   2   1   4  207.50   14.67
   2   1   4  236.34   12.32
  -2  -1  -4  241.18    9.72
  -2  -1  -4  237.75   10.79
  -2  -1  -4  240.77   13.84
  -2  -1  -4  248.37   10.25
   2   1   5   44.58    4.10
   2   1   5   44.81    6.35
  -2  -1  -5   44.17    3.62
  -2  -1  -5   39.41    3.39
  -2  -1  -5   37.79    3.36
  -2  -1  -5   36.38    3.81
   2   1   5   44.33    5.43
   2   1   6  155.49    8.49
  -2  -1  -6  142.68    6.58
  -2  -1  -6  144.54    8.03
  -2  -1  -6  148.83    7.39
  -2  -1  -6  148.38    6.58
   2   1   6  143.71   10.36
   2   1   6  160.96   12.23
   2   1   7  344.42   14.95
   2   1   7  340.85   16.73
  -2  -1  -7  310.17   13.74
   2   1   7  348.47   19.29
  -2  -1  -7  358.92   11.53
   2   1   7  333.23   17.62
  -2  -1  -7  340.88   19.08
  -2  -1  -7  338.50   13.25
  -2  -1  -7  352.13   11.50
  -2  -1  -8   11.97    3.27
   2   1   8   17.38    3.00
  -2  -1  -8   17.10    2.65
   2   1   8   15.77    4.04
   2   1   8   17.69    3.01
   2   1   8   15.84    1.16
  -2  -1  -8   14.83    2.33
   2   1   8   18.22    3.57
  -2  -1  -8   17.01    1.67
   2   1   8   18.32    3.89
  -2  -1  -9   26.25    3.41
  -2  -1  -9   34.97    2.24
  -2  -1  -9   26.85    3.42
   2   1   9   31.87    4.89
   2   1   9   32.19    5.69
   2   1   9   29.64    5.22
   2   1   9   34.31    2.01
   2   1   9   32.54    4.51
   2   1  10   31.34    4.72
  -2  -1 -10   45.28    4.63
  -2  -1 -10   32.50    4.02
   2   1  10   40.31    6.19
   2   1  10   42.76    2.49
   2   1  10   43.90    6.06
  -2  -1 -10   48.81    2.45
  -2  -1 -11    5.71    1.74
  -2  -1 -11    8.04    2.01
  -2  -1 -11    8.78    0.74
   2   1  11    6.48    0.93
   2   1  11   11.64    3.47
   2   1  11    8.41    1.09
   2   1  11    7.52    2.43
   2   1  11    8.90    0.79
  -2  -1 -12   52.72    5.52
   2   1  12   61.57    7.29
   2   1  12   65.13    8.22
   2   1  12   55.97    3.10
  -2  -1 -12   44.29    4.85
  -2  -1 -13   30.08    4.38
   2   1  13   26.91    5.13
   2   1  13   36.50    6.29
   2   1  14    4.76    2.42
  -2  -1 -14    1.12    0.66
   2   1  14    4.51    1.99
   2   1  15    2.04    1.52
  -2  -1 -15    2.83    1.18
   2   1  15    3.29    2.08
   2   1  16    0.04    1.07
  -2  -1 -16    1.77    1.32
  -2  -2  19   47.15    7.26
   2   2 -18   -1.75    1.73
  -2  -2  18   -0.41    1.65
   2   2 -17    5.87    2.52
   2   2 -17   -1.18    2.63
  -2  -2  17    3.07    2.17
   2   2 -16   18.05    4.48
  -2  -2  16   17.13    4.39
   2   2 -16   15.15    5.18
   2   2 -15   20.94    4.48
  -2  -2  15   14.21    3.80
   2   2 -15   15.15    5.07
   2   2 -14   39.68    6.04
  -2  -2  14   43.04    3.34
   2   2 -14   41.20    8.07
  -2  -2  14   45.92    6.59
   2   2 -13    0.65    0.40
  -2  -2  13    0.08    0.17
  -2  -2  13    0.10    0.48
   2   2 -13    1.65    1.08
   2   2 -13    0.16    1.18
  -2  -2  13   -1.40    1.31
  -2  -2  12   16.65    1.72
   2   2 -12   15.57    3.40
  -2  -2  12   14.60    1.97
   2   2 -12   19.61    4.98
   2   2 -12   17.86    3.85
  -2  -2  12   20.38    4.13
   2   2 -12   20.19    1.86
   2   2 -11    0.23    0.67
   2   2 -11   -0.54    0.90
  -2  -2  11    2.10    0.65
   2   2 -11    1.90    1.31
  -2  -2  11    0.71    0.57
  -2  -2  11    0.50    0.99
   2   2 -10  128.29   12.03
   2   2 -10  116.11    8.76
  -2  -2  10  125.09    5.65
  -2  -2  10  126.96    7.12
  -2  -2  10  115.43    5.97
   2   2 -10  125.54    9.84
  -2  -2  10  125.34   10.16
   2   2 -10  106.88    9.15
  -2  -2   9  107.02   10.55
   2   2  -9   97.81   10.18
   2   2  -9   99.06    7.77
  -2  -2   9  110.59    6.36
  -2  -2   9  111.58    5.43
  -2  -2   9   93.18    8.37
   2   2  -9  106.43    8.69
  -2  -2   9  106.57    5.56
  -2  -2   8    1.30    0.64
  -2  -2   8    1.16    0.82
   2   2  -8    1.28    0.91
  -2  -2   8    0.78    0.53
   2   2  -8    0.06    0.86
  -2  -2   8    1.80    1.26
   2   2  -8    1.14    1.02
   2   2  -7    1.55    1.00
  -2  -2   7    0.45    0.56
  -2  -2   7   -0.14    0.29
  -2  -2   7    0.30    0.24
  -2  -2   7    1.23    0.81
  -2  -2   7   -0.02    0.32
   2   2  -7    0.28    0.68
  -2  -2   6  525.53   17.75
   2   2  -6  537.75   17.02
   2   2  -6  563.96   20.00
  -2  -2   6  536.57   16.92
   2   2  -6  585.81   19.84
  -2  -2   6  494.60   22.76
  -2  -2   6  526.86   16.91
  -2  -2   6  550.26   21.55
  -2  -2   6  550.71   17.76
  -2  -2   5  386.83   14.00
   2   2  -5  342.59   17.54
   2   2  -5  370.60   14.46
  -2  -2   5  368.98   12.52
  -2  -2   5  397.41   16.51
  -2  -2   5  374.68   13.78
   2   2  -5  371.13   13.55
   2   2  -5  356.87   13.44
  -2  -2   5  379.48   13.01
  -2  -2   4  396.08   14.58
  -2  -2   4  390.66   14.42
   2   2  -4  385.52   12.58
   2   2  -4  369.10   17.78
  -2  -2   4  377.68   12.83
  -2  -2   4  386.84   13.61
   2   2  -4  398.47   14.53
  -2  -2   4  403.05   16.07
   2   2  -4  364.96   13.96
  -2  -2   3  141.30    7.65
   2   2  -3  135.00    7.52
  -2  -2   3  155.73    8.35
  -2  -2   3  148.10    6.70
  -2  -2   3  144.61    7.20
  -2  -2   3  138.63    7.49
  -2  -2   3  136.99    6.00
   2   2  -3  140.29    5.86
   2   2  -3  128.59    9.09
  -2  -2   2  249.13   10.37
  -2  -2   2  255.10   10.90
  -2  -2   2  238.41    9.33
   2   2  -2  227.61   10.66
  -2  -2   2  247.02   10.69
   2   2  -2  247.10   11.10
  -2  -2   2  252.56   10.76
  -2  -2   2  233.47    8.85
  -2  -2   1  564.81   18.97
  -2  -2   1  550.30   17.84
   2   2  -1  517.50   18.14
  -2  -2   1  562.97   18.88
  -2  -2   1  572.86   17.84
   2   2  -1  501.79   18.88
   2   2   0    2.93    1.02
   2   2   0    3.35    1.20
  -2  -2   0    3.54    1.23
  -2  -2   0    2.48    0.70
   2   2   0    2.14    0.86
  -2  -2   0    3.53    1.20
  -2  -2  -1   41.13    3.83
   2   2   1   37.89    4.02
  -2  -2  -1   40.79    3.76
   2   2   1   51.33    4.81
  -2  -2  -1   40.96    3.02
   2   2   1   39.98    3.13
   2   2   1   43.15    5.19
  -2  -2  -2   17.41    2.42
   2   2   2   23.31    3.05
   2   2   2   26.75    4.08
  -2  -2  -2   20.19    2.11
  -2  -2  -2   24.55    2.20
  -2  -2  -2   24.69    2.83
   2   2   2   19.82    2.00
  -2  -2  -3   83.62    5.31
   2   2   3   77.94    5.90
   2   2   3   84.10    3.99
  -2  -2  -3   79.48    6.20
  -2  -2  -3   78.18    4.46
  -2  -2  -3   79.28    5.14
   2   2   3   80.05    7.55
  -2  -2  -4   47.66    4.82
  -2  -2  -4   49.73    3.58
   2   2   4   48.43    5.93
  -2  -2  -4   50.20    3.89
   2   2   4   51.42    2.77
  -2  -2  -4   51.12    3.85
   2   2   4   50.71    4.84
   2   2   5   12.35    2.82
   2   2   5   18.93    2.98
  -2  -2  -5   18.21    2.87
  -2  -2  -5   20.91    2.32
   2   2   5   12.55    4.14
   2   2   5   18.70    1.43
   2   2   5   14.23    3.28
  -2  -2  -5   18.08    2.15
  -2  -2  -6    3.92    2.02
   2   2   6    4.71    1.57
  -2  -2  -6    2.00    1.14
   2   2   6    1.44    1.14
  -2  -2  -6    3.31    0.93
  -2  -2  -6    2.78    0.97
   2   2   6    0.72    1.88
   2   2   6    2.40    0.51
   2   2   6    2.87    1.69
   2   2   7  109.72    8.13
  -2  -2  -7   89.61    6.99
   2   2   7   99.85   10.87
  -2  -2  -7  103.65    6.15
   2   2   7  104.87    8.74
   2   2   7   92.51    3.68
   2   2   7   99.25    9.23
  -2  -2  -7   97.13   10.08
  -2  -2  -7  103.96    5.11
   2   2   8   26.40    3.80
  -2  -2  -8   31.56    5.88
   2   2   8   26.17    4.00
  -2  -2  -8   26.64    3.67
   2   2   8   26.92    5.28
   2   2   8   25.96    1.69
   2   2   8   28.48    4.62
   2   2   8   25.75    1.83
   2   2   8   24.74    4.58
  -2  -2  -8   27.42    3.21
  -2  -2  -8   31.73    2.50
   2   2   9   16.49    1.40
   2   2   9   17.57    3.49
   2   2   9   15.16    1.30
  -2  -2  -9   17.19    3.17
  -2  -2  -9   17.67    1.77
  -2  -2  -9   16.20    2.60
   2   2   9   12.20    3.37
   2   2  10    2.38    1.85
  -2  -2 -10    2.20    0.72
  -2  -2 -10    1.08    0.93
   2   2  10    0.04    1.33
   2   2  10    2.34    0.75
   2   2  10    3.31    0.87
  -2  -2 -10    1.06    0.89
   2   2  11   25.90    4.75
   2   2  11   25.85    1.67
   2   2  11   24.48    1.97
   2   2  11   21.29    4.60
  -2  -2 -11   21.51    3.31
  -2  -2 -11   22.79    1.84
   2   2  12    1.32    1.24
  -2  -2 -12    1.07    0.92
   2   2  12    2.89    1.72
   2   2  13   43.17    6.64
   2   2  13   45.50    7.82
  -2  -2 -13   31.77    4.67
   2   2  14    8.09    3.06
   2   2  14   16.33    4.63
  -2  -2 -14   12.81    3.09
   2   2  15    5.44    2.39
  -2  -2 -15    3.76    1.82
   2   2  15    5.75    2.54
   2   2  16   -1.71    1.61
  -2  -3  19    3.64    2.15
   2   3 -18    0.59    0.91
  -2  -3  18    3.65    2.17
   2   3 -17   -0.47    1.32
   2   3 -17   -0.12    2.46
  -2  -3  17    3.60    2.52
   2   3 -16    7.81    2.66
  -2  -3  16   11.29    3.54
   2   3 -16    7.30    3.49
   2   3 -15    7.70    2.92
   2   3 -15   11.02    4.66
  -2  -3  15    8.15    3.04
   2   3 -14   83.03   11.75
   2   3 -14   84.26    8.87
  -2  -3  14  101.79   10.26
  -2  -3  14   99.18    5.06
  -2  -3  13    0.95    0.60
   2   3 -13    0.08    0.34
   2   3 -13    0.21    0.63
   2   3 -13   -0.43    1.87
  -2  -3  13   -0.28    1.04
   2   3 -12   47.13    8.24
   2   3 -12   48.21    5.90
   2   3 -12   69.20    4.30
  -2  -3  12   57.87    3.97
   2   3 -12   49.44    6.53
  -2  -3  12   58.24    7.32
   2   3 -11   70.99    7.66
   2   3 -11   70.98    9.50
   2   3 -11   67.70    6.86
  -2  -3  11   69.60    7.72
   2   3 -11   74.23    7.85
  -2  -3  11   77.62    4.57
   2   3 -10  126.52   12.32
   2   3 -10  131.57    9.25
  -2  -3  10  123.48    7.13
  -2  -3  10  142.03   10.88
   2   3 -10  126.67   10.01
  -2  -3  10  133.91    6.44
   2   3  -9    1.69    0.99
  -2  -3   9    0.56    0.64
  -2  -3   9    3.93    1.09
  -2  -3   9    3.47    0.96
   2   3  -9    4.17    2.29
   2   3  -9    2.26    1.09
  -2  -3   9    2.40    1.45
   2   3  -9    2.81    1.60
   2   3  -8   55.26    7.55
   2   3  -8   45.72    4.89
  -2  -3   8   55.87    7.28
  -2  -3   8   58.20    6.44
   2   3  -8   64.45    6.35
   2   3  -8   49.10    5.89
  -2  -3   8   52.86    3.94
   2   3  -7    5.36    1.07
   2   3  -7    0.44    0.63
  -2  -3   7    4.95    1.21
   2   3  -7    4.12    1.28
  -2  -3   7    5.36    1.12
  -2  -3   7    4.58    1.73
   2   3  -7    4.09    1.41
   2   3  -6    0.33    0.51
   2   3  -6    0.54    0.72
  -2  -3   6   -0.07    0.64
   2   3  -6    0.85    0.82
  -2  -3   6   -0.42    0.62
  -2  -3   6    0.29    0.39
   2   3  -5  334.66   13.51
  -2  -3   5  350.14   11.36
   2   3  -5  359.47   13.73
   2   3  -5  328.52   15.29
  -2  -3   5  380.98   16.47
  -2  -3   5  360.84   13.31
   2   3  -5  341.55   13.48
   2   3  -4   26.13    3.56
   2   3  -4   24.31    3.49
  -2  -3   4   28.55    2.21
  -2  -3   4   29.67    3.79
   2   3  -4   25.36    3.07
   2   3  -4   25.39    3.71
   2   3  -4   23.07    2.64
  -2  -3   4   25.72    2.95
  -2  -3   4   29.07    3.09
   2   3  -3   12.98    2.95
  -2  -3   3   12.93    1.45
  -2  -3   3   11.58    1.94
  -2  -3   3   10.87    1.90
   2   3  -3   10.70    2.01
   2   3  -3   13.93    2.11
   2   3  -3   11.97    2.43
  -2  -3   3   14.66    2.55
   2   3  -3    9.91    2.24
  -2  -3   2   15.55    1.69
   2   3  -2   13.56    2.44
  -2  -3   2   15.32    2.40
   2   3  -2   15.58    2.57
  -2  -3   2   14.06    2.20
  -2  -3   2   16.20    2.35
   2   3  -1   10.22    2.20
   2   3  -1    6.49    1.94
  -2  -3   1    7.66    1.62
  -2  -3   1    6.82    1.58
   2   3  -1    9.02    1.90
  -2  -3   1    6.44    1.62
   2   3   0   17.78    2.98
   2   3   0   13.15    2.47
   2   3   0   14.22    2.15
   2   3   0   15.40    2.76
  -2  -3   0   15.59    2.21
  -2  -3   0   15.08    2.24
   2   3   0    9.54    2.20
   2   3   1   18.90    3.75
   2   3   1   12.22    2.51
  -2  -3  -1   16.56    1.60
   2   3   1   17.11    2.93
   2   3   1   12.37    2.63
  -2  -3  -1   16.69    2.30
   2   3   1   17.25    2.29
   2   3   1   18.38    3.05
  -2  -3  -1   20.42    2.57
   2   3   2    4.01    1.51
   2   3   2    3.04    1.41
   2   3   2    7.66    2.40
  -2  -3  -2    3.07    0.74
   2   3   2    3.40    1.00
  -2  -3  -2    4.05    1.06
   2   3   3    6.67    2.19
   2   3   3    3.18    1.10
   2   3   3    5.05    1.65
  -2  -3  -3    7.52    2.24
  -2  -3  -3    6.53    1.44
  -2  -3  -3    6.85    1.14
   2   3   3    7.36    1.34
   2   3   4  112.63    8.08
  -2  -3  -4   99.78    5.68
  -2  -3  -4   96.77    5.03
  -2  -3  -4   99.92    7.92
   2   3   4   95.39    5.03
   2   3   4  101.23    9.26
  -2  -3  -5    0.25    0.71
   2   3   5    1.53    1.17
  -2  -3  -5    0.33    0.43
  -2  -3  -5   -0.04    0.37
  -2  -3  -5    0.62    0.45
   2   3   5    1.20    0.53
   2   3   5    1.20    1.26
   2   3   6  104.05    8.24
   2   3   6   95.27    9.21
  -2  -3  -6   99.51    7.82
  -2  -3  -6   99.49    5.47
  -2  -3  -6  101.59    5.82
   2   3   6   89.51    4.57
  -2  -3  -6   92.95    9.53
   2   3   6   85.28   11.47
   2   3   7   36.01    4.90
  -2  -3  -7   38.59    4.91
  -2  -3  -7   46.95    6.94
  -2  -3  -7   38.66    3.68
   2   3   7   45.18    6.31
   2   3   7   50.71    8.76
   2   3   7   35.87    2.60
  -2  -3  -7   39.13    3.16
   2   3   8    0.08    0.25
   2   3   8    1.36    0.80
  -2  -3  -8    0.47    0.54
  -2  -3  -8    0.54    0.46
  -2  -3  -8    0.14    0.43
   2   3   8    0.77    1.30
  -2  -3  -9   -0.41    0.73
   2   3   9    0.72    0.68
  -2  -3  -9    0.82    0.66
   2   3   9    0.83    0.50
   2   3   9    2.08    1.70
   2   3   9    0.33    1.47
   2   3  10   25.05    4.80
  -2  -3 -10   23.18    3.40
   2   3  10   27.23    2.13
   2   3  10   20.34    4.87
   2   3  10   22.31    1.80
   2   3  10   28.80    2.64
  -2  -3 -10   27.54    2.57
  -2  -3 -11    0.67    0.53
   2   3  11    0.49    0.30
  -2  -3 -11   -1.28    0.85
   2   3  11   -0.26    0.89
   2   3  12    6.33    2.54
  -2  -3 -12   13.95    2.91
   2   3  12   15.03    4.18
  -2  -3 -13    1.97    1.54
   2   3  13    0.89    1.55
   2   3  13   -0.05    1.08
  -2  -3 -14    8.32    2.58
   2   3  14    1.63    1.20
   2   3  14    5.04    2.27
  -2  -3 -15    3.43    1.68
   2   3  15   -0.72    1.58
   2   3  15   -3.15    2.61
   2   3  16    9.75    3.26
  -2  -4  19    2.60    1.96
  -2  -4  18    0.19    1.60
   2   4 -18    4.85    2.69
   2   4 -17    0.42    1.21
   2   4 -17    4.68    3.34
  -2  -4  17    2.59    2.60
   2   4 -16    2.42    1.14
  -2  -4  16    6.46    2.95
   2   4 -15   -0.30    1.91
   2   4 -15    0.16    1.20
  -2  -4  15    0.85    1.73
  -2  -4  14   12.41    1.95
   2   4 -14   15.16    3.51
  -2  -4  14   19.56    4.38
   2   4 -14   10.98    4.45
   2   4 -13    2.56    2.61
  -2  -4  13    1.40    0.75
   2   4 -13    1.69    1.35
   2   4 -13    2.40    1.29
   2   4 -13    2.11    0.80
  -2  -4  13   -0.58    1.28
   2   4 -12    2.51    2.17
  -2  -4  12    1.37    0.78
   2   4 -12    3.98    1.79
   2   4 -12    3.82    1.30
   2   4 -12    2.73    1.56
  -2  -4  12    3.17    2.10
   2   4 -12    5.53    2.57
   2   4 -11    5.08    1.39
  -2  -4  11    2.43    0.88
   2   4 -11    2.97    1.36
   2   4 -11    2.82    2.43
  -2  -4  11    4.49    1.52
  -2  -4  11    2.82    1.58
   2   4 -11    6.69    2.64
  -2  -4  10   44.46    3.80
   2   4 -10   50.47    5.59
  -2  -4  10   49.30    4.20
   2   4 -10   42.30    7.67
  -2  -4  10   39.96    5.91
   2   4 -10   49.36    6.47
  -2  -4   9    8.94    1.64
   2   4  -9    8.60    3.34
  -2  -4   9    9.70    1.68
   2   4  -9   11.93    2.63
  -2  -4   9    9.52    2.82
   2   4  -9   12.41    3.06
   2   4  -8   22.98    3.88
   2   4  -8   23.11    5.22
   2   4  -8   19.84    3.20
   2   4  -8   25.96    4.06
   2   4  -8   19.73    1.54
  -2  -4   8   21.79    4.00
  -2  -4   8   20.80    2.59
   2   4  -8   21.36    4.14
   2   4  -7   21.82    2.45
   2   4  -7   19.80    3.55
   2   4  -7   14.12    3.16
   2   4  -7   19.08    3.44
  -2  -4   7   18.62    2.02
   2   4  -7   23.15    5.06
   2   4  -7   20.16    2.97
   2   4  -7   23.02    4.17
   2   4  -7   20.17    3.37
  -2  -4   7   15.66    3.52
  -2  -4   7   20.44    2.60
   2   4  -6   38.22    3.88
   2   4  -6   34.64    6.11
  -2  -4   6   38.57    2.72
   2   4  -6   40.04    5.35
  -2  -4   6   40.80    5.10
   2   4  -6   37.94    4.70
   2   4  -6   29.21    4.41
   2   4  -6   32.62    3.90
   2   4  -6   33.05    4.53
  -2  -4   6   35.68    3.51
   2   4  -6   37.22    3.63
   2   4  -5   18.50    3.42
   2   4  -5   16.10    2.25
   2   4  -5   13.18    3.54
  -2  -4   5   20.01    1.75
   2   4  -5   19.63    2.77
   2   4  -5   23.93    3.73
  -2  -4   5   21.66    3.55
   2   4  -5   20.39    3.70
   2   4  -5   19.86    2.86
  -2  -4   5   20.06    3.05
  -2  -4   5   23.26    2.84
  -2  -4   4  695.69   20.28
   2   4  -4  634.25   19.93
  -2  -4   4  693.86   11.57
   2   4  -4  670.84   18.23
  -2  -4   4  635.47   18.58
   2   4  -4  652.97   20.73
   2   4  -4  630.33   17.70
  -2  -4   4  689.05   16.87
   2   4  -3  205.76   11.47
  -2  -4   3  215.72    6.58
  -2  -4   3  227.20   11.58
   2   4  -3  204.05   11.72
   2   4  -3  224.70   11.16
  -2  -4   3  205.34   10.88
  -2  -4   3  210.63    9.83
  -2  -4   2    0.15    0.55
   2   4  -2    0.89    0.74
  -2  -4   2    0.54    0.60
  -2  -4   2    0.47    0.19
  -2  -4   2    0.06    0.44
   2   4  -2    1.44    1.14
  -2  -4   1  402.97   11.67
  -2  -4   1  385.28   10.93
   2   4  -1  438.92   17.07
   2   4  -1  442.63   18.69
   2   4  -1  449.20   17.72
  -2  -4   1  433.02   16.63
  -2  -4   1  449.63   15.59
  -2  -4   1  405.91   17.31
   2   4   0  124.00    8.25
   2   4   0   94.60    7.41
  -2  -4   0   97.78    3.05
  -2  -4   0  108.17    6.87
   2   4   0  102.09    6.71
  -2  -4   0   94.19    7.58
  -2  -4   0  106.69    6.05
   2   4   1  148.01    7.68
  -2  -4  -1  149.33    4.02
  -2  -4  -1  160.93    7.32
   2   4   1  138.28    8.83
  -2  -4  -1  139.42    7.53
   2   4   1  148.39   10.91
   2   4   2   93.50    7.38
  -2  -4  -2   96.36    3.63
  -2  -4  -2  100.88    5.77
   2   4   2   95.36    5.83
   2   4   2  101.86    9.42
   2   4   3  369.07   15.12
  -2  -4  -3  340.97   15.01
  -2  -4  -3  372.56    8.36
   2   4   3  334.73   10.75
   2   4   3  380.55   18.68
  -2  -4  -3  366.31   11.09
   2   4   4  186.54   11.28
  -2  -4  -4  173.04   11.05
  -2  -4  -4  184.59    6.85
   2   4   4  177.41    7.85
   2   4   4  195.55   13.73
  -2  -4  -4  187.21    8.18
   2   4   5   29.16    4.44
  -2  -4  -5   24.87    4.20
  -2  -4  -5   27.89    2.70
   2   4   5   29.85    2.96
  -2  -4  -5   28.64    2.98
   2   4   5   22.85    4.63
   2   4   6  101.41    8.82
  -2  -4  -6   87.44    8.17
  -2  -4  -6   86.36    5.50
  -2  -4  -6   89.32    5.60
   2   4   6   89.32    5.22
   2   4   6  108.82   10.18
   2   4   7   33.62    5.22
  -2  -4  -7   32.76    3.46
   2   4   7   38.41    6.15
  -2  -4  -7   35.34    3.35
   2   4   7   32.58    2.88
   2   4   8   10.91    2.98
   2   4   8   10.23    1.80
  -2  -4  -8   11.04    1.85
  -2  -4  -8    7.65    1.73
   2   4   8    8.02    3.05
   2   4   8    9.63    1.48
   2   4   9    1.12    1.81
  -2  -4  -9    0.07    0.27
   2   4   9   -0.33    0.25
   2   4   9    0.47    0.60
   2   4   9   -2.26    1.63
  -2  -4  -9    0.86    0.85
   2   4  10   12.75    3.67
  -2  -4 -10   23.67    2.68
   2   4  10   19.60    2.42
  -2  -4 -10   21.21    3.50
   2   4  10   16.10    4.11
  -2  -4 -11    0.72    0.49
   2   4  11    0.48    1.19
   2   4  11    0.93    1.71
  -2  -4 -11    0.25    1.11
   2   4  12    8.14    3.22
  -2  -4 -12    9.25    2.63
   2   4  12   11.97    3.75
   2   4  13    4.23    2.64
  -2  -4 -13    5.28    2.37
   2   4  13   -0.37    1.11
   2   4  14    7.28    3.09
   2   4  14    8.17    3.38
  -2  -4 -14    2.81    1.63
   2   4  15    3.10    3.00
   2   4  15    3.70    1.96
  -2  -4 -15    4.14    2.47
   2   5 -18    7.99    3.21
  -2  -5  18    6.54    2.54
   2   5 -17   -0.40    0.96
  -2  -5  17    0.98    1.85
   2   5 -16   22.48    4.90
   2   5 -16   34.78    8.05
  -2  -5  16   32.32    6.03
   2   5 -15    2.72    1.80
  -2  -5  15    5.77    2.55
   2   5 -15    4.47    2.89
  -2  -5  14   11.66    2.11
   2   5 -14   10.55    3.11
   2   5 -14    7.45    3.11
  -2  -5  14   12.73    3.78
   2   5 -13  111.74    9.73
  -2  -5  13  123.80    7.40
  -2  -5  13  119.22   11.44
   2   5 -12   10.00    2.07
  -2  -5  12    9.74    2.13
   2   5 -12    8.84    2.41
   2   5 -12   16.66    5.32
   2   5 -12   10.30    3.38
  -2  -5  12    7.29    2.78
   2   5 -11  166.66   16.57
   2   5 -11  174.09   11.65
  -2  -5  11  180.56    9.84
  -2  -5  11  192.74   14.24
   2   5 -11  220.71   15.39
  -2  -5  11  188.64    9.64
  -2  -5  10  169.41   12.82
   2   5 -10  157.65   10.45
  -2  -5  10  150.52    8.37
   2   5 -10  165.28   12.90
   2   5 -10  156.11   15.54
  -2  -5  10  157.83    8.49
   2   5  -9  164.19   15.18
   2   5  -9  149.41    9.00
  -2  -5   9  137.14   10.63
   2   5  -9  161.64   11.47
   2   5  -9  149.30   10.56
  -2  -5   9  150.96    7.40
   2   5  -8    9.48    2.76
   2   5  -8   10.01    1.46
  -2  -5   8   10.57    1.97
   2   5  -8   11.85    4.20
   2   5  -8   13.55    2.57
  -2  -5   8   11.20    1.72
   2   5  -8    8.38    2.23
  -2  -5   8   11.24    3.14
   2   5  -8   12.02    2.96
   2   5  -7   13.28    3.01
   2   5  -7   13.95    4.12
  -2  -5   7   14.42    2.28
  -2  -5   7   15.73    1.85
   2   5  -7   12.07    2.28
  -2  -5   7   14.01    3.29
   2   5  -7    7.60    2.29
   2   5  -7   14.30    2.25
   2   5  -7   14.64    2.97
  -2  -5   6  212.26   12.37
   2   5  -6  217.93   12.60
   2   5  -6  216.12   13.02
   2   5  -6  197.13   16.00
   2   5  -6  201.22    9.68
   2   5  -6  205.06   10.25
   2   5  -6  228.92   13.96
  -2  -5   6  207.31   12.94
   2   5  -6  202.33   11.41
  -2  -5   6  224.45   10.30
  -2  -5   6  212.37    7.78
   2   5  -5  208.51   12.44
  -2  -5   5  223.05    7.45
   2   5  -5  198.28   11.18
   2   5  -5  212.17   12.95
  -2  -5   5  231.53   13.24
   2   5  -5  220.42   11.04
   2   5  -5  217.30   16.13
   2   5  -5  230.39   13.79
  -2  -5   5  209.44   12.18
  -2  -5   5  223.42   10.48
   2   5  -4   55.67    5.80
   2   5  -4   47.62    6.01
  -2  -5   4   51.20    2.45
   2   5  -4   55.98    5.25
  -2  -5   4   57.21    6.01
   2   5  -4   49.81    5.84
   2   5  -4   54.31    6.00
  -2  -5   4   43.98    5.22
   2   5  -4   50.59    5.23
  -2  -5   4   50.84    4.50
   2   5  -3   57.00    5.98
   2   5  -3   63.08    5.88
   2   5  -3   62.62    6.82
  -2  -5   3   60.52    6.07
   2   5  -3   65.40    6.43
   2   5  -3   52.71    5.98
  -2  -5   3   57.59    5.98
  -2  -5   3   63.50    5.09
   2   5  -2  249.05   13.30
   2   5  -2  243.89   14.13
  -2  -5   2  225.01   12.91
   2   5  -2  245.99   13.23
   2   5  -2  267.58   13.29
  -2  -5   2  233.59   12.70
   2   5  -2  244.35   13.61
  -2  -5   2  256.58   11.37
   2   5  -1   26.70    4.18
   2   5  -1   26.36    3.96
  -2  -5   1   19.75    3.70
   2   5  -1   24.19    3.82
  -2  -5   1   26.17    3.81
  -2  -5   1   26.44    3.19
   2   5  -1   16.55    3.29
   2   5   0   56.98    6.11
   2   5   0   70.24    6.65
  -2  -5   0   66.76    6.14
   2   5   0   67.60    6.83
  -2  -5   0   73.88    7.36
  -2  -5   0   65.22    5.20
  -2  -5  -1    1.15    0.31
   2   5   1    0.37    1.13
   2   5   1    1.18    0.90
   2   5   1    1.13    1.11
  -2  -5  -1    1.13    0.77
   2   5   1    0.59    0.50
  -2  -5  -1    1.04    1.17
   2   5   2   40.79    5.43
   2   5   2   48.17    5.62
  -2  -5  -2   49.85    2.86
  -2  -5  -2   55.35    7.09
   2   5   2   49.32    5.90
   2   5   2   53.29    7.47
  -2  -5  -2   49.35    4.39
   2   5   3    2.17    2.19
   2   5   3   -0.32    0.54
  -2  -5  -3   -0.04    0.44
   2   5   3   -0.55    0.71
   2   5   3   -0.14    0.71
  -2  -5  -3   -0.39    0.39
   2   5   3   -0.37    0.75
   2   5   4   44.67    5.86
  -2  -5  -4   46.06    3.43
   2   5   4   43.88    4.10
   2   5   4   46.58    7.13
   2   5   4   41.21    5.27
   2   5   4   44.94    5.78
  -2  -5  -4   47.21    4.19
   2   5   5   -0.45    0.94
   2   5   5    1.15    1.21
  -2  -5  -5    1.16    0.79
  -2  -5  -5    1.34    0.85
   2   5   5    1.87    1.97
   2   5   6   27.61    4.91
  -2  -5  -6   31.87    3.34
   2   5   6   26.26    3.01
  -2  -5  -6   35.39    3.62
   2   5   6   35.74    6.16
   2   5   7   74.67    8.35
  -2  -5  -7   59.46    5.02
   2   5   7   76.82    9.25
  -2  -5  -7   69.32    5.29
   2   5   7   72.46    5.44
   2   5   7   57.23    4.49
   2   5   8  143.28   12.34
  -2  -5  -8  132.09    8.30
   2   5   8  123.88    6.89
   2   5   8  145.33   12.98
   2   5   8  142.66    7.84
  -2  -5  -8  143.71    8.02
   2   5   9    5.40    2.55
  -2  -5  -9    8.09    1.66
   2   5   9    5.86    1.52
   2   5   9    4.96    2.78
  -2  -5  -9    5.46    1.84
  -2  -5 -10   -0.88    0.81
  -2  -5 -10   -0.30    0.65
   2   5  10   -1.55    2.13
   2   5  10    0.85    0.97
   2   5  11   58.34    8.45
  -2  -5 -11   49.51    5.75
   2   5  11   60.55    8.46
   2   5  12   54.49    8.40
   2   5  12   63.46    8.73
  -2  -5 -12   48.34    6.06
   2   5  13   -2.91    2.45
  -2  -5 -13    0.56    1.01
   2   5  13   -1.45    1.76
   2   5  14   12.70    4.11
  -2  -5 -14   12.27    3.44
   2   5  14   11.47    4.09
   2   5  15   14.29    4.97
   2   6 -18   53.10    7.81
   2   6 -17   -0.41    1.44
  -2  -6  17    1.86    1.82
   2   6 -16   -1.85    2.03
   2   6 -16    3.57    3.42
  -2  -6  16    1.37    1.58
   2   6 -15   35.60    5.81
  -2  -6  15   45.70    7.54
   2   6 -15   44.94    9.20
  -2  -6  14    7.05    1.76
   2   6 -14    6.74    2.52
   2   6 -14    3.98    2.89
  -2  -6  13    5.23    1.73
   2   6 -13    6.96    2.44
   2   6 -13    6.78    4.04
  -2  -6  13    7.15    2.69
  -2  -6  12    6.60    1.91
   2   6 -12    8.43    4.21
   2   6 -12    3.99    1.98
  -2  -6  12    5.32    2.40
  -2  -6  11   18.63    2.97
   2   6 -11   21.81    5.95
   2   6 -11   13.72    2.92
  -2  -6  11   13.85    2.53
  -2  -6  11    5.93    2.55
   2   6 -11   18.24    4.42
   2   6 -10    1.82    1.44
  -2  -6  10    3.50    1.41
   2   6 -10    1.15    1.65
   2   6 -10    3.07    1.41
  -2  -6  10    1.88    0.97
  -2  -6  10    0.56    0.65
   2   6 -10   -0.73    2.12
   2   6  -9   31.61    5.15
   2   6  -9   29.86    4.05
   2   6  -9   26.21    6.50
  -2  -6   9   22.68    4.71
  -2  -6   9   26.46    3.50
   2   6  -9   22.51    4.35
   2   6  -8   63.10    9.75
   2   6  -8   69.17    5.88
  -2  -6   8   68.81    4.69
  -2  -6   8   83.51    8.58
   2   6  -8   64.31    7.21
   2   6  -8   69.33    7.83
  -2  -6   8   71.79    5.86
   2   6  -8   77.09    5.20
   2   6  -7    0.64    1.13
   2   6  -7    3.82    2.49
  -2  -6   7    4.03    1.44
  -2  -6   7    3.85    1.00
   2   6  -7    2.43    0.85
   2   6  -7    3.90    1.59
  -2  -6   7    3.34    1.92
   2   6  -7    1.36    0.97
   2   6  -6    0.81    0.81
  -2  -6   6    4.25    1.91
   2   6  -6    2.28    1.69
   2   6  -6    1.40    1.79
  -2  -6   6    4.64    1.45
   2   6  -6    1.47    0.94
  -2  -6   6    3.40    0.85
  -2  -6   6    5.78    2.22
   2   6  -6    2.10    1.31
   2   6  -5   20.03    3.88
   2   6  -5   24.20    4.58
   2   6  -5   16.77    2.95
  -2  -6   5   26.99    4.47
  -2  -6   5   22.42    4.10
  -2  -6   5   25.66    3.34
   2   6  -5   18.61    3.43
   2   6  -4  186.38   13.03
   2   6  -4  182.20   10.87
  -2  -6   4  176.94   12.05
   2   6  -4  197.26   12.97
   2   6  -4  159.02   11.60
  -2  -6   4  184.35   12.24
  -2  -6   4  191.84   10.04
  -2  -6   3   11.29    2.28
  -2  -6   3   17.20    3.51
   2   6  -3   13.44    2.90
   2   6  -3   12.71    3.11
  -2  -6   3    5.39    1.74
   2   6  -3   11.55    2.89
   2   6  -3   11.17    2.88
   2   6  -2   56.76    6.68
   2   6  -2   50.53    5.81
   2   6  -2   53.89    5.88
  -2  -6   2   44.54    5.58
   2   6  -2   42.75    5.66
  -2  -6   2   41.42    5.68
  -2  -6   2   48.96    4.72
   2   6  -1   92.75    8.40
   2   6  -1   85.64    7.52
   2   6  -1   83.87    8.06
  -2  -6   1   94.76    8.77
  -2  -6   1   93.95    6.63
  -2  -6   1   78.23    7.43
   2   6   0   15.30    3.45
  -2  -6   0   15.91    2.64
   2   6   0   16.65    3.22
  -2  -6   0   13.08    3.37
   2   6   0   16.46    3.58
   2   6   1    9.43    2.74
   2   6   1   13.37    3.95
   2   6   1   10.14    2.73
  -2  -6  -1   10.92    2.22
   2   6   1    9.50    2.31
  -2  -6  -1   11.36    3.27
   2   6   2   56.61    6.75
   2   6   2   48.13    5.06
  -2  -6  -2   48.44    3.01
   2   6   2   38.02    5.55
   2   6   2   58.43    8.36
  -2  -6  -2   42.66    6.57
  -2  -6  -2   51.51    4.82
   2   6   3   83.30    8.36
  -2  -6  -3   75.53    4.49
  -2  -6  -3   73.29    8.96
   2   6   3   65.50    5.85
   2   6   3   70.87    7.77
   2   6   3   99.53   10.84
  -2  -6  -3   78.22    6.02
   2   6   4    8.76    3.51
   2   6   4   -0.58    0.48
   2   6   4    3.08    1.59
   2   6   4    4.31    2.26
  -2  -6  -4    8.19    1.87
  -2  -6  -4    6.64    3.03
  -2  -6  -4    5.69    1.34
   2   6   5   84.46    8.97
  -2  -6  -5   77.01    5.44
   2   6   5   88.11   10.28
  -2  -6  -5   85.78    6.35
   2   6   5   63.87    7.63
  -2  -6  -6   -0.23    0.67
   2   6   6   -0.39    1.14
   2   6   6    2.06    1.87
  -2  -6  -6    1.51    1.29
   2   6   6    1.34    1.24
   2   6   7   29.89    5.62
  -2  -6  -7   29.94    3.76
  -2  -6  -7   32.85    3.96
   2   6   7   34.10    6.39
   2   6   8   40.81    6.86
  -2  -6  -8   28.42    3.89
  -2  -6  -8   39.67    4.35
   2   6   8   40.28    6.84
   2   6   9    6.12    2.63
  -2  -6  -9    9.14    2.08
  -2  -6  -9   10.25    2.66
   2   6   9   10.76    3.73
   2   6  10   37.79    6.93
  -2  -6 -10   34.43    4.10
   2   6  10   28.71    5.96
  -2  -6 -10   32.08    4.69
   2   6  11   28.92    6.48
  -2  -6 -11   22.54    4.21
   2   6  11   28.04    5.99
   2   6  12    3.26    2.86
  -2  -6 -12    2.13    1.14
   2   6  12    2.13    2.33
   2   6  13    9.21    3.76
  -2  -6 -13   10.17    3.19
   2   6  13    6.13    2.68
  -2  -6 -14   -0.28    1.69
   2   7 -16   26.62    7.94
  -2  -7  15   -1.86    2.16
   2   7 -15   -0.27    1.36
   2   7 -15   -2.53    3.39
  -2  -7  14    0.47    0.81
   2   7 -14   -1.91    1.43
   2   7 -14   -0.63    2.12
  -2  -7  14   -0.07    1.19
  -2  -7  13    0.68    0.84
   2   7 -13   -0.57    0.92
   2   7 -13   -0.94    1.15
  -2  -7  13   -1.83    2.45
  -2  -7  12   24.79    3.84
   2   7 -12   21.08    6.37
   2   7 -12   22.49    4.02
  -2  -7  12   21.81    5.12
   2   7 -11    7.08    2.80
  -2  -7  11   11.38    2.61
   2   7 -11    9.84    4.64
   2   7 -11   12.60    2.98
  -2  -7  11   11.23    3.83
   2   7 -10   -0.46    1.24
  -2  -7  10    0.03    0.53
   2   7 -10   -0.07    1.04
   2   7 -10    0.71    0.73
  -2  -7  10   -0.09    0.69
  -2  -7  10    2.00    2.15
   2   7 -10   -1.52    1.56
   2   7  -9   20.16    4.64
   2   7  -9   17.68    5.38
   2   7  -9   21.37    3.29
  -2  -7   9   14.76    3.79
  -2  -7   9   24.71    3.69
   2   7  -9   27.38    4.88
   2   7  -8   39.05    6.14
   2   7  -8   53.74    7.52
   2   7  -8   36.24    7.67
   2   7  -8   41.90    4.23
  -2  -7   8   50.41    5.24
   2   7  -8   40.92    5.93
  -2  -7   8   43.50    6.61
   2   7  -7    1.15    1.85
   2   7  -7    0.30    0.74
   2   7  -7   -1.18    2.00
  -2  -7   7   -0.24    0.39
   2   7  -7    2.05    1.86
  -2  -7   7   -0.28    1.32
  -2  -7   7    2.42    1.74
   2   7  -7   -1.49    1.22
   2   7  -6   41.67    6.27
   2   7  -6   45.54    6.02
   2   7  -6   35.05    6.96
  -2  -7   6   38.59    5.93
   2   7  -6   45.84    6.46
  -2  -7   6   33.34    5.38
  -2  -7   6   49.61    5.10
   2   7  -6   40.90    4.92
   2   7  -5 1349.38   45.99
  -2  -7   5 1310.41   39.19
   2   7  -5 1281.03   40.90
  -2  -7   5 1177.97   43.38
  -2  -7   5 1248.89   44.37
   2   7  -5 1167.67   43.22
   2   7  -5 1256.93   43.90
   2   7  -4  233.78   15.21
   2   7  -4  213.22   12.75
  -2  -7   4  223.12   14.61
   2   7  -4  196.30   13.66
  -2  -7   4  191.75   13.70
  -2  -7   4  221.58   11.59
   2   7  -3    1.17    1.85
  -2  -7   3    1.74    1.33
  -2  -7   3    1.72    1.43
   2   7  -3    0.89    0.61
   2   7  -3    0.71    0.97
  -2  -7   3    1.92    1.89
   2   7  -2  175.02   12.87
   2   7  -2  196.75   12.50
   2   7  -2  160.31   12.29
  -2  -7   2  175.12   12.49
  -2  -7   2  157.53   12.68
  -2  -7   2  210.79   11.03
   2   7  -1   25.68    4.66
  -2  -7   1   31.02    4.06
  -2  -7   1   32.70    5.59
   2   7  -1   25.53    4.75
   2   7   0   44.52    6.22
   2   7   0   51.26    6.05
  -2  -7   0   36.72    6.11
   2   7   0   47.15    6.47
  -2  -7   0   45.99    4.89
   2   7   1   47.80    6.65
   2   7   1   53.06    8.09
   2   7   1   44.12    5.39
   2   7   1   50.23    6.82
  -2  -7  -1   49.30    5.06
  -2  -7  -1   39.13    6.44
   2   7   2    2.02    1.66
   2   7   2    2.82    3.35
   2   7   2   -0.55    0.83
  -2  -7  -2    2.18    1.32
  -2  -7  -2    1.01    1.37
   2   7   2    0.47    0.67
   2   7   3   89.72    9.39
  -2  -7  -3   94.73    7.13
  -2  -7  -3   80.16    4.60
   2   7   3   96.98    9.72
   2   7   3  113.49   12.54
   2   7   3   88.99    7.48
  -2  -7  -3   83.77   10.22
   2   7   4    0.37    1.93
   2   7   4   -1.28    1.24
  -2  -7  -4    2.53    1.26
  -2  -7  -4    1.00    0.34
   2   7   4    1.58    1.71
   2   7   4    0.77    0.71
  -2  -7  -4    1.80    2.25
   2   7   5    1.84    1.65
   2   7   5    3.16    2.18
  -2  -7  -5    3.68    1.46
  -2  -7  -5    0.59    0.56
   2   7   5    0.66    0.48
  -2  -7  -5    2.01    2.35
   2   7   5    2.01    1.84
   2   7   6   -1.54    1.61
   2   7   6   -0.55    1.44
  -2  -7  -6    0.67    1.10
  -2  -7  -6   -0.52    0.70
  -2  -7  -6    0.37    1.47
   2   7   6    0.02    1.24
   2   7   7    4.71    2.64
  -2  -7  -7    1.93    1.18
  -2  -7  -7    1.36    0.87
   2   7   7    3.16    2.11
   2   7   8   20.25    4.82
  -2  -7  -8   19.21    3.25
  -2  -7  -8   19.69    3.37
   2   7   8   16.14    4.36
   2   7   9    6.17    3.30
  -2  -7  -9    4.84    1.77
  -2  -7  -9    0.36    1.08
   2   7   9    5.19    2.64
   2   7  10    1.50    1.18
  -2  -7 -10   -1.26    1.10
   2   7  10    3.22    1.88
   2   7  11    2.40    1.85
   2   7  11    2.98    1.99
   2   7  12    7.36    3.75
  -2  -8  14   22.09    3.85
  -2  -8  14   27.91    6.29
   2   8 -14   22.72    6.86
   2   8 -13   39.80    6.95
   2   8 -13   34.93    8.77
  -2  -8  13   30.30    6.50
  -2  -8  13   33.30    4.85
   2   8 -12   28.47    5.78
  -2  -8  12   33.41    4.74
   2   8 -12   41.70    9.22
  -2  -8  12   32.17    6.33
   2   8 -12   32.96    6.27
   2   8 -11    1.05    1.83
  -2  -8  11    0.50    1.29
   2   8 -11   -0.89    2.14
   2   8 -11    0.23    1.18
  -2  -8  11    3.55    1.95
   2   8 -10  154.94   13.73
   2   8 -10  125.71   15.64
  -2  -8  10  122.45   12.47
  -2  -8  10  137.24    9.92
   2   8 -10  118.08   11.77
   2   8  -9   38.20    6.31
   2   8  -9   33.09    6.31
   2   8  -9   25.86    7.06
  -2  -8   9   46.88    7.31
  -2  -8   9   40.64    5.13
   2   8  -8    4.26    2.13
   2   8  -8    5.85    2.83
  -2  -8   8    8.87    2.58
   2   8  -8    6.41    3.31
  -2  -8   8    4.64    2.78
   2   8  -7    8.69    3.06
   2   8  -7    7.73    2.62
  -2  -8   7    8.44    2.33
   2   8  -7    6.58    3.36
  -2  -8   7    7.69    3.05
  -2  -8   7    7.94    2.82
   2   8  -7    8.62    2.95
   2   8  -6  111.54   10.95
   2   8  -6   86.07    7.61
   2   8  -6  111.97   13.43
  -2  -8   6   96.18   10.24
  -2  -8   6   96.24    9.85
   2   8  -6   95.42   10.06
   2   8  -6   95.57    9.59
  -2  -8   6  110.32    8.43
   2   8  -5  107.84    8.80
   2   8  -5   89.11    9.66
  -2  -8   5   92.28    9.65
  -2  -8   5   85.09    9.44
  -2  -8   5  115.42    8.67
   2   8  -5  105.53   10.42
   2   8  -4   13.96    4.02
  -2  -8   4    8.70    2.41
  -2  -8   4   13.87    3.51
   2   8  -4   10.87    2.88
  -2  -8   4    8.86    3.08
   2   8  -4    9.54    3.13
   2   8  -3   59.93    7.53
   2   8  -3   46.04    6.69
  -2  -8   3   56.86    5.92
  -2  -8   3   40.92    6.63
  -2  -8   3   53.04    7.00
   2   8  -2   60.71    7.61
  -2  -8   2   42.35    6.76
   2   8  -2   53.58    7.31
  -2  -8   2   53.12    5.74
   2   8  -1   10.59    3.23
  -2  -8   1   15.38    3.11
  -2  -8   1    8.25    2.90
   2   8  -1    8.82    3.02
   2   8   0  136.73   11.80
  -2  -8   0  150.57    9.93
   2   8   0  123.89   11.55
  -2  -8   0  117.64   11.80
   2   8   1    2.42    1.83
   2   8   1   -0.39    1.72
   2   8   1    2.36    1.52
  -2  -8  -1    0.31    0.94
  -2  -8  -1   -0.27    0.93
   2   8   2    5.27    2.23
   2   8   2    1.87    1.60
   2   8   2    1.84    1.65
  -2  -8  -2    5.80    1.98
  -2  -8  -2    2.44    2.37
   2   8   3   16.32    5.08
   2   8   3   25.08    5.22
   2   8   3   25.77    5.20
  -2  -8  -3   23.79    3.84
  -2  -8  -3   25.18    5.67
   2   8   4    5.97    2.91
  -2  -8  -4    8.17    2.38
  -2  -8  -4    7.29    2.81
   2   8   4    9.74    4.11
   2   8   4    6.20    2.44
   2   8   5    0.19    1.12
   2   8   5    1.67    1.01
  -2  -8  -5    3.09    1.51
  -2  -8  -5    3.42    2.34
   2   8   5    4.01    2.89
   2   8   6   26.84    5.54
   2   8   6   30.02    5.98
  -2  -8  -6   29.13    4.27
  -2  -8  -6   24.52    6.27
   2   8   6   37.20    7.01
   2   8   7   29.96    6.25
  -2  -8  -7   19.50    3.43
  -2  -8  -7   25.02    6.55
   2   8   7   31.42    6.42
   2   8   8    5.35    3.44
  -2  -8  -8    5.75    2.03
   2   8   8    3.92    2.74
  -2  -8  -8    5.11    3.89
   2   8   9   12.39    4.33
  -2  -8  -9   10.19    2.62
   2   8   9   13.78    4.40
  -2  -8  -9   19.32    6.50
   2   8  10    9.02    3.30
  -2  -9  14    3.71    2.01
  -2  -9  13    8.90    2.66
   2   9 -12   18.62    4.99
  -2  -9  12   20.78    4.02
   2   9 -12   19.48    6.12
   2   9 -12   22.27    5.21
  -2  -9  12   21.87    5.79
   2   9 -11   10.95    3.80
  -2  -9  11    8.28    2.57
   2   9 -11   11.76    3.27
   2   9 -11    7.95    4.18
  -2  -9  11    9.44    3.66
  -2  -9  10    5.29    2.37
  -2  -9  10    6.57    2.26
   2   9 -10    1.38    1.16
   2   9 -10    6.95    4.15
   2   9 -10    2.34    1.38
   2   9  -9   14.64    4.09
  -2  -9   9   30.29    4.75
   2   9  -9   28.84    5.68
   2   9  -9   22.42    6.59
  -2  -9   9   19.91    5.20
   2   9  -8    8.46    3.30
  -2  -9   8    8.03    3.17
   2   9  -8    9.02    4.41
  -2  -9   8    4.11    2.00
   2   9  -8    8.20    3.18
   2   9  -7   -0.08    0.91
   2   9  -7    1.34    1.78
  -2  -9   7    1.25    1.37
   2   9  -7    1.46    2.88
  -2  -9   7    0.68    1.95
  -2  -9   7    3.34    1.99
   2   9  -6   52.09    9.59
   2   9  -6   65.00    8.34
  -2  -9   6   59.53    8.24
   2   9  -6   64.53    8.48
  -2  -9   6   70.59    7.36
  -2  -9   6   52.47    7.49
   2   9  -5   19.78    4.87
   2   9  -5   22.05    4.82
  -2  -9   5   22.67    4.12
  -2  -9   5   20.01    4.71
  -2  -9   5   12.05    3.76
   2   9  -4   17.57    4.31
  -2  -9   4   19.86    3.80
  -2  -9   4   14.71    3.96
   2   9  -4   17.37    4.26
  -2  -9   4   15.54    4.13
   2   9  -3    6.07    2.71
  -2  -9   3    1.98    1.58
  -2  -9   3    5.36    2.32
   2   9  -3    2.76    1.78
   2   9  -2   18.39    4.38
  -2  -9   2   18.56    3.61
  -2  -9   2   19.66    4.79
   2   9  -2   12.54    3.91
   2   9  -1   15.90    4.23
   2   9  -1   22.13    4.77
  -2  -9   1   19.96    3.81
  -2  -9   1   13.44    4.27
   2   9   0   20.52    4.82
   2   9   0   25.33    6.25
  -2  -9   0   30.24    4.63
   2   9   0   27.61    5.68
  -2  -9   0   22.62    5.40
   2   9   1  102.54   10.89
  -2  -9  -1  120.15    9.58
   2   9   1  117.28   13.64
  -2  -9  -1   91.84   11.18
   2   9   1   98.37   10.93
   2   9   2   -0.21    1.35
   2   9   2   -2.07    1.15
   2   9   2   -0.34    0.87
  -2  -9  -2    1.53    1.29
  -2  -9  -2    2.59    2.32
   2   9   3   14.34    5.02
   2   9   3    9.58    3.02
   2   9   3   19.82    4.86
  -2  -9  -3   15.27    3.34
  -2  -9  -3    5.61    2.84
   2   9   4    0.31    2.64
   2   9   4   -0.25    1.25
   2   9   4    1.20    1.47
  -2  -9  -4    3.09    1.56
  -2  -9  -4    2.60    2.38
   2   9   5   35.26    6.72
   2   9   5   41.96    7.33
  -2  -9  -5   40.75    5.42
  -2  -9  -5   44.70    8.51
   2   9   5   39.17    7.56
   2   9   6   30.81    6.52
  -2  -9  -6   37.42    5.36
   2   9   6   36.41    6.74
  -2  -9  -6   26.59    6.96
   2   9   6   46.26    8.38
  -2  -9  -7    5.96    2.23
  -2  -9  -7    2.45    2.10
   2   9   7    1.17    1.63
  -2  -9  -8   26.01    4.39
  -2 -10  13   45.25    6.42
   2  10 -12   -0.34    1.18
  -2 -10  12   -0.15    1.24
   2  10 -11   -0.46    1.70
  -2 -10  11    0.44    1.31
   2  10 -11    2.54    2.12
   2  10 -10    7.88    3.32
  -2 -10  10    4.10    2.06
   2  10 -10   12.65    4.61
   2  10 -10   10.98    5.48
  -2 -10  10    6.05    2.74
   2  10  -9   -2.14    1.40
   2  10  -9    0.88    1.24
   2  10  -9   -0.06    3.50
  -2 -10   9    2.20    2.40
  -2 -10   9    0.22    1.45
   2  10  -8    7.64    3.13
   2  10  -8   16.86    4.98
   2  10  -8    6.54    3.87
  -2 -10   8    8.77    3.36
  -2 -10   8    8.95    2.77
   2  10  -7  166.44   14.20
   2  10  -7  144.93   13.84
   2  10  -7  160.53   17.73
  -2 -10   7  130.05   13.30
  -2 -10   7  125.89   12.58
  -2 -10   7  157.01   11.90
   2  10  -6  386.67   22.52
   2  10  -6  333.17   26.46
  -2 -10   6  326.29   21.10
   2  10  -6  320.81   21.32
  -2 -10   6  389.80   19.54
  -2 -10   6  308.69   20.96
   2  10  -5   27.46    5.86
   2  10  -5   23.84    5.49
  -2 -10   5   24.23    4.57
  -2 -10   5   17.32    4.53
   2  10  -4   30.70    6.14
   2  10  -4   28.55    5.87
  -2 -10   4   34.64    5.61
  -2 -10   4   29.48    6.09
   2  10  -3   -0.55    1.94
   2  10  -3    0.34    1.81
  -2 -10   3    2.79    1.73
  -2 -10   3    1.38    2.00
   2  10  -2    9.14    3.20
   2  10  -2   17.13    4.43
  -2 -10   2   15.43    3.60
  -2 -10   2   12.25    3.99
   2  10  -1   25.09    5.66
   2  10  -1   23.46    5.09
  -2 -10   1   26.08    4.69
  -2 -10   1   23.22    5.46
   2  10   0   12.89    4.32
   2  10   0   37.16    7.71
  -2 -10   0   24.89    4.46
   2  10   0   23.63    5.18
  -2 -10   0   30.22    6.57
   2  10   1   25.09    5.80
   2  10   1   24.18    6.54
   2  10   1   28.53    5.97
  -2 -10  -1   30.50    4.98
  -2 -10  -1   23.12    5.76
   2  10   2   27.11    7.19
   2  10   2   31.01    6.26
  -2 -10  -2   30.86    5.08
  -2 -10  -2   24.71    6.01
   2  10   2   36.09    6.83
   2  10   3    6.09    2.88
   2  10   3    6.39    2.69
  -2 -10  -3    9.38    3.14
   2  10   3    4.66    2.60
  -2 -10  -3   -1.11    2.94
   2  10   4    4.73    4.21
   2  10   4   -2.45    3.03
  -2 -10  -4    0.70    1.31
  -2 -10  -4   -0.22    1.72
   2  10   5   -0.17    2.53
  -2 -10  -5    3.67    1.99
  -2 -10  -5    2.87    2.52
   2  10   5    0.96    1.82
   2  10   6    4.90    3.32
  -2 -10  -6    3.26    1.95
  -2 -10  -7   29.66    5.02
   2  11 -10   47.21    7.63
   2  11  -9   18.88    5.27
   2  11  -8   25.22    5.93
   2  11  -7   47.09    8.18
  -2 -11   7   45.02    7.49
   2  11  -6  140.07   13.97
  -2 -11   6  133.10   13.48
   2  11  -5   13.53    4.31
   2  11  -5   13.49    5.30
  -2 -11   5    8.98    3.92
   2  11  -4   84.87   10.50
   2  11  -4   69.92   10.09
  -2 -11   4   74.46   10.33
   2  11  -3   33.01    6.87
   2  11  -3   51.02    8.23
  -2 -11   3   32.31    7.12
   2  11  -2    4.32    2.75
   2  11  -2    4.71    2.58
  -2 -11   2    4.16    2.83
   2  11  -1   94.55   11.22
   2  11  -1   89.57   12.78
  -2 -11   1   91.83   12.14
   2  11   0   24.51    7.06
  -2 -11   0    9.79    4.29
   2  11   1    8.45    4.27
  -2 -11  -1    9.24    4.29
  -2 -11  -2    2.56    1.91
  -2 -11  -3   17.21    5.26
  -2 -12   4    4.55    2.96
  -2 -12   3   -1.74    2.43
  -2 -12   2   -1.40    1.82
  -2 -12   1   11.07    4.78
  -2 -12   0   57.73    9.82
  -3  13   2    5.35    2.50
  -3  13   1   16.33    4.77
  -3  13   1   11.14    4.78
  -3  13   0    8.08    4.37
  -3  13   0    4.79    2.50
  -3  13  -1    7.69    2.77
  -3  13  -1   11.79    4.56
  -3  13  -2   17.25    4.27
  -3  13  -2   18.09    5.47
  -3  13  -3   14.81    3.74
  -3  13  -3   15.79    5.02
  -3  13  -5    2.24    2.61
  -3  13  -6   28.92    7.97
  -3  13  -7   14.55    5.07
  -3  13  -8    1.50    3.96
  -3  13  -9    4.24    3.25
  -3  12   4   27.25    6.53
  -3  12   3   31.53    6.62
   3 -12  -3   19.56    5.77
  -3  12   2   -6.05    2.82
  -3  12   2    0.76    2.53
   3 -12  -2    3.95    3.69
  -3  12   1    5.85    2.52
  -3  12   1    8.64    4.23
   3 -12  -1    8.41    4.04
  -3  12   0   28.73    6.64
  -3  12   0   24.34    5.42
   3 -12   0   25.56    7.10
  -3  12  -1   24.78    5.01
   3 -12   1   20.54    6.63
  -3  12  -1   25.85    6.55
  -3  12  -2    1.96    1.47
  -3  12  -2    2.63    1.89
   3 -12   2    2.94    2.26
  -3  12  -3    7.19    2.57
   3 -12   3    3.60    2.26
  -3  12  -4   13.01    3.11
   3 -12   4   21.85    6.36
  -3  12  -4   27.07    6.72
  -3  12  -5    0.23    1.86
  -3  12  -5   -2.55    2.56
   3 -12   5   -3.04    2.53
  -3  12  -6   29.49    7.39
   3 -12   6   25.74    6.82
  -3  12  -7   12.59    4.66
   3 -12   7   14.91    5.39
  -3  12  -8   17.70    5.86
  -3  12  -9    6.08    3.65
  -3  12 -10   29.00    7.35
  -3  12 -11    8.08    4.09
  -3  11   7    7.24    3.13
  -3  11   6   72.55   10.67
   3 -11  -6   48.26    9.46
  -3  11   5    7.89    2.84
   3 -11  -5    6.13    3.05
  -3  11   4   -0.43    2.50
   3 -11  -4    5.20    3.10
  -3  11   3   56.75    8.40
   3 -11  -3   53.66    9.79
  -3  11   2   62.87    8.55
   3 -11  -2   38.39    8.47
  -3  11   1    3.39    1.38
   3 -11  -1    8.02    3.70
  -3  11   1    8.20    3.52
  -3  11   0   46.04    6.75
  -3  11   0   70.74    9.94
   3 -11   0   66.43   11.00
  -3  11  -1   35.38    7.14
  -3  11  -1   31.50    5.18
   3 -11   1   38.27    8.40
  -3  11  -2   20.30    4.07
  -3  11  -2   26.53    6.16
   3 -11   2   23.70    6.54
  -3  11  -3    8.46    2.51
  -3  11  -3   11.43    3.96
   3 -11   3    7.65    4.22
  -3  11  -4   22.23    3.84
  -3  11  -4   40.82    7.61
  -3  11  -5    2.38    0.60
  -3  11  -5    2.83    2.12
  -3  11  -6    0.39    0.58
  -3  11  -6    1.87    2.32
   3 -11   6   -0.49    1.12
  -3  11  -6    3.32    1.50
  -3  11  -7   38.17    7.96
   3 -11   7   26.90    7.22
  -3  11  -8   37.97    7.90
  -3  11  -9   -1.45    1.75
  -3  11 -10    6.96    4.75
  -3  11 -11    2.84    2.74
  -3  11 -12   11.25    4.53
  -3  11 -13    5.61    3.31
  -3  10   9   31.45    7.84
   3 -10  -9   16.87    5.65
  -3  10   8   31.64    7.14
   3 -10  -8   34.55    7.96
  -3  10   7   11.77    4.72
   3 -10  -7    7.88    3.85
  -3  10   6   32.36    6.83
   3 -10  -6   24.35    6.40
  -3  10   5    1.18    1.62
   3 -10  -5    0.72    1.37
  -3  10   4    1.30    2.09
   3 -10  -4    1.47    2.55
  -3  10   3   -0.58    0.88
   3 -10  -3    1.05    2.00
  -3  10   2   10.10    3.14
   3 -10  -2    8.37    4.02
  -3  10   1   10.95    3.74
  -3  10   1   14.52    3.83
   3 -10  -1   11.51    4.53
  -3  10   0    1.39    1.34
   3 -10   0   -0.91    1.76
  -3  10   0    1.22    1.32
  -3  10  -1   19.03    3.86
  -3  10  -1   20.35    5.29
   3 -10   1   27.86    6.63
  -3  10  -2   15.17    3.36
   3 -10   2   16.56    4.98
  -3  10  -2   22.02    5.27
  -3  10  -3    2.22    1.15
  -3  10  -3    3.14    1.95
  -3  10  -3    3.61    1.30
   3 -10   3    2.40    1.79
  -3  10  -4    2.89    1.32
  -3  10  -4    3.16    1.15
  -3  10  -4    3.02    1.33
   3 -10   4    1.53    1.96
  -3  10  -4    0.68    1.54
  -3  10  -5   15.17    2.86
   3 -10   5   16.90    5.41
  -3  10  -5   18.36    2.73
  -3  10  -5   15.92    4.30
  -3  10  -5   18.94    5.09
  -3  10  -6   69.94    9.77
  -3  10  -6   62.84    5.13
  -3  10  -6   70.75    8.80
   3 -10   6   61.95   10.15
  -3  10  -6   48.47    4.87
  -3  10  -7    0.12    0.37
  -3  10  -7    1.86    2.14
  -3  10  -7    0.87    0.94
  -3  10  -7   -0.10    0.34
  -3  10  -8   19.99    5.44
  -3  10  -8   20.03    2.91
  -3  10  -8   15.16    3.56
  -3  10  -9    8.16    1.78
  -3  10  -9   10.30    4.03
  -3  10 -10    3.05    1.15
  -3  10 -10    3.17    2.50
  -3  10 -11    8.88    2.03
  -3  10 -11    6.19    3.61
  -3  10 -12    9.37    4.33
  -3  10 -12   14.97    2.85
  -3  10 -13   60.53    5.87
  -3  10 -13   59.44    9.99
  -3  10 -14   14.59    4.85
   3  -9 -11   -2.46    2.64
  -3   9  10    9.74    4.21
   3  -9 -10   13.82    4.93
  -3   9   9    1.74    1.30
   3  -9  -9   -0.86    0.95
  -3   9   8   26.61    6.38
   3  -9  -8   23.16    6.41
  -3   9   7   77.90   10.68
   3  -9  -7   70.13   10.64
  -3   9   6    0.94    1.31
   3  -9  -6   -0.54    1.75
  -3   9   5   15.04    4.33
  -3   9   5   10.48    2.04
   3  -9  -5    9.29    3.95
  -3   9   4   43.76    7.08
  -3   9   4   47.26    4.45
   3  -9  -4   41.89    8.09
  -3   9   3   13.88    4.09
  -3   9   3   17.88    2.86
   3  -9  -3   20.10    3.48
   3  -9  -3   20.48    5.51
  -3   9   2   39.10    4.35
  -3   9   2   38.52    6.03
   3  -9  -2   45.40    5.17
   3  -9  -2   33.29    7.21
  -3   9   1    9.09    1.63
  -3   9   1    8.53    2.67
  -3   9   1    6.42    1.83
  -3   9   1    9.51    1.28
  -3   9   1   10.27    3.23
   3  -9  -1   13.48    2.95
   3  -9  -1   12.68    4.43
   3  -9   0   78.77   10.89
  -3   9   0   80.77    6.84
  -3   9   0   64.72    4.19
  -3   9   0   82.70    9.58
   3  -9   0   91.83    7.53
  -3   9   0   68.10    7.41
  -3   9  -1    1.34    1.24
  -3   9  -1    0.12    1.47
   3  -9   1    1.08    1.13
  -3   9  -1    1.39    0.63
   3  -9   1    1.45    1.64
   3  -9   1    1.21    0.94
  -3   9  -2    1.00    0.96
   3  -9   2    0.10    1.03
  -3   9  -2   -1.02    0.72
  -3   9  -2    0.57    0.68
   3  -9   2    2.45    3.07
   3  -9   2    2.00    1.38
   3  -9   3   54.20    5.86
  -3   9  -3   49.69    4.79
   3  -9   3   61.47    9.50
  -3   9  -3   68.65    8.57
  -3   9  -3   51.26    5.51
  -3   9  -4    2.74    1.14
  -3   9  -4    4.82    1.68
  -3   9  -4    6.24    2.96
   3  -9   4    1.96    1.08
   3  -9   4    7.42    2.15
  -3   9  -5   29.48    5.91
  -3   9  -5   33.87    4.02
  -3   9  -5   31.30    5.81
   3  -9   5   26.06    6.15
  -3   9  -5   29.80    4.20
   3  -9   5   45.96    5.35
  -3   9  -5   29.90    3.69
  -3   9  -6    0.89    0.74
  -3   9  -6   -0.33    1.03
  -3   9  -6   -0.64    1.30
   3  -9   6    2.15    2.27
  -3   9  -6    0.15    0.65
  -3   9  -6   -0.41    1.38
  -3   9  -7   30.58    6.26
  -3   9  -7   26.98    3.49
  -3   9  -7   29.83    5.02
  -3   9  -7   24.12    2.81
  -3   9  -8    4.66    1.56
  -3   9  -8    2.74    0.91
  -3   9  -8   -0.94    1.78
  -3   9  -8    4.13    1.79
  -3   9  -9    0.63    1.31
  -3   9  -9    2.10    1.09
  -3   9  -9    2.88    1.59
  -3   9 -10   -1.46    2.17
  -3   9 -10    1.33    0.92
  -3   9 -11    2.12    1.02
  -3   9 -11    3.13    3.00
  -3   9 -12   21.80    3.32
  -3   9 -12   16.54    4.98
  -3   9 -13   29.23    4.08
  -3   9 -13   30.69    7.15
  -3   9 -14    2.40    1.58
  -3   9 -14    1.94    2.46
  -3   9 -15   22.03    5.98
  -3   9 -15   26.57    4.03
  -3   8  12   28.10    7.04
   3  -8 -12   30.25    7.48
  -3   8  11   23.75    6.06
   3  -8 -11   15.86    5.31
  -3   8  10    3.62    2.93
   3  -8 -10    4.08    3.48
   3  -8  -9   -1.41    0.97
  -3   8   9   -1.27    2.09
   3  -8  -8  109.19   13.04
  -3   8   8  113.74   12.95
   3  -8  -7   86.18   11.38
  -3   8   7  122.07   12.84
  -3   8   6    3.48    1.31
  -3   8   6    6.25    2.61
   3  -8  -6    3.38    2.10
   3  -8  -6    2.62    1.28
  -3   8   5   11.93    3.65
   3  -8  -5   12.34    2.61
  -3   8   5    9.54    2.11
   3  -8  -5    7.88    3.08
  -3   8   4   -0.01    1.23
   3  -8  -4    2.33    1.23
  -3   8   4    0.35    0.72
   3  -8  -4   -0.86    1.72
  -3   8   3   16.82    3.89
  -3   8   3   13.17    2.65
   3  -8  -3   14.37    4.43
   3  -8  -3   20.20    3.27
  -3   8   2  124.43    8.64
   3  -8  -2  142.31    9.12
   3  -8  -2  132.37   13.56
  -3   8   2  122.44   10.60
   3  -8  -1  106.52    8.47
  -3   8   1  113.71    8.16
   3  -8  -1  137.74    8.78
  -3   8   1  104.95    4.59
   3  -8  -1  118.97   12.65
  -3   8   1  116.79   10.96
  -3   8   1  111.21    9.45
  -3   8   0    7.66    2.43
   3  -8   0    9.58    3.79
   3  -8   0    3.21    1.60
   3  -8   0    9.89    2.31
  -3   8   0    5.14    2.38
  -3   8   0    8.82    1.42
  -3   8  -1   25.29    3.95
   3  -8   1   20.11    3.28
  -3   8  -1   29.67    5.33
  -3   8  -1   20.08    2.37
   3  -8   1   37.77    4.52
   3  -8   1   24.50    5.56
  -3   8  -2    0.93    0.82
   3  -8   2    4.05    1.42
   3  -8   2    2.78    1.43
  -3   8  -2   -0.49    1.73
   3  -8   2    1.07    1.75
  -3   8  -2    0.67    0.58
  -3   8  -3   88.58    6.33
  -3   8  -3  114.10   10.74
   3  -8   3  111.84    8.02
   3  -8   3   97.80   11.29
  -3   8  -3   95.15    7.08
   3  -8   4   58.30    5.65
  -3   8  -4   40.74    4.54
   3  -8   4   39.18    7.09
  -3   8  -4   42.73    6.39
  -3   8  -4   40.69    4.24
  -3   8  -5    0.27    0.49
  -3   8  -5    1.43    1.64
  -3   8  -5   -0.47    1.17
  -3   8  -5    0.80    0.62
   3  -8   5    0.52    0.82
   3  -8   5   -0.19    1.68
  -3   8  -5    1.16    1.12
  -3   8  -6   32.68    5.33
  -3   8  -6   26.81    5.43
  -3   8  -6   22.53    3.35
   3  -8   6   28.93    3.98
   3  -8   6   18.80    5.33
  -3   8  -6   19.72    3.58
  -3   8  -6   20.67    2.58
  -3   8  -7   52.18    7.69
  -3   8  -7   53.48    5.20
  -3   8  -7   65.24    7.12
   3  -8   7   66.91    6.16
  -3   8  -7   53.87    3.88
   3  -8   8   93.03    9.32
  -3   8  -8  116.34   11.80
  -3   8  -8  106.83    7.41
  -3   8  -8  110.21    8.90
   3  -8   8  123.14    8.37
  -3   8  -8  103.30    4.84
  -3   8  -9   70.71    9.35
   3  -8   9   50.55    7.15
  -3   8  -9   62.48    5.53
  -3   8  -9   73.22    6.43
  -3   8 -10    7.71    3.03
  -3   8 -10   11.67    2.36
  -3   8 -10   13.43    2.45
   3  -8  10   11.98    3.50
  -3   8 -11   25.02    3.59
  -3   8 -11   18.58    4.91
   3  -8  11   21.01    4.91
  -3   8 -12  330.88   22.13
   3  -8  12  313.27   20.76
  -3   8 -12  347.40   15.42
  -3   8 -13    4.30    2.72
  -3   8 -13    8.32    2.22
   3  -8  13    3.36    2.92
  -3   8 -14    8.14    2.51
  -3   8 -14    3.96    2.82
   3  -8  14    8.94    3.58
  -3   8 -15   17.29    5.32
  -3   8 -15   21.09    3.75
  -3   8 -16   -1.65    2.04
   3  -7 -14    4.75    3.12
  -3   7  13    2.92    2.85
   3  -7 -13    4.04    3.17
  -3   7  12    0.79    2.00
   3  -7 -12    0.90    1.12
  -3   7  11   14.62    5.25
   3  -7 -11   15.27    5.00
  -3   7  10    3.24    2.54
   3  -7 -10    4.26    3.09
  -3   7   9  170.54    7.31
  -3   7   9  186.00   13.08
   3  -7  -9  173.92   16.34
  -3   7   9  198.81   17.14
  -3   7   8   46.29    2.94
  -3   7   8   59.13    7.27
   3  -7  -8   67.05    5.42
   3  -7  -8   45.49    7.97
  -3   7   8   65.17    9.42
  -3   7   7  283.85   17.90
  -3   7   7  311.71   14.04
   3  -7  -7  304.34   21.22
  -3   7   7  340.54   21.42
  -3   7   6   32.42    6.00
  -3   7   6   32.99    5.44
  -3   7   6   31.81    3.88
   3  -7  -6   37.31    4.10
  -3   7   6   36.38    4.23
   3  -7  -6   26.69    5.78
  -3   7   5  142.62   11.82
   3  -7  -5  171.48    9.52
  -3   7   5  183.97   10.49
   3  -7  -5  157.79   14.17
  -3   7   5  154.65    9.42
  -3   7   5  176.70   13.90
  -3   7   4  254.93   15.87
  -3   7   4  252.84   12.78
   3  -7  -4  283.71   13.01
   3  -7  -4  250.40   18.32
  -3   7   4  317.20   14.38
  -3   7   4  298.60   17.73
   3  -7  -3   28.70    4.25
  -3   7   3   35.52    4.27
  -3   7   3   27.63    4.65
  -3   7   3   38.10    4.62
   3  -7  -3   29.75    3.78
   3  -7  -3   31.15    5.84
  -3   7   3   37.25    5.73
   3  -7  -2   96.52    7.69
  -3   7   2   92.59    7.41
  -3   7   2   92.47    8.62
  -3   7   2   93.37    9.55
   3  -7  -2  105.07    7.31
  -3   7   2  117.15    8.23
   3  -7  -2   93.37   10.44
  -3   7   2   89.71    8.41
   3  -7  -1  496.36   20.09
  -3   7   1  446.41   21.75
  -3   7   1  611.86   21.88
   3  -7  -1  563.62   20.50
  -3   7   1  500.69   14.43
  -3   7   1  523.77   26.42
   3  -7  -1  534.27   27.31
  -3   7   1  549.43   25.16
  -3   7   1  512.35   21.98
  -3   7   0   11.02    2.62
   3  -7   0    3.82    1.26
  -3   7   0    9.54    2.35
   3  -7   0    8.26    1.98
  -3   7   0   11.60    2.83
  -3   7   0    4.34    2.08
  -3   7   0    8.37    1.33
   3  -7   0    7.47    2.91
  -3   7   0    8.59    2.87
  -3   7  -1   51.84    6.92
  -3   7  -1   46.22    5.79
   3  -7   1   54.48    5.29
  -3   7  -1   60.90    7.28
  -3   7  -1   47.68    3.78
  -3   7  -1   64.31    6.02
   3  -7   1   48.00    7.16
  -3   7  -1   49.99    7.07
  -3   7  -1   50.53    5.20
  -3   7  -2    1.97    0.76
  -3   7  -2    2.51    1.22
  -3   7  -2    4.89    1.67
   3  -7   2    5.25    1.39
   3  -7   2    5.19    1.61
  -3   7  -2    5.59    2.07
  -3   7  -2    5.76    2.37
   3  -7   2    2.96    1.93
  -3   7  -2    3.28    2.13
  -3   7  -2    4.42    2.26
  -3   7  -3   63.73    5.19
  -3   7  -3   67.05    8.59
   3  -7   3   69.70    5.31
  -3   7  -3   58.87    6.65
   3  -7   3   71.55    8.89
  -3   7  -3   72.12    7.94
   3  -7   3   68.24    5.92
  -3   7  -3   75.81    7.60
  -3   7  -3   84.72    6.89
  -3   7  -3   58.39    5.13
  -3   7  -4    9.38    3.17
  -3   7  -4    4.44    1.35
  -3   7  -4    7.17    2.08
   3  -7   4    3.03    1.06
  -3   7  -4    4.88    1.96
   3  -7   4    3.89    1.43
  -3   7  -4    4.86    2.01
   3  -7   4    1.34    0.86
   3  -7   4    4.13    2.13
  -3   7  -4    4.49    1.51
   3  -7   5  169.15   14.79
  -3   7  -5  181.42   13.09
  -3   7  -5  164.22   11.98
  -3   7  -5  145.60    9.24
   3  -7   5  174.29   10.88
   3  -7   5  189.11   10.31
  -3   7  -5  150.54    9.79
  -3   7  -5  174.56   11.50
  -3   7  -5  222.01   11.53
  -3   7  -5  187.69   12.99
  -3   7  -5  170.15    8.13
  -3   7  -6    2.18    0.79
  -3   7  -6    1.56    0.95
  -3   7  -6    1.99    1.29
  -3   7  -6    0.93    0.94
  -3   7  -6    1.41    1.40
  -3   7  -6    1.50    1.22
  -3   7  -6    1.13    1.13
   3  -7   6    0.09    0.87
   3  -7   6    1.73    1.02
  -3   7  -7   46.39    6.86
  -3   7  -7   46.22    4.81
   3  -7   7   50.02    6.23
  -3   7  -7   42.27    5.60
   3  -7   7   50.20    4.88
  -3   7  -7   58.22    5.53
  -3   7  -7   46.22    5.80
  -3   7  -7   45.87    2.75
   3  -7   8   89.17    8.85
  -3   7  -8   99.51   10.22
  -3   7  -8   92.50    6.99
  -3   7  -8   88.16    7.78
  -3   7  -8  106.00    7.20
   3  -7   8  109.42    7.39
  -3   7  -9   46.92    7.25
  -3   7  -9   46.10    4.86
  -3   7  -9   60.16    5.77
  -3   7  -9   61.02    5.11
   3  -7   9   49.43    6.84
   3  -7   9   63.08    5.44
  -3   7 -10   24.69    5.38
  -3   7 -10   25.22    3.07
  -3   7 -10   27.13    3.66
  -3   7 -10   25.88    3.20
   3  -7  10   22.65    4.72
  -3   7 -11  196.25   15.70
  -3   7 -11  214.60   11.41
   3  -7  11  220.97   16.20
  -3   7 -12  189.16   15.96
  -3   7 -12  233.93   12.11
   3  -7  12  222.69   16.82
  -3   7 -13   11.94    2.75
  -3   7 -13    9.78    3.50
   3  -7  13   13.81    4.07
  -3   7 -14    6.30    2.01
   3  -7  14    5.14    2.33
  -3   7 -14    3.51    1.36
  -3   7 -15    1.72    1.15
   3  -7  15   -0.27    1.42
  -3   7 -15    1.32    1.27
  -3   7 -16    1.25    2.55
  -3   7 -17   14.87    5.29
  -3   6  15   24.52    6.78
   3  -6 -15   24.26    6.35
   3  -6 -15   29.51    7.83
  -3   6  14   22.60    6.05
   3  -6 -14   35.85    8.07
   3  -6 -14   25.29    6.09
  -3   6  13    2.71    2.53
   3  -6 -13    1.50    1.41
  -3   6  12    2.25    2.36
   3  -6 -12    2.12    1.70
  -3   6  12    1.33    0.90
   3  -6 -12   -0.03    1.23
  -3   6  11    0.75    1.81
   3  -6 -11    4.98    2.66
  -3   6  11    3.12    1.11
   3  -6 -11    4.53    2.42
   3  -6 -10    5.06    1.96
  -3   6  10    2.35    1.30
  -3   6  10    6.28    1.43
  -3   6  10    5.08    1.24
   3  -6 -10    3.82    2.17
   3  -6  -9    0.61    0.96
  -3   6   9    0.16    1.07
  -3   6   9    1.04    0.71
   3  -6  -9    1.89    0.92
  -3   6   9   -0.31    0.35
   3  -6  -9    2.35    1.97
   3  -6  -8  399.05   14.71
  -3   6   8  385.01   22.99
  -3   6   8  411.51   15.19
   3  -6  -8  346.69   22.10
  -3   6   7    0.61    0.83
  -3   6   7    0.42    0.41
  -3   6   7    0.37    0.58
   3  -6  -7    0.51    0.87
   3  -6  -7    0.24    0.77
  -3   6   7    0.09    0.73
  -3   6   6   30.14    5.02
  -3   6   6   29.69    5.54
  -3   6   6   33.10    4.00
  -3   6   6   22.36    5.42
   3  -6  -6   31.25    3.64
  -3   6   6   32.50    3.84
   3  -6  -6   29.15    5.74
   3  -6  -5  120.95    9.40
  -3   6   5  122.31   10.07
  -3   6   5   93.14   11.42
  -3   6   5  119.89    8.04
   3  -6  -5  126.25    7.77
  -3   6   5  134.77    8.35
   3  -6  -5  123.87   11.66
  -3   6   5  133.40   11.32
  -3   6   4   28.40    4.90
   3  -6  -4   28.34    4.19
  -3   6   4   24.16    4.39
  -3   6   4   23.89    3.52
   3  -6  -4   24.64    3.33
  -3   6   4   24.78    5.89
  -3   6   4   30.22    3.93
   3  -6  -4   27.92    5.50
   3  -6  -3  363.58   16.67
  -3   6   3  355.37   18.31
  -3   6   3  349.56   16.47
   3  -6  -3  400.55   16.07
   3  -6  -3  351.47   20.40
  -3   6   3  371.84   18.70
  -3   6   2    8.66    2.51
  -3   6   2   15.58    2.93
   3  -6  -2   11.44    2.37
  -3   6   2    8.73    2.48
  -3   6   2   10.76    2.51
   3  -6  -2    8.63    2.11
  -3   6   2   10.15    2.83
   3  -6  -2   11.39    3.56
  -3   6   2    8.62    2.65
  -3   6   1   81.39    7.85
   3  -6  -1   96.11    9.62
  -3   6   1  102.41    9.31
  -3   6   1  117.70    8.28
  -3   6   1  101.40    9.73
   3  -6  -1   96.28    7.03
  -3   6   1   94.59    7.78
   3  -6   0   50.47    4.60
  -3   6   0   48.89    3.27
  -3   6   0   45.13    5.61
   3  -6   0   36.39    4.27
  -3   6   0   50.82    6.40
  -3   6   0   33.15    4.34
   3  -6   0   50.42    6.81
  -3   6   0   46.12    6.48
  -3   6   0   47.78    5.07
   3  -6   1  120.86    7.14
  -3   6  -1  124.22    9.51
  -3   6  -1  134.60   10.61
   3  -6   1  109.65    7.69
  -3   6  -1  124.36    6.42
  -3   6  -1  116.09    8.40
   3  -6   1  125.76   11.07
  -3   6  -1  118.20   10.61
  -3   6  -1  129.15    8.16
  -3   6  -2    5.67    1.52
  -3   6  -2    6.00    1.77
   3  -6   2    4.44    1.29
  -3   6  -2    2.40    1.17
  -3   6  -2    5.12    2.00
  -3   6  -2    4.99    2.02
  -3   6  -2    3.20    1.67
   3  -6   2    5.18    1.35
   3  -6   2    7.75    2.00
   3  -6   2    1.84    1.58
  -3   6  -2    4.25    1.23
   3  -6   3   27.90    2.86
  -3   6  -3   28.43    4.48
   3  -6   3   28.47    3.45
   3  -6   3   31.50    3.92
  -3   6  -3   35.58    3.88
  -3   6  -3   34.58    4.61
  -3   6  -3   35.68    4.35
   3  -6   3   37.74    5.99
  -3   6  -3   31.79    5.51
  -3   6  -3   41.09    5.58
  -3   6  -3   32.99    3.44
   3  -6   4   14.49    1.94
  -3   6  -4   11.83    1.86
  -3   6  -4   15.18    2.82
  -3   6  -4   14.78    3.37
  -3   6  -4   10.11    2.50
  -3   6  -4   12.45    2.97
   3  -6   4   11.45    2.37
  -3   6  -4   11.91    2.76
   3  -6   4    9.93    2.09
   3  -6   4   11.83    3.38
  -3   6  -4    9.20    2.09
  -3   6  -4    9.45    3.15
  -3   6  -5  264.84   15.13
  -3   6  -5  286.65   15.45
  -3   6  -5  235.98   14.29
   3  -6   5  289.86   13.16
  -3   6  -5  298.71   19.12
  -3   6  -5  267.48   13.69
  -3   6  -5  241.57   13.07
   3  -6   5  273.91   13.93
  -3   6  -5  318.72   14.02
  -3   6  -5  268.41    9.80
  -3   6  -6  156.08    9.01
  -3   6  -6  130.75   10.24
   3  -6   6  129.69    8.07
  -3   6  -6  116.83    9.72
  -3   6  -6  119.33    8.16
  -3   6  -6  124.33    8.74
  -3   6  -6  105.74    8.53
   3  -6   6  124.55    9.38
  -3   6  -6  130.00    9.67
  -3   6  -7    5.65    2.03
  -3   6  -7    4.85    1.56
   3  -6   7    4.09    1.38
  -3   6  -7    2.68    1.30
  -3   6  -7    3.64    1.44
   3  -6   7    2.47    1.26
  -3   6  -7    2.61    1.28
  -3   6  -7    3.11    1.56
  -3   6  -7    1.15    0.63
  -3   6  -8   10.10    2.09
  -3   6  -8    6.51    2.15
  -3   6  -8    7.07    2.67
   3  -6   8    7.58    1.80
  -3   6  -8    9.68    2.55
  -3   6  -8    9.01    2.12
   3  -6   8   10.03    2.17
  -3   6  -8    7.75    2.12
   3  -6   8    7.48    2.51
   3  -6   9   12.63    2.22
  -3   6  -9   13.84    2.33
  -3   6  -9    9.78    2.13
  -3   6  -9   11.42    3.41
   3  -6   9   10.03    2.20
   3  -6   9   12.32    3.32
  -3   6  -9   10.59    2.31
  -3   6  -9   11.75    2.90
  -3   6 -10   40.80    4.59
  -3   6 -10   39.87    6.34
  -3   6 -10   39.15    4.09
   3  -6  10   46.43    4.30
  -3   6 -10   34.85    3.60
   3  -6  10   48.45    4.77
  -3   6 -10   33.09    4.73
   3  -6  10   46.59    6.75
  -3   6 -11    3.77    1.16
  -3   6 -11    2.47    1.22
  -3   6 -11    4.19    2.09
   3  -6  11    3.74    1.20
   3  -6  11    3.19    2.39
  -3   6 -12  187.46   15.49
   3  -6  12  236.32   17.10
  -3   6 -12  209.46   11.56
  -3   6 -13    5.67    2.72
  -3   6 -13    9.53    2.40
   3  -6  13    8.69    3.67
  -3   6 -14    2.19    0.76
  -3   6 -14    5.32    3.40
   3  -6  14    1.35    1.23
  -3   6 -15   30.80    7.10
  -3   6 -15   29.80    4.51
   3  -6  15   28.21    6.40
  -3   6 -16   82.63   12.31
  -3   6 -16   71.68    7.42
  -3   6 -17   -2.77    1.75
  -3   5  17    4.15    2.72
   3  -5 -16    1.04    1.94
  -3   5  16    6.78    3.85
  -3   5  15    1.47    1.03
   3  -5 -15    0.50    1.70
   3  -5 -14   10.82    3.71
  -3   5  14    7.53    2.28
  -3   5  13   16.83    5.25
   3  -5 -13   21.00    5.27
  -3   5  13   14.95    2.87
  -3   5  12    2.50    2.41
   3  -5 -12    0.70    1.04
  -3   5  12   -1.68    0.97
   3  -5 -12    0.10    0.84
  -3   5  11   12.71    4.18
   3  -5 -11   10.97    3.48
  -3   5  11   17.04    2.73
   3  -5 -10   64.90    8.34
  -3   5  10   57.98    8.78
  -3   5  10   60.14    5.08
   3  -5 -10   67.58    6.47
   3  -5 -10   72.42    4.91
   3  -5  -9  379.98   21.01
   3  -5  -9  437.56   14.85
   3  -5  -9  396.64   16.70
   3  -5  -9  396.17   23.65
  -3   5   9  342.82   13.96
  -3   5   9  415.02   24.09
  -3   5   8   94.26    5.52
  -3   5   8  106.15    7.44
   3  -5  -8  118.98    6.80
   3  -5  -8  109.26    7.14
   3  -5  -8  106.11   11.10
  -3   5   8  106.53   11.04
  -3   5   7  184.89   14.62
  -3   5   7  174.01    9.86
   3  -5  -7  183.89    9.24
  -3   5   7  189.26   14.53
   3  -5  -7  175.84    8.66
   3  -5  -7  161.96   13.39
   3  -5  -6  179.49   11.50
  -3   5   6  161.06   13.63
  -3   5   6  166.56    9.67
   3  -5  -6  186.74    9.44
   3  -5  -6  166.84    7.05
  -3   5   6  154.69   12.39
   3  -5  -6  152.00   12.44
  -3   5   5    1.12    1.37
   3  -5  -5    0.01    0.65
  -3   5   5   -0.86    0.87
  -3   5   5   -1.80    1.51
   3  -5  -5    0.64    0.78
  -3   5   5   -0.01    0.62
   3  -5  -5    0.98    0.91
   3  -5  -4   58.51    5.93
  -3   5   4   65.66    6.81
  -3   5   4   65.32    6.07
  -3   5   4   55.77    6.75
   3  -5  -4   65.58    5.60
  -3   5   4   49.48    7.41
   3  -5  -4   57.51    7.11
  -3   5   4   63.39    7.04
  -3   5   3  796.72   29.89
  -3   5   3  814.17   30.13
  -3   5   3  710.25   32.83
   3  -5  -3  828.04   27.05
  -3   5   3  797.42   27.98
   3  -5  -3  777.48   31.34
  -3   5   3  809.66   30.88
  -3   5   2  221.87   13.56
  -3   5   2  215.50   13.17
   3  -5  -2  227.91   11.51
   3  -5  -2  228.45   14.21
  -3   5   2  227.83   12.81
   3  -5  -1  276.68   12.38
  -3   5   1  246.31   14.05
  -3   5   1  264.73   15.11
   3  -5  -1  260.82   15.43
  -3   5   1  256.83   13.26
   3  -5   0  170.78    8.86
  -3   5   0  181.22   11.65
  -3   5   0  175.43   11.87
   3  -5   0  176.02    6.72
  -3   5   0  186.11    7.45
   3  -5   0  187.36   12.58
  -3   5   0  178.70   10.05
   3  -5   1  157.11    7.77
  -3   5  -1  152.44   10.58
  -3   5  -1  175.52   11.79
  -3   5  -1  157.07    7.72
   3  -5   1  158.80   11.70
   3  -5   1  166.42    7.31
  -3   5  -1  156.14    8.81
   3  -5   2  175.83    7.86
  -3   5  -2  181.10   11.71
   3  -5   2  196.80    8.95
  -3   5  -2  182.42   12.12
  -3   5  -2  186.70    9.34
  -3   5  -2  221.02   11.83
   3  -5   2  181.92   12.89
  -3   5  -2  185.66    9.02
   3  -5   3  604.66   18.33
  -3   5  -3  616.94   22.09
  -3   5  -3  643.14   22.98
  -3   5  -3  602.28   24.87
  -3   5  -3  627.05   25.46
   3  -5   3  622.18   21.77
  -3   5  -3  645.21   23.61
   3  -5   3  611.86   27.16
   3  -5   3  649.75   24.05
  -3   5  -3  623.69   19.62
   3  -5   4   49.36    3.02
   3  -5   4   58.15    5.34
  -3   5  -4   50.74    5.19
  -3   5  -4   47.72    5.69
  -3   5  -4   53.43    6.06
   3  -5   4   56.40    5.70
  -3   5  -4   58.59    5.44
  -3   5  -4   55.06    5.39
  -3   5  -4   64.33    5.95
  -3   5  -4   51.55    3.30
  -3   5  -5  144.48    9.66
  -3   5  -5  159.97   10.18
  -3   5  -5  131.22    9.91
  -3   5  -5  156.81   10.59
  -3   5  -5  157.01    9.25
  -3   5  -5  182.40   10.21
   3  -5   5  158.10   10.00
   3  -5   5  142.61    9.56
  -3   5  -5  171.12   13.55
  -3   5  -6   89.87    7.71
  -3   5  -6   81.45    7.59
  -3   5  -6   92.42    7.04
  -3   5  -6   77.69    7.30
  -3   5  -6  105.72    8.39
  -3   5  -6   92.97    6.87
  -3   5  -6  101.86    7.26
  -3   5  -6  109.95   10.91
   3  -5   6   98.79    7.73
   3  -5   6   90.74    7.76
  -3   5  -7   36.41    5.01
  -3   5  -7   34.57    4.12
  -3   5  -7   39.94    4.86
   3  -5   7   45.49    5.09
  -3   5  -7   46.71    4.72
  -3   5  -7   37.64    5.22
  -3   5  -7   45.46    4.42
  -3   5  -7   47.69    7.39
   3  -5   7   39.88    5.23
  -3   5  -8    0.01    0.52
  -3   5  -8   -0.40    0.33
  -3   5  -8    0.36    0.98
   3  -5   8    0.59    0.93
  -3   5  -8   -0.55    0.74
   3  -5   8    0.88    1.38
  -3   5  -8   -1.16    0.93
   3  -5   8   -0.49    0.52
  -3   5  -8    1.33    1.25
  -3   5  -9    8.15    2.01
  -3   5  -9    8.52    1.76
   3  -5   9    0.57    0.44
  -3   5  -9    7.19    1.99
   3  -5   9    4.41    1.68
  -3   5  -9    3.59    1.83
  -3   5  -9    5.77    1.76
   3  -5   9    7.49    2.71
   3  -5  10  108.18   10.19
  -3   5 -10   92.45    9.34
  -3   5 -10  121.20    7.86
   3  -5  10  104.89    7.81
   3  -5  10  112.10   10.53
  -3   5 -10  101.43    7.82
  -3   5 -10  127.79    6.37
  -3   5 -11  286.54   18.77
  -3   5 -11  322.63   14.78
   3  -5  11  307.32   19.57
   3  -5  11  294.29   14.90
  -3   5 -11  296.53   15.51
  -3   5 -11  324.06   11.75
  -3   5 -12    0.80    0.88
  -3   5 -12    1.19    1.35
  -3   5 -12    0.71    0.63
   3  -5  12    1.24    1.65
  -3   5 -13    1.40    1.17
   3  -5  13    1.86    1.94
  -3   5 -13    0.21    1.76
  -3   5 -14   10.15    4.09
  -3   5 -14   21.22    3.66
   3  -5  14   22.37    5.42
  -3   5 -15    8.51    2.42
  -3   5 -15    7.09    3.28
   3  -5  15   11.79    4.23
  -3   5 -16    8.53    4.63
  -3   5 -16   13.85    3.32
  -3   5 -17   23.93    8.02
  -3   4  17    1.15    1.61
   3  -4 -16   90.04   11.88
  -3   4  16  103.65   12.15
  -3   4  15   10.78    3.66
   3  -4 -15   11.14    4.27
  -3   4  15    8.27    2.42
  -3   4  14    0.57    1.27
   3  -4 -14    2.90    1.74
  -3   4  14    1.71    1.25
  -3   4  13    9.47    3.53
   3  -4 -13   19.53    4.97
  -3   4  13   14.62    2.98
  -3   4  12   29.85    6.39
  -3   4  12   34.64    2.63
   3  -4 -12   28.02    5.65
  -3   4  12   29.53    4.09
   3  -4 -12   34.51    5.08
  -3   4  11   19.89    5.28
   3  -4 -11   23.82    4.06
   3  -4 -11   20.20    4.80
   3  -4 -11   31.77    2.80
  -3   4  11   17.82    2.99
  -3   4  11   25.75    2.60
   3  -4 -10  585.63   28.07
  -3   4  10  546.01   21.27
  -3   4  10  657.85   20.06
   3  -4 -10  682.72   19.97
  -3   4  10  608.57   30.83
   3  -4  -9  162.52   12.62
   3  -4  -9  182.58    8.52
  -3   4   9  155.54    8.58
   3  -4  -9  174.07   10.00
  -3   4   9  186.11    8.77
  -3   4   9  178.58   14.68
  -3   4   8   39.60    6.41
   3  -4  -8   44.70    6.11
   3  -4  -8   38.98    3.82
   3  -4  -8   36.72    3.93
  -3   4   8   40.41    4.05
  -3   4   8   37.17    5.97
  -3   4   8   38.98    4.31
  -3   4   7   22.62    4.72
   3  -4  -7   28.41    4.47
  -3   4   7   26.82    5.01
  -3   4   7   25.10    3.48
   3  -4  -7   27.14    3.33
   3  -4  -7   27.93    3.09
  -3   4   7   30.80    3.70
   3  -4  -7   23.69    4.70
  -3   4   6  122.06   10.54
  -3   4   6  132.99    8.50
   3  -4  -6  118.03    7.60
  -3   4   6  116.76    9.68
   3  -4  -6  121.03    6.12
  -3   4   6  136.05    8.49
   3  -4  -6  111.46    9.75
  -3   4   6  122.31   10.63
   3  -4  -6  117.33    9.16
  -3   4   5   59.12    6.94
  -3   4   5   63.31    5.91
   3  -4  -5   57.80    6.66
   3  -4  -5   53.62    5.06
  -3   4   5   53.18    6.24
   3  -4  -5   57.35    3.31
  -3   4   5   46.60    6.10
   3  -4  -5   52.54    5.73
   3  -4  -4    6.23    2.11
  -3   4   4    8.70    2.60
  -3   4   4    6.35    1.91
  -3   4   4    9.47    2.46
  -3   4   4    9.06    2.52
   3  -4  -4   11.43    2.39
  -3   4   3    4.50    1.83
   3  -4  -3    3.16    1.30
  -3   4   3    2.85    2.26
  -3   4   3    3.51    1.29
   3  -4  -3    4.67    1.70
  -3   4   3    2.57    1.38
   3  -4  -3    5.79    1.97
  -3   4   3    5.15    1.96
   3  -4  -2  766.37   26.10
  -3   4   2  743.90   28.29
   3  -4  -2  756.79   27.79
  -3   4   2  752.54   27.96
  -3   4   2  756.22   26.90
   3  -4  -2  758.87   25.62
  -3   4   1  183.99   11.34
  -3   4   1  196.39   12.16
   3  -4  -1  177.97    5.96
   3  -4  -1  187.30   11.51
  -3   4   1  170.21   11.04
  -3   4   1  185.83   10.24
   3  -4  -1  197.15    9.79
  -3   4   0  157.09   10.33
  -3   4   0  149.79   10.55
   3  -4   0  155.27    9.88
   3  -4   0  154.53    6.43
  -3   4   0  156.34    7.11
   3  -4   0  165.95   10.74
  -3   4   0  153.91   10.56
  -3   4   0  165.65    9.01
   3  -4   0  166.34    8.26
  -3   4  -1   19.99    3.63
   3  -4   1   20.06    2.30
   3  -4   1   19.65    3.29
  -3   4  -1   18.12    2.42
   3  -4   1   18.51    3.46
  -3   4  -1   19.88    3.56
  -3   4  -1   19.99    3.72
  -3   4  -1   18.87    2.62
   3  -4   1   19.06    2.27
   3  -4   2  151.59    6.45
  -3   4  -2  147.80    8.30
   3  -4   2  149.31    9.34
  -3   4  -2  143.34   10.08
   3  -4   2  146.88    7.69
   3  -4   2  138.44    9.48
   3  -4   2  156.98   10.85
  -3   4  -2  160.21   11.34
  -3   4  -2  140.12    6.98
   3  -4   3  382.36   11.45
  -3   4  -3  374.63   14.48
   3  -4   3  382.50   16.71
  -3   4  -3  391.95   17.94
   3  -4   3  388.25   17.52
   3  -4   3  399.49   15.59
  -3   4  -3  391.30   15.78
  -3   4  -3  397.41   16.25
  -3   4  -4  218.61   10.58
   3  -4   4  226.72   11.59
  -3   4  -4  234.87   12.94
   3  -4   4  227.90   12.66
  -3   4  -4  228.66   10.81
  -3   4  -4  220.89   12.13
  -3   4  -5    6.25    1.84
   3  -4   5    5.81    1.93
  -3   4  -5    5.90    1.87
  -3   4  -5    7.19    1.72
   3  -4   5    5.97    1.84
  -3   4  -5    6.89    2.09
  -3   4  -6   -0.60    0.80
  -3   4  -6    1.05    1.03
  -3   4  -6    0.09    0.68
   3  -4   6    1.22    1.14
  -3   4  -6   -0.03    0.66
  -3   4  -6    0.21    0.56
  -3   4  -6    0.01    0.45
   3  -4   6   -0.39    0.80
  -3   4  -6   -0.34    0.92
   3  -4   7    1.79    1.29
  -3   4  -7    0.71    0.69
   3  -4   7    0.79    1.11
  -3   4  -7    0.12    1.05
  -3   4  -7   -0.49    0.95
  -3   4  -7    0.18    0.58
  -3   4  -7    0.37    0.53
   3  -4   7    0.57    0.60
  -3   4  -7   -0.01    0.76
  -3   4  -7    2.74    1.68
  -3   4  -8   10.96    2.13
   3  -4   8   14.43    3.52
   3  -4   8   11.04    2.98
  -3   4  -8   12.25    2.51
  -3   4  -8   14.58    3.37
  -3   4  -8   12.19    2.47
  -3   4  -8   12.82    2.37
   3  -4   8   10.86    2.66
  -3   4  -8   11.34    3.22
   3  -4   9   41.66    6.02
   3  -4   9   39.64    5.19
   3  -4   9   44.20    6.05
  -3   4  -9   47.62    6.37
  -3   4  -9   43.43    4.81
  -3   4  -9   40.37    4.43
  -3   4  -9   42.62    4.53
  -3   4  -9   49.13    4.14
   3  -4  10  264.65   17.28
  -3   4 -10  291.96   18.06
  -3   4 -10  291.54   13.87
   3  -4  10  308.94   18.55
   3  -4  10  289.62   11.43
  -3   4 -10  262.98   13.56
  -3   4 -10  312.21   11.53
   3  -4  11  556.85   27.72
   3  -4  11  621.87   29.03
  -3   4 -11  572.87   29.04
  -3   4 -11  583.28   22.60
   3  -4  11  617.20   18.92
  -3   4 -11  628.43   18.90
   3  -4  12    1.05    0.62
  -3   4 -12    1.40    1.07
  -3   4 -12    1.12    0.90
   3  -4  12    3.69    2.14
  -3   4 -13   24.28    3.82
  -3   4 -13   34.93    7.36
   3  -4  13   25.21    5.40
  -3   4 -14    0.92    1.68
  -3   4 -14    3.31    1.58
  -3   4 -15    6.88    2.30
   3  -4  15   10.31    3.76
  -3   4 -15    6.14    3.28
  -3   4 -16    2.18    1.54
  -3   4 -16   -1.47    2.70
   3  -4  16   -0.87    1.31
  -3   4 -17    0.98    2.56
  -3   3  18   43.27    7.42
  -3   3  17   44.53    7.64
   3  -3 -16   36.06    7.33
  -3   3  16   44.68    7.32
   3  -3 -15   43.95    7.83
  -3   3  15   50.85    7.63
   3  -3 -14   23.93    5.39
   3  -3 -14   21.22    8.52
  -3   3  14   17.92    4.57
  -3   3  14   23.71    4.21
   3  -3 -13   11.47    3.62
   3  -3 -13   20.32    8.37
  -3   3  13   15.67    4.09
  -3   3  13   13.02    2.90
  -3   3  12   -0.26    0.31
   3  -3 -12   -0.34    1.45
  -3   3  12    1.51    1.72
  -3   3  12    3.43    1.56
   3  -3 -12    0.93    0.48
   3  -3 -12    1.40    1.56
  -3   3  11    4.33    2.85
  -3   3  11   10.11    1.54
   3  -3 -11   11.53    3.50
  -3   3  11   11.66    3.36
   3  -3 -11   10.79    1.58
   3  -3 -11    8.12    5.29
   3  -3 -11    6.86    2.19
  -3   3  11    7.63    2.14
   3  -3 -10  136.53   17.24
   3  -3 -10  134.74   11.93
   3  -3 -10  160.57    7.66
  -3   3  10  138.27    8.84
  -3   3  10  161.54   12.25
  -3   3  10  161.33    7.79
  -3   3  10  149.11   13.49
  -3   3   9  154.05   12.90
   3  -3  -9  140.33   16.38
   3  -3  -9  156.93   12.12
   3  -3  -9  151.73    7.91
  -3   3   9  145.34   11.35
  -3   3   9  149.08    8.08
   3  -3  -9  153.63    9.36
  -3   3   9  159.17   13.33
  -3   3   8    0.93    1.24
   3  -3  -8    0.84    1.00
   3  -3  -8    0.44    0.65
  -3   3   8    0.86    0.94
  -3   3   8   -0.13    1.23
  -3   3   8    0.09    1.08
   3  -3  -8   -1.20    1.46
   3  -3  -8    0.70    0.34
   3  -3  -8    0.70    0.58
  -3   3   7   77.04    7.96
   3  -3  -7   68.07   10.16
   3  -3  -7   69.14    7.26
  -3   3   7   78.10    6.33
   3  -3  -7   75.52    5.97
   3  -3  -7   83.58    5.59
  -3   3   7   74.48    7.58
  -3   3   7   86.76    8.96
   3  -3  -7   83.98    7.75
  -3   3   6   17.82    4.06
   3  -3  -6   23.38    3.29
  -3   3   6   23.15    3.46
  -3   3   6   20.44    3.84
   3  -3  -6   19.80    2.30
  -3   3   6   15.45    3.33
   3  -3  -6   16.01    3.43
  -3   3   5    4.62    2.06
   3  -3  -5    2.56    1.33
  -3   3   5    2.46    1.18
  -3   3   5    4.41    1.97
  -3   3   5    1.52    0.87
   3  -3  -5    6.69    3.41
   3  -3  -5    2.54    0.69
   3  -3  -5    1.32    1.12
  -3   3   4  631.69   23.44
   3  -3  -4  586.45   22.27
  -3   3   4  659.79   23.49
  -3   3   4  575.90   24.00
   3  -3  -4  598.04   17.11
   3  -3  -4  607.66   22.97
  -3   3   4  606.49   24.23
   3  -3  -4  593.34   23.22
  -3   3   3   21.28    3.61
  -3   3   3   21.60    3.62
   3  -3  -3   17.73    3.15
   3  -3  -3   22.14    3.59
  -3   3   3   21.08    3.39
  -3   3   3   17.55    3.12
   3  -3  -3   22.04    3.46
  -3   3   3   22.78    4.01
   3  -3  -2    3.24    0.76
  -3   3   2    3.79    1.44
   3  -3  -2    3.03    1.28
   3  -3  -2    1.43    1.44
  -3   3   2    2.67    1.79
  -3   3   2    3.05    1.23
   3  -3  -2    1.39    1.08
  -3   3   2    2.89    1.40
  -3   3   1   57.27    4.63
   3  -3  -1   55.79    5.61
   3  -3  -1   61.66    3.88
   3  -3  -1   57.44    5.39
  -3   3   1   61.70    5.68
  -3   3   1   58.22    6.05
   3  -3  -1   58.23    4.93
  -3   3   0   98.23    7.95
   3  -3   0   87.81    5.30
  -3   3   0   86.04    5.35
   3  -3   0   92.76    7.09
  -3   3   0   92.62    7.34
   3  -3   0   88.31    7.19
   3  -3   0   90.06    5.89
  -3   3  -1   -0.09    0.55
   3  -3   1    1.02    0.54
   3  -3   1    0.70    0.72
  -3   3  -1    0.50    0.64
  -3   3  -1    0.37    0.83
   3  -3   1    0.35    0.40
   3  -3   1    0.89    0.98
   3  -3   1    0.44    0.59
  -3   3  -2  119.10    5.22
   3  -3   2  111.80    8.24
  -3   3  -2  123.02    8.83
   3  -3   2  124.38    7.36
  -3   3  -2  122.59    7.78
  -3   3  -2  121.37    9.10
   3  -3   2  117.20    8.73
   3  -3   2  130.90    5.91
  -3   3  -3  874.07   29.14
  -3   3  -3  837.91   24.36
   3  -3   3  830.49   28.89
  -3   3  -3  811.84   29.67
   3  -3   3  833.31   29.98
   3  -3   3  883.26   28.38
  -3   3  -3  886.56   32.08
   3  -3   3  871.14   22.95
   3  -3   4  980.71   29.08
  -3   3  -4  964.31   28.90
   3  -3   4  984.90   32.37
  -3   3  -4  989.75   33.29
  -3   3  -4 1008.98   33.46
   3  -3   4  970.92   33.64
  -3   3  -4  962.29   28.89
   3  -3   4 1029.68   32.76
   3  -3   5   21.26    3.03
  -3   3  -5   21.48    3.00
   3  -3   5   20.83    3.70
   3  -3   5   21.87    3.29
  -3   3  -5   22.81    2.61
  -3   3  -5   19.25    2.92
   3  -3   5   22.62    3.61
  -3   3  -5   17.86    3.20
  -3   3  -5   19.96    3.63
   3  -3   6   30.01    4.02
  -3   3  -6   31.37    4.16
   3  -3   6   30.96    3.88
  -3   3  -6   29.45    3.90
  -3   3  -6   32.40    4.29
   3  -3   6   35.01    4.86
   3  -3   6   32.51    4.71
  -3   3  -6   30.43    3.10
  -3   3  -6   31.11    4.78
  -3   3  -7    4.40    1.73
   3  -3   7    2.31    1.12
   3  -3   7    4.51    1.76
  -3   3  -7    3.21    1.17
   3  -3   7    2.13    1.27
   3  -3   7    5.82    2.22
  -3   3  -7    2.63    1.55
  -3   3  -7    3.03    1.04
  -3   3  -7    4.79    2.00
   3  -3   8    4.71    1.41
   3  -3   8    4.24    1.87
  -3   3  -8    3.52    2.06
   3  -3   8    5.41    2.10
  -3   3  -8    2.79    1.16
  -3   3  -8    4.74    1.38
   3  -3   8    4.60    1.87
  -3   3  -8    6.24    2.39
  -3   3  -8    3.83    1.51
   3  -3   9  124.88   10.43
  -3   3  -9  139.96    8.77
   3  -3   9  126.33    7.15
  -3   3  -9  124.85    7.47
  -3   3  -9  122.67   11.28
   3  -3   9  125.33   10.84
  -3   3  -9  137.96    7.39
   3  -3  10  211.52   15.07
  -3   3 -10  219.28   16.61
  -3   3 -10  234.83   12.08
   3  -3  10  225.30    9.42
   3  -3  10  216.06   15.26
  -3   3 -10  227.87    9.38
   3  -3  11  157.29   13.22
  -3   3 -11  148.28   14.61
  -3   3 -11  163.36   10.01
   3  -3  11  159.38   13.41
   3  -3  11  164.90    6.96
   3  -3  11  141.09   11.31
  -3   3 -11  159.33    6.72
  -3   3 -12   59.19    5.96
   3  -3  12   60.02    7.11
   3  -3  12   55.15    8.01
  -3   3 -12   45.24    8.62
   3  -3  12   70.63    3.67
  -3   3 -13    2.92    1.51
  -3   3 -13    3.37    2.32
   3  -3  13    1.22    1.54
  -3   3 -14    1.04    0.93
  -3   3 -14    0.87    2.36
   3  -3  14    3.79    2.46
  -3   3 -15   41.38    5.27
  -3   3 -15   33.28    8.44
   3  -3  15   28.82    6.21
  -3   3 -16    8.86    5.64
   3  -3  16   18.59    5.32
  -3   3 -16   22.25    4.13
  -3   3 -17   12.26    5.48
  -3   3 -18    7.41    6.03
  -3   2  18    7.32    3.12
   3  -2 -17    4.52    3.04
  -3   2  17    8.79    3.43
   3  -2 -17    8.73    6.72
   3  -2 -16    4.50    2.55
   3  -2 -16    2.85    2.56
  -3   2  16    7.37    2.85
  -3   2  16    9.39    3.23
   3  -2 -15    2.83    2.26
  -3   2  15    0.03    0.65
   3  -2 -15    3.90    4.20
   3  -2 -14    1.93    1.89
  -3   2  14    1.14    0.86
  -3   2  13    0.78    0.59
  -3   2  13    1.36    1.34
  -3   2  13    0.98    0.37
   3  -2 -13    1.81    1.97
  -3   2  13    1.20    0.53
   3  -2 -13    2.10    0.42
   3  -2 -12  133.32   17.09
   3  -2 -12  109.03   10.97
  -3   2  12  112.31   10.26
   3  -2 -12  117.13    5.24
   3  -2 -12  121.84    9.80
  -3   2  12  119.65    5.41
   3  -2 -11   85.39   12.82
   3  -2 -11  113.91   10.80
   3  -2 -11  114.05    5.92
  -3   2  11  102.62    9.53
   3  -2 -11  107.83    8.82
   3  -2 -10  256.13   21.00
   3  -2 -10  256.27   16.19
   3  -2 -10  249.30   10.77
  -3   2  10  249.56   15.11
   3  -2 -10  221.41   12.38
   3  -2  -9    2.85    1.68
   3  -2  -9    1.35    0.89
   3  -2  -9    0.54    1.77
  -3   2   9    0.27    1.20
  -3   2   9    3.66    1.44
  -3   2   9    2.07    1.49
   3  -2  -9   -0.50    1.09
   3  -2  -8   32.40    4.95
   3  -2  -8   29.03    3.61
  -3   2   8   36.06    4.03
   3  -2  -8   27.68    4.66
  -3   2   8   29.11    4.94
   3  -2  -8   31.10    6.15
   3  -2  -8   29.83    3.60
  -3   2   8   23.18    4.09
  -3   2   7  275.34   15.70
   3  -2  -7  281.63   13.05
   3  -2  -7  240.20   14.33
   3  -2  -7  271.21   11.71
  -3   2   7  265.69   14.58
   3  -2  -7  276.59   15.30
   3  -2  -6  210.14   11.12
  -3   2   6  197.73   12.19
   3  -2  -6  175.86   11.56
  -3   2   6  191.02   11.89
   3  -2  -6  193.12    8.96
  -3   2   5    7.93    2.21
   3  -2  -5    6.80    2.20
  -3   2   5    8.30    2.41
   3  -2  -5    7.33    1.42
   3  -2  -5    2.83    1.12
  -3   2   4  992.34   31.50
  -3   2   4  989.99   33.47
   3  -2  -4  925.77   33.06
   3  -2  -4  989.30   30.30
   3  -2  -3    2.11    1.08
  -3   2   3    5.39    1.56
   3  -2  -3    2.52    1.15
  -3   2   3    1.01    0.68
   3  -2  -3    2.80    1.28
   3  -2  -3    2.82    1.03
  -3   2   3    2.39    0.88
  -3   2   2  824.03   23.98
   3  -2  -2  787.77   26.00
   3  -2  -2  784.66   27.34
   3  -2  -2  833.66   27.07
  -3   2   2  808.27   28.36
   3  -2  -2  775.23   24.96
  -3   2   2  775.06   25.09
  -3   2   1  326.53   10.41
  -3   2   1  319.00   15.14
   3  -2  -1  317.58   13.04
   3  -2  -1  303.49   12.41
  -3   2   1  318.15   13.26
   3  -2  -1  307.03   13.26
   3  -2   0  118.42    8.65
   3  -2   0  132.88    7.56
   3  -2   0  132.18    8.01
  -3   2   0  138.03    8.16
  -3   2   0  127.05    8.77
  -3   2  -1    1.80    0.84
  -3   2  -1    1.12    0.77
   3  -2   1    1.70    0.95
  -3   2  -1    1.46    1.07
   3  -2   1    2.55    0.98
   3  -2   2   96.65    6.98
  -3   2  -2   91.81    7.37
   3  -2   2   88.65    7.60
  -3   2  -2  103.20    7.39
  -3   2  -2   97.44    7.71
   3  -2   3   82.37    4.61
  -3   2  -3   80.06    5.41
   3  -2   3   75.42    7.05
  -3   2  -3   92.88    7.41
   3  -2   3   83.93    6.80
  -3   2  -3   86.07    7.19
   3  -2   4   20.45    2.57
   3  -2   4   22.22    1.81
   3  -2   4   22.01    3.75
  -3   2  -4   22.18    2.24
  -3   2  -4   24.02    3.72
   3  -2   4   20.89    3.52
  -3   2  -4   25.50    3.74
  -3   2  -4   19.30    3.53
   3  -2   5    2.89    0.64
  -3   2  -5    2.54    1.17
   3  -2   5    1.09    0.72
  -3   2  -5    2.53    1.22
   3  -2   5    1.84    1.22
  -3   2  -5    3.17    1.55
  -3   2  -5    1.56    0.59
   3  -2   5    1.42    0.88
   3  -2   5    2.00    1.08
  -3   2  -5    2.82    1.07
   3  -2   6    6.94    1.87
   3  -2   6    7.35    1.93
  -3   2  -6   10.32    2.25
  -3   2  -6   12.25    2.57
  -3   2  -6    8.40    2.51
  -3   2  -6   10.42    1.49
   3  -2   6    9.94    1.29
   3  -2   6   10.00    2.67
   3  -2   6   10.83    2.78
  -3   2  -6   14.71    3.37
  -3   2  -7   54.13    5.36
   3  -2   7   49.49    5.52
   3  -2   7   45.42    4.83
  -3   2  -7   47.96    6.63
  -3   2  -7   46.35    4.76
   3  -2   7   54.93    6.49
  -3   2  -7   40.33    3.24
  -3   2  -7   53.42    6.79
   3  -2   7   52.63    3.46
   3  -2   8   42.50    5.55
   3  -2   8   43.66    4.43
  -3   2  -8   38.09    4.32
   3  -2   8   41.10    5.89
  -3   2  -8   40.94    6.65
  -3   2  -8   38.89    6.02
   3  -2   8   45.03    3.54
   3  -2   9  172.37   12.27
  -3   2  -9  151.81   14.22
   3  -2   9  155.96    8.34
  -3   2  -9  166.51    9.61
   3  -2   9  172.13   12.95
   3  -2   9  180.61    8.40
   3  -2  10  190.41   14.16
  -3   2 -10  180.13   16.97
  -3   2 -10  192.19   10.74
   3  -2  10  189.13    8.63
   3  -2  10  195.20   14.31
   3  -2  10  200.24   13.84
   3  -2  10  203.43    9.75
  -3   2 -11    9.66    2.24
   3  -2  11   10.15    1.48
   3  -2  11   13.32    3.69
  -3   2 -11   -0.17    2.35
  -3   2 -11   13.07    1.62
   3  -2  11    7.56    2.72
   3  -2  11   12.56    3.42
  -3   2 -12    3.85    2.44
   3  -2  12    3.45    0.64
   3  -2  12    0.12    0.80
  -3   2 -12    4.36    1.66
   3  -2  12    6.10    2.27
  -3   2 -12    3.07    0.66
   3  -2  13    8.93    3.86
  -3   2 -13   13.46    2.95
  -3   2 -13   15.89    6.40
   3  -2  14   45.11    7.67
  -3   2 -14   37.75    5.04
  -3   2 -14   33.13    8.70
  -3   2 -15   53.24   11.70
  -3   2 -15   77.15    7.38
   3  -2  15   76.57   10.22
  -3   2 -16   29.94    4.90
   3  -2  16   30.79    6.39
  -3   1  19    2.40    2.17
  -3   1  18    8.74    3.06
   3  -1 -17   72.10   10.23
   3  -1 -17   50.07   12.05
  -3   1  17   69.16    9.26
   3  -1 -16   36.08    6.97
  -3   1  16   28.03    5.00
   3  -1 -16   38.15   10.51
  -3   1  16   29.87    5.91
   3  -1 -15    3.49    2.38
   3  -1 -15   -1.24    3.12
  -3   1  15    4.27    2.43
  -3   1  15    2.66    1.20
   3  -1 -14   13.60    4.28
  -3   1  14   16.21    3.78
   3  -1 -14   18.78    6.72
  -3   1  13    2.26    0.52
   3  -1 -13    3.04    0.65
   3  -1 -13    0.45    0.78
  -3   1  13    1.33    1.52
  -3   1  13    2.57    0.58
   3  -1 -13    1.20    1.69
   3  -1 -12  118.79   14.65
   3  -1 -12  147.72   12.46
   3  -1 -12  145.61    6.79
  -3   1  12  144.43    6.88
  -3   1  12  148.45    6.80
  -3   1  12  135.43   10.91
   3  -1 -11  295.51   22.06
   3  -1 -11  319.34   12.60
   3  -1 -11  303.66   18.01
  -3   1  11  301.48   16.69
   3  -1 -11  300.61   15.87
   3  -1 -10   45.65    4.43
   3  -1 -10   50.54    6.62
  -3   1  10   47.18    5.92
   3  -1 -10   48.59    8.08
   3  -1 -10   54.53    5.77
   3  -1 -10   51.33    6.56
   3  -1  -9   21.51    4.06
  -3   1   9   22.62    3.14
   3  -1  -9   26.51    4.71
  -3   1   9   24.86    4.91
  -3   1   9   22.50    3.88
   3  -1  -9   20.37    4.77
  -3   1   8  322.28   18.25
   3  -1  -8  320.45   19.00
   3  -1  -8  329.36   17.22
  -3   1   8  354.55   14.66
  -3   1   8  316.70   16.12
   3  -1  -8  337.19   17.52
   3  -1  -7    5.70    2.20
   3  -1  -7    5.65    1.93
  -3   1   7    7.36    2.46
  -3   1   7    6.68    1.97
   3  -1  -7    5.26    1.54
  -3   1   6  120.99    9.43
   3  -1  -6  107.74    8.98
   3  -1  -6   90.90    7.79
   3  -1  -6  123.81    7.35
  -3   1   6  119.43    8.71
  -3   1   5   63.07    6.14
   3  -1  -5   51.58    5.66
   3  -1  -5   62.38    4.79
   3  -1  -5   63.22    4.85
  -3   1   5   51.75    5.58
   3  -1  -5   58.74    5.38
  -3   1   4  165.26   10.19
  -3   1   4  162.74    9.43
   3  -1  -4  147.66    9.01
   3  -1  -4  162.21    9.45
  -3   1   4  154.42    9.41
   3  -1  -4  156.88    7.36
  -3   1   3   57.55    4.82
   3  -1  -3   47.91    4.34
   3  -1  -3   53.12    3.59
   3  -1  -3   58.51    5.47
  -3   1   3   58.94    5.75
  -3   1   2  156.92    7.52
   3  -1  -2  167.45    7.69
  -3   1   2  163.22   10.09
   3  -1  -2  160.28    9.79
   3  -1  -2  164.87    7.18
  -3   1   2  155.91    7.02
  -3   1   1    0.60    1.27
   3  -1  -1   -0.23    0.37
   3  -1  -1    0.68    0.81
  -3   1   1    0.40    0.42
   3  -1   0   91.75    3.94
  -3   1   0   88.24    7.05
   3  -1   0   96.00    6.98
  -3   1   0   82.99    5.64
   3  -1   1  488.22   20.35
  -3   1  -1  509.81   20.20
  -3   1  -1  459.21   18.69
   3  -1   1  510.67   19.71
   3  -1   2 2398.76   71.66
   3  -1   2 2598.72   65.71
  -3   1  -2 2664.75   71.68
   3  -1   2 2618.36   71.66
  -3   1  -2 2506.99   71.26
   3  -1   3   62.53    4.26
   3  -1   3   60.23    4.40
   3  -1   3   55.26    6.09
   3  -1   3   60.11    6.04
  -3   1  -3   68.82    6.13
  -3   1  -3   58.39    6.20
   3  -1   4  675.98   20.93
   3  -1   4  708.37   23.58
  -3   1  -4  748.84   19.26
  -3   1  -4  755.39   26.20
   3  -1   4  698.10   27.21
   3  -1   4  679.77   26.81
  -3   1  -4  737.45   28.39
   3  -1   5  547.02   17.03
   3  -1   5  537.84   20.28
   3  -1   5  546.77   23.20
  -3   1  -5  528.98   20.01
  -3   1  -5  570.08   21.49
   3  -1   5  559.27   23.35
  -3   1  -5  556.27   14.73
  -3   1  -6   -0.29    0.56
   3  -1   6    2.59    1.33
   3  -1   6    1.52    0.59
  -3   1  -6    2.77    1.17
   3  -1   6    0.02    1.05
   3  -1   7   56.39    4.12
   3  -1   7   55.78    6.05
  -3   1  -7   59.01    5.14
   3  -1   7   64.14    7.14
  -3   1  -7   60.56    7.44
   3  -1   8  364.22   18.61
  -3   1  -8  403.88   16.13
   3  -1   8  372.09   19.29
   3  -1   8  383.24   20.15
  -3   1  -8  366.16   21.07
   3  -1   8  394.53   14.86
  -3   1  -9  214.53   10.05
   3  -1   9  228.40   14.94
   3  -1   9  260.69   11.91
  -3   1  -9  252.04   12.18
   3  -1   9  264.72   16.01
   3  -1   9  248.18   16.20
   3  -1   9  254.91   11.81
  -3   1 -10  198.20    9.83
  -3   1 -10  224.96    9.54
   3  -1  10  206.36   15.19
   3  -1  10  237.87   15.74
   3  -1  10  230.77   10.28
  -3   1 -10  234.18   11.83
   3  -1  10  229.17   15.84
  -3   1 -10  227.24    9.28
   3  -1  10  247.19   12.23
  -3   1 -11   14.14    1.61
   3  -1  11   17.09    3.19
  -3   1 -11   11.32    2.09
   3  -1  11   17.85    2.04
  -3   1 -11   14.30    2.75
   3  -1  11   21.18    4.63
  -3   1 -11   15.97    1.68
   3  -1  11   13.76    3.93
  -3   1 -12   61.18    5.94
   3  -1  12   58.75    2.73
   3  -1  12   49.71    7.41
   3  -1  12   60.29    6.13
   3  -1  13    3.04    1.67
  -3   1 -13   10.87    2.68
   3  -1  13    6.98    3.14
  -3   1 -14    5.61    2.06
   3  -1  14    4.71    2.19
  -3   1 -15    0.60    0.81
   3  -1  15    1.68    1.12
   3  -1  16    2.29    2.48
  -3   0  19   60.26    8.37
  -3   0  18   23.35    5.32
   3   0 -17   25.89    5.86
   3   0 -17   22.76    7.61
  -3   0  17   25.31    5.38
   3   0 -16    0.80    1.54
  -3   0  16    0.53    1.23
   3   0 -16    0.43    2.60
  -3   0  15   53.48    6.30
   3   0 -15   46.47    7.41
   3   0 -15   62.31   11.40
  -3   0  15   41.15    6.81
   3   0 -14  127.49   15.54
   3   0 -14  120.29   11.92
  -3   0  14  120.07    9.74
  -3   0  14  118.45   11.54
  -3   0  14  134.56    4.30
   3   0 -13   14.29    1.85
   3   0 -13   17.98    4.47
   3   0 -13   21.74    5.92
  -3   0  13   13.53    3.12
  -3   0  13   17.67    4.24
  -3   0  13   19.00    1.67
   3   0 -12   22.64    4.83
   3   0 -12   28.81    6.68
  -3   0  12   31.32    4.72
  -3   0  12   25.79    2.45
  -3   0  12   32.52    5.72
  -3   0  12   26.35    2.49
  -3   0  11  519.23   17.32
   3   0 -11  542.71   29.02
   3   0 -11  500.44   24.03
  -3   0  11  503.46   21.70
   3   0 -11  513.77   22.44
  -3   0  11  499.29   16.86
   3   0 -10    7.68    3.03
  -3   0  10    6.27    1.49
   3   0 -10    6.17    2.36
   3   0 -10    3.96    1.82
  -3   0  10    5.53    1.41
  -3   0  10    4.70    1.79
   3   0 -10    3.99    1.68
  -3   0   9  357.15   20.15
   3   0  -9  334.29   20.05
   3   0  -9  350.77   17.90
  -3   0   9  346.18   14.20
  -3   0   9  326.94   16.05
   3   0  -9  319.91   15.62
  -3   0   9  311.55   13.31
   3   0  -9  327.80   17.65
  -3   0   8   31.89    4.33
   3   0  -8   32.27    4.79
  -3   0   8   34.10    3.84
  -3   0   8   36.40    5.70
   3   0  -8   29.43    5.16
   3   0  -8   38.49    5.50
   3   0  -7    2.23    1.41
  -3   0   7    5.98    2.37
   3   0  -7    2.46    1.20
  -3   0   7    2.51    1.28
  -3   0   6    4.06    1.64
  -3   0   6    1.42    1.12
   3   0  -6    2.14    1.11
   3   0  -6    1.47    1.06
   3   0  -6    0.95    1.17
   3   0  -6    2.25    1.08
  -3   0   5   20.61    3.34
  -3   0   5   21.99    3.24
  -3   0   5   21.45    3.70
   3   0  -5   18.40    3.29
   3   0  -5   19.03    2.95
  -3   0   4   41.94    4.59
   3   0  -4   43.58    4.87
  -3   0   4   44.48    4.68
   3   0  -4   43.72    4.69
  -3   0   4   41.28    4.72
   3   0  -4   41.99    2.31
  -3   0   3  152.59    8.58
   3   0  -3  145.52    8.61
   3   0  -3  161.36    9.66
  -3   0   3  155.76    9.61
   3   0  -2    0.69    0.75
   3   0  -2    1.77    1.13
  -3   0   2    0.13    0.70
  -3   0   2    1.61    0.46
   3   0  -1   10.35    1.82
   3   0  -1    8.07    2.27
  -3   0   1    5.93    1.92
  -3   0   1    9.79    1.51
  -3   0   0   99.83    7.70
   3   0   0   99.03    7.72
   3   0   0  110.71    8.15
  -3   0  -1 1045.18   33.29
   3   0   1  976.85   34.07
  -3   0  -2  934.65   30.37
   3   0   2  851.06   30.82
   3   0   2  895.28   31.57
  -3   0  -2  861.28   30.83
   3   0   3    9.73    2.51
   3   0   3   10.36    1.90
  -3   0  -3   12.45    2.62
  -3   0  -3   12.75    1.12
   3   0   3    9.10    2.52
   3   0   3   12.27    2.97
   3   0   4   71.76    5.09
   3   0   4   85.33    7.73
  -3   0  -4   66.06    5.40
  -3   0  -4   75.84    6.56
   3   0   4   85.18    7.89
   3   0   5  118.06    6.70
   3   0   5  112.73    9.05
  -3   0  -5  107.60    7.07
   3   0   5  128.17    9.99
  -3   0  -6   17.95    4.27
   3   0   6   13.94    3.29
   3   0   6   14.89    2.37
  -3   0  -6   19.17    2.94
   3   0   6   15.47    3.48
   3   0   6   24.86    4.65
  -3   0  -7    0.99    1.31
  -3   0  -7    1.74    1.10
   3   0   7    0.74    0.86
   3   0   7    2.19    1.61
  -3   0  -7    0.54    0.54
   3   0   7   -0.50    0.98
   3   0   7    1.31    1.81
  -3   0  -8    1.18    0.70
   3   0   8    1.50    0.83
  -3   0  -8    1.32    0.86
   3   0   8    1.05    1.03
   3   0   8    2.91    1.87
  -3   0  -8    1.65    1.01
   3   0   8    3.62    2.38
  -3   0  -8    1.70    1.10
  -3   0  -9  353.64   12.80
  -3   0  -9  288.07   13.63
   3   0   9  349.57   19.89
  -3   0  -9  352.50   14.89
  -3   0  -9  343.89   12.46
   3   0   9  357.91   20.18
   3   0   9  340.30   19.18
   3   0   9  375.01   15.90
   3   0  10    3.65    1.46
  -3   0 -10    3.09    1.00
  -3   0 -10    4.41    1.53
   3   0  10    3.65    1.52
  -3   0 -10    3.39    0.93
  -3   0 -10    5.20    1.05
  -3   0 -11   35.02    4.12
   3   0  11   47.07    3.89
  -3   0 -11   51.47    5.27
  -3   0 -11   51.15    2.78
   3   0  11   50.49    7.45
   3   0  11   40.74    5.33
   3   0  12    1.48    1.38
  -3   0 -12    1.56    0.78
   3   0  12    1.63    0.46
  -3   0 -12    1.91    1.26
   3   0  12    3.80    2.69
   3   0  13    3.98    1.76
  -3   0 -13    5.43    1.88
   3   0  13    3.52    1.98
  -3   0 -14    1.60    1.13
   3   0  14    2.57    1.53
   3   0  14   -0.09    1.61
   3   0  15    5.68    3.16
  -3   0 -15    5.32    2.43
  -3  -1  19    8.51    2.98
  -3  -1  18    4.72    2.67
   3   1 -17    8.40    3.38
   3   1 -17    1.60    2.51
  -3  -1  17    4.01    2.47
   3   1 -16   18.03    4.77
   3   1 -16   22.32    6.99
  -3  -1  16   23.24    5.10
   3   1 -15    8.18    3.32
   3   1 -15    4.40    2.97
  -3  -1  15    9.56    3.26
  -3  -1  14    1.27    0.53
   3   1 -14    1.71    1.34
  -3  -1  14    2.99    1.08
  -3  -1  14    1.23    1.81
   3   1 -14    4.50    2.75
   3   1 -13  163.08   16.16
   3   1 -13  149.60   12.70
  -3  -1  13  142.64    9.54
  -3  -1  13  160.57   13.26
  -3  -1  13  173.51    6.67
  -3  -1  12    1.44    0.87
   3   1 -12    0.63    1.41
  -3  -1  12    1.45    0.68
   3   1 -12    1.05    1.13
  -3  -1  12    0.51    1.21
   3   1 -11   51.32    6.74
  -3  -1  11   56.85    5.61
  -3  -1  11   51.02    3.94
  -3  -1  11   46.19    6.62
   3   1 -11   46.26    7.68
   3   1 -11   58.07    7.32
  -3  -1  11   49.31    3.91
  -3  -1  10   42.93    3.87
   3   1 -10   42.83    5.55
   3   1 -10   39.47    5.88
   3   1 -10   41.71    5.75
   3   1 -10   39.94    6.80
  -3  -1  10   42.83    4.20
  -3  -1  10   37.61    5.70
  -3  -1  10   45.51    3.88
  -3  -1  10   45.70    4.90
  -3  -1   9   53.94    4.69
  -3  -1   9   59.50    7.78
   3   1  -9   48.84    7.06
   3   1  -9   57.77    6.49
  -3  -1   9   54.45    4.67
   3   1  -9   61.23    6.33
  -3  -1   9   57.53    6.91
  -3  -1   9   51.47    4.51
  -3  -1   9   54.57    5.39
   3   1  -9   47.42    6.22
  -3  -1   8   22.66    3.13
   3   1  -8   23.47    4.74
  -3  -1   8   27.36    3.24
  -3  -1   8   26.20    4.94
   3   1  -8   26.12    4.22
  -3  -1   8   29.09    3.85
   3   1  -8   26.49    4.12
  -3  -1   8   26.17    4.54
  -3  -1   8   24.87    3.18
  -3  -1   7  185.55    9.48
  -3  -1   7  206.95   13.35
   3   1  -7  188.56   11.14
   3   1  -7  207.24    9.46
  -3  -1   7  206.20   12.24
  -3  -1   7  190.97   10.05
  -3  -1   7  192.46    9.53
  -3  -1   6   44.23    5.86
   3   1  -6   34.49    4.42
  -3  -1   6   37.64    3.94
  -3  -1   6   41.02    4.57
   3   1  -6   41.67    4.29
  -3  -1   6   39.38    5.07
  -3  -1   6   33.48    3.98
  -3  -1   5  146.27   10.09
   3   1  -5  151.74   10.68
  -3  -1   5  168.30    9.17
   3   1  -5  164.18    9.38
  -3  -1   5  161.86    9.59
  -3  -1   5  149.31    8.99
   3   1  -4   47.34    5.47
  -3  -1   4   51.53    4.80
  -3  -1   4   48.01    5.00
   3   1  -4   51.00    5.20
  -3  -1   4   50.18    5.25
   3   1  -3   25.33    3.78
  -3  -1   3   34.66    4.24
  -3  -1   3   28.87    3.48
   3   1  -3   30.22    4.03
  -3  -1   3   35.14    4.01
  -3  -1   2   11.46    2.17
  -3  -1   2    9.54    2.13
   3   1  -2    9.52    2.21
   3   1  -2    9.60    2.38
   3   1  -1  145.36    9.52
  -3  -1   1  145.47    9.21
  -3  -1   1  156.64    8.21
   3   1   0  114.42    8.52
  -3  -1   0  130.89    8.60
  -3  -1   0  135.30    6.86
   3   1   1    7.50    2.45
  -3  -1  -1   11.60    2.51
  -3  -1  -1    9.58    1.47
   3   1   2   10.52    2.89
   3   1   2   14.94    2.60
  -3  -1  -2   16.98    2.97
  -3  -1  -2   16.99    1.63
   3   1   3   -0.46    0.67
  -3  -1  -3    0.56    0.95
   3   1   3    0.67    0.82
  -3  -1  -3    0.35    0.37
  -3  -1  -3    0.72    0.33
  -3  -1  -4  138.94    8.23
   3   1   4  160.69   12.80
  -3  -1  -4  141.55    7.30
   3   1   4  154.03    8.23
  -3  -1  -4  154.03    8.46
   3   1   4  158.96   11.42
   3   1   5   36.26    4.02
  -3  -1  -5   35.03    4.00
  -3  -1  -5   28.16    5.12
  -3  -1  -5   33.48    3.62
   3   1   5   28.25    4.79
   3   1   5   38.73    6.24
  -3  -1  -5   30.85    3.65
   3   1   5   31.43    5.10
   3   1   6   67.61    5.70
   3   1   6   65.18    8.06
  -3  -1  -6   64.71    5.35
  -3  -1  -6   62.18    5.02
   3   1   6   66.84    7.68
  -3  -1  -6   70.16    8.38
  -3  -1  -6   68.57    5.27
   3   1   6   55.18    6.62
  -3  -1  -7    0.91    1.40
   3   1   7    3.85    1.52
  -3  -1  -7    2.94    1.19
  -3  -1  -7    5.52    1.54
  -3  -1  -7    3.03    1.11
   3   1   7    2.05    1.54
   3   1   7    3.33    1.55
   3   1   7    3.14    1.74
  -3  -1  -7    4.21    1.29
   3   1   8   -1.31    3.27
   3   1   8    3.87    1.61
  -3  -1  -8    1.52    0.77
  -3  -1  -8    3.82    1.14
  -3  -1  -8    7.40    1.89
   3   1   8    1.95    1.38
  -3  -1  -8    4.97    1.23
   3   1   8    3.65    2.23
   3   1   9  203.85   15.30
  -3  -1  -9  197.88   10.22
   3   1   9  197.22   14.85
  -3  -1  -9  194.15    8.12
   3   1   9  180.30   11.28
  -3  -1 -10   40.09    4.82
  -3  -1 -10   43.51    4.64
   3   1  10   39.31    6.55
  -3  -1 -10   45.27    3.06
   3   1  10   38.72    5.21
   3   1  11   -0.18    0.96
  -3  -1 -11    0.23    0.48
  -3  -1 -11    0.62    0.24
  -3  -1 -11    2.58    1.39
   3   1  11    3.45    2.33
   3   1  12   25.91    4.67
  -3  -1 -12   29.47    4.10
   3   1  12   28.68    5.83
   3   1  13   32.83    5.44
  -3  -1 -13   33.63    4.65
   3   1  13   29.49    6.07
   3   1  14    2.59    1.84
  -3  -1 -14    2.20    1.02
   3   1  14    1.45    0.93
  -3  -1 -15   20.11    3.97
   3   1  15   26.60    6.00
  -3  -2  19   21.12    5.17
  -3  -2  18    1.63    2.02
   3   2 -17   14.33    4.13
   3   2 -17   22.79    6.93
  -3  -2  17   29.44    5.92
  -3  -2  16   57.98    8.00
   3   2 -16   43.61    7.24
   3   2 -16   38.66    8.78
   3   2 -15    3.53    2.50
   3   2 -15    0.04    1.25
  -3  -2  15    3.14    2.10
   3   2 -14   24.47    5.10
   3   2 -14   30.21    7.10
  -3  -2  14   24.39    2.55
  -3  -2  14   20.08    4.57
  -3  -2  14   28.45    2.40
   3   2 -13  102.11   12.58
   3   2 -13  107.11   10.53
  -3  -2  13  122.02    6.62
  -3  -2  13  112.84   10.95
  -3  -2  13  126.39    5.94
   3   2 -12   65.47    7.84
   3   2 -12   47.16    8.10
  -3  -2  12   60.08    4.62
  -3  -2  12   56.59    7.47
  -3  -2  12   60.73    4.17
   3   2 -11    0.40    0.91
  -3  -2  11    0.27    0.45
   3   2 -11    3.10    2.21
  -3  -2  11   -0.12    1.21
  -3  -2  11    1.22    0.84
  -3  -2  10    9.89    1.93
   3   2 -10   14.75    3.38
   3   2 -10   13.66    4.13
  -3  -2  10   11.49    2.05
  -3  -2  10   12.29    3.34
  -3  -2  10   12.34    2.04
  -3  -2   9  139.34    7.89
  -3  -2   9  145.79   12.75
   3   2  -9  141.12   12.79
   3   2  -9  152.28   10.85
  -3  -2   9  141.96    7.67
   3   2  -9  140.19   10.58
  -3  -2   9  130.95    7.55
  -3  -2   9  131.40   10.67
  -3  -2   9  148.92    8.06
  -3  -2   8    8.09    1.76
  -3  -2   8    7.43    2.65
   3   2  -8    6.60    2.17
   3   2  -8    6.48    2.35
  -3  -2   8    3.89    1.19
   3   2  -8    7.09    1.60
  -3  -2   8    5.99    1.49
   3   2  -8    7.88    2.39
  -3  -2   8    9.04    2.63
   3   2  -8    8.52    2.10
  -3  -2   8    9.62    1.97
  -3  -2   7  124.52    7.76
  -3  -2   7  116.11   10.12
   3   2  -7   97.44    9.75
   3   2  -7  107.37    8.35
  -3  -2   7  113.51    7.18
   3   2  -7  131.50    7.11
   3   2  -7  122.17    9.29
  -3  -2   7  109.21    9.08
  -3  -2   7  104.82    7.02
   3   2  -7  113.10    7.24
  -3  -2   6  125.21    8.06
   3   2  -6  124.90    8.01
  -3  -2   6  121.67    7.01
  -3  -2   6  122.86    7.64
  -3  -2   6  127.56    9.44
  -3  -2   6  126.44    7.92
   3   2  -6  132.88    5.97
  -3  -2   5   26.95    3.62
  -3  -2   5   26.71    3.14
   3   2  -5   28.37    3.81
  -3  -2   5   28.83    4.20
  -3  -2   5   25.28    3.48
   3   2  -5   24.11    1.73
  -3  -2   5   24.60    3.21
  -3  -2   4  109.53    7.72
   3   2  -4  113.73    9.36
  -3  -2   4  121.88    7.20
   3   2  -4  117.12    8.12
  -3  -2   4  108.25    7.29
  -3  -2   4  101.61    7.79
  -3  -2   4  115.35    7.80
  -3  -2   3  117.09    7.95
   3   2  -3  107.66    8.82
  -3  -2   3  119.49    7.78
  -3  -2   3  102.46    6.57
   3   2  -3   98.24    7.69
  -3  -2   3  124.80    8.05
  -3  -2   3  107.89    4.60
  -3  -2   3  115.66    7.86
  -3  -2   2    7.15    1.25
  -3  -2   2    8.38    2.03
  -3  -2   2    5.51    1.73
  -3  -2   2    7.89    1.96
   3   2  -2    6.36    1.75
  -3  -2   2    8.80    1.94
  -3  -2   1  152.83    9.40
   3   2  -1  144.02    9.60
  -3  -2   1  154.57    8.19
  -3  -2   1  157.59    9.37
  -3  -2   1  145.16    9.08
  -3  -2   0   51.49    5.12
   3   2   0   50.44    5.52
  -3  -2   0   48.77    4.02
  -3  -2   0   47.14    4.90
  -3  -2  -1  309.83   14.38
   3   2   1  301.85   14.65
  -3  -2  -1  324.12   11.44
   3   2   1  308.87   17.30
  -3  -2  -1  294.38   13.93
   3   2   1  302.35   15.49
  -3  -2  -2   33.36    4.01
   3   2   2   29.20    4.05
   3   2   2   26.81    4.82
  -3  -2  -2   34.06    2.76
  -3  -2  -2   30.94    3.78
   3   2   3    6.94    2.41
   3   2   3    7.62    2.02
  -3  -2  -3    7.55    1.88
  -3  -2  -3    4.23    1.18
  -3  -2  -3    4.36    1.47
  -3  -2  -4  100.91    6.97
   3   2   4  101.20    7.64
  -3  -2  -4  110.02    6.40
   3   2   4  109.99    9.27
   3   2   4  111.81   10.21
  -3  -2  -4  115.67    7.24
  -3  -2  -5    1.10    1.70
   3   2   5    0.71    0.48
  -3  -2  -5   -0.19    0.44
  -3  -2  -5   -0.05    0.36
  -3  -2  -5    0.79    0.78
   3   2   5   -0.48    0.67
   3   2   5    2.64    2.12
   3   2   5   -0.01    0.78
   3   2   6    0.37    1.00
   3   2   6    1.56    1.56
  -3  -2  -6    0.98    0.79
  -3  -2  -6    0.52    0.41
   3   2   6   -1.11    1.98
  -3  -2  -6   -1.30    1.01
   3   2   6    0.09    1.40
  -3  -2  -6    0.06    0.40
   3   2   7  107.65    8.33
  -3  -2  -7   87.52    7.56
   3   2   7  109.45   12.41
  -3  -2  -7  102.85    6.49
   3   2   7   97.15   10.03
  -3  -2  -7  102.89    6.11
   3   2   8   35.71    4.98
  -3  -2  -8   29.23    4.27
  -3  -2  -8   38.87    3.98
   3   2   8   36.53    6.84
   3   2   8   40.95    6.68
  -3  -2  -8   38.63    3.33
   3   2   9   25.56    4.30
  -3  -2  -9   18.71    3.53
  -3  -2  -9   25.43    3.32
   3   2   9   29.71    5.82
  -3  -2  -9   28.30    2.63
   3   2  10   20.26    3.98
  -3  -2 -10   19.38    3.07
  -3  -2 -10   22.11    2.19
   3   2  10   18.88    4.66
   3   2  11   33.90    5.44
  -3  -2 -11   35.11    4.34
  -3  -2 -11   38.51    2.77
   3   2  11   37.12    6.65
   3   2  12    5.55    2.35
  -3  -2 -12    4.35    1.65
   3   2  12    6.79    3.01
   3   2  13   -0.68    0.98
  -3  -2 -13    1.60    1.20
   3   2  13   -1.93    1.91
   3   2  14   -0.33    1.19
  -3  -2 -14   -0.74    1.19
   3   2  14    2.09    1.53
   3   2  15   24.03    5.70
  -3  -2 -15   20.75    4.18
   3   3 -18    4.72    3.07
  -3  -3  18    0.07    1.92
   3   3 -17    1.07    1.86
   3   3 -17    1.16    1.85
  -3  -3  17    1.26    1.27
   3   3 -16    0.25    1.03
  -3  -3  16    1.17    1.16
   3   3 -16    0.22    1.43
   3   3 -15   12.73    3.74
   3   3 -15    6.84    3.93
  -3  -3  15   20.72    4.84
   3   3 -14   16.36    5.31
   3   3 -14   10.52    3.41
  -3  -3  14   19.14    2.26
  -3  -3  14   19.11    4.57
   3   3 -13   31.85    5.62
   3   3 -13   34.34    7.37
  -3  -3  13   38.12    3.37
  -3  -3  13   45.11    6.76
   3   3 -13   37.16    5.58
   3   3 -12   19.31    4.24
   3   3 -12   15.94    4.82
  -3  -3  12   18.51    4.03
   3   3 -12   26.02    4.70
  -3  -3  12   22.88    2.68
  -3  -3  11   12.68    2.04
   3   3 -11   10.72    3.16
   3   3 -11   12.91    4.26
  -3  -3  11   10.55    3.03
   3   3 -11    8.76    2.46
  -3  -3  10   24.04    4.60
  -3  -3  10   24.68    2.97
   3   3 -10   23.39    4.14
   3   3 -10   19.96    5.28
  -3  -3  10   24.70    2.22
   3   3 -10   20.53    3.72
  -3  -3  10   18.85    2.57
  -3  -3   9   26.00    2.82
   3   3  -9   26.03    4.24
   3   3  -9   20.95    5.05
  -3  -3   9   26.80    2.59
  -3  -3   9   27.21    4.94
   3   3  -9   24.97    3.82
  -3  -3   9   20.98    2.78
  -3  -3   8    0.40    0.46
   3   3  -8    0.06    1.49
   3   3  -8    1.90    1.43
  -3  -3   8    0.88    0.63
   3   3  -8    0.80    0.53
   3   3  -8    0.85    0.74
  -3  -3   8    1.30    1.40
   3   3  -8    0.92    0.68
  -3  -3   7   33.23    3.71
   3   3  -7   30.05    4.09
   3   3  -7   30.36    5.67
  -3  -3   7   35.28    3.40
   3   3  -7   31.64    3.76
  -3  -3   7   36.03    5.08
   3   3  -7   29.42    3.16
  -3  -3   7   31.91    3.70
  -3  -3   6    2.08    0.83
   3   3  -6    2.92    1.24
   3   3  -6    3.89    2.31
  -3  -3   6    4.70    1.37
  -3  -3   6    2.86    1.35
  -3  -3   6    2.57    1.22
  -3  -3   6    3.74    1.37
   3   3  -6    4.42    1.13
  -3  -3   5   92.02    6.80
   3   3  -5   93.68    9.49
  -3  -3   5   95.69    6.79
  -3  -3   5   93.38    5.46
   3   3  -5   84.73    7.01
  -3  -3   5  102.26    8.18
   3   3  -5   94.93    5.12
  -3  -3   4  148.58    8.97
  -3  -3   4  148.79    7.34
   3   3  -4  131.05    9.03
  -3  -3   4  154.72    9.89
  -3  -3   4  154.57    8.89
  -3  -3   4  137.26    6.73
  -3  -3   3    0.00    0.33
  -3  -3   3    2.53    1.38
   3   3  -3   -0.18    0.75
  -3  -3   3    0.10    0.58
  -3  -3   3    0.96    0.76
  -3  -3   3    1.59    1.02
  -3  -3   2   25.76    3.61
  -3  -3   2   23.51    3.28
  -3  -3   2   27.32    3.61
   3   3  -2   21.68    3.33
  -3  -3   2   26.41    2.95
   3   3  -2   18.03    3.35
  -3  -3   1  490.58   18.81
  -3  -3   1  463.57   17.31
   3   3  -1  444.45   18.13
  -3  -3   1  485.77   18.50
  -3  -3   1  455.79   17.58
   3   3  -1  450.82   19.82
   3   3   0   17.46    3.51
   3   3   0   16.75    3.40
   3   3   0   20.33    3.00
  -3  -3   0   16.54    2.45
  -3  -3   0   19.60    2.98
  -3  -3   0   18.59    2.92
   3   3   1   22.92    3.92
   3   3   1   26.78    5.01
   3   3   1   16.93    3.24
  -3  -3  -1   18.27    2.17
  -3  -3  -1   21.69    3.16
  -3  -3  -1   19.70    2.55
   3   3   1   21.44    2.84
  -3  -3  -1   17.54    2.83
  -3  -3  -2  102.13    7.13
   3   3   2  105.61    8.25
  -3  -3  -2   95.45    5.49
   3   3   2   96.08    6.11
   3   3   2  101.02    8.74
  -3  -3  -2  105.53    7.01
  -3  -3  -2   99.89    5.96
   3   3   2  101.86   10.05
   3   3   3  247.04   13.53
  -3  -3  -3  250.50    9.97
   3   3   3  260.70   15.05
   3   3   3  247.99   10.24
   3   3   3  269.61   17.50
  -3  -3  -3  256.09   11.69
  -3  -3  -3  259.86   12.02
   3   3   4   -1.48    1.44
   3   3   4   -0.11    0.58
  -3  -3  -4    1.89    0.92
   3   3   4   -0.29    0.71
  -3  -3  -4    0.93    0.66
   3   3   4    0.77    0.36
   3   3   5   38.04    5.06
  -3  -3  -5   37.51    3.41
   3   3   5   37.07    2.77
  -3  -3  -5   41.72    4.02
   3   3   5   37.49    6.32
   3   3   6   14.65    3.21
  -3  -3  -6   15.74    2.28
  -3  -3  -6   15.43    2.33
   3   3   6   11.46    3.72
   3   3   7   17.04    3.64
  -3  -3  -7   19.86    2.69
  -3  -3  -7   17.98    2.40
   3   3   7    9.99    3.37
   3   3   8   63.49    7.12
  -3  -3  -8   55.37    4.19
  -3  -3  -8   50.51    4.57
   3   3   8   36.61    6.41
   3   3   9   15.77    3.73
  -3  -3  -9   21.50    3.08
  -3  -3  -9   20.48    2.42
   3   3   9   17.62    4.69
   3   3  10   31.32    5.44
  -3  -3 -10   31.38    3.94
  -3  -3 -10   33.87    3.02
   3   3  10   35.00    6.75
   3   3  11    1.57    1.89
  -3  -3 -11    0.58    1.00
   3   3  11    1.56    1.59
   3   3  12    5.43    2.57
  -3  -3 -12    4.33    1.61
   3   3  12    3.03    1.66
   3   3  13   -0.29    1.39
  -3  -3 -13   -0.52    1.24
   3   3  13    2.66    1.81
   3   3  14   -1.70    1.13
  -3  -3 -14   -0.61    0.95
   3   3  14   -0.50    1.59
   3   4 -18   -2.86    1.18
  -3  -4  18    4.39    2.70
   3   4 -17   -0.15    1.21
  -3  -4  17    1.45    1.72
   3   4 -16    2.42    1.47
  -3  -4  16    1.59    1.50
   3   4 -16    1.83    2.05
   3   4 -15    2.25    1.94
  -3  -4  15   -0.87    0.92
   3   4 -15    0.07    1.72
  -3  -4  14    1.19    0.74
   3   4 -14    0.52    1.39
  -3  -4  14   -0.88    1.24
   3   4 -13   24.55    4.97
   3   4 -13   31.26    7.31
  -3  -4  13   31.34    5.88
  -3  -4  13   27.39    3.08
  -3  -4  12    1.36    0.68
   3   4 -12    0.37    0.68
   3   4 -12   -1.99    2.67
  -3  -4  12   -0.64    0.82
   3   4 -12    0.59    0.96
  -3  -4  11   11.27    1.98
   3   4 -11    8.35    2.68
   3   4 -11    5.13    3.21
  -3  -4  11    8.07    2.86
   3   4 -11   10.46    2.83
  -3  -4  10    1.84    0.86
  -3  -4  10    1.04    0.68
   3   4 -10    1.22    1.33
   3   4 -10    2.94    2.35
  -3  -4  10    3.56    2.60
   3   4 -10    1.75    1.18
  -3  -4   9   18.33    2.46
   3   4  -9   15.80    4.79
  -3  -4   9   14.08    2.38
   3   4  -9   18.20    3.50
   3   4  -9   18.07    2.25
  -3  -4   9   22.19    4.57
   3   4  -9   18.89    3.22
   3   4  -8   92.66   11.11
   3   4  -8   85.21    7.38
   3   4  -8   95.33    6.38
  -3  -4   8  100.00    9.30
   3   4  -8   86.15    6.42
  -3  -4   8   86.61    6.25
   3   4  -7   55.70    8.22
  -3  -4   7   47.79    3.44
   3   4  -7   42.96    4.61
  -3  -4   7   44.51    5.88
   3   4  -7   41.54    4.01
  -3  -4   7   45.96    4.49
  -3  -4   6   32.66    2.72
   3   4  -6   34.24    6.12
   3   4  -6   35.23    4.34
  -3  -4   6   38.87    5.34
   3   4  -6   34.73    3.43
  -3  -4   6   39.82    4.19
   3   4  -5    0.15    1.17
  -3  -4   5    2.12    0.98
  -3  -4   5    0.74    0.36
  -3  -4   5   -0.43    0.71
  -3  -4   5    0.60    0.67
   3   4  -5   -0.25    0.50
  -3  -4   4   75.72    4.19
   3   4  -4   70.02    6.60
  -3  -4   4   79.44    7.04
   3   4  -4   71.43    7.14
  -3  -4   4   62.51    5.26
  -3  -4   4   79.07    6.18
   3   4  -3   48.02    5.47
  -3  -4   3   46.59    3.31
  -3  -4   3   50.16    5.33
   3   4  -3   39.68    5.10
  -3  -4   3   44.46    4.44
  -3  -4   3   47.37    4.80
   3   4  -2   23.14    3.87
   3   4  -2   18.71    3.93
  -3  -4   2   24.59    2.46
  -3  -4   2   27.45    3.82
  -3  -4   2   25.08    3.43
  -3  -4   2   25.32    3.41
   3   4  -1   27.76    4.69
   3   4  -1   55.37    6.19
  -3  -4   1   41.42    4.48
  -3  -4   1   43.17    4.87
  -3  -4   1   37.60    4.22
   3   4   0   70.01    7.19
  -3  -4   0   63.02    3.76
   3   4   0   75.83    7.50
  -3  -4   0   72.61    5.82
   3   4   0   66.63    5.85
  -3  -4   0   67.84    6.64
  -3  -4   0   68.67    5.78
   3   4   1   18.19    4.42
   3   4   1   13.37    3.04
  -3  -4  -1   15.49    1.74
   3   4   1   15.39    3.39
  -3  -4  -1   15.09    2.65
   3   4   1   16.88    2.72
  -3  -4  -1   21.01    3.06
   3   4   2  219.98   13.14
  -3  -4  -2  222.27    8.38
   3   4   2  218.71   13.90
   3   4   2  221.75   10.62
   3   4   2  219.52   16.23
  -3  -4  -2  211.39   10.85
   3   4   3    7.62    3.26
   3   4   3    6.91    2.33
  -3  -4  -3    7.90    1.87
  -3  -4  -3    7.45    1.30
   3   4   3   11.16    1.99
   3   4   4    4.84    2.56
   3   4   4    4.86    1.93
  -3  -4  -4    4.83    1.46
  -3  -4  -4    6.41    1.28
   3   4   4    3.84    1.18
   3   4   5   25.65    4.36
  -3  -4  -5   20.93    2.45
   3   4   5   19.30    2.34
  -3  -4  -5   21.30    2.97
   3   4   5   18.97    4.73
   3   4   6   68.94    7.52
  -3  -4  -6   67.50    4.85
   3   4   6   75.12    9.40
   3   4   6   71.68    4.33
  -3  -4  -6   76.88    5.45
   3   4   7    8.88    2.82
  -3  -4  -7    5.53    1.27
  -3  -4  -7    4.80    1.38
   3   4   7    4.94    0.93
   3   4   7    7.57    2.87
   3   4   8   23.75    4.66
  -3  -4  -8   24.74    3.13
  -3  -4  -8   30.61    3.22
   3   4   8   30.29    6.21
   3   4   9    5.17    2.17
  -3  -4  -9    3.62    1.13
   3   4   9    4.44    2.36
  -3  -4  -9    5.04    1.56
  -3  -4 -10   23.14    3.46
  -3  -4 -10   26.12    2.90
   3   4  10   27.58    5.35
   3   4  10   21.18    5.11
  -3  -4 -11    6.09    1.89
   3   4  11    3.43    2.03
   3   4  11    6.15    2.82
   3   4  12   18.87    4.60
   3   4  12   30.56    6.26
  -3  -4 -12   21.93    3.73
   3   4  13    2.04    2.17
  -3  -4 -13    2.00    1.37
   3   4  13    3.11    2.44
   3   4  14    9.39    3.41
  -3  -4 -14   17.60    3.87
   3   4  14    6.02    3.59
   3   5 -18   -1.98    2.02
   3   5 -17   19.39    4.80
  -3  -5  17   24.32    5.71
   3   5 -16   22.71    5.49
   3   5 -16   21.25    6.53
  -3  -5  16   26.74    5.55
   3   5 -15    7.18    4.48
   3   5 -15   11.74    3.77
  -3  -5  15    3.78    2.43
   3   5 -14  103.73   14.03
   3   5 -14   99.46   10.19
  -3  -5  14  115.01   11.82
  -3  -5  14  125.18    7.61
   3   5 -13   44.79    6.53
   3   5 -13   40.90    8.53
  -3  -5  13   47.83    7.48
  -3  -5  13   42.61    4.29
   3   5 -12   25.55    4.64
   3   5 -12   20.45    5.93
  -3  -5  12   21.29    4.86
  -3  -5  12   23.73    3.19
  -3  -5  11   26.47    3.14
   3   5 -11   33.62    5.22
   3   5 -11   35.11    7.55
  -3  -5  11   34.34    6.01
  -3  -5  11   32.50    3.73
   3   5 -11   43.67    5.87
   3   5 -10  100.80   12.97
   3   5 -10  101.64    8.88
  -3  -5  10  113.87    6.60
  -3  -5  10  100.39   10.17
   3   5 -10  128.12    9.54
  -3  -5  10  111.62    7.32
   3   5  -9   -0.32    0.47
  -3  -5   9    0.57    0.82
   3   5  -9    0.51    1.64
   3   5  -9    1.49    0.90
  -3  -5   9   -0.17    0.35
  -3  -5   9    0.20    1.26
   3   5  -9    0.46    0.87
   3   5  -8   12.35    4.35
  -3  -5   8    9.43    2.01
   3   5  -8    8.10    1.92
  -3  -5   8    8.75    2.68
   3   5  -8    6.72    1.79
   3   5  -7   15.96    4.82
  -3  -5   7   22.52    2.13
  -3  -5   7   22.28    3.19
   3   5  -7   21.85    3.47
  -3  -5   7   20.87    4.19
   3   5  -7   12.81    2.42
   3   5  -6   51.23    8.14
  -3  -5   6   46.32    2.94
   3   5  -6   44.26    5.13
  -3  -5   6   54.68    6.51
  -3  -5   6   39.97    4.54
   3   5  -6   46.95    4.74
  -3  -5   6   49.67    4.84
   3   5  -5    0.21    0.97
   3   5  -5    3.23    2.27
  -3  -5   5    0.22    0.81
   3   5  -5   -0.24    0.78
  -3  -5   5   -0.63    1.10
  -3  -5   5    0.42    0.87
  -3  -5   5    0.61    0.26
   3   5  -4   13.62    3.45
   3   5  -4    9.57    2.51
  -3  -5   4   10.45    1.09
  -3  -5   4   11.17    2.24
  -3  -5   4   10.88    2.90
   3   5  -4   10.25    2.74
  -3  -5   4   10.28    2.34
   3   5  -3   54.29    6.92
  -3  -5   3   55.79    2.65
   3   5  -3   58.43    6.43
  -3  -5   3   51.40    5.86
   3   5  -3   60.70    6.65
  -3  -5   3   52.52    5.57
   3   5  -3   62.35    7.43
  -3  -5   3   52.24    5.15
   3   5  -2    9.58    2.79
   3   5  -2   12.34    3.22
  -3  -5   2   10.16    1.07
  -3  -5   2   11.58    2.32
   3   5  -2    9.11    2.44
  -3  -5   2   10.81    2.37
   3   5  -2    9.57    2.60
  -3  -5   2    9.37    2.44
   3   5  -1  100.54    9.30
  -3  -5   1   84.46    4.15
  -3  -5   1   89.58    3.53
   3   5  -1   97.19    8.77
   3   5  -1   89.71    7.59
  -3  -5   1   82.14    7.06
  -3  -5   1   82.42    7.55
   3   5  -1   86.99    8.82
  -3  -5   1  100.71    7.06
   3   5   0  117.22    9.86
  -3  -5   0  114.29    4.30
   3   5   0  119.58   10.09
  -3  -5   0  106.92    8.10
   3   5   0   88.91    7.52
  -3  -5   0  104.44    9.15
   3   5   0  115.02   10.30
  -3  -5   0  119.59    7.85
   3   5   1   29.06    5.89
   3   5   1   28.20    4.65
  -3  -5  -1   29.21    2.06
  -3  -5  -1   27.58    3.74
  -3  -5  -1   34.45    3.93
  -3  -5  -1   32.79    5.27
   3   5   2    5.52    2.59
   3   5   2    5.75    2.27
  -3  -5  -2    5.57    0.98
  -3  -5  -2    5.20    1.60
   3   5   3   45.39    6.17
   3   5   3   47.69    7.86
  -3  -5  -3   46.42    3.22
   3   5   3   42.50    4.34
  -3  -5  -3   46.06    4.52
   3   5   4    9.09    3.48
   3   5   4   10.73    3.09
   3   5   4    9.58    1.99
  -3  -5  -4    8.64    1.91
  -3  -5  -4    8.32    1.39
   3   5   5    3.80    1.77
  -3  -5  -5    5.55    1.44
  -3  -5  -5    6.95    1.38
   3   5   5    8.02    1.76
   3   5   5    4.50    2.61
   3   5   6    4.71    1.95
  -3  -5  -6    5.90    1.59
  -3  -5  -6    8.79    1.71
   3   5   6    8.83    1.85
   3   5   6    9.48    3.28
   3   5   7   10.70    3.43
  -3  -5  -7    9.14    1.89
  -3  -5  -7   10.91    2.04
   3   5   7    9.63    3.56
   3   5   8   49.87    7.20
  -3  -5  -8   40.03    4.18
  -3  -5  -8   39.83    3.99
   3   5   8   41.65    7.44
   3   5   9    0.36    0.89
  -3  -5  -9    0.81    0.54
  -3  -5  -9   -0.39    0.45
   3   5   9    1.35    1.83
   3   5  10   91.64   10.46
  -3  -5 -10   72.48    6.54
   3   5  10   74.11    9.96
  -3  -5 -10   90.75    6.35
   3   5  11   54.23    8.17
  -3  -5 -11   48.25    5.68
   3   5  11   44.37    7.71
   3   5  12    5.28    2.60
   3   5  12    1.43    1.77
  -3  -5 -12    5.23    2.06
   3   5  13    7.43    3.43
  -3  -5 -13   10.71    2.96
   3   5  14   36.22    7.30
  -3  -5 -14   40.54    5.88
   3   6 -17    7.80    3.02
   3   6 -16   -0.62    1.70
  -3  -6  16    5.50    3.39
   3   6 -15   30.80    5.77
   3   6 -15   34.05    8.77
  -3  -6  15   27.99    5.92
  -3  -6  14   17.31    3.08
   3   6 -14   12.39    3.26
   3   6 -14   10.39    4.55
  -3  -6  14   18.13    4.86
  -3  -6  13    3.32    2.57
  -3  -6  13    3.44    1.35
   3   6 -13    4.68    2.37
   3   6 -13    3.98    2.75
  -3  -6  12   18.30    3.03
   3   6 -12   18.16    3.90
   3   6 -12   10.20    4.41
  -3  -6  11    0.79    0.70
   3   6 -11    3.76    1.98
   3   6 -11    2.15    2.51
  -3  -6  11    2.09    2.37
  -3  -6  10    7.68    1.87
   3   6 -10    5.46    3.52
  -3  -6  10    6.75    1.57
  -3  -6  10   12.73    3.56
   3   6 -10    9.43    2.66
  -3  -6   9    5.62    1.68
   3   6  -9   -0.12    0.98
   3   6  -9    5.22    1.58
  -3  -6   9    6.03    2.61
   3   6  -9    5.89    1.89
   3   6  -8   58.31    9.80
  -3  -6   8   67.64    4.30
   3   6  -8   68.66    6.11
  -3  -6   8   54.05    7.27
   3   6  -8   61.66    6.16
  -3  -6   8   76.04    6.27
   3   6  -7    2.50    1.94
   3   6  -7    1.03    0.94
  -3  -6   7    0.78    0.80
  -3  -6   7    3.22    0.81
   3   6  -7    2.37    1.06
  -3  -6   7    3.69    1.97
   3   6  -7    1.31    0.58
   3   6  -6  271.85   20.40
  -3  -6   6  260.99    8.65
   3   6  -6  267.04   14.50
  -3  -6   6  271.71   16.33
  -3  -6   6  273.18   14.57
   3   6  -6  245.69   16.80
  -3  -6   6  256.17   12.86
   3   6  -5  160.63   13.36
  -3  -6   5  146.86    5.06
   3   6  -5  137.11   10.43
  -3  -6   5  155.78   11.71
  -3  -6   5  149.21   10.36
   3   6  -5  129.71   11.73
  -3  -6   5  141.43    9.10
   3   6  -4   -0.85    1.90
   3   6  -4   -0.62    0.95
  -3  -6   4   -0.21    0.75
   3   6  -4   -0.43    1.13
  -3  -6   4    1.90    1.89
  -3  -6   4   -0.06    0.73
  -3  -6   3  122.35    8.38
   3   6  -3  140.42   12.12
   3   6  -3  116.15   10.17
  -3  -6   3  133.94   10.29
  -3  -6   3  128.03    9.84
   3   6  -3  120.07   11.15
   3   6  -2  243.56   15.98
   3   6  -2  247.88   15.45
  -3  -6   2  234.06   13.89
   3   6  -2  247.91   14.81
  -3  -6   2  210.26   13.60
  -3  -6   2  265.46   12.77
   3   6  -2  210.85   15.37
   3   6  -1    5.95    2.49
   3   6  -1   10.76    3.09
  -3  -6   1    7.69    2.17
  -3  -6   1    9.31    2.73
   3   6  -1   10.50    2.73
  -3  -6   1   11.06    2.88
   3   6   0  109.54   10.08
  -3  -6   0  105.41    8.67
   3   6   0  102.68    8.58
  -3  -6   0  101.24    9.58
   3   6   0  123.69   11.28
  -3  -6   0  110.64    7.84
   3   6   1  153.31   11.99
  -3  -6  -1  147.68    5.10
   3   6   1  125.07   11.76
   3   6   1  135.30    9.66
  -3  -6  -1  132.76   11.61
   3   6   1  135.29   13.76
  -3  -6  -1  148.57    9.14
   3   6   2  123.23   10.83
  -3  -6  -2  120.31    5.07
   3   6   2  107.74    8.32
   3   6   2  122.89   13.33
  -3  -6  -2  110.98   11.16
   3   6   2  119.39   11.28
  -3  -6  -2  124.56    8.15
   3   6   3   14.11    3.72
  -3  -6  -3   16.26    1.86
  -3  -6  -3   14.87    2.73
   3   6   3   16.49    4.93
   3   6   3   10.96    2.44
  -3  -6  -3   19.29    4.90
   3   6   4   23.37    5.80
   3   6   4   24.05    4.81
  -3  -6  -4   21.00    2.32
  -3  -6  -4   20.32    3.10
   3   6   5   13.13    4.69
   3   6   5   15.71    4.00
  -3  -6  -5   12.05    2.38
  -3  -6  -5   16.10    2.21
   3   6   6    7.20    2.88
  -3  -6  -6    3.88    1.37
  -3  -6  -6    7.68    1.75
   3   6   6    5.74    2.78
   3   6   7    6.51    2.71
  -3  -6  -7    7.35    1.94
  -3  -6  -7    7.33    1.77
   3   6   7    6.72    3.54
   3   6   8    5.07    2.48
  -3  -6  -8    5.11    1.61
  -3  -6  -8    6.21    1.81
   3   6   8    5.95    2.73
   3   6   9   45.42    7.46
  -3  -6  -9   35.71    4.56
  -3  -6  -9   46.34    4.78
   3   6   9   44.99    7.94
   3   6  10   19.37    4.99
  -3  -6 -10   17.76    3.22
   3   6  10   13.44    4.24
   3   6  11   21.51    6.08
   3   6  11   28.38    6.37
  -3  -6 -11   19.49    3.78
   3   6  12   17.63    5.03
   3   6  12   15.74    4.59
  -3  -7  14    4.29    1.71
   3   7 -14    2.12    3.12
  -3  -7  14    1.45    2.06
  -3  -7  13    8.61    2.35
   3   7 -13    3.86    1.72
   3   7 -13    6.11    3.64
  -3  -7  13    4.94    2.20
  -3  -7  12    1.36    1.34
   3   7 -12    1.71    2.69
  -3  -7  12   -0.65    1.88
  -3  -7  11    1.66    0.91
   3   7 -11   -0.63    2.15
  -3  -7  11    0.07    2.14
  -3  -7  10   27.80    3.93
   3   7 -10   28.49    7.51
  -3  -7  10   34.74    6.26
  -3  -7   9    7.16    2.03
   3   7  -9    4.43    3.36
  -3  -7   9    5.84    2.63
   3   7  -8   83.40   10.04
   3   7  -8   73.71   11.29
  -3  -7   8   80.84    9.23
   3   7  -8   73.68    7.26
   3   7  -8   67.10    9.00
  -3  -7   8   82.48    6.97
   3   7  -7    0.85    1.19
   3   7  -7   -0.62    1.11
  -3  -7   7    0.52    1.25
   3   7  -7    0.32    0.73
  -3  -7   7   -3.24    1.84
  -3  -7   7    0.79    0.56
   3   7  -6    0.12    1.09
   3   7  -6    1.99    2.27
  -3  -7   6   -0.01    0.61
   3   7  -6    0.78    1.20
  -3  -7   6    0.86    0.96
  -3  -7   6    0.26    0.55
   3   7  -5   -0.56    1.60
   3   7  -5    1.61    1.66
  -3  -7   5    0.08    0.52
  -3  -7   5   -0.83    1.25
  -3  -7   5   -0.10    0.63
   3   7  -5   -0.31    1.00
   3   7  -4   -0.35    1.30
   3   7  -4    2.99    1.98
  -3  -7   4    1.57    0.82
   3   7  -4    1.22    1.58
  -3  -7   4    0.91    1.19
  -3  -7   4    0.33    0.72
   3   7  -3   20.36    4.97
   3   7  -3   25.75    5.18
  -3  -7   3   20.64    3.41
  -3  -7   3   22.20    4.53
  -3  -7   3   14.93    3.58
   3   7  -2    1.53    1.50
   3   7  -2    2.22    1.60
  -3  -7   2    3.80    1.52
  -3  -7   2    4.85    2.09
  -3  -7   2    3.05    1.62
   3   7  -1   23.54    5.14
   3   7  -1   30.73    5.49
  -3  -7   1   21.95    4.17
  -3  -7   1   30.10    4.09
  -3  -7   1   27.34    5.01
   3   7   0   -7.64    3.33
   3   7   0   -5.02    2.41
   3   7   0   -0.21    1.03
  -3  -7   0    1.37    0.92
  -3  -7   0    0.23    1.11
   3   7   1   12.31    4.58
   3   7   1    9.91    3.29
   3   7   1   12.68    3.65
  -3  -7  -1   10.19    2.52
  -3  -7  -1    8.06    2.94
   3   7   2   31.52    7.19
   3   7   2   19.53    4.92
   3   7   2   32.20    5.70
  -3  -7  -2   22.84    1.58
  -3  -7  -2   25.80    3.71
   3   7   2   25.98    4.01
  -3  -7  -2   12.88    3.77
   3   7   3    8.33    3.81
   3   7   3   12.63    3.53
  -3  -7  -3    5.84    1.73
  -3  -7  -3    4.40    0.89
   3   7   3    6.89    2.14
  -3  -7  -3    7.11    2.94
   3   7   4   12.60    4.67
   3   7   4   10.17    3.35
  -3  -7  -4   14.17    2.81
  -3  -7  -4   14.27    2.00
  -3  -7  -4   14.25    4.39
   3   7   5   71.30    8.98
  -3  -7  -5   58.78    4.64
  -3  -7  -5   55.67    9.15
  -3  -7  -5   58.43    5.66
   3   7   5   68.72   10.31
   3   7   6   25.38    5.48
  -3  -7  -6   25.70    3.70
  -3  -7  -6   27.91    6.92
   3   7   6   26.49    6.40
   3   7   7    1.80    1.26
  -3  -7  -7    5.38    1.93
   3   7   7    4.16    2.14
   3   7   8    4.72    2.40
  -3  -7  -8    5.25    1.99
   3   7   8    8.42    4.29
   3   7   9    7.80    3.32
  -3  -7  -9    4.16    1.64
   3   7   9    1.92    2.09
   3   7  10   11.92    4.03
   3   7  11    0.19    1.65
  -3  -8  14   11.58    2.73
   3   8 -13   46.77   10.34
  -3  -8  13   61.56    9.34
  -3  -8  13   57.99    6.54
  -3  -8  12    1.84    1.45
   3   8 -12    1.60    1.17
   3   8 -12    2.37    2.60
  -3  -8  12    1.81    1.90
   3   8 -11   56.45    8.62
   3   8 -11   58.48   10.93
  -3  -8  11   50.61    7.80
  -3  -8  11   55.96    6.14
   3   8 -10   21.47    5.40
  -3  -8  10   19.64    3.57
   3   8 -10   14.98    5.77
  -3  -8  10   23.80    5.39
   3   8  -9    7.27    2.83
  -3  -8   9    3.80    1.35
   3   8  -9    4.98    3.05
  -3  -8   9    5.79    2.80
   3   8  -8    7.67    3.20
   3   8  -8    4.69    2.22
  -3  -8   8    3.62    1.42
   3   8  -8    8.95    4.13
  -3  -8   8    4.32    2.00
   3   8  -7   18.30    4.62
   3   8  -7    9.10    4.67
  -3  -8   7   21.21    3.69
  -3  -8   7   23.48    5.16
  -3  -8   7   21.50    4.43
   3   8  -6   24.11    5.43
   3   8  -6   29.76    6.27
   3   8  -6   27.37    6.82
  -3  -8   6   23.64    3.94
  -3  -8   6   21.47    4.75
  -3  -8   6   16.35    3.72
   3   8  -5    0.26    1.01
   3   8  -5   -0.47    1.21
  -3  -8   5    1.44    1.24
  -3  -8   5   -0.37    1.58
  -3  -8   5    1.84    1.56
   3   8  -4   -0.68    1.72
   3   8  -4    1.03    1.86
  -3  -8   4    0.17    0.92
  -3  -8   4    0.50    1.66
  -3  -8   4    0.65    1.47
   3   8  -3   43.73    7.36
   3   8  -3   41.61    6.80
  -3  -8   3   37.30    6.06
  -3  -8   3   44.57    5.35
  -3  -8   3   31.49    5.52
   3   8  -2    4.59    2.33
   3   8  -2    2.04    1.16
  -3  -8   2    4.96    1.78
  -3  -8   2    0.66    0.90
  -3  -8   2    2.67    1.70
   3   8  -1   14.34    4.29
   3   8  -1   13.08    3.71
  -3  -8   1   24.19    3.90
  -3  -8   1   13.76    4.02
   3   8   0   12.78    4.67
   3   8   0   15.11    4.36
   3   8   0   13.73    3.96
  -3  -8   0   22.37    3.79
  -3  -8   0   20.08    4.93
   3   8   1   23.97    6.20
   3   8   1   19.87    5.17
   3   8   1   19.97    4.69
  -3  -8  -1   19.23    3.50
  -3  -8  -1   19.80    4.86
   3   8   2   15.60    5.38
   3   8   2   17.19    4.59
   3   8   2   27.13    5.56
  -3  -8  -2   23.45    3.81
  -3  -8  -2   15.30    4.65
   3   8   3   38.82    8.03
   3   8   3   40.22    6.79
  -3  -8  -3   38.27    4.92
  -3  -8  -3   41.00    7.53
   3   8   4   18.39    5.64
   3   8   4   20.85    4.88
  -3  -8  -4   18.85    3.44
  -3  -8  -4    9.56    4.01
   3   8   5    9.60    3.57
  -3  -8  -5    7.08    2.18
  -3  -8  -5    1.06    1.13
   3   8   5   10.39    4.32
   3   8   6    3.60    2.61
  -3  -8  -6    7.17    2.18
  -3  -8  -6   -0.39    1.87
   3   8   6    3.96    2.71
   3   8   7   11.41    3.92
  -3  -8  -7   20.40    3.76
  -3  -8  -7   25.79    6.99
   3   8   7   15.88    5.06
  -3  -8  -8    0.99    0.85
   3   8   8    0.10    2.12
  -3  -8  -8    2.47    2.77
   3   8   9    1.78    2.87
  -3  -9  14    1.36    1.65
  -3  -9  13   26.50    4.68
   3   9 -13   23.09    5.88
  -3  -9  12    1.63    1.16
   3   9 -12    0.61    2.32
  -3  -9  11    8.19    2.66
   3   9 -11    7.89    2.80
   3   9 -11    8.31    3.59
  -3  -9  11    7.84    3.22
   3   9 -10    8.09    3.37
  -3  -9  10   11.61    3.04
   3   9 -10    7.59    4.41
  -3  -9  10    4.14    2.00
   3   9  -9    6.74    3.28
   3   9  -9   11.31    4.23
  -3  -9   9    4.98    2.07
   3   9  -9    1.13    1.56
  -3  -9   9    6.88    3.33
   3   9  -8    5.28    3.18
   3   9  -8    5.40    2.83
  -3  -9   8    1.62    1.29
   3   9  -8    0.10    2.16
  -3  -9   8    3.53    2.77
   3   9  -7  136.87   13.38
   3   9  -7  108.07   14.33
  -3  -9   7  100.97   11.39
  -3  -9   7   96.96   10.02
   3   9  -7  106.61   12.17
  -3  -9   7  129.99   10.04
   3   9  -6    0.83    0.89
   3   9  -6    5.24    2.74
   3   9  -6    8.44    4.38
  -3  -9   6    7.15    2.65
  -3  -9   6    4.36    2.84
  -3  -9   6    0.26    0.94
   3   9  -5   61.62    9.04
  -3  -9   5   64.37    8.72
  -3  -9   5   64.43    6.94
  -3  -9   5   48.76    7.07
   3   9  -4    2.56    2.30
   3   9  -4    5.02    2.39
  -3  -9   4    5.07    2.00
  -3  -9   4    5.56    2.21
  -3  -9   4    8.76    3.08
   3   9  -3   14.37    4.26
   3   9  -3   14.97    4.25
  -3  -9   3   18.78    3.74
  -3  -9   3   15.16    4.16
   3   9  -2   78.25    9.70
   3   9  -2   50.62    8.27
  -3  -9   2   66.65    8.81
  -3  -9   2   65.85    6.99
   3   9  -1    1.71    1.64
   3   9  -1    4.12    1.91
  -3  -9   1    6.47    2.35
   3   9  -1    6.76    4.19
  -3  -9   1    5.72    2.90
   3   9   0   20.22    6.12
   3   9   0   25.77    5.85
   3   9   0    9.30    3.57
  -3  -9   0   17.10    3.50
  -3  -9   0   11.50    3.65
   3   9   1   64.25    8.88
   3   9   1   53.47    9.85
   3   9   1   43.12    7.80
  -3  -9  -1   46.88    5.85
  -3  -9  -1   41.94    7.44
   3   9   2   33.04    7.68
   3   9   2   28.08    6.35
   3   9   2   27.19    5.69
  -3  -9  -2   26.96    4.43
  -3  -9  -2   20.12    5.43
   3   9   3    1.20    2.23
  -3  -9  -3    3.33    1.60
  -3  -9  -3    2.05    1.38
   3   9   4    2.90    3.06
  -3  -9  -4    1.35    1.09
   3   9   4    3.09    2.72
  -3  -9  -4    2.53    1.51
  -3  -9  -5   15.02    3.51
  -3  -9  -5    6.21    3.48
   3   9   5   14.06    4.88
  -3  -9  -6    8.73    2.60
  -3  -9  -6   13.15    5.24
   3   9   6   13.62    4.74
  -3  -9  -7   11.02    2.83
   3   9   7    6.06    3.33
   3  10 -12   16.04    4.94
   3  10 -11   21.81    5.40
   3  10 -10   16.76    5.32
  -3 -10  10   12.74    3.32
   3  10  -9    6.55    3.42
   3  10  -9   17.35    5.11
  -3 -10   9   12.34    3.54
   3  10  -8   93.94   11.61
   3  10  -8   74.64   10.89
  -3 -10   8   69.70   10.11
  -3 -10   8   84.63    8.87
   3  10  -7   28.25    6.34
   3  10  -7   39.24    7.47
  -3 -10   7   38.85    5.84
   3  10  -7   31.59    8.52
  -3 -10   7   30.37    6.58
   3  10  -6   -2.78    3.19
   3  10  -6   -0.88    1.03
  -3 -10   6   -1.07    1.55
   3  10  -6    0.45    2.00
  -3 -10   6   -1.55    2.15
   3  10  -5   32.28    6.88
   3  10  -5   38.04    7.13
  -3 -10   5   35.43    5.55
  -3 -10   5   33.88    6.30
   3  10  -4   23.82    5.90
   3  10  -4   35.50    6.88
  -3 -10   4   37.56    5.67
  -3 -10   4   21.11    4.85
   3  10  -3    1.34    2.43
   3  10  -3    5.18    2.79
  -3 -10   3    4.58    2.02
  -3 -10   3    2.25    1.98
   3  10  -2   -1.42    1.01
  -3 -10   2    0.55    0.66
  -3 -10   2    1.44    1.46
   3  10  -1    3.30    1.91
   3  10  -1    5.44    3.36
   3  10  -1    2.67    2.31
  -3 -10   1    3.34    2.07
  -3 -10   1    2.07    1.90
   3  10   0   11.81    4.99
   3  10   0    8.20    3.45
   3  10   0   11.46    3.99
  -3 -10   0   13.89    3.67
  -3 -10   0   12.97    4.27
   3  10   1   12.43    5.42
   3  10   1    5.70    2.90
  -3 -10  -1    6.45    2.38
  -3 -10  -1    5.28    3.09
   3  10   2    8.34    4.52
   3  10   2    6.31    3.05
  -3 -10  -2    6.22    2.63
  -3 -10  -2    8.54    3.70
   3  10   3   26.82    6.88
  -3 -10  -3   20.66    5.73
   3  10   4   -0.58    1.60
  -3 -10  -4    0.68    1.71
   3  11  -2   24.16    6.95
   3  11  -1   56.14   10.74
  -3 -11   1   35.78    7.15
   3  11   0    2.60    2.99
  -3 -11   0    7.35    3.55
   3  11   1   -0.69    2.80
  -3 -11  -1    6.02    3.76
  -3 -11  -2   25.49    6.24
  -4  13   2   20.89    5.12
  -4  13   1    6.64    2.73
  -4  13   1    2.62    3.24
  -4  13   0   -0.06    1.29
  -4  13   0    1.74    2.54
  -4  13  -1    5.00    2.53
  -4  13  -1    4.61    3.88
  -4  13  -2   42.82    6.42
  -4  13  -2   48.51    9.84
  -4  13  -3    6.37    4.29
  -4  13  -4   42.81    9.05
  -4  13  -5   33.66    8.55
  -4  13  -6    0.20    2.27
  -4  13  -7   -2.14    3.09
  -4  12   5    1.94    1.65
  -4  12   4   -4.20    2.75
  -4  12   4   -1.42    2.20
  -4  12   3   75.74   11.58
  -4  12   3   64.19    9.35
   4 -12  -3   67.86   11.73
  -4  12   2   -1.24    1.76
  -4  12   2   11.92    4.71
   4 -12  -2   10.25    4.45
  -4  12   1    5.60    2.93
  -4  12   1    0.98    2.15
   4 -12  -1   -0.41    2.03
  -4  12   0   15.75    4.00
  -4  12   0   16.51    5.77
   4 -12   0   23.21    6.53
  -4  12  -1    8.60    2.76
  -4  12  -1   13.50    5.09
   4 -12   1    6.35    3.26
  -4  12  -2   11.51    3.24
  -4  12  -2   14.86    5.00
   4 -12   2   21.38    6.77
  -4  12  -3   17.79    3.79
  -4  12  -3   26.00    6.46
   4 -12   3   25.16    6.98
  -4  12  -4   38.45    8.02
   4 -12   4   32.37    7.65
  -4  12  -5   -0.65    1.75
  -4  12  -5    1.34    2.08
   4 -12   5   -0.39    2.82
   4 -12   6   18.92    5.89
  -4  12  -6   29.66    7.38
  -4  12  -7    4.71    2.72
  -4  12  -8   30.78    7.12
  -4  12  -9   57.19    9.79
  -4  11   7   90.72   12.19
   4 -11  -7   84.86   13.16
  -4  11   7  106.67   13.44
  -4  11   6   -3.27    2.65
   4 -11  -6    1.47    1.93
  -4  11   5   19.71    5.17
  -4  11   5   14.89    4.74
   4 -11  -5   14.79    5.34
  -4  11   4   37.17    6.99
  -4  11   4   43.62    8.02
   4 -11  -4   43.04    8.86
  -4  11   3   -1.41    1.73
  -4  11   3    4.77    3.08
  -4  11   2    0.72    1.42
  -4  11   2    0.16    1.56
   4 -11  -2    4.30    3.44
  -4  11   1   12.14    3.42
  -4  11   1   18.48    5.40
   4 -11  -1   17.67    6.12
  -4  11   0   35.75    7.20
  -4  11   0   29.59    5.30
   4 -11   0   32.12    7.78
   4 -11   0   41.43    5.67
  -4  11  -1   25.44    4.64
  -4  11  -1   39.01    7.67
   4 -11   1   24.78    6.62
   4 -11   1   40.91    5.62
  -4  11  -2   16.31    3.66
  -4  11  -2   18.00    5.08
   4 -11   2   20.35    4.01
   4 -11   2   12.05    5.07
  -4  11  -3   34.16    5.00
  -4  11  -3   34.00    7.26
   4 -11   3   36.42    8.10
   4 -11   3   51.29    6.17
  -4  11  -4  116.04    8.63
  -4  11  -4  112.87   13.11
   4 -11   4   90.94   12.74
  -4  11  -4   94.25    8.04
  -4  11  -5    4.37    2.76
  -4  11  -5    3.39    2.35
  -4  11  -5    0.62    1.15
  -4  11  -6   32.67    7.11
  -4  11  -6   41.11    4.77
  -4  11  -6   25.91    5.80
   4 -11   6   16.02    5.60
  -4  11  -7   29.44    4.08
  -4  11  -7   25.08    6.03
  -4  11  -7   18.82    4.42
  -4  11  -8   12.11    4.60
  -4  11  -8   11.72    2.51
  -4  11  -9   27.68    6.64
  -4  11  -9   19.57    3.22
  -4  11 -10    2.61    1.81
  -4  10   9    0.85    1.78
  -4  10   9    1.76    1.90
   4 -10  -9   -0.24    2.62
  -4  10   8   -0.08    1.21
  -4  10   8    2.66    2.52
   4 -10  -8    0.63    1.98
  -4  10   7    6.37    2.76
  -4  10   7    6.04    2.80
   4 -10  -7    4.52    2.90
  -4  10   6  150.01   15.01
   4 -10  -6  158.19   16.78
  -4  10   6  172.93   15.99
  -4  10   5   71.68   10.22
   4 -10  -5  100.95    8.25
   4 -10  -5   62.23   10.35
  -4  10   5   84.62   10.65
  -4  10   4    5.86    2.70
  -4  10   4    4.50    2.54
   4 -10  -4   14.95    3.23
   4 -10  -4    9.90    4.46
  -4  10   3   11.61    3.75
  -4  10   3   10.65    3.37
   4 -10  -3   10.50    2.80
   4 -10  -3    5.14    3.14
   4 -10  -2   82.19   12.07
  -4  10   2   71.52   10.10
  -4  10   2   91.22    9.79
   4 -10  -1    2.07    1.29
  -4  10   1   -0.27    1.43
  -4  10   1    2.20    2.00
   4 -10  -1    4.26    2.18
   4 -10   0   15.96    3.31
  -4  10   0   10.15    3.07
  -4  10   0    6.40    2.18
  -4  10   0    9.45    3.83
   4 -10   0   16.72    5.23
  -4  10  -1   -1.25    1.02
  -4  10  -1    0.92    0.98
   4 -10   1    2.58    2.51
   4 -10   1    0.62    1.21
  -4  10  -2    7.20    3.35
  -4  10  -2    3.71    1.73
   4 -10   2   -0.03    1.77
   4 -10   2    5.20    2.16
   4 -10   3   38.65    4.91
   4 -10   3   55.50    6.20
  -4  10  -3   58.74    8.79
   4 -10   3   40.04    8.17
  -4  10  -3   40.86    5.23
  -4  10  -4    1.68    0.80
   4 -10   4    0.63    0.93
   4 -10   4    1.86    2.09
  -4  10  -4    0.28    0.93
  -4  10  -5   14.46    2.73
  -4  10  -5   13.65    2.85
  -4  10  -5    9.48    3.59
   4 -10   5   16.64    3.43
  -4  10  -5   16.00    4.41
   4 -10   5    7.90    3.59
   4 -10   6    5.56    2.02
  -4  10  -6   -0.02    1.59
  -4  10  -6    1.69    1.18
  -4  10  -6   -0.24    1.18
   4 -10   6    5.25    3.66
  -4  10  -7    7.44    2.71
  -4  10  -7    8.80    3.47
  -4  10  -7    8.07    2.40
   4 -10   7    8.04    2.40
  -4  10  -8   20.92    5.06
  -4  10  -8   20.41    4.26
  -4  10  -8   15.70    3.02
  -4  10  -9    1.03    1.63
  -4  10  -9    1.44    1.16
  -4  10 -10   25.31    6.10
  -4  10 -10   30.66    4.15
  -4  10 -11    0.69    1.06
  -4  10 -11    0.84    1.70
  -4  10 -12    0.64    1.02
  -4  10 -12    0.28    1.49
  -4  10 -13    2.26    1.19
  -4   9  11   11.83    4.28
   4  -9 -11    7.10    3.09
  -4   9  10   45.66    9.14
   4  -9 -10   37.64    8.08
  -4   9  10   43.32    7.89
  -4   9   9    3.00    2.35
  -4   9   9    7.27    3.24
   4  -9  -9    4.88    2.80
  -4   9   8    2.13    2.69
  -4   9   8    1.59    1.76
   4  -9  -8    1.81    2.97
  -4   9   7   17.63    5.21
   4  -9  -7   15.52    3.01
  -4   9   7   12.06    3.93
   4  -9  -7   19.60    5.52
  -4   9   6    0.90    1.03
   4  -9  -6    1.94    1.51
  -4   9   6   -0.96    1.87
   4  -9  -6    2.02    1.01
  -4   9   5   24.96    5.47
  -4   9   5   21.18    5.27
   4  -9  -5   20.89    3.60
   4  -9  -5   20.42    5.78
  -4   9   4   19.33    4.52
   4  -9  -4   27.10    4.07
  -4   9   4   16.46    3.10
  -4   9   4   22.76    5.50
   4  -9  -4   23.33    6.00
  -4   9   3    0.47    1.24
   4  -9  -3    1.90    1.13
  -4   9   3    1.18    0.99
  -4   9   3    3.33    2.32
   4  -9  -3    0.83    1.66
   4  -9  -2    9.32    2.50
  -4   9   2    7.28    2.59
  -4   9   2   10.84    2.77
  -4   9   2   12.28    3.81
   4  -9  -2    5.99    3.23
  -4   9   1   28.11    4.79
  -4   9   1   30.76    4.83
   4  -9  -1   41.19    5.06
  -4   9   1   28.88    5.95
   4  -9  -1   26.44    6.32
  -4   9   0    6.38    2.27
  -4   9   0   11.08    4.01
   4  -9   0    7.89    2.31
   4  -9   0    3.57    2.26
  -4   9   0    5.73    1.07
  -4   9  -1    8.23    2.42
   4  -9   1    6.40    2.00
  -4   9  -1   13.09    4.18
   4  -9   1    9.47    2.58
   4  -9   1   16.85    4.84
  -4   9  -1    7.37    1.52
  -4   9  -2   14.44    3.07
   4  -9   2   17.68    3.44
   4  -9   2   12.07    2.58
  -4   9  -2   20.28    5.17
   4  -9   2   17.94    5.37
  -4   9  -2   13.24    2.36
  -4   9  -3    5.21    1.86
   4  -9   3    3.75    1.28
  -4   9  -3    3.07    2.40
   4  -9   3    4.83    2.75
  -4   9  -3    1.95    1.09
   4  -9   3    2.42    1.24
   4  -9   4   16.83    3.24
  -4   9  -4   12.29    2.59
  -4   9  -4   13.89    4.26
   4  -9   4   16.54    4.84
  -4   9  -4   12.79    2.62
  -4   9  -5   15.93    2.67
   4  -9   5   15.65    3.19
  -4   9  -5   12.93    3.70
  -4   9  -5   13.39    3.99
   4  -9   5   14.91    5.31
  -4   9  -5   12.04    2.76
  -4   9  -6    6.73    1.62
  -4   9  -6    2.41    1.51
  -4   9  -6    8.86    3.27
   4  -9   6    6.86    2.13
  -4   9  -6    5.81    1.97
  -4   9  -6    3.53    1.39
  -4   9  -7   43.97    7.06
  -4   9  -7   58.27    6.07
   4  -9   7   54.89    5.88
  -4   9  -7   42.97    6.54
   4  -9   8   23.00    3.86
  -4   9  -8   13.90    4.08
  -4   9  -8   16.77    3.74
  -4   9  -8   13.41    2.81
   4  -9   8   13.56    3.45
   4  -9   9    0.48    0.69
  -4   9  -9   -0.50    1.67
  -4   9  -9    0.82    1.28
   4  -9   9   -0.53    0.98
  -4   9  -9    1.05    0.99
  -4   9 -10   -1.85    1.87
  -4   9 -10   -0.55    0.62
   4  -9  10    1.64    1.58
  -4   9 -11    1.38    1.58
  -4   9 -11    1.75    1.01
   4  -9  11    4.71    2.93
  -4   9 -12    1.96    1.13
  -4   9 -12    1.11    0.99
  -4   9 -13    1.70    1.14
  -4   9 -13    3.03    1.52
   4  -9  13    3.41    2.63
  -4   9 -14    0.55    0.64
  -4   8  13    3.65    2.53
   4  -8 -13    4.11    2.51
  -4   8  12    3.73    2.72
  -4   8  12    0.23    0.90
   4  -8 -12    1.32    2.89
  -4   8  11   13.49    5.20
  -4   8  11    5.88    2.97
   4  -8 -11    9.12    4.66
  -4   8  10   23.33    6.32
  -4   8  10   24.17    5.84
   4  -8 -10   25.63    6.41
  -4   8   9   11.22    4.25
  -4   8   9   10.10    3.61
   4  -8  -9   12.68    2.61
   4  -8  -9    6.39    3.30
  -4   8   8   42.14    7.69
  -4   8   8   31.09    6.36
   4  -8  -8   38.46    4.51
   4  -8  -8   27.74    6.43
  -4   8   7   22.79    5.59
   4  -8  -7   11.24    2.45
  -4   8   7   15.98    4.43
   4  -8  -7   22.06    5.62
  -4   8   6    6.04    2.78
  -4   8   6    5.72    2.96
   4  -8  -6    6.55    1.96
   4  -8  -6    3.08    2.74
  -4   8   5   -0.58    1.41
  -4   8   5   -0.29    0.85
   4  -8  -5   -0.18    0.68
  -4   8   5    0.32    1.32
   4  -8  -5   -1.07    1.32
  -4   8   4    1.73    1.36
  -4   8   4    3.97    1.48
   4  -8  -4    3.12    1.64
  -4   8   4    2.00    1.43
   4  -8  -4    4.46    2.49
  -4   8   3   23.31    4.78
   4  -8  -3   27.10    3.90
  -4   8   3   25.94    4.18
  -4   8   3   16.49    4.67
   4  -8  -3   21.37    5.34
  -4   8   2    4.82    2.09
   4  -8  -2    3.52    1.54
  -4   8   2    1.66    1.21
  -4   8   2    2.71    1.77
   4  -8  -2    6.63    3.24
  -4   8   1    9.45    2.81
   4  -8  -1    9.67    2.37
   4  -8  -1    8.69    2.18
  -4   8   1   17.73    4.76
   4  -8  -1   13.99    4.13
   4  -8   0   78.12    6.87
   4  -8   0   94.87    7.80
  -4   8   0   94.75   10.55
  -4   8   0   91.46    4.84
   4  -8   0   83.30   10.62
  -4   8   0   83.93    7.94
   4  -8   1    9.99    2.48
  -4   8  -1    9.61    2.54
   4  -8   1   11.86    2.44
  -4   8  -1   14.05    4.09
   4  -8   1   14.99    4.32
  -4   8  -1   10.52    1.89
   4  -8   2   16.35    3.22
  -4   8  -2   14.86    2.89
   4  -8   2   11.40    3.80
  -4   8  -2   15.95    2.55
  -4   8  -2   16.91    4.44
   4  -8   3  149.11    8.45
   4  -8   3  167.86   10.72
  -4   8  -3  141.55    8.96
   4  -8   3  181.82   15.70
  -4   8  -3  151.24   13.34
  -4   8  -3  156.75    9.69
   4  -8   4   87.71    6.08
  -4   8  -4  105.85    9.72
  -4   8  -4   98.34   10.46
   4  -8   4   93.75    7.40
  -4   8  -4   82.46    7.06
   4  -8   4   86.41   10.88
   4  -8   4   97.63    7.87
  -4   8  -4   98.90    6.93
  -4   8  -5    9.26    1.89
  -4   8  -5   12.25    3.33
   4  -8   5    8.92    2.30
  -4   8  -5   10.18    3.26
   4  -8   5    7.71    2.12
   4  -8   5   10.02    3.82
  -4   8  -5    9.04    2.36
  -4   8  -6    5.51    1.17
  -4   8  -6    3.94    2.18
  -4   8  -6    6.30    2.12
   4  -8   6    3.61    1.44
  -4   8  -6    4.29    2.25
   4  -8   6    5.23    1.95
  -4   8  -6    5.58    2.16
  -4   8  -7   14.64    3.82
  -4   8  -7   14.78    3.64
  -4   8  -7   12.01    2.70
   4  -8   7   16.29    3.08
   4  -8   7   15.21    3.46
  -4   8  -8  145.03   12.32
  -4   8  -8  141.84    9.95
  -4   8  -8  153.40   11.79
   4  -8   8  141.31   11.61
   4  -8   8  165.88   10.14
  -4   8  -9   29.46    4.57
  -4   8  -9   24.56    5.17
  -4   8  -9   23.18    3.73
   4  -8   9   19.21    4.46
   4  -8   9   23.55    3.57
  -4   8 -10   81.83    7.22
  -4   8 -10   59.18    8.02
  -4   8 -10   80.01    7.00
   4  -8  10   63.46    8.34
   4  -8  10   88.82    6.97
  -4   8 -11   51.06    7.77
  -4   8 -11   64.10    6.20
   4  -8  11   62.74    8.41
   4  -8  11   67.95    5.95
  -4   8 -12   20.60    5.15
  -4   8 -12   16.86    3.11
   4  -8  12   28.12    6.07
  -4   8 -13    1.57    1.04
  -4   8 -13    7.63    3.52
   4  -8  13    4.95    2.87
  -4   8 -14   41.64    5.27
  -4   8 -14   50.20    8.33
   4  -8  14   44.80    7.99
  -4   7  14   16.81    5.41
   4  -7 -14   12.44    4.30
  -4   7  13   18.01    5.78
  -4   7  13   29.34    6.63
   4  -7 -13   21.18    5.90
  -4   7  12   50.61    8.41
  -4   7  12   48.99    9.21
   4  -7 -12   45.22    8.60
  -4   7  11   19.97    6.10
  -4   7  11   23.24    5.60
   4  -7 -11   27.90    3.52
   4  -7 -11   28.20    6.51
  -4   7  10    8.06    3.25
  -4   7  10   15.60    4.49
   4  -7 -10   11.30    2.16
   4  -7 -10    6.77    3.39
  -4   7   9   41.86    7.85
  -4   7   9   37.21    6.80
   4  -7  -9   44.81    4.57
   4  -7  -9   41.82    7.79
  -4   7   8   31.85    6.63
  -4   7   8   24.01    5.31
   4  -7  -8   26.14    3.52
   4  -7  -8   28.67    6.27
   4  -7  -7   51.53    5.13
  -4   7   7   44.67    7.39
  -4   7   7   41.34    6.97
   4  -7  -7   32.06    6.34
   4  -7  -6  235.86   12.34
  -4   7   6  212.33   16.34
   4  -7  -6  224.26   17.46
  -4   7   6  246.67   17.63
   4  -7  -5  144.18    9.45
  -4   7   5  144.53   14.39
  -4   7   5  136.39   10.07
  -4   7   5  138.79   12.62
   4  -7  -5  134.99   13.02
  -4   7   5  120.71   11.63
  -4   7   4   90.44   11.52
  -4   7   4  119.13    9.50
  -4   7   4  103.89   10.72
   4  -7  -4  112.81    8.40
   4  -7  -4  116.49   11.85
  -4   7   4  121.20   11.03
   4  -7  -3   74.33    7.11
  -4   7   3   87.63   11.07
  -4   7   3   86.10    8.02
  -4   7   3   72.31    8.91
   4  -7  -3   76.96    6.92
   4  -7  -3   64.48    8.78
  -4   7   3   70.61    7.95
   4  -7  -2  281.45   14.43
  -4   7   2  288.54   18.61
   4  -7  -2  287.40   19.40
   4  -7  -2  313.21   15.18
  -4   7   2  294.12   16.68
  -4   7   1   13.49    3.03
   4  -7  -1   14.24    2.71
   4  -7  -1   11.44    2.67
  -4   7   1    8.43    2.98
   4  -7  -1    8.58    3.11
  -4   7   0    1.11    0.73
  -4   7   0    0.93    1.00
   4  -7   0    0.87    0.90
   4  -7   0    0.22    0.45
  -4   7   0    1.12    0.94
   4  -7   0    1.92    1.51
  -4   7  -1   92.85   10.06
  -4   7  -1  108.94    6.57
   4  -7   1   80.50    9.63
   4  -7   1  100.72    8.24
  -4   7  -1   90.58    7.56
   4  -7   2   38.80    3.81
  -4   7  -2   45.77    6.89
   4  -7   2   50.56    5.66
  -4   7  -2   55.07    7.20
  -4   7  -2   45.21    4.47
   4  -7   2   39.05    6.70
   4  -7   2   40.59    3.97
  -4   7  -2   38.35    4.59
  -4   7  -3    1.92    1.13
   4  -7   3    1.46    0.90
   4  -7   3    1.47    1.19
  -4   7  -3    1.70    1.86
  -4   7  -3    1.28    1.21
   4  -7   3    0.82    0.56
   4  -7   3    1.00    0.95
  -4   7  -3    2.63    1.29
   4  -7   4   16.89    2.21
  -4   7  -4   23.22    4.07
   4  -7   4   24.66    3.67
  -4   7  -4   16.13    4.21
   4  -7   4   19.20    3.43
  -4   7  -4   24.67    4.43
   4  -7   4   20.58    5.13
  -4   7  -4   27.36    3.94
  -4   7  -4   23.31    2.98
  -4   7  -5   25.22    4.42
  -4   7  -5   37.23    6.03
   4  -7   5   27.60    3.97
   4  -7   5   25.01    3.94
  -4   7  -5   27.05    4.18
   4  -7   6   86.99    7.24
  -4   7  -6   85.22    8.35
  -4   7  -6   82.32    7.34
  -4   7  -6   83.76    8.90
   4  -7   6   89.63    8.04
  -4   7  -6   77.26    7.69
  -4   7  -7   20.25    3.63
  -4   7  -7   18.57    3.85
  -4   7  -7   19.22    4.08
   4  -7   7   18.55    3.98
   4  -7   7   19.62    3.26
   4  -7   8   22.84    3.44
  -4   7  -8   22.38    4.40
  -4   7  -8   27.36    4.66
  -4   7  -8   28.64    4.31
   4  -7   8   17.76    3.92
  -4   7  -9   13.30    3.39
  -4   7  -9   15.20    3.22
   4  -7   9   15.28    3.65
   4  -7   9   17.10    2.93
  -4   7  -9   18.25    3.30
  -4   7 -10    8.88    2.29
   4  -7  10    9.03    2.12
  -4   7 -10    9.64    3.17
  -4   7 -10    9.70    2.47
   4  -7  10   16.51    4.19
  -4   7 -11   12.17    2.42
  -4   7 -11    8.42    2.35
  -4   7 -11   17.89    4.44
   4  -7  11   13.63    3.80
   4  -7  11   12.93    2.37
  -4   7 -12   -0.31    0.76
  -4   7 -12    1.31    1.60
   4  -7  12    1.54    1.14
   4  -7  12   -1.31    1.67
  -4   7 -13   15.31    4.28
  -4   7 -13   12.79    2.85
   4  -7  13   21.28    5.37
  -4   7 -14    0.86    1.57
  -4   7 -14    0.23    0.58
   4  -7  14   -0.38    1.18
  -4   7 -15    5.55    2.11
  -4   6  16   10.78    4.41
  -4   6  15   33.71    7.42
   4  -6 -15   53.93   10.05
  -4   6  14    3.35    2.68
  -4   6  14    3.72    2.65
   4  -6 -14    9.79    4.22
  -4   6  13    0.65    1.57
  -4   6  13   -3.72    2.34
   4  -6 -13    1.93    2.01
  -4   6  12   30.90    7.25
  -4   6  12   26.81    5.91
   4  -6 -12   48.14    4.09
   4  -6 -12   28.24    6.51
  -4   6  11   26.16    6.65
  -4   6  11   27.95    6.00
   4  -6 -11   34.24    3.59
   4  -6 -11   21.67    5.62
  -4   6  10   64.42    8.91
   4  -6 -10   87.39    6.20
   4  -6 -10   80.11    6.10
  -4   6  10   82.40    6.24
   4  -6 -10   78.86   10.28
  -4   6  10   79.37   10.96
   4  -6  -9    1.23    0.77
   4  -6  -9    0.19    0.66
  -4   6   9   -0.60    1.05
  -4   6   9   -0.11    1.43
   4  -6  -9   -0.77    0.80
  -4   6   8   -0.30    1.30
  -4   6   8    0.82    1.06
  -4   6   8    0.07    1.00
   4  -6  -8   -2.37    1.11
  -4   6   7   23.79    5.50
  -4   6   7   27.68    4.11
  -4   6   7   23.53    5.08
   4  -6  -7   29.02    3.88
   4  -6  -7   30.66    5.86
  -4   6   6   22.23    4.95
  -4   6   6   22.56    3.82
   4  -6  -6   21.88    3.50
  -4   6   6   24.25    4.04
  -4   6   6   23.05    4.93
  -4   6   6   35.61    6.20
   4  -6  -6   24.81    5.20
   4  -6  -5   97.02    7.65
  -4   6   5   85.18    9.70
  -4   6   5   85.35    7.88
  -4   6   5   64.19    8.30
  -4   6   5   90.78    7.94
   4  -6  -5   81.08    9.40
  -4   6   5   71.07    8.56
  -4   6   4   17.95    3.94
  -4   6   4   15.06    3.11
   4  -6  -4   14.37    3.02
   4  -6  -4   16.85    3.20
  -4   6   4   16.14    3.35
  -4   6   4   13.23    3.59
  -4   6   4   21.48    4.83
   4  -6  -4   10.25    3.38
   4  -6  -3   49.24    5.42
  -4   6   3   43.79    5.54
   4  -6  -3   45.23    5.30
  -4   6   3   38.09    6.19
  -4   6   3   40.16    6.62
  -4   6   3   52.09    6.03
   4  -6  -3   37.00    5.99
  -4   6   3   42.25    6.59
  -4   6   3   45.06    6.13
   4  -6  -2   19.37    3.49
  -4   6   2   16.67    3.61
  -4   6   2   20.83    3.79
   4  -6  -2   17.62    3.08
  -4   6   2   14.45    3.83
   4  -6  -2    9.59    3.11
  -4   6   2   16.08    3.62
  -4   6   2   17.58    4.07
   4  -6  -1   12.84    2.91
  -4   6   1   12.39    2.81
  -4   6   1   11.32    2.67
  -4   6   1   14.80    3.66
   4  -6  -1   14.56    3.94
  -4   6   1    9.79    2.82
  -4   6   1   18.42    4.24
  -4   6   0   34.08    5.01
   4  -6   0   20.93    2.99
  -4   6   0   19.69    4.50
   4  -6   0   29.73    4.38
   4  -6   0   23.96    2.23
  -4   6   0   23.64    2.63
   4  -6   0   21.58    4.41
  -4   6   0   21.48    4.13
  -4   6   0   21.27    4.54
  -4   6   0   32.43    4.43
   4  -6   1    0.13    0.44
  -4   6  -1    0.79    0.98
  -4   6  -1    0.54    0.64
   4  -6   1    0.48    0.32
  -4   6  -1    0.81    0.60
   4  -6   1    0.10    0.38
   4  -6   1    0.63    0.87
  -4   6  -1   -0.85    1.30
  -4   6  -1    0.86    0.93
  -4   6  -1   -0.14    0.32
   4  -6   2    0.33    0.74
  -4   6  -2    1.34    0.86
  -4   6  -2    3.13    1.53
   4  -6   2    1.39    0.80
  -4   6  -2    2.45    1.46
   4  -6   2    1.96    0.93
   4  -6   2    0.29    1.08
  -4   6  -2    1.83    1.36
  -4   6  -2    0.85    0.87
   4  -6   3  135.39    6.46
  -4   6  -3  135.21    8.79
   4  -6   3  131.59    9.56
  -4   6  -3  146.91   11.97
   4  -6   3  119.63    9.78
   4  -6   3  138.22    8.48
  -4   6  -3  141.19   10.37
  -4   6  -3  140.37    9.06
  -4   6  -3  160.03   11.16
   4  -6   3  129.57   11.92
  -4   6  -3  154.39   13.07
  -4   6  -3  123.04    7.35
  -4   6  -4   -0.37    0.60
   4  -6   4    1.84    1.38
   4  -6   4    0.37    0.42
  -4   6  -4    0.17    0.79
  -4   6  -4    0.95    1.66
   4  -6   4    2.05    1.46
  -4   6  -4    0.27    0.68
   4  -6   4    1.54    1.30
  -4   6  -4    1.61    2.51
  -4   6  -4    0.11    0.47
  -4   6  -5   90.55    7.41
   4  -6   5   97.14    7.93
  -4   6  -5   95.35    9.22
  -4   6  -5   94.70    7.66
   4  -6   5   87.73    7.56
  -4   6  -5   88.63    7.89
  -4   6  -5  117.62    9.40
  -4   6  -6    9.88    2.73
   4  -6   6    8.65    2.38
  -4   6  -6    8.78    2.34
   4  -6   6    2.59    1.49
  -4   6  -6    8.17    2.22
   4  -6   6    7.20    2.37
  -4   6  -6    8.09    2.79
  -4   6  -6    4.41    1.81
  -4   6  -7    1.04    1.05
  -4   6  -7   -0.38    0.94
   4  -6   7    0.03    0.81
  -4   6  -7    0.28    0.83
  -4   6  -7   -0.68    0.92
   4  -6   7    0.12    0.73
  -4   6  -7   -0.47    0.72
  -4   6  -7   -2.93    1.61
   4  -6   7    0.66    0.68
  -4   6  -8   -0.33    0.86
  -4   6  -8    0.71    1.43
  -4   6  -8    0.20    0.68
   4  -6   8    0.80    0.95
   4  -6   8   -0.32    0.42
  -4   6  -8   -0.53    0.74
   4  -6   8    3.00    2.31
  -4   6  -8    0.03    0.59
  -4   6  -9   65.39    7.47
  -4   6  -9   66.85    6.44
  -4   6  -9   76.75    7.34
   4  -6   9   75.01    6.09
  -4   6  -9   67.63    6.65
  -4   6  -9   83.39    6.79
   4  -6   9   72.74    8.48
   4  -6  10   28.59    4.54
  -4   6 -10   29.66    4.26
  -4   6 -10   32.12    4.38
  -4   6 -10   41.50    6.05
   4  -6  10   34.52    3.94
  -4   6 -10   30.61    4.41
  -4   6 -10   42.40    4.44
   4  -6  10   32.69    5.86
  -4   6 -11    9.74    3.27
  -4   6 -11   16.20    3.13
   4  -6  11   13.65    2.35
   4  -6  11   10.23    3.23
  -4   6 -12   10.17    3.79
  -4   6 -12    5.42    1.86
   4  -6  12    9.49    1.94
   4  -6  12    8.20    3.18
  -4   6 -13   24.45    3.96
  -4   6 -13   16.47    4.73
   4  -6  13   17.01    4.90
  -4   6 -14    3.27    1.59
  -4   6 -14    3.36    2.40
   4  -6  14    9.04    3.64
  -4   6 -15    1.73    1.84
   4  -6  15   -1.92    1.47
  -4   5  17    0.08    1.86
  -4   5  16   15.14    5.08
   4  -5 -16   13.69    5.02
   4  -5 -15   12.14    4.22
  -4   5  15   11.47    4.12
   4  -5 -15   20.66    5.89
   4  -5 -14   12.42    4.09
  -4   5  14   11.27    3.93
   4  -5 -14   21.35    5.95
   4  -5 -13   27.56    6.05
  -4   5  13   21.02    5.18
   4  -5 -13   36.04    7.47
  -4   5  12    0.76    1.09
   4  -5 -12   -0.08    0.38
   4  -5 -12   -1.14    1.64
  -4   5  11   37.51    7.47
   4  -5 -11   52.74    4.47
  -4   5  11   39.96    6.96
  -4   5  11   47.91    4.39
   4  -5 -11   57.90    8.74
  -4   5  10    3.69    2.81
  -4   5  10    6.50    1.81
  -4   5  10    6.04    2.53
   4  -5 -10    4.99    1.55
   4  -5 -10    4.32    2.16
   4  -5 -10    4.73    1.46
  -4   5   9   36.19    6.78
   4  -5  -9   32.10    3.89
   4  -5  -9   33.34    3.67
  -4   5   9   35.57    4.41
  -4   5   9   29.13    5.65
   4  -5  -9   31.60    5.97
  -4   5   8    2.65    2.44
  -4   5   8    3.28    1.35
   4  -5  -8    3.25    1.24
  -4   5   8    4.43    2.45
   4  -5  -8    3.71    2.36
   4  -5  -8    2.94    0.97
   4  -5  -7    0.25    0.62
  -4   5   7    2.42    2.06
  -4   5   7   -0.25    0.77
  -4   5   7    1.31    1.32
  -4   5   7   -0.71    1.26
  -4   5   7   -0.59    1.26
   4  -5  -7    1.89    1.25
   4  -5  -7    0.24    0.41
  -4   5   6   18.48    4.25
   4  -5  -6   15.14    3.49
  -4   5   6   15.55    3.87
  -4   5   6   11.36    2.72
  -4   5   6   13.73    3.58
   4  -5  -6   11.42    2.62
   4  -5  -6   17.41    4.09
  -4   5   5   10.67    3.19
   4  -5  -5   11.73    2.83
  -4   5   5   12.33    2.85
  -4   5   5   10.26    2.84
  -4   5   5   10.28    3.36
   4  -5  -5    9.84    2.53
   4  -5  -5    8.45    2.78
  -4   5   4   32.17    5.18
   4  -5  -4   28.66    4.27
  -4   5   4   32.61    4.89
  -4   5   4   30.17    5.35
  -4   5   4   31.62    4.99
   4  -5  -4   28.07    4.93
   4  -5  -4   35.23    4.88
  -4   5   3    8.38    2.58
   4  -5  -3   14.51    3.08
  -4   5   3   16.51    3.96
  -4   5   3   10.20    2.83
   4  -5  -3   13.46    2.96
   4  -5  -3   12.24    3.18
  -4   5   3    9.76    2.90
  -4   5   2   62.99    6.85
   4  -5  -2   56.77    6.14
  -4   5   2   66.93    7.74
   4  -5  -2   58.41    6.85
  -4   5   2   62.14    6.45
  -4   5   1  125.02    9.44
  -4   5   1  138.47   11.14
   4  -5  -1  119.85    9.73
   4  -5  -1  141.17    4.89
  -4   5   1  149.54    9.54
   4  -5  -1  151.18    8.66
  -4   5   0   54.93    7.00
   4  -5   0   52.05    6.17
  -4   5   0   58.53    4.45
   4  -5   0   60.80    3.93
   4  -5   0   57.21    6.82
  -4   5   0   56.38    5.50
   4  -5   0   55.69    5.01
  -4   5  -1    1.36    0.79
   4  -5   1    1.27    0.68
   4  -5   1   -0.79    0.82
  -4   5  -1    1.14    0.58
   4  -5   1   -0.32    0.56
   4  -5   1    0.10    0.52
   4  -5   1    0.46    1.01
  -4   5  -1    3.21    1.55
   4  -5   2  378.18   10.78
  -4   5  -2  391.35   11.74
   4  -5   2  367.00   15.90
  -4   5  -2  373.67   18.00
   4  -5   2  391.76   12.72
  -4   5  -2  382.25   14.27
   4  -5   2  403.40   18.81
  -4   5  -2  388.22   18.75
   4  -5   3  360.84   12.10
  -4   5  -3  368.87   14.24
   4  -5   3  364.96   17.72
  -4   5  -3  358.41   19.38
   4  -5   3  375.16   15.57
  -4   5  -3  373.87   16.99
  -4   5  -3  377.56   20.77
   4  -5   4    9.57    1.07
  -4   5  -4    7.61    1.75
  -4   5  -4    7.83    2.65
  -4   5  -4   10.50    2.44
   4  -5   4    8.55    2.36
   4  -5   4    7.05    1.93
  -4   5  -4    8.53    3.12
  -4   5  -4    6.01    1.98
  -4   5  -5   50.29    4.86
   4  -5   5   54.90    5.91
   4  -5   5   58.19    6.10
  -4   5  -5   51.63    5.11
  -4   5  -5   53.65    6.61
  -4   5  -5   53.14    6.22
  -4   5  -5   48.41    7.35
  -4   5  -6   24.52    3.51
   4  -5   6   31.20    4.73
  -4   5  -6   28.87    3.70
  -4   5  -6   26.90    4.72
   4  -5   6   24.30    3.84
  -4   5  -6   23.67    4.35
  -4   5  -7   37.83    4.98
  -4   5  -7   24.08    3.93
   4  -5   7   28.53    4.05
  -4   5  -7   27.61    4.58
  -4   5  -7   26.18    3.95
  -4   5  -7   22.42    3.20
   4  -5   7   17.51    3.83
  -4   5  -7   23.47    4.68
  -4   5  -8    4.81    1.61
  -4   5  -8    5.84    1.89
  -4   5  -8    2.52    0.90
   4  -5   8    2.76    1.27
  -4   5  -8    4.49    1.87
   4  -5   8    2.37    1.64
  -4   5  -8    4.27    1.52
   4  -5   8    3.62    2.08
  -4   5  -9   71.48    7.71
  -4   5  -9   63.54    6.39
  -4   5  -9   64.38    6.65
   4  -5   9   51.90    6.72
   4  -5   9   62.48    5.59
   4  -5   9   60.92    7.65
  -4   5  -9   63.23    5.91
  -4   5  -9   71.58    6.51
   4  -5  10   33.17    5.42
  -4   5 -10   33.26    4.68
  -4   5 -10   37.92    4.31
  -4   5 -10   38.43    4.94
   4  -5  10   38.63    4.11
  -4   5 -10   33.23    5.63
   4  -5  10   40.14    5.74
  -4   5 -10   42.23    4.81
   4  -5  10   41.90    6.64
  -4   5 -11   35.06    4.61
   4  -5  11   21.71    4.30
  -4   5 -11   27.05    5.45
   4  -5  11   27.36    3.18
  -4   5 -11   25.48    3.85
  -4   5 -11   33.11    3.54
   4  -5  11   27.83    5.66
  -4   5 -12   -0.46    0.63
  -4   5 -12   -0.57    0.99
   4  -5  12    0.89    0.70
   4  -5  12   -1.32    1.53
  -4   5 -13    5.88    2.07
  -4   5 -13   -1.34    1.61
   4  -5  13    3.50    2.48
  -4   5 -14   -0.82    1.10
  -4   5 -14   -1.51    2.07
   4  -5  14    0.67    1.68
  -4   5 -15    6.52    2.29
  -4   5 -15    2.57    1.45
   4  -5  15    4.33    2.75
  -4   5 -16   11.30    5.61
  -4   4  17    2.17    1.61
   4  -4 -16    6.84    3.91
  -4   4  16    5.21    3.17
   4  -4 -15    4.48    3.07
  -4   4  15    4.62    2.67
   4  -4 -14   22.33    5.61
  -4   4  14   23.55    5.55
   4  -4 -13  108.16   12.31
  -4   4  13  117.97   12.43
   4  -4 -12   -2.48    2.18
   4  -4 -12   -0.15    0.44
   4  -4 -12   -0.37    0.79
   4  -4 -11   45.83    4.25
   4  -4 -11   30.69    6.11
  -4   4  11   31.37    5.96
   4  -4 -11   47.27    7.57
   4  -4 -10  152.66    9.01
  -4   4  10  143.87   12.82
   4  -4 -10  156.11    9.54
   4  -4 -10  157.08   13.46
  -4   4   9   13.72    4.01
  -4   4   9   11.95    3.54
   4  -4  -9    9.62    2.34
   4  -4  -9   10.59    2.18
   4  -4  -9    9.11    3.02
  -4   4   8    3.71    2.32
  -4   4   8    0.75    1.39
   4  -4  -8    5.02    2.35
  -4   4   8    3.21    1.84
   4  -4  -8    3.89    1.50
   4  -4  -8    1.06    0.70
  -4   4   7  194.77   13.17
  -4   4   7  177.43   11.31
   4  -4  -7  189.48   11.37
  -4   4   7  158.11   12.92
   4  -4  -7  162.80    7.81
   4  -4  -7  173.11   12.44
  -4   4   7  163.60   13.54
   4  -4  -7  163.74   12.12
  -4   4   6   14.61    3.75
  -4   4   6   17.68    3.62
   4  -4  -6   16.98    3.53
  -4   4   6   16.05    3.23
  -4   4   6   20.00    4.21
   4  -4  -6   14.00    1.78
   4  -4  -6   11.50    2.66
   4  -4  -6   14.34    3.27
  -4   4   5   -0.84    0.95
   4  -4  -5   -0.20    1.02
   4  -4  -5    0.19    0.59
  -4   4   5    1.24    1.13
  -4   4   5   -0.26    0.88
   4  -4  -5    0.17    0.22
  -4   4   5    1.16    1.28
   4  -4  -5    0.17    1.09
  -4   4   4  154.34   10.10
  -4   4   4  139.67   10.28
   4  -4  -4  140.23   10.24
   4  -4  -4  153.63    5.66
  -4   4   4  144.65   11.72
   4  -4  -4  132.33    6.08
   4  -4  -4  150.91   10.55
  -4   4   4  132.35   10.53
   4  -4  -4  143.72   10.18
  -4   4   3  115.98    8.02
   4  -4  -3  112.47    9.12
   4  -4  -3  117.82    5.62
   4  -4  -3  117.40    9.07
  -4   4   3  117.98    9.30
  -4   4   3  101.03    9.69
  -4   4   2    1.41    1.63
   4  -4  -2    1.72    1.12
   4  -4  -2    0.87    0.93
  -4   4   2   -1.34    2.12
   4  -4  -2    2.00    1.19
  -4   4   2    0.44    0.50
   4  -4  -2    0.80    0.23
  -4   4   1   52.00    4.50
   4  -4  -1   51.38    3.93
   4  -4  -1   50.06    5.79
  -4   4   1   57.45    6.32
  -4   4   1   63.36    7.33
   4  -4  -1   56.04    5.38
  -4   4   0   61.77    4.72
  -4   4   0   65.92    7.50
   4  -4   0   68.99    5.03
  -4   4   0   63.14    5.11
   4  -4   0   74.60    7.23
  -4   4   0   74.00    7.28
   4  -4   0   60.85    5.31
  -4   4  -1   40.68    5.78
  -4   4  -1   35.39    4.13
   4  -4   1   45.51    5.86
   4  -4   1   41.46    4.14
   4  -4   1   44.43    4.15
  -4   4  -2   -0.24    0.84
   4  -4   2   -1.38    0.67
  -4   4  -2    0.09    0.31
  -4   4  -2    0.40    0.88
   4  -4   2    1.40    0.97
  -4   4  -3   77.33    4.28
  -4   4  -3   73.66    7.82
   4  -4   3   82.75    6.83
  -4   4  -3   85.48    7.49
  -4   4  -3   61.03    7.55
   4  -4   3   87.40    4.71
  -4   4  -4  167.98   11.53
  -4   4  -4  169.05   11.07
  -4   4  -4  171.14    7.20
  -4   4  -4  168.83    8.77
   4  -4   4  184.93   10.71
  -4   4  -4  180.33   13.15
   4  -4   4  180.27    5.11
  -4   4  -5  131.68    7.16
  -4   4  -5  121.94    9.79
   4  -4   5  136.81    9.65
  -4   4  -5  124.58    7.16
  -4   4  -5  130.61   10.14
  -4   4  -5  134.28   11.72
  -4   4  -6   13.12    3.23
   4  -4   6    3.10    1.44
  -4   4  -6   12.62    2.74
   4  -4   6   -0.09    0.53
  -4   4  -6   12.11    2.11
  -4   4  -6   14.69    2.66
  -4   4  -6   20.47    4.71
   4  -4   6   12.64    2.93
  -4   4  -6   12.43    3.13
   4  -4   7   55.48    5.61
  -4   4  -7   70.61    6.59
  -4   4  -7   67.82    6.46
  -4   4  -7   57.63    6.41
   4  -4   7   43.36    6.13
   4  -4   7   70.92    7.57
  -4   4  -7   63.82    4.94
  -4   4  -7   60.11    7.54
   4  -4   8   13.17    3.07
  -4   4  -8   16.37    3.55
  -4   4  -8   15.42    3.13
   4  -4   8    9.18    2.75
  -4   4  -8   14.45    3.42
  -4   4  -8   11.90    2.27
   4  -4   8    4.47    1.75
   4  -4   8   13.37    3.42
  -4   4  -9   -0.59    1.31
   4  -4   9   -1.17    1.39
  -4   4  -9    1.39    1.39
  -4   4  -9    0.70    1.42
   4  -4   9    0.56    1.58
  -4   4  -9    0.29    0.67
   4  -4   9    0.17    0.99
   4  -4   9    0.01    0.35
  -4   4 -10   14.47    4.30
  -4   4 -10   15.84    2.83
   4  -4  10   22.91    4.51
  -4   4 -10   13.25    2.88
   4  -4  10   12.28    3.13
  -4   4 -10   14.59    2.65
   4  -4  10   14.33    3.95
  -4   4 -11    3.88    0.96
   4  -4  11    4.03    2.01
   4  -4  11    3.37    1.61
  -4   4 -11    4.09    1.55
  -4   4 -11    4.87    2.66
   4  -4  11    7.74    3.26
  -4   4 -12    0.74    0.52
   4  -4  12    1.74    1.99
  -4   4 -13    0.02    0.59
  -4   4 -13    0.65    1.79
   4  -4  13    0.49    1.39
  -4   4 -14    3.50    1.46
   4  -4  14    6.47    3.05
  -4   4 -15    4.74    2.07
  -4   4 -15    7.40    4.48
   4  -4  15    4.48    2.98
  -4   4 -16   22.68    6.81
  -4   3  18    1.49    1.05
   4  -3 -16    1.52    2.11
   4  -3 -16    7.71    6.36
  -4   3  16    2.38    1.54
   4  -3 -15    4.60    2.61
  -4   3  15    5.50    2.61
   4  -3 -15   11.72    6.58
   4  -3 -14   13.12    4.08
  -4   3  14   13.54    4.13
   4  -3 -14   12.89    6.51
   4  -3 -13   23.53    5.62
   4  -3 -13   23.25    2.56
  -4   3  13   24.16    5.34
   4  -3 -13   19.76    7.41
   4  -3 -12    4.29    1.35
  -4   3  12    5.79    1.50
   4  -3 -12    4.12    1.90
  -4   3  12    0.76    0.84
   4  -3 -12    7.16    4.12
   4  -3 -12    1.33    0.64
   4  -3 -11  252.96   24.30
   4  -3 -11  286.61   18.97
   4  -3 -11  323.81   13.69
  -4   3  11  290.54   18.89
   4  -3 -11  300.86   15.29
   4  -3 -10   52.02    7.26
   4  -3 -10   60.97    5.67
  -4   3  10   55.59    7.66
   4  -3 -10   38.81    8.84
   4  -3  -9    6.25    1.98
  -4   3   9   12.15    3.69
  -4   3   9    5.26    2.46
   4  -3  -9   14.95    6.63
   4  -3  -9    4.26    1.45
   4  -3  -9    8.00    2.70
  -4   3   8  129.49   10.97
   4  -3  -8  111.75   13.43
   4  -3  -8  127.44    9.35
  -4   3   8  147.18    9.86
  -4   3   8  145.37   11.86
   4  -3  -8  126.42    7.62
   4  -3  -8  132.17   10.48
   4  -3  -8  136.80   11.26
   4  -3  -7   32.59    4.69
  -4   3   7   38.45    4.94
  -4   3   7   30.37    4.88
  -4   3   7   26.44    5.07
   4  -3  -7   29.96    3.19
   4  -3  -7   30.74    6.52
   4  -3  -7   40.08    5.34
   4  -3  -7   36.33    5.45
   4  -3  -6    7.08    2.23
  -4   3   6    8.86    2.72
   4  -3  -6    5.91    2.08
  -4   3   6    9.43    2.64
  -4   3   6   11.01    2.69
   4  -3  -6    8.63    1.63
   4  -3  -6    8.86    2.39
   4  -3  -5  321.48   16.39
  -4   3   5  327.17   15.71
   4  -3  -5  294.64   18.82
  -4   3   5  331.55   18.09
   4  -3  -5  332.34   15.38
   4  -3  -5  300.59   11.49
   4  -3  -5  321.80   16.82
  -4   3   4    2.46    1.06
  -4   3   4    1.17    1.24
   4  -3  -4    4.01    1.80
   4  -3  -4    6.02    1.84
   4  -3  -4    4.23    1.83
  -4   3   3  849.25   27.18
  -4   3   3  913.01   33.70
   4  -3  -3  858.32   29.11
  -4   3   3  846.69   29.37
  -4   3   2   31.00    3.05
  -4   3   2   30.77    5.06
   4  -3  -2   36.50    3.81
   4  -3  -2   36.86    4.36
  -4   3   2   31.15    4.06
   4  -3  -2   32.73    4.40
   4  -3  -1   11.63    2.10
   4  -3  -1    9.49    2.27
  -4   3   1   11.17    2.91
  -4   3   1   13.98    1.60
   4  -3  -1    7.47    2.06
  -4   3   1    7.76    2.13
   4  -3   0    1.90    1.07
  -4   3   0    2.55    1.51
   4  -3   0    2.72    1.38
  -4   3   0    1.58    1.19
   4  -3   0    2.57    0.95
   4  -3   1   10.95    2.11
  -4   3  -1    7.43    1.94
  -4   3  -1    9.39    2.70
  -4   3  -1    6.67    1.99
   4  -3   1   11.77    2.38
  -4   3  -2    0.83    0.84
   4  -3   2    0.73    0.51
  -4   3  -2   -0.53    1.12
  -4   3  -2    1.63    1.05
   4  -3   2    1.18    0.87
  -4   3  -3   19.92    3.63
  -4   3  -3   17.15    3.75
   4  -3   3   14.23    2.82
   4  -3   4   73.51    4.49
  -4   3  -4   76.97    7.76
  -4   3  -4   68.76    5.48
   4  -3   4   74.58    7.16
  -4   3  -4   69.79    7.43
  -4   3  -4   61.04    7.42
  -4   3  -5    3.73    2.12
   4  -3   5    2.98    0.60
   4  -3   5    2.11    0.90
  -4   3  -5    1.13    0.56
  -4   3  -5    1.81    1.21
  -4   3  -5    3.67    1.14
  -4   3  -5    2.98    2.08
   4  -3   5    2.55    1.55
   4  -3   6    4.20    1.96
   4  -3   6    5.81    1.67
  -4   3  -6    8.42    2.51
  -4   3  -6    4.82    1.91
  -4   3  -6    8.89    1.59
  -4   3  -6    6.56    1.91
   4  -3   6    8.62    2.79
  -4   3  -6   13.74    3.55
   4  -3   6    8.30    0.83
   4  -3   7   69.54    6.51
  -4   3  -7   62.04    7.36
  -4   3  -7   65.14    6.45
  -4   3  -7   74.50    7.35
   4  -3   7   71.42    8.08
   4  -3   7   69.57    7.76
  -4   3  -7   76.37    4.89
  -4   3  -7   71.07    8.58
  -4   3  -8   -0.96    1.34
  -4   3  -8    0.34    0.55
   4  -3   8    0.65    0.88
   4  -3   8    0.68    1.37
  -4   3  -8    0.93    0.62
   4  -3   8   -0.10    0.69
   4  -3   9  472.18   22.50
  -4   3  -9  452.11   26.38
  -4   3  -9  541.82   21.36
   4  -3   9  480.30   24.48
   4  -3   9  527.65   25.70
  -4   3  -9  498.47   17.01
   4  -3  10    1.21    1.90
  -4   3 -10    2.74    1.34
   4  -3  10    3.02    1.62
  -4   3 -10    5.24    3.31
   4  -3  10    5.59    2.51
  -4   3 -11   -0.43    0.95
   4  -3  11    1.37    2.41
  -4   3 -11    2.73    1.48
   4  -3  11   -0.56    1.74
  -4   3 -11    0.69    2.34
   4  -3  11    0.90    1.67
  -4   3 -12   69.07    6.69
   4  -3  12   90.63   10.60
  -4   3 -12   72.01   11.70
   4  -3  12   77.99    4.96
  -4   3 -13    4.02    1.53
  -4   3 -13    7.06    4.47
   4  -3  13    3.14    1.92
  -4   3 -14    1.24    1.37
   4  -3  14    2.55    2.77
  -4   3 -15    0.33    1.01
   4  -3  15    2.23    2.25
  -4   2  19   27.51    6.03
  -4   2  18    4.89    2.40
   4  -2 -17    5.13    4.15
  -4   2  17   -0.03    1.80
   4  -2 -16   12.51    4.20
  -4   2  16   18.24    4.76
   4  -2 -16    8.88    4.46
   4  -2 -15    3.03    2.39
  -4   2  15    5.56    3.12
   4  -2 -15    0.46    2.03
   4  -2 -14   20.63    5.14
  -4   2  14   17.18    4.36
   4  -2 -14   15.38    6.34
   4  -2 -13    0.18    1.15
  -4   2  13    0.35    0.77
   4  -2 -13    0.02    1.91
   4  -2 -13    0.17    0.67
   4  -2 -12  101.99   14.73
   4  -2 -12   92.19   10.44
  -4   2  12   88.21    9.67
   4  -2 -12   80.67    6.23
   4  -2 -12   90.66    8.07
   4  -2 -11  311.24   24.45
   4  -2 -11  358.39   15.86
   4  -2 -11  349.49   21.11
  -4   2  11  343.68   19.86
   4  -2 -11  356.18   16.94
   4  -2 -10   29.87    4.20
   4  -2 -10   19.74    4.36
  -4   2  10   34.33    5.68
   4  -2 -10   19.27    5.64
   4  -2 -10   31.17    4.19
  -4   2   9    3.28    1.80
  -4   2   9    1.80    1.68
   4  -2  -9    0.08    0.93
   4  -2  -9    2.35    1.25
   4  -2  -8    0.86    1.07
  -4   2   8    0.62    1.23
  -4   2   8    0.77    1.16
  -4   2   8   -0.24    0.67
   4  -2  -8   -1.32    2.14
   4  -2  -8    0.28    0.59
   4  -2  -8    0.12    0.57
   4  -2  -7   18.58    3.85
  -4   2   7   21.22    4.10
  -4   2   7   21.64    3.59
  -4   2   7   17.71    3.85
   4  -2  -7   24.85    3.16
   4  -2  -7   20.18    3.30
  -4   2   6   31.60    4.65
  -4   2   6   36.48    5.46
   4  -2  -6   34.13    3.64
   4  -2  -6   33.86    4.06
  -4   2   5  129.24    9.14
   4  -2  -5  120.92    8.79
  -4   2   5  114.90    9.92
   4  -2  -5  138.32    9.66
   4  -2  -5  132.80    7.87
  -4   2   4 1145.05   34.40
   4  -2  -4 1054.04   34.58
  -4   2   4 1046.71   38.03
   4  -2  -4 1077.59   36.27
   4  -2  -4 1032.77   31.94
  -4   2   3   79.56    5.79
   4  -2  -3   75.95    5.76
  -4   2   3   73.57    7.75
   4  -2  -3   90.46    7.97
   4  -2  -3   77.58    5.68
  -4   2   3   76.21    5.65
   4  -2  -3   72.38    6.97
  -4   2   2   94.54    8.66
  -4   2   2  100.88    5.67
   4  -2  -2   83.86    5.10
   4  -2  -2   89.12    6.73
   4  -2  -2   95.79    6.49
  -4   2   2   97.86    6.61
  -4   2   1   29.88    4.78
   4  -2  -1   30.75    2.08
   4  -2  -1   44.59    5.09
   4  -2  -1   40.21    4.34
  -4   2   1   34.84    3.99
  -4   2   0  291.19   15.98
   4  -2   0  300.43   14.65
  -4   2   0  288.23   13.65
  -4   2  -1    2.56    1.33
  -4   2  -1    1.81    1.30
  -4   2  -1    3.73    1.50
   4  -2   1    2.88    1.53
  -4   2  -2  153.06   10.99
   4  -2   2  145.34   10.09
  -4   2  -2  143.59   10.16
  -4   2  -2  152.53   10.47
  -4   2  -3   15.58    3.60
   4  -2   3   14.73    1.66
  -4   2  -3   12.89    3.05
   4  -2   3   13.78    3.06
  -4   2  -4   39.51    5.64
   4  -2   4   36.33    3.29
   4  -2   4   35.90    3.31
  -4   2  -4   39.48    5.34
   4  -2   4   36.99    5.19
  -4   2  -5   23.62    4.61
   4  -2   5   30.27    2.73
   4  -2   5   27.07    3.30
  -4   2  -5   32.18    2.61
  -4   2  -5   29.71    4.66
   4  -2   5   25.65    4.61
   4  -2   5   29.98    4.80
  -4   2  -6   24.11    4.88
   4  -2   6   16.43    1.90
  -4   2  -6   21.31    3.90
   4  -2   6   15.54    2.88
  -4   2  -6   13.27    2.81
  -4   2  -6   16.04    1.71
   4  -2   6   14.44    3.55
   4  -2   6   21.55    4.30
   4  -2   7    1.37    0.72
   4  -2   7    1.68    1.06
   4  -2   7    1.47    1.40
  -4   2  -7    1.18    1.16
  -4   2  -7    1.36    1.42
  -4   2  -7    0.92    0.50
   4  -2   7    1.11    1.36
   4  -2   8  241.99   13.94
  -4   2  -8  262.65   13.67
   4  -2   8  229.10   15.99
   4  -2   8  276.78   17.41
   4  -2   8  250.20   10.05
   4  -2   9  220.36   14.43
  -4   2  -9  252.01   13.30
   4  -2   9  218.79   16.10
   4  -2   9  246.84   17.10
   4  -2   9  265.66   10.80
   4  -2  10   45.15    6.54
  -4   2 -10   43.27    5.17
   4  -2  10   49.01    7.35
   4  -2  10   46.51    4.17
   4  -2  11    5.41    1.43
   4  -2  11    5.54    2.64
  -4   2 -11    5.18    1.86
   4  -2  11    3.78    1.44
   4  -2  11    5.41    2.49
   4  -2  12    3.26    1.13
  -4   2 -12    5.83    1.86
   4  -2  12    1.45    1.84
   4  -2  12    2.55    0.92
  -4   2 -13    1.25    1.29
   4  -2  13    7.09    3.39
  -4   2 -14    7.03    2.31
   4  -2  14    7.94    3.67
  -4   2 -15    2.38    1.22
   4  -2  15    2.53    2.94
  -4   1  19    4.76    3.54
  -4   1  18    3.17    2.14
   4  -1 -17  103.67   12.54
   4  -1 -17   85.74   15.80
  -4   1  17   83.79   10.66
   4  -1 -16   -0.21    1.99
   4  -1 -16    0.46    2.93
  -4   1  16    1.06    1.52
   4  -1 -15    3.43    2.12
   4  -1 -15    1.03    2.02
  -4   1  15    0.89    1.09
  -4   1  15   -0.19    1.14
  -4   1  14   25.57    2.72
   4  -1 -14   16.63    4.56
  -4   1  14   30.39    5.32
   4  -1 -14   17.33    6.01
  -4   1  13   19.71    2.76
  -4   1  13   24.88    3.12
   4  -1 -13   19.70    2.99
   4  -1 -13   27.26    5.77
   4  -1 -13   28.00    7.46
  -4   1  13   17.78    4.32
   4  -1 -12   25.55    6.51
   4  -1 -12   35.10    4.32
   4  -1 -12   37.74    6.56
  -4   1  12   38.70    5.96
  -4   1  12   34.41    4.09
   4  -1 -11   23.79    5.07
   4  -1 -11   34.70    7.02
  -4   1  11   30.00    5.27
   4  -1 -11   27.38    4.38
   4  -1 -10   29.90    5.37
   4  -1 -10   28.82    5.68
   4  -1 -10   34.00    4.55
  -4   1  10   30.40    5.08
   4  -1  -9    8.80    2.87
   4  -1  -9    3.54    1.87
  -4   1   9    3.40    1.36
   4  -1  -9    3.41    2.02
  -4   1   9    4.29    1.92
   4  -1  -9    6.75    1.95
   4  -1  -8    0.91    0.62
  -4   1   8    1.30    1.53
  -4   1   8    1.23    0.94
   4  -1  -8    0.72    0.61
  -4   1   8    2.51    1.18
  -4   1   7   83.36    8.29
  -4   1   7   84.30    7.22
  -4   1   7   62.50    7.12
   4  -1  -7   75.69    5.79
   4  -1  -7   66.74    7.48
  -4   1   6   96.89    8.46
  -4   1   6   99.94    8.22
  -4   1   6   96.40    8.74
   4  -1  -6   97.28    7.88
   4  -1  -6   91.70    5.83
  -4   1   5  180.48   11.24
   4  -1  -5  178.10   11.11
  -4   1   5  182.69   12.38
   4  -1  -5  172.50   11.02
   4  -1  -5  175.52    7.88
  -4   1   4  181.71   10.31
   4  -1  -4  176.80   10.27
   4  -1  -4  169.35   11.14
  -4   1   4  179.18   12.08
   4  -1  -4  176.85    7.63
  -4   1   3  144.84    8.32
   4  -1  -3  147.84    8.57
  -4   1   3  151.46   10.94
   4  -1  -3  151.44   10.65
   4  -1  -3  167.04    7.55
  -4   1   3  157.28    7.04
   4  -1  -2  178.55    8.53
  -4   1   2  163.27   11.58
  -4   1   2  165.94    7.82
   4  -1  -2  147.83   10.88
   4  -1  -1   14.99    2.97
   4  -1  -1   21.81    2.43
  -4   1   1   22.10    4.06
  -4   1   1   23.71    2.84
   4  -1   0  175.91    7.23
  -4   1   0  180.80   12.09
   4  -1   0  182.30   11.55
  -4   1   0  171.55    9.37
  -4   1  -1   77.64    7.64
   4  -1   1   70.79    7.20
   4  -1   2 1069.78   32.54
  -4   1  -2 1145.61   38.55
   4  -1   2 1178.10   38.96
  -4   1  -2 1044.61   37.03
   4  -1   3  736.53   23.56
   4  -1   3  808.38   16.95
  -4   1  -3  822.22   24.02
  -4   1  -3  732.35   23.69
   4  -1   4  682.99   22.69
   4  -1   4  702.43   23.30
  -4   1  -4  717.27   27.64
   4  -1   4  647.01   28.35
   4  -1   4  681.47   28.58
  -4   1  -4  692.60   29.15
   4  -1   5  143.49    7.52
   4  -1   5  144.45    8.93
  -4   1  -5  115.91    8.51
  -4   1  -5  145.87   10.45
   4  -1   5  126.61   10.95
  -4   1  -5  140.66    4.51
   4  -1   5  138.49   11.29
  -4   1  -5  138.93   11.65
   4  -1   6  119.89    6.88
   4  -1   6  122.04    8.68
  -4   1  -6  124.78    8.72
  -4   1  -6  139.57   10.24
   4  -1   6  124.99   11.07
   4  -1   6  126.22   11.15
  -4   1  -6  133.36   11.82
   4  -1   7  314.04   12.59
   4  -1   7  298.17   15.56
  -4   1  -7  313.93   15.18
   4  -1   7  311.42   18.62
   4  -1   7  325.38   19.07
   4  -1   8    7.58    1.69
   4  -1   8   10.30    3.01
  -4   1  -8    7.68    1.99
   4  -1   8    9.90    3.38
   4  -1   8    6.89    2.68
   4  -1   9  190.53   13.57
  -4   1  -9  189.62   11.21
   4  -1   9  213.96   15.70
   4  -1   9  208.93   10.44
  -4   1 -10   22.42    3.09
   4  -1  10   20.12    3.07
   4  -1  10   18.46    4.08
  -4   1 -10   20.91    3.48
   4  -1  10   18.24    4.49
   4  -1  11    9.03    2.30
   4  -1  11    5.92    1.79
  -4   1 -11    6.87    2.09
  -4   1 -11    6.40    1.40
   4  -1  11    7.19    2.77
   4  -1  12    1.31    0.90
  -4   1 -12    1.51    1.12
   4  -1  12   -0.43    1.37
  -4   1 -13   31.87    4.47
   4  -1  13   19.16    5.02
  -4   1 -14    4.98    1.96
   4  -1  14    1.72    1.94
  -4   1 -15   45.07    5.87
  -4   0  18    1.35    1.88
   4   0 -17    3.81    2.34
  -4   0  17    9.93    3.78
   4   0 -16    8.90    3.68
   4   0 -16   11.23    5.30
  -4   0  16   13.46    3.94
   4   0 -15   -3.07    2.90
  -4   0  15    0.67    1.34
   4   0 -15    1.73    2.91
  -4   0  15   -0.43    1.47
   4   0 -14    0.90    1.56
  -4   0  14    1.56    0.60
  -4   0  14    0.86    0.92
   4   0 -14    0.12    1.50
  -4   0  14    1.05    0.90
   4   0 -14    0.76    0.46
  -4   0  13   46.80    4.14
   4   0 -13   43.06    7.04
   4   0 -13   52.45    9.44
  -4   0  13   46.91    4.08
  -4   0  13   37.21    6.68
  -4   0  13   37.22    5.63
  -4   0  12 1008.74   31.25
   4   0 -12 1059.51   45.37
   4   0 -12  931.84   39.14
  -4   0  12  974.74   36.16
  -4   0  12  964.67   30.80
  -4   0  11   18.10    3.01
   4   0 -11   18.63    4.94
   4   0 -11   16.19    4.00
  -4   0  11   25.99    4.55
  -4   0  11   24.33    3.54
   4   0 -10   59.68    8.65
   4   0 -10   58.41    7.49
   4   0 -10   63.58    6.63
  -4   0  10   60.82    6.97
  -4   0  10   57.21    5.53
  -4   0   9  398.06   21.97
   4   0  -9  384.19   21.92
   4   0  -9  333.93   19.24
  -4   0   9  424.90   17.44
  -4   0   9  403.42   19.55
   4   0  -9  370.53   17.76
   4   0  -9  365.98   20.36
  -4   0   8  144.34   10.79
  -4   0   8  146.25   11.93
   4   0  -8  132.14   11.51
  -4   0   8  165.92    9.96
   4   0  -8  128.77    9.36
   4   0  -8  136.46   11.34
  -4   0   7   14.18    3.44
  -4   0   7   14.04    2.81
   4   0  -7   11.28    3.19
  -4   0   7   14.06    3.10
   4   0  -7   14.02    2.82
   4   0  -7    0.68    0.70
   4   0  -7   14.68    2.05
  -4   0   6  805.42   28.02
  -4   0   6  816.50   28.07
   4   0  -6  759.72   25.71
   4   0  -6  749.35   18.22
  -4   0   5   17.96    3.29
   4   0  -5   23.92    4.04
  -4   0   5   23.48    4.09
   4   0  -5   18.82    3.54
   4   0  -4   53.67    5.67
  -4   0   4   53.54    6.23
   4   0  -4   46.21    5.69
   4   0  -3   55.02    5.46
   4   0  -3   62.73    6.66
  -4   0   3   46.67    5.86
   4   0  -2   67.12    5.82
  -4   0   2   75.54    7.45
   4   0  -2   75.50    7.52
  -4   0   2   82.02    4.29
   4   0  -1    1.47    0.84
   4   0  -1    1.62    1.21
  -4   0   1    1.18    0.65
  -4   0   1    3.04    1.79
  -4   0   0  138.35   10.24
   4   0   0  130.41   10.42
  -4   0  -1   92.41    8.33
   4   0   1   99.33    9.11
   4   0   2   15.76    3.75
  -4   0  -2   15.92    3.45
   4   0   3   52.80    5.19
  -4   0  -3   54.49    6.12
   4   0   3   43.67    6.07
  -4   0  -3   54.91    3.25
  -4   0  -3   40.49    5.78
   4   0   3   40.96    5.87
  -4   0  -4    4.82    2.07
   4   0   4    6.75    1.70
   4   0   4    7.25    2.30
   4   0   4    6.59    2.39
  -4   0  -4    6.17    2.02
   4   0   4    6.71    2.42
   4   0   5   55.18    5.01
   4   0   5   58.44    6.62
  -4   0  -5   51.06    5.23
   4   0   5   47.57    6.67
   4   0   5   57.65    7.44
  -4   0  -5   53.49    7.27
   4   0   6    3.31    1.28
  -4   0  -6    1.07    0.69
   4   0   6    1.96    1.60
   4   0   6    1.92    1.27
   4   0   6    5.60    2.70
   4   0   7  427.30   17.01
   4   0   7  431.90   20.76
  -4   0  -7  433.60   17.83
   4   0   7  436.89   23.25
  -4   0  -7  402.21   17.64
   4   0   8  314.05   14.21
  -4   0  -8  311.94   14.70
   4   0   8  308.89   17.82
  -4   0  -8  327.99   14.93
   4   0   8  327.93   20.25
  -4   0  -8  300.48   14.24
  -4   0  -9    2.19    1.05
   4   0   9    7.03    2.00
   4   0   9    7.88    2.83
   4   0   9    3.26    2.68
  -4   0  -9    6.62    1.99
  -4   0  -9    5.50    1.66
  -4   0 -10   24.78    3.00
   4   0  10   23.71    3.72
  -4   0 -10   20.38    3.38
  -4   0 -10   23.80    2.94
   4   0  10   19.02    4.83
   4   0  11   12.82    2.81
  -4   0 -11   16.16    2.04
  -4   0 -11   14.22    2.85
   4   0  11   15.49    4.27
   4   0  12   42.81    5.44
  -4   0 -12   57.08    5.85
   4   0  12   53.85    8.42
   4   0  13   28.81    4.87
  -4   0 -13   24.07    3.95
   4   0  13   22.57    5.60
  -4   0 -14   19.71    3.71
   4   0  14   19.50    5.15
  -4  -1  18    3.37    2.53
   4   1 -17    8.13    3.65
   4   1 -17   11.65    4.65
  -4  -1  17    7.67    3.01
   4   1 -16   10.70    3.97
   4   1 -16    5.24    4.21
  -4  -1  16   12.86    4.16
   4   1 -15    0.67    1.06
  -4  -1  15    4.72    2.13
   4   1 -14   24.52    5.41
   4   1 -14   20.06    5.94
  -4  -1  14   21.96    3.70
  -4  -1  14   24.37    5.28
  -4  -1  14   28.95    2.80
  -4  -1  13  259.73   13.90
   4   1 -13  240.88   20.13
   4   1 -13  216.17   16.48
  -4  -1  13  240.71   17.34
  -4  -1  13  248.83   10.72
  -4  -1  12  309.62   13.08
   4   1 -12  264.97   20.52
   4   1 -12  285.59   18.42
  -4  -1  12  300.92   15.42
  -4  -1  12  299.79   19.31
  -4  -1  12  275.36   12.45
  -4  -1  11   -0.50    0.93
   4   1 -11    0.45    1.06
   4   1 -11   -0.47    1.23
  -4  -1  11    0.74    1.22
  -4  -1  11    0.85    1.44
  -4  -1  11    1.80    1.04
   4   1 -10   12.95    3.63
   4   1 -10    4.09    2.09
  -4  -1  10   10.59    2.36
  -4  -1  10    7.09    2.35
  -4  -1  10    5.69    2.12
  -4  -1  10    5.37    1.66
  -4  -1   9    1.80    1.16
  -4  -1   9   -0.90    1.21
  -4  -1   9    1.13    1.07
   4   1  -9    1.00    1.22
  -4  -1   9   -0.31    0.86
  -4  -1   9    0.55    0.67
   4   1  -9    1.48    1.06
  -4  -1   9    0.87    1.33
  -4  -1   8    7.22    2.16
  -4  -1   8    7.40    2.68
  -4  -1   8    7.45    2.06
   4   1  -8    6.79    1.85
  -4  -1   8    6.50    1.96
   4   1  -8    8.01    2.35
  -4  -1   8    9.92    2.94
  -4  -1   8    7.01    2.15
   4   1  -8    6.72    2.55
  -4  -1   7   24.70    3.78
  -4  -1   7   30.39    5.06
  -4  -1   7   31.47    4.04
   4   1  -7   25.84    4.95
  -4  -1   7   31.23    4.59
  -4  -1   7   22.73    4.32
   4   1  -7   29.95    2.18
   4   1  -7   26.81    1.95
   4   1  -7   26.34    3.90
  -4  -1   6   53.51    6.00
   4   1  -6   58.15    6.16
  -4  -1   6   53.40    6.36
  -4  -1   5  418.23   19.05
   4   1  -5  382.63   18.38
  -4  -1   5  409.25   18.92
   4   1  -4  371.67   17.97
  -4  -1   4  347.23   16.08
   4   1  -4  355.47   17.89
  -4  -1   4  370.59   17.30
  -4  -1   4  388.17   18.08
  -4  -1   3    0.73    0.98
   4   1  -3    1.23    0.93
  -4  -1   3   -0.10    0.82
   4   1  -2   10.99    2.48
   4   1  -2    6.62    2.17
  -4  -1   2   11.78    2.65
  -4  -1   2    9.90    2.72
  -4  -1   1  230.84   13.41
  -4  -1   1  246.73   11.78
   4   1  -1  214.49   13.55
  -4  -1   0  183.45   11.89
   4   1   0  192.92   12.80
  -4  -1   0  195.96    9.77
   4   1   0  188.77   13.60
  -4  -1  -1  482.27   21.42
  -4  -1  -1  481.48   16.46
   4   1   1  489.61   24.12
   4   1   2   16.79    4.11
   4   1   2   19.68    3.45
  -4  -1  -2   23.83    4.02
  -4  -1  -2   15.32    1.91
   4   1   3   18.00    4.18
  -4  -1  -3   13.52    2.81
   4   1   3   18.95    3.30
  -4  -1  -3   17.48    1.62
   4   1   3   13.07    3.61
  -4  -1  -4    0.70    0.78
   4   1   4    2.49    1.35
  -4  -1  -4    0.11    0.45
   4   1   4    2.69    1.48
   4   1   4    1.10    1.47
   4   1   5   26.83    3.79
  -4  -1  -5   35.15    4.67
  -4  -1  -5   23.75    5.07
  -4  -1  -5   34.00    4.06
   4   1   5   23.61    4.91
   4   1   5   27.77    5.50
  -4  -1  -5   33.11    4.38
   4   1   5   27.12    5.45
  -4  -1  -6   22.01    3.41
   4   1   6   20.25    3.33
  -4  -1  -6   22.74    3.33
  -4  -1  -6   18.45    3.26
   4   1   6   14.73    3.92
   4   1   6   11.49    3.54
   4   1   7  523.19   20.86
  -4  -1  -7  497.78   19.99
   4   1   7  510.87   25.91
  -4  -1  -7  507.68   19.47
   4   1   7  506.66   26.33
  -4  -1  -7  488.37   19.36
   4   1   8  267.40   14.09
  -4  -1  -8  278.04   12.83
   4   1   8  265.53   17.79
  -4  -1  -8  280.09   13.13
   4   1   8  270.89   18.65
  -4  -1  -8  245.77   12.05
   4   1   9    7.75    2.30
  -4  -1  -9    3.02    1.24
  -4  -1  -9    3.91    1.55
  -4  -1  -9    6.79    1.51
   4   1   9    1.26    1.84
   4   1  10    2.93    1.27
  -4  -1 -10    2.68    1.37
  -4  -1 -10    2.64    0.96
   4   1  10    2.28    0.90
  -4  -1 -11   41.19    4.82
   4   1  11   40.36    7.27
  -4  -1 -11   41.26    3.25
   4   1  11   43.87    5.79
   4   1  12    7.72    2.55
  -4  -1 -12    8.59    2.29
   4   1  12    5.39    2.90
   4   1  13    1.96    1.27
  -4  -1 -13    6.56    2.21
   4   1  13    2.82    1.38
  -4  -1 -14    1.40    1.08
   4   1  14    7.48    3.45
  -4  -2  18   33.82    6.70
   4   2 -17   15.70    4.80
   4   2 -17   32.21    8.29
  -4  -2  17   30.45    6.16
   4   2 -16    3.86    2.73
   4   2 -16   13.20    5.22
  -4  -2  16    8.45    3.11
   4   2 -15    4.85    2.10
  -4  -2  15    3.89    2.25
   4   2 -15    3.52    2.95
   4   2 -14   53.67    7.99
   4   2 -14   38.90    8.25
  -4  -2  14   44.83    7.20
  -4  -2  14   56.58    4.25
   4   2 -13  112.76   13.65
   4   2 -13  133.82   12.28
  -4  -2  13  136.39    8.00
  -4  -2  13  130.65   12.44
  -4  -2  13  144.93    7.72
   4   2 -12   63.19    9.77
   4   2 -12   62.39    8.04
  -4  -2  12   69.06    5.68
  -4  -2  12   57.56    7.91
   4   2 -12   73.94    7.27
  -4  -2  12   66.62    5.30
   4   2 -11    2.39    1.47
   4   2 -11    2.30    2.10
  -4  -2  11    2.68    1.23
  -4  -2  11    0.75    0.94
  -4  -2  11   -0.14    0.99
   4   2 -11    0.55    0.79
  -4  -2  11    0.71    0.80
   4   2 -10   13.10    3.60
  -4  -2  10   14.93    2.69
   4   2 -10   13.39    4.13
  -4  -2  10   12.74    2.52
  -4  -2  10   11.93    3.42
   4   2 -10   19.88    3.06
  -4  -2  10   11.86    2.40
   4   2  -9    1.59    2.05
  -4  -2   9    0.19    0.42
  -4  -2   9   -0.15    0.54
  -4  -2   9    0.35    0.46
   4   2  -9    0.45    0.63
  -4  -2   9    0.46    1.30
   4   2  -9    0.06    0.43
  -4  -2   9    1.61    1.07
  -4  -2   8   60.34    5.98
   4   2  -8   53.82    7.83
  -4  -2   8   63.48    5.35
  -4  -2   8   71.25    6.35
   4   2  -8   68.16    6.18
   4   2  -8   71.48    7.50
  -4  -2   8   68.07    7.68
  -4  -2   8   58.22    5.76
   4   2  -8   66.25    3.73
  -4  -2   7   49.47    5.45
   4   2  -7   43.97    6.81
  -4  -2   7   28.05    3.66
  -4  -2   7   50.03    5.47
   4   2  -7   56.22    5.79
  -4  -2   7   59.11    6.90
  -4  -2   7   43.83    4.95
  -4  -2   6    0.33    0.84
   4   2  -6    0.43    1.02
  -4  -2   6    1.71    1.33
   4   2  -6    2.15    1.52
  -4  -2   6    0.81    0.66
  -4  -2   6   -0.41    0.75
  -4  -2   5   73.35    6.91
  -4  -2   5   70.41    5.95
  -4  -2   5   75.84    6.83
   4   2  -5   68.57    6.98
  -4  -2   5   71.01    7.03
  -4  -2   5   80.25    7.03
  -4  -2   4  156.48   10.52
  -4  -2   4  148.98    9.26
  -4  -2   4  151.07   10.18
   4   2  -4  145.36   10.67
  -4  -2   4  163.84   10.63
  -4  -2   4  153.87   10.17
  -4  -2   3   10.92    2.54
  -4  -2   3    7.45    2.47
   4   2  -3    5.51    2.07
  -4  -2   3    5.37    1.85
  -4  -2   3   10.16    2.53
  -4  -2   3    7.77    0.96
  -4  -2   2   16.33    3.17
  -4  -2   2   14.77    3.14
   4   2  -2   10.78    2.89
  -4  -2   2   14.44    3.04
  -4  -2   2   15.59    2.76
  -4  -2   2   14.67    1.97
  -4  -2   1  121.73    9.20
  -4  -2   1  123.95    9.38
   4   2  -1  119.02    9.79
  -4  -2   1  130.60    8.10
  -4  -2   1  127.22    9.17
  -4  -2   0  281.85   15.21
  -4  -2   0  309.62   15.95
   4   2   0  291.65   16.70
  -4  -2   0  310.27   12.80
  -4  -2   0  293.34   14.94
   4   2   0  297.65   18.55
   4   2   1  475.14   21.40
  -4  -2  -1  467.35   20.69
   4   2   1  459.87   22.55
  -4  -2  -1  497.84   16.82
   4   2   1  497.10   24.99
  -4  -2  -1  491.98   20.46
   4   2   2  104.02    8.62
  -4  -2  -2  100.88    8.38
   4   2   2   99.14    9.48
  -4  -2  -2   98.37    5.50
   4   2   2  109.36   11.15
  -4  -2  -2  104.95    8.14
   4   2   3  104.94    8.46
  -4  -2  -3  108.27    8.54
  -4  -2  -3   99.65    6.89
   4   2   3   88.33    9.10
  -4  -2  -3  106.23    5.27
   4   2   3  102.16   10.69
  -4  -2  -3  107.86    8.12
   4   2   4   21.19    4.96
   4   2   4   21.13    3.66
  -4  -2  -4   23.90    3.19
  -4  -2  -4   21.59    3.63
  -4  -2  -4   24.31    3.64
   4   2   5   17.97    3.38
  -4  -2  -5   16.66    2.70
  -4  -2  -5   19.32    3.30
   4   2   5   29.10    7.42
  -4  -2  -5   16.82    2.96
   4   2   5   15.98    4.50
  -4  -2  -6   89.04    6.99
   4   2   6   86.66    7.84
  -4  -2  -6   99.80    6.75
   4   2   6   89.15   10.32
   4   2   6   66.27   10.04
  -4  -2  -6   98.44    7.12
  -4  -2  -7  139.68    8.58
   4   2   7  152.44   10.64
   4   2   7  147.08   14.59
  -4  -2  -7  145.71    8.57
   4   2   7  153.58   13.84
  -4  -2  -7  140.90    8.46
   4   2   8   83.12    7.89
  -4  -2  -8   81.63    6.29
   4   2   8   78.77    9.94
  -4  -2  -8   79.41    5.91
   4   2   9   12.94    3.19
   4   2   9   14.58    4.17
  -4  -2  -9   13.27    2.11
  -4  -2  -9   15.82    2.79
   4   2  10    1.24    1.40
  -4  -2 -10    0.16    0.59
  -4  -2 -10    0.88    0.64
   4   2  10   -0.21    1.84
   4   2  11   21.18    4.41
  -4  -2 -11   20.13    3.30
   4   2  11   26.24    5.97
   4   2  12    5.87    2.17
  -4  -2 -12    9.78    2.50
   4   2  12   13.04    4.04
   4   2  13    9.05    3.05
   4   2  13   13.63    4.61
  -4  -2 -13    5.38    1.87
  -4  -2 -14   32.77    4.95
   4   3 -17    5.24    2.68
  -4  -3  17    3.38    2.66
   4   3 -16    1.36    1.30
   4   3 -16   -0.29    2.03
  -4  -3  16   -0.52    1.95
   4   3 -15   32.35    6.35
   4   3 -15   48.40    9.55
  -4  -3  15   48.65    7.59
   4   3 -14   62.49    8.50
   4   3 -14   67.88   10.82
  -4  -3  14   81.66    9.94
  -4  -3  14   82.24    5.47
   4   3 -13  243.06   20.55
   4   3 -13  228.97   16.64
  -4  -3  13  220.27   16.72
  -4  -3  13  268.38   11.46
   4   3 -12   90.57   11.98
   4   3 -12   65.72    8.29
  -4  -3  12   86.31    4.88
  -4  -3  12   99.98   10.45
  -4  -3  12   84.54    6.13
   4   3 -11    9.50    2.93
  -4  -3  11    6.04    1.36
  -4  -3  11    8.07    1.92
  -4  -3  11    5.67    2.37
   4   3 -11    6.82    3.45
   4   3 -11    6.98    2.03
  -4  -3  10   32.19    3.62
   4   3 -10   37.02    7.19
  -4  -3  10   31.88    3.47
  -4  -3  10   34.94    5.71
   4   3 -10   33.84    3.78
  -4  -3  10   29.26    3.75
   4   3  -9  126.14   13.24
  -4  -3   9  122.35    7.28
  -4  -3   9  138.70    8.05
   4   3  -9  133.81    8.44
  -4  -3   9  128.74   11.20
  -4  -3   9  118.36    8.23
   4   3  -9  121.44    6.31
  -4  -3   9  110.45    7.98
  -4  -3   8   57.26    5.68
  -4  -3   8   52.77    4.49
   4   3  -8   45.23    7.52
  -4  -3   8   60.63    5.36
   4   3  -8   45.59    5.15
  -4  -3   8   57.55    7.05
  -4  -3   8   56.59    5.50
   4   3  -8   49.03    3.09
  -4  -3   7  141.05    9.54
   4   3  -7  147.02   13.52
  -4  -3   7  154.72    9.31
   4   3  -7  152.43   10.37
  -4  -3   7  164.99   11.90
  -4  -3   7  142.61    9.34
   4   3  -6    2.92    1.59
  -4  -3   6    1.44    0.77
  -4  -3   6    0.58    0.87
   4   3  -6    1.89    1.23
  -4  -3   6    0.95    0.89
  -4  -3   6    0.30    0.61
  -4  -3   5    0.36    0.80
   4   3  -5    0.10    0.84
  -4  -3   5    1.69    0.91
  -4  -3   5    3.23    1.69
   4   3  -5    0.79    0.81
  -4  -3   5    1.12    0.94
  -4  -3   5    0.41    0.48
   4   3  -4   22.71    4.76
  -4  -3   4   21.76    3.04
  -4  -3   4   25.76    3.94
  -4  -3   4   23.18    3.85
   4   3  -4   23.65    4.04
  -4  -3   4   28.17    4.30
  -4  -3   4   24.10    2.05
  -4  -3   4   24.29    3.66
  -4  -3   3   18.40    2.80
  -4  -3   3   20.08    3.55
   4   3  -3   20.18    3.95
  -4  -3   3   16.38    2.13
  -4  -3   3   14.05    2.88
  -4  -3   3   19.70    3.34
  -4  -3   2  116.73    8.93
   4   3  -2  111.21    9.60
  -4  -3   2  114.92    8.23
  -4  -3   2  112.56    8.33
  -4  -3   2   95.75    6.19
   4   3  -1   11.07    3.14
  -4  -3   1   10.29    2.53
  -4  -3   1    9.90    2.17
  -4  -3   1    7.48    2.06
  -4  -3   0   38.81    4.91
   4   3   0   36.09    5.58
   4   3   0   40.32    5.83
   4   3   0   34.95    6.37
  -4  -3   0   38.76    4.03
  -4  -3   0   32.91    4.35
   4   3   1   -0.18    1.27
   4   3   1    2.83    1.59
   4   3   1   -0.01    0.80
  -4  -3  -1    3.06    1.42
  -4  -3  -1    3.26    1.15
  -4  -3  -1    4.10    1.64
  -4  -3  -2   33.28    4.57
   4   3   2   42.10    5.72
   4   3   2   32.95    6.36
  -4  -3  -2   38.34    3.80
  -4  -3  -2   41.76    3.82
  -4  -3  -2   37.26    4.57
   4   3   2   43.95    6.56
  -4  -3  -3   68.78    6.38
   4   3   3   69.06    7.16
  -4  -3  -3   58.94    4.86
   4   3   3   70.21    9.41
  -4  -3  -3   65.62    6.03
   4   3   4    4.37    2.25
   4   3   4   10.27    2.85
  -4  -3  -4   12.51    2.66
  -4  -3  -4    6.93    1.57
  -4  -3  -4    6.81    1.87
   4   3   5    4.76    2.08
  -4  -3  -5   10.90    2.51
  -4  -3  -5    7.83    1.71
  -4  -3  -5    9.33    2.28
   4   3   5   10.01    3.77
   4   3   6  594.90   25.25
  -4  -3  -6  569.15   20.05
   4   3   6  605.78   30.88
  -4  -3  -6  586.19   21.33
   4   3   7   45.92    6.12
  -4  -3  -7   52.61    4.72
   4   3   7   44.06    7.67
  -4  -3  -7   42.03    4.26
   4   3   8   34.66    5.50
  -4  -3  -8   33.96    3.90
   4   3   8   34.65    6.90
  -4  -3  -8   37.33    3.82
   4   3   9   37.74    5.82
  -4  -3  -9   35.00    4.12
  -4  -3  -9   35.75    3.53
   4   3   9   31.91    6.49
   4   3  10    5.24    2.54
  -4  -3 -10    4.25    1.19
  -4  -3 -10    3.00    1.29
   4   3  10    2.65    2.01
   4   3  11   10.16    3.42
  -4  -3 -11    4.37    1.63
   4   3  11   10.73    3.83
   4   3  12   50.31    7.50
  -4  -3 -12   29.73    4.36
   4   3  12   38.68    7.33
   4   3  13    5.19    2.50
  -4  -3 -13    5.66    2.03
   4   3  13    5.02    2.85
  -4  -3 -14    7.15    2.62
   4   4 -17    1.00    1.40
   4   4 -16   -0.91    1.86
   4   4 -16    0.40    2.59
  -4  -4  16    0.40    0.89
   4   4 -15   52.36    7.82
   4   4 -15   62.98   10.94
  -4  -4  15   64.35    8.97
   4   4 -14   85.33   12.56
   4   4 -14   80.56    9.53
  -4  -4  14   98.05   11.07
  -4  -4  14   94.85    6.36
   4   4 -13   91.80   12.76
   4   4 -13   90.63    9.78
  -4  -4  13   77.59    9.80
  -4  -4  13   91.90    6.45
  -4  -4  12    6.21    1.59
   4   4 -12    3.44    1.73
   4   4 -12    6.10    3.32
  -4  -4  12   10.51    3.67
   4   4 -11  183.11   17.64
  -4  -4  11  189.63   14.82
  -4  -4  11  184.85    9.99
  -4  -4  10   62.04    4.83
   4   4 -10   48.30    8.87
   4   4 -10   75.99    5.63
  -4  -4  10   71.63    8.65
   4   4 -10   65.72    5.02
  -4  -4  10   63.07    5.64
   4   4  -9    1.78    1.13
  -4  -4   9    1.65    0.72
  -4  -4   9    0.99    0.61
   4   4  -9    0.40    0.63
  -4  -4   9    3.63    1.83
   4   4  -9    1.96    0.75
   4   4  -8   58.25    9.05
  -4  -4   8   49.56    4.07
   4   4  -8   57.57    6.06
  -4  -4   8   62.36    7.66
  -4  -4   8   67.01    6.02
   4   4  -7  211.91   17.26
   4   4  -7  202.74   12.67
  -4  -4   7  227.00   14.71
  -4  -4   7  206.15   11.64
   4   4  -6    1.02    1.27
  -4  -4   6    1.42    0.82
  -4  -4   6    1.69    1.07
   4   4  -6    1.70    0.98
  -4  -4   6    1.12    0.68
   4   4  -5   84.67   10.01
  -4  -4   5   71.01    4.87
   4   4  -5   65.34    7.09
  -4  -4   5   64.65    7.08
  -4  -4   5   64.45    4.39
  -4  -4   5   68.98    6.43
   4   4  -4   11.08    3.44
  -4  -4   4    7.10    1.50
  -4  -4   4    9.26    2.44
   4   4  -4    7.04    2.37
  -4  -4   4    4.14    1.83
  -4  -4   4    8.00    1.69
  -4  -4   3   11.69    2.08
  -4  -4   3   12.58    2.73
  -4  -4   3   13.06    2.83
  -4  -4   3   11.27    2.20
   4   4  -3   13.16    3.37
  -4  -4   2   15.40    3.15
  -4  -4   2   26.82    3.89
  -4  -4   2   16.69    2.77
   4   4  -2   18.90    4.05
   4   4  -1  131.38   11.36
   4   4  -1  107.25   10.21
  -4  -4   1  121.02    8.40
  -4  -4   1  119.58    8.56
  -4  -4   1  139.01    9.35
   4   4   0   30.99    6.30
   4   4   0   34.93    5.65
   4   4   0   26.61    5.20
  -4  -4   0   29.57    3.83
  -4  -4   0   27.56    4.35
  -4  -4   0   33.82    4.39
   4   4   1   42.07    5.92
   4   4   1   36.08    6.94
  -4  -4  -1   46.58    3.79
  -4  -4  -1   48.21    4.76
  -4  -4  -1   44.40    5.11
   4   4   2   77.98    8.11
  -4  -4  -2   69.10    4.77
  -4  -4  -2   70.20    5.68
   4   4   2   76.95   10.35
  -4  -4  -2   71.60    6.46
   4   4   3    2.54    1.97
   4   4   3    2.53    1.36
  -4  -4  -3    3.97    1.63
  -4  -4  -3    2.60    0.91
   4   4   4   40.68    7.64
   4   4   4   38.75    5.75
  -4  -4  -4   33.96    3.29
  -4  -4  -4   37.17    4.48
   4   4   5  186.49   13.01
  -4  -4  -5  158.14    8.08
   4   4   5  165.90   15.66
  -4  -4  -5  167.93    9.64
   4   4   6  214.98   14.62
  -4  -4  -6  216.02    9.93
   4   4   6  223.80   18.29
  -4  -4  -6  203.68   10.75
   4   4   7   87.49    9.05
  -4  -4  -7   85.46    6.02
   4   4   7   80.49   10.67
  -4  -4  -7   86.54    6.26
   4   4   8   11.86    3.29
  -4  -4  -8    9.87    2.04
  -4  -4  -8   11.39    2.19
   4   4   8   11.30    3.81
   4   4   9    7.64    2.83
  -4  -4  -9   11.24    2.10
  -4  -4  -9   10.44    2.20
   4   4   9    6.17    3.17
   4   4  10    1.24    1.00
  -4  -4 -10    0.48    0.82
   4   4  10   -0.62    1.22
   4   4  11    6.73    3.14
  -4  -4 -11   14.05    2.87
   4   4  11   14.81    4.81
   4   4  12   -0.23    1.41
  -4  -4 -12    3.01    1.70
   4   4  12    3.89    2.74
   4   4  13   13.44    3.89
  -4  -4 -13   18.46    3.66
   4   5 -17   -0.39    1.33
   4   5 -16    6.27    2.87
   4   5 -15    0.52    1.89
   4   5 -15    3.61    2.98
  -4  -5  15    2.35    0.80
   4   5 -14   67.82    8.71
   4   5 -14   80.22   12.55
  -4  -5  14   80.23    9.99
  -4  -5  14   79.55    6.14
  -4  -5  13   15.33    2.66
   4   5 -13   20.10    6.30
  -4  -5  13   24.17    5.51
   4   5 -12   53.17    9.89
  -4  -5  12   48.90    7.61
  -4  -5  12   49.43    4.91
  -4  -5  11   15.97    2.83
   4   5 -11   13.44    4.83
  -4  -5  11   19.93    4.70
   4   5 -10   -0.96    1.96
  -4  -5  10    0.44    0.76
  -4  -5  10    0.55    0.57
  -4  -5  10    3.35    1.97
  -4  -5   9   36.45    3.28
   4   5  -9   50.30    9.14
   4   5  -9   35.52    4.51
  -4  -5   9   35.16    5.94
   4   5  -9   39.01    3.86
  -4  -5   9   43.71    4.79
   4   5  -8    9.92    2.54
   4   5  -8   10.20    3.65
  -4  -5   8   12.83    2.63
  -4  -5   8   12.46    3.49
   4   5  -7    8.27    3.80
  -4  -5   7   14.37    2.88
  -4  -5   7   13.90    1.80
   4   5  -7   14.92    3.37
  -4  -5   7   15.89    3.77
   4   5  -6   18.44    5.24
  -4  -5   6   15.06    1.76
  -4  -5   6   14.24    2.74
   4   5  -6   11.03    3.01
  -4  -5   6   13.29    3.44
   4   5  -5    7.39    3.15
  -4  -5   5    4.88    1.59
  -4  -5   5    7.46    1.22
   4   5  -5    8.22    2.61
  -4  -5   5    9.52    2.76
  -4  -5   5    5.34    1.50
  -4  -5   4    5.31    1.80
  -4  -5   4    6.78    1.18
   4   5  -4    4.82    2.16
  -4  -5   4    5.97    2.28
  -4  -5   4    4.96    1.68
   4   5  -3  197.56   15.16
  -4  -5   3  162.69    7.12
   4   5  -3  159.27   12.74
  -4  -5   3  170.90   11.43
  -4  -5   3  152.06    9.63
  -4  -5   3  177.85   10.80
   4   5  -2    2.76    2.01
  -4  -5   2    0.87    0.46
  -4  -5   2    2.67    1.42
   4   5  -2    2.51    1.92
  -4  -5   2    5.20    1.92
  -4  -5   2    2.14    1.34
   4   5  -1  182.34   13.84
  -4  -5   1  144.67    6.59
  -4  -5   1  171.61   10.78
   4   5  -1  156.18   11.11
  -4  -5   1  159.85   10.77
  -4  -5   1  165.42   10.41
   4   5   0  133.36   11.63
  -4  -5   0  120.11    5.67
  -4  -5   0  127.54    9.14
   4   5   0  114.86    9.14
   4   5   0  136.14   14.15
  -4  -5   0  113.86    9.64
  -4  -5   0  130.33    8.95
   4   5   1   -0.26    2.73
   4   5   1   -0.12    0.66
  -4  -5  -1    1.84    1.15
  -4  -5  -1    0.66    0.52
  -4  -5  -1    0.38    1.08
   4   5   1    0.68    0.87
  -4  -5  -1    0.15    1.00
   4   5   2   64.38    7.79
  -4  -5  -2   60.84    3.81
   4   5   2   70.31   10.26
  -4  -5  -2   53.69    5.53
   4   5   3    3.73    1.66
   4   5   3    4.37    2.21
  -4  -5  -3    3.99    1.56
  -4  -5  -3    6.85    1.33
   4   5   4    5.90    3.36
   4   5   4    5.37    2.34
  -4  -5  -4    3.85    1.32
  -4  -5  -4    6.55    1.36
   4   5   5    2.70    1.86
  -4  -5  -5    5.51    1.75
  -4  -5  -5    3.85    1.18
   4   5   5    5.83    3.28
   4   5   6  157.52   12.96
  -4  -5  -6  161.55    8.21
   4   5   6  152.34   15.54
  -4  -5  -6  150.87    9.13
   4   5   7    0.68    1.69
  -4  -5  -7    1.57    1.14
  -4  -5  -7    0.91    0.60
   4   5   7   -0.55    1.66
   4   5   8   26.33    5.27
  -4  -5  -8   15.82    2.62
  -4  -5  -8   15.50    2.54
   4   5   8   13.20    4.42
   4   5   9   20.71    5.06
  -4  -5  -9   14.00    2.44
  -4  -5  -9   16.86    2.86
   4   5   9   10.43    3.80
   4   5  10   82.68   10.28
  -4  -5 -10   73.56    6.60
   4   5  10   72.50   10.64
   4   5  11    3.14    2.32
  -4  -5 -11    0.89    0.92
   4   5  11    4.72    3.33
   4   5  12    1.65    3.16
  -4  -5 -12    7.76    2.28
  -4  -6  14   27.93    3.92
   4   6 -14   16.34    6.05
  -4  -6  14   28.74    6.13
   4   6 -13   36.94    8.61
  -4  -6  13   55.45    8.33
  -4  -6  13   44.22    4.90
  -4  -6  12    3.23    1.37
   4   6 -12    4.99    3.35
  -4  -6  12    4.52    2.49
  -4  -6  11    1.69    1.07
   4   6 -11    3.29    4.06
  -4  -6  11    3.34    2.00
   4   6 -10   42.59    8.79
  -4  -6  10   41.97    6.77
  -4  -6  10   37.93    4.59
   4   6  -9   28.69    7.27
  -4  -6   9   20.68    3.34
  -4  -6   9   19.10    4.62
   4   6  -8   61.34   10.25
  -4  -6   8   53.91    3.56
  -4  -6   8   52.87    7.43
  -4  -6   8   53.34    5.56
   4   6  -7   23.04    6.07
  -4  -6   7   26.14    2.24
   4   6  -7   25.54    4.39
  -4  -6   7   33.72    5.73
  -4  -6   7   25.83    3.95
   4   6  -6   92.23   11.84
  -4  -6   6  113.15    4.80
   4   6  -6  112.78   10.03
  -4  -6   6  111.27   10.32
  -4  -6   6   99.46    7.46
  -4  -6   6  116.75    8.59
   4   6  -5   21.18    4.32
   4   6  -5   19.55    4.86
   4   6  -5   17.48    5.11
  -4  -6   5   22.29    1.61
  -4  -6   5   22.00    3.64
  -4  -6   5   16.29    3.85
  -4  -6   5   16.49    3.09
   4   6  -4   95.15   10.88
  -4  -6   4   92.39    3.42
   4   6  -4   82.15    8.92
  -4  -6   4   86.76    8.70
  -4  -6   4   75.04    7.02
  -4  -6   4   83.46    7.35
   4   6  -3  381.48   22.50
  -4  -6   3  369.66    9.65
  -4  -6   3  330.94    9.89
  -4  -6   3  366.85   18.73
  -4  -6   3  314.52   16.53
  -4  -6   3  366.24   16.85
   4   6  -2   70.19    9.02
  -4  -6   2   64.54    2.60
  -4  -6   2   58.44    2.36
  -4  -6   2   60.04    6.86
  -4  -6   2   55.25    6.45
  -4  -6   2   67.56    6.50
   4   6  -1   38.87    6.58
  -4  -6   1   33.85    2.17
  -4  -6   1   33.43    1.71
  -4  -6   1   33.25    5.00
  -4  -6   1   32.17    5.01
  -4  -6   1   38.22    4.82
   4   6   0   38.29    7.76
   4   6   0   33.66    6.01
  -4  -6   0   38.24    2.10
  -4  -6   0   29.78    4.59
   4   6   0   34.02    4.93
  -4  -6   0   37.65    4.80
  -4  -6   0   29.04    4.96
   4   6   1   -0.90    2.08
   4   6   1   -0.70    0.88
  -4  -6  -1    1.42    1.00
  -4  -6  -1   -0.14    0.25
   4   6   1   -0.43    1.07
  -4  -6  -1   -0.30    0.63
   4   6   2   21.87    6.15
   4   6   2   22.41    4.76
  -4  -6  -2   25.56    2.10
  -4  -6  -2   20.33    3.49
   4   6   2   22.37    3.67
  -4  -6  -2   17.28    4.32
   4   6   3    2.74    1.70
   4   6   3    2.69    1.19
  -4  -6  -3    2.50    1.24
  -4  -6  -3    2.45    0.74
   4   6   3    0.86    0.98
  -4  -6  -3    5.10    2.48
   4   6   4    1.48    1.98
   4   6   4    1.40    1.69
  -4  -6  -4    0.81    0.86
  -4  -6  -4    0.63    0.63
   4   6   5  135.84   12.41
  -4  -6  -5  149.53    7.26
   4   6   5  159.78   16.16
  -4  -6  -5  121.05    8.52
   4   6   6    1.27    1.02
  -4  -6  -6    0.87    0.90
  -4  -6  -6    0.48    0.48
   4   6   6    1.70    2.03
   4   6   7   18.07    4.79
  -4  -6  -7   13.98    2.58
  -4  -6  -7   11.10    2.08
   4   6   7   18.59    5.44
   4   6   8   13.61    4.10
  -4  -6  -8    6.13    1.76
   4   6   8   10.86    4.58
   4   6   9   -1.12    1.95
   4   6   9   -2.10    3.02
   4   6  10    2.24    2.53
   4   6  10    2.13    1.37
  -4  -7  14    3.28    1.39
  -4  -7  13    4.01    1.49
  -4  -7  13    7.14    3.37
   4   7 -12   44.70    9.84
  -4  -7  12   48.40    7.88
  -4  -7  12   38.22    4.80
  -4  -7  11   31.52    4.30
   4   7 -11   21.96    6.99
  -4  -7  11   35.99    6.64
  -4  -7  10   24.47    3.88
   4   7 -10   35.09    8.32
  -4  -7  10   27.72    5.88
  -4  -7   9    1.61    1.11
   4   7  -9    0.52    1.19
  -4  -7   9    1.47    1.47
   4   7  -8   34.67    6.89
   4   7  -8   29.87    7.72
  -4  -7   8   46.36    7.19
  -4  -7   8   42.33    5.11
   4   7  -7    1.82    1.66
   4   7  -7   -0.45    1.37
  -4  -7   7    0.52    0.95
  -4  -7   7   -2.12    2.17
   4   7  -6    7.05    2.97
   4   7  -6    7.20    3.98
  -4  -7   6   10.55    2.56
  -4  -7   6   10.14    3.29
  -4  -7   6    5.30    1.85
   4   7  -5   -0.80    1.00
  -4  -7   5    0.64    1.08
  -4  -7   5    0.72    1.14
  -4  -7   5   -0.06    1.35
   4   7  -4    6.10    2.77
  -4  -7   4    3.48    1.40
  -4  -7   4    2.62    1.31
  -4  -7   4    4.12    1.63
   4   7  -3    9.36    3.35
  -4  -7   3    5.17    1.95
  -4  -7   3    4.23    2.28
  -4  -7   3    5.04    1.93
   4   7  -2    1.08    1.45
  -4  -7   2    0.62    0.60
  -4  -7   2    0.09    0.88
  -4  -7   2    2.62    1.77
   4   7  -1    1.97    1.62
  -4  -7   1    3.27    1.70
  -4  -7   1    0.38    1.20
  -4  -7   1    3.09    2.02
   4   7   0    8.16    3.82
   4   7   0   10.91    3.43
  -4  -7   0   10.53    2.66
  -4  -7   0    9.87    3.11
   4   7   1    0.77    1.55
   4   7   1    1.22    0.81
  -4  -7  -1   -0.17    0.70
  -4  -7  -1    3.58    2.29
   4   7   2    8.39    4.03
   4   7   2   11.86    3.59
  -4  -7  -2    9.54    2.45
  -4  -7  -2    8.09    2.97
   4   7   3   10.21    4.14
   4   7   3    8.40    3.08
  -4  -7  -3   10.83    2.51
  -4  -7  -3   10.30    3.75
   4   7   4   28.91    7.17
   4   7   4   36.57    6.62
  -4  -7  -4   26.58    3.98
  -4  -7  -4   19.50    5.14
   4   7   5   18.66    4.84
  -4  -7  -5   14.82    2.95
  -4  -7  -5   23.32    5.99
   4   7   5   12.70    4.74
   4   7   6   15.36    4.22
  -4  -7  -6   19.49    3.41
  -4  -7  -6   15.58    5.30
   4   7   6   17.58    5.94
   4   7   7   16.69    4.91
  -4  -7  -7    8.90    2.41
   4   7   7    8.46    4.13
   4   7   8    5.95    3.49
  -4  -7  -8    6.06    1.83
   4   7   8   12.95    4.48
   4   7   9    1.15    2.46
  -4  -8  14    2.18    1.32
  -4  -8  13    1.31    1.65
   4   8 -12    2.35    1.98
  -4  -8  12    3.71    1.62
   4   8 -11    3.83    2.43
  -4  -8  11    4.57    1.60
   4   8 -11    9.26    4.36
  -4  -8  11   11.26    3.96
   4   8 -10    3.31    2.47
  -4  -8  10    1.72    1.16
   4   8 -10    4.88    3.21
  -4  -8  10    5.82    3.28
   4   8  -9   -2.30    2.18
  -4  -8   9    4.92    1.82
   4   8  -9    0.49    1.29
  -4  -8   9    2.65    2.31
   4   8  -8   36.18    7.26
  -4  -8   8   23.46    4.07
   4   8  -8   27.36    7.12
  -4  -8   8   31.67    6.14
   4   8  -7    1.15    1.43
   4   8  -7    8.26    4.38
  -4  -8   7    3.64    1.74
  -4  -8   7    4.43    2.37
   4   8  -6   14.62    4.36
   4   8  -6    4.61    3.08
  -4  -8   6    8.72    2.48
  -4  -8   6    7.19    2.81
  -4  -8   6    4.94    2.00
   4   8  -5    0.20    1.29
  -4  -8   5   -0.55    0.94
  -4  -8   5    1.41    1.07
  -4  -8   5   -0.38    0.94
   4   8  -4   58.63    8.89
  -4  -8   4   58.65    7.94
  -4  -8   4   47.65    6.43
  -4  -8   4   58.96    6.46
   4   8  -3   -1.59    2.50
  -4  -8   3    0.23    0.95
  -4  -8   3   -1.40    0.99
  -4  -8   3    3.84    2.35
   4   8  -2   26.80    5.91
  -4  -8   2   20.45    3.65
  -4  -8   2   15.13    3.80
  -4  -8   2   19.05    4.24
   4   8  -1   18.06    5.64
   4   8  -1   18.36    4.71
  -4  -8   1   19.12    3.57
  -4  -8   1   19.29    4.64
   4   8   0   15.54    5.05
   4   8   0   22.47    5.30
  -4  -8   0   16.26    3.29
  -4  -8   0   20.64    4.64
   4   8   1    3.44    3.13
   4   8   1    9.91    3.68
  -4  -8  -1    5.92    2.11
  -4  -8  -1    2.47    2.46
   4   8   2   11.98    4.53
   4   8   2   12.91    3.97
  -4  -8  -2   10.84    2.59
  -4  -8  -2   17.55    4.96
   4   8   3    1.73    1.42
   4   8   3    0.67    1.41
  -4  -8  -3    1.97    0.67
  -4  -8  -3   -1.59    1.46
   4   8   4    1.32    1.05
  -4  -8  -4    0.01    1.00
  -4  -8  -4    2.48    1.96
   4   8   5   25.08    6.05
  -4  -8  -5   24.20    4.06
  -4  -8  -5   16.90    5.40
   4   8   5   37.13    8.26
  -4  -8  -6    0.55    0.92
  -4  -8  -6    4.42    3.05
   4   8   6    4.10    3.03
  -4  -8  -7   13.09    2.92
  -4  -8  -7    6.56    3.80
   4   8   7   16.77    5.30
   4   9 -12   -2.63    2.04
  -4  -9  12    0.42    0.88
   4   9 -11   10.23    4.30
  -4  -9  11    8.94    2.79
   4   9 -10    4.23    2.53
  -4  -9  10    5.94    2.11
   4   9  -9   13.49    4.95
  -4  -9   9   16.10    3.59
  -4  -9   9   11.57    4.05
   4   9  -8    1.31    2.07
  -4  -9   8    1.84    1.43
  -4  -9   8    1.03    1.50
   4   9  -7    1.96    2.72
  -4  -9   7    4.54    1.65
   4   9  -7    1.61    1.40
  -4  -9   7    5.98    2.89
   4   9  -6   25.52    6.14
   4   9  -6   12.81    5.12
  -4  -9   6   16.36    3.49
  -4  -9   6   16.43    4.68
   4   9  -5    4.31    1.80
  -4  -9   5    4.80    2.15
  -4  -9   5    2.87    2.05
   4   9  -4   13.36    4.30
  -4  -9   4   17.94    3.66
  -4  -9   4   13.13    3.85
   4   9  -3   63.84    9.30
  -4  -9   3   42.79    6.92
  -4  -9   3   57.06    6.66
  -4  -9   3   53.41    7.48
   4   9  -2   22.91    5.71
  -4  -9   2   21.21    3.98
  -4  -9   2   15.15    4.17
   4   9  -1    0.47    3.05
   4   9  -1   -1.25    1.93
  -4  -9   1    2.72    1.73
  -4  -9   1    0.74    2.12
   4   9   0    5.68    4.20
   4   9   0    1.59    1.79
  -4  -9   0   -1.37    1.14
  -4  -9   0    2.33    2.10
   4   9   1   12.38    5.24
   4   9   1   26.46    5.91
  -4  -9  -1   22.68    4.17
  -4  -9  -1   17.05    4.92
   4   9   2    9.91    4.96
  -4  -9  -2    9.14    2.72
  -4  -9  -2    3.03    1.23
   4   9   3   11.48    4.90
  -4  -9  -3   17.18    3.71
  -4  -9  -3    8.80    3.58
   4   9   4   51.96   10.27
  -4  -9  -4   58.26    6.78
  -4  -9  -4   43.28    8.57
  -4  -9  -5    9.02    4.98
   4   9   5   25.05    6.82
  -4 -10   6    5.87    3.03
  -4 -10   5   23.69    5.57
   4  10  -2   45.05    9.80
   4  10  -1   38.61    8.93
   4  10   0   -3.53    3.63
   4  10   1   19.96    6.32
  -4 -10  -2    7.66    3.13
  -5  13   3   14.49    4.38
  -5  13   2    2.63    1.65
  -5  13   1   13.13    4.02
  -5  13   1   13.59    5.14
  -5  13   0    8.37    3.11
  -5  13   0    2.32    3.12
  -5  13  -1    4.97    3.95
  -5  13  -2    5.62    4.11
  -5  13  -3   42.81    9.18
  -5  13  -4   71.50   11.62
  -5  12   5   21.06    5.76
  -5  12   4    1.68    1.28
  -5  12   4    2.06    1.74
  -5  12   3   83.68   12.24
   5 -12  -3  101.67   14.38
  -5  12   3   75.98   10.06
  -5  12   2   33.89    6.62
  -5  12   2   33.52    7.68
   5 -12  -2   45.22    6.09
   5 -12  -2   36.71    8.47
  -5  12   1   38.65    6.54
  -5  12   1   42.81    8.85
   5 -12  -1   43.31    5.99
   5 -12  -1   39.41    8.62
  -5  12   0    2.17    1.82
   5 -12   0    3.97    1.89
  -5  12   0    2.79    2.73
   5 -12   0    4.12    3.34
  -5  12  -1    3.03    2.29
   5 -12   1    0.71    1.11
  -5  12  -1    2.15    2.74
   5 -12   1   -0.88    2.68
  -5  12  -2   43.68    6.28
  -5  12  -2   48.21    9.19
   5 -12   2   50.44    6.44
   5 -12   2   50.81    9.81
  -5  12  -3   13.35    4.94
   5 -12   3   12.10    3.21
   5 -12   3    2.53    2.52
  -5  12  -4   40.61    7.78
  -5  12  -4   45.75    8.69
   5 -12   4   38.37    8.62
   5 -12   4   42.34    6.07
   5 -12   5    2.91    2.03
  -5  12  -5    3.84    2.77
  -5  12  -5    4.27    2.72
   5 -12   5    0.91    2.14
  -5  11   7    5.01    2.55
   5 -11  -7   16.70    7.40
   5 -11  -6    0.70    1.09
  -5  11   6    5.66    3.20
  -5  11   6    2.72    2.61
   5 -11  -6   -1.12    2.27
  -5  11   5   45.02    8.05
  -5  11   5   45.57    8.70
   5 -11  -5   75.71    7.58
   5 -11  -5   50.65   10.03
  -5  11   4   61.61    9.99
   5 -11  -4   74.41    7.57
   5 -11  -4   53.58   10.07
  -5  11   4   74.55    9.82
  -5  11   3   -0.64    1.83
   5 -11  -3    1.60    1.31
  -5  11   3   -0.56    1.29
   5 -11  -3   -1.21    1.41
  -5  11   2    1.49    1.56
  -5  11   2    0.76    2.18
   5 -11  -2    0.32    2.36
   5 -11  -2    1.25    1.22
  -5  11   1    7.21    2.83
  -5  11   1    7.15    3.10
   5 -11  -1   14.88    3.51
   5 -11  -1    7.07    3.71
  -5  11   0   83.01   11.62
   5 -11   0   94.87    8.66
   5 -11   0   85.09   12.44
  -5  11   0   74.35    8.38
  -5  11  -1    0.61    0.95
   5 -11   1   -0.98    1.11
  -5  11  -1    4.22    2.75
   5 -11   1   -0.92    2.22
   5 -11   2   52.99    6.55
  -5  11  -2   61.80   10.04
   5 -11   2   53.34    9.72
  -5  11  -2   48.61    6.31
  -5  11  -3  263.46   21.42
   5 -11   3  249.73   22.33
  -5  11  -3  242.78   14.52
  -5  11  -4    0.17    1.47
  -5  11  -4   -1.03    2.39
   5 -11   4    2.69    1.90
   5 -11   4    2.44    2.86
   5 -11   5    5.21    2.06
  -5  11  -5    5.27    2.39
  -5  11  -5    8.13    2.63
  -5  11  -5    1.97    1.94
   5 -11   5    9.06    4.17
  -5  11  -6    4.08    2.05
   5 -11   6    3.09    1.91
  -5  11  -6   10.64    3.84
  -5  11  -6    9.34    2.91
  -5  11  -7   -1.57    0.98
  -5  11  -7   -1.69    1.13
  -5  11  -7   -0.14    0.91
   5 -11   7    1.09    1.29
   5 -11   8    6.57    2.36
  -5  11  -8    3.25    1.67
  -5  11  -9   38.85    5.25
  -5  11 -10   17.18    3.38
  -5  11 -11   -0.07    0.73
  -5  10   9   15.95    5.60
  -5  10   9   14.70    4.71
   5 -10  -9   23.83    6.65
  -5  10   8    1.64    2.03
   5 -10  -8    5.21    1.96
  -5  10   8    1.32    2.23
   5 -10  -8   -0.60    2.48
  -5  10   7    6.15    3.18
   5 -10  -7    8.28    2.37
  -5  10   7    3.17    1.92
   5 -10  -7    6.17    3.95
  -5  10   6    2.91    2.38
  -5  10   6    1.31    1.45
   5 -10  -6    1.73    1.43
   5 -10  -6    4.87    4.00
  -5  10   5   91.26   11.91
   5 -10  -5  128.72    9.63
   5 -10  -5  100.26   13.24
  -5  10   5  104.13   11.89
  -5  10   4   19.52    4.72
   5 -10  -4   30.12    4.69
  -5  10   4   17.05    5.36
   5 -10  -4   19.94    5.44
  -5  10   3    5.84    2.52
  -5  10   3    6.32    3.25
   5 -10  -3   11.41    4.50
   5 -10  -3    8.01    2.47
  -5  10   2   25.92    5.23
  -5  10   2   31.76    7.03
   5 -10  -2   35.63    5.20
   5 -10  -2   23.33    5.98
  -5  10   1    2.04    1.35
  -5  10   1    2.00    1.00
   5 -10  -1    1.56    1.31
   5 -10  -1   -0.61    1.70
  -5  10   0    2.20    0.96
  -5  10   0    4.04    2.60
   5 -10   0    3.09    1.57
   5 -10   0   -1.73    3.02
  -5  10  -1   21.27    4.16
  -5  10  -1   21.99    5.87
   5 -10   1   23.09    4.14
   5 -10   1   14.07    4.77
  -5  10  -2   63.13    9.75
   5 -10   2   73.06    7.51
   5 -10   2   75.68   11.27
  -5  10  -2   68.93    7.21
  -5  10  -3  125.99   13.82
   5 -10   3  133.48   10.26
   5 -10   3  113.25   13.95
  -5  10  -3  125.96    9.43
  -5  10  -4   37.05    4.64
  -5  10  -4   40.79    6.59
  -5  10  -4   34.93    7.16
   5 -10   4   42.35    5.57
   5 -10   4   31.89    7.18
  -5  10  -5  143.61   12.46
  -5  10  -5  122.54   13.19
   5 -10   5  128.13   10.20
   5 -10   5  130.31   15.17
   5 -10   6    0.42    0.58
  -5  10  -6    0.03    1.42
  -5  10  -6    1.01    2.43
  -5  10  -6    0.47    1.13
   5 -10   7   10.67    2.86
  -5  10  -7    7.33    3.02
  -5  10  -7    8.25    6.74
  -5  10  -7    3.34    2.01
  -5  10  -8   42.79    6.88
  -5  10  -8   41.02    6.75
   5 -10   8   38.87    5.22
  -5  10  -8   39.13    5.52
   5 -10   9    1.64    1.27
  -5  10  -9    0.31    1.18
   5 -10   9    1.95    1.63
  -5  10 -10   47.38    5.92
   5 -10  10   40.33    6.83
   5 -10  10   55.49    6.23
  -5  10 -11   16.34    3.35
   5 -10  11   14.01    4.12
  -5  10 -12    0.35    0.79
   5 -10  12   -0.17    1.21
  -5  10 -13    7.41    2.30
  -5   9  11   23.06    6.47
   5  -9 -11   30.67    7.52
  -5   9  10   21.57    6.19
  -5   9  10   28.97    6.49
   5  -9 -10   36.55    4.64
   5  -9 -10   34.37    7.50
  -5   9   9   -0.81    2.29
  -5   9   9    2.21    2.16
   5  -9  -9   -0.08    0.67
   5  -9  -9   -0.70    1.98
  -5   9   8   -0.52    1.41
   5  -9  -8    1.34    1.23
  -5   9   8    2.10    1.01
  -5   9   7   44.38    7.96
  -5   9   7   38.78    7.56
   5  -9  -7   55.81    5.93
   5  -9  -7   38.36    7.78
  -5   9   6   33.87    6.82
   5  -9  -6   17.01    3.39
  -5   9   6   23.93    6.00
   5  -9  -6   18.70    5.49
  -5   9   5   19.31    4.85
   5  -9  -5   23.92    3.93
  -5   9   5   26.32    6.25
   5  -9  -5   24.13    6.16
  -5   9   4   25.83    5.46
   5  -9  -4   27.78    4.33
  -5   9   4   31.03    6.66
   5  -9  -4   24.74    6.28
  -5   9   3    5.25    2.16
   5  -9  -3    6.26    2.07
  -5   9   3    3.20    2.26
   5  -9  -3    2.43    1.13
   5  -9  -2   24.26    4.12
  -5   9   2   20.05    4.43
  -5   9   2   15.80    4.81
   5  -9  -2   30.93    6.79
  -5   9   1    0.10    0.74
  -5   9   1   -0.15    1.93
   5  -9  -1    0.63    1.44
   5  -9  -1   -1.46    1.42
  -5   9   0   -0.06    0.90
   5  -9   0    0.81    0.55
  -5   9   0    1.51    2.71
   5  -9   0    2.83    1.75
   5  -9   0    1.22    1.08
  -5   9  -1   19.74    2.69
  -5   9  -1   21.01    4.04
   5  -9   1   17.04    3.08
  -5   9  -1   17.14    4.55
   5  -9   1   26.70    6.26
   5  -9   1   17.06    3.65
   5  -9   2  125.85    8.41
  -5   9  -2  142.49   14.27
   5  -9   2  135.99   10.34
  -5   9  -2  140.95    8.85
   5  -9   2  135.85   14.56
  -5   9  -2  124.97    9.71
  -5   9  -3    4.89    1.79
  -5   9  -3    5.20    2.58
   5  -9   3    2.62    2.78
  -5   9  -3    4.32    1.56
   5  -9   3    4.69    1.88
  -5   9  -4   29.12    3.87
   5  -9   4   25.23    4.37
   5  -9   4   27.87    3.32
  -5   9  -4   26.62    4.88
  -5   9  -4   28.26    6.31
   5  -9   4   25.77    6.44
  -5   9  -4   33.08    4.55
   5  -9   5   18.14    3.64
  -5   9  -5   14.16    3.42
  -5   9  -5   14.68    4.38
   5  -9   5   19.81    3.55
  -5   9  -5   11.66    2.85
   5  -9   6   70.76    7.38
  -5   9  -6   79.85    8.57
  -5   9  -6   68.98    7.47
  -5   9  -6   78.58    9.73
   5  -9   6   68.93    7.07
  -5   9  -7   36.71    5.80
  -5   9  -7   35.61    6.44
  -5   9  -7   38.03    5.41
   5  -9   7   33.33    4.84
   5  -9   7   34.77    5.38
  -5   9  -8    5.63    2.38
  -5   9  -8    1.93    1.30
   5  -9   8    3.77    1.99
   5  -9   8    3.39    1.90
  -5   9  -8    2.67    1.27
   5  -9   9    6.94    2.18
  -5   9  -9    3.21    2.21
  -5   9  -9    6.96    2.41
   5  -9   9    4.12    2.28
  -5   9  -9    5.80    2.42
  -5   9 -10   12.53    3.09
   5  -9  10   19.58    4.71
   5  -9  10   20.53    3.52
  -5   9 -11   21.92    4.07
   5  -9  11   27.11    4.08
   5  -9  11   17.67    4.69
  -5   9 -12   29.95    4.71
   5  -9  12   27.22    6.00
   5  -9  12   41.05    4.88
  -5   9 -13    8.58    2.52
   5  -9  13    3.85    2.28
  -5   8  13   -0.03    1.33
   5  -8 -13    2.82    2.71
  -5   8  12   23.93    6.90
  -5   8  12   27.46    6.89
   5  -8 -12   31.00    7.18
  -5   8  11    5.00    3.22
  -5   8  11    5.04    2.77
   5  -8 -11    3.68    1.45
   5  -8 -11    0.16    1.70
  -5   8  10   30.18    7.17
   5  -8 -10   23.65    3.46
  -5   8  10   23.88    6.11
   5  -8 -10   15.42    5.11
  -5   8   9    1.23    1.15
  -5   8   9    0.55    1.50
   5  -8  -9   -0.21    0.85
   5  -8  -9    2.02    1.54
  -5   8   8   42.75    7.90
  -5   8   8   34.98    7.01
   5  -8  -8   33.99    4.53
   5  -8  -8   29.58    6.67
   5  -8  -7    2.31    1.38
  -5   8   7    1.30    1.12
  -5   8   7    0.43    1.70
   5  -8  -7    3.95    2.12
  -5   8   6    2.42    1.53
  -5   8   6    3.37    2.19
   5  -8  -6    2.25    1.30
   5  -8  -6   -1.04    2.36
  -5   8   5    4.54    2.69
  -5   8   5    7.44    3.30
   5  -8  -5    2.06    1.35
   5  -8  -5    6.57    3.28
  -5   8   4    2.64    1.63
  -5   8   4   -1.48    2.17
   5  -8  -4   -0.75    0.62
  -5   8   4    4.14    3.77
   5  -8  -4    2.94    2.56
  -5   8   3    6.91    2.70
   5  -8  -3    3.66    1.70
  -5   8   3    9.48    4.64
  -5   8   3    1.91    1.94
   5  -8  -3    7.75    3.86
  -5   8   2  219.76   18.02
  -5   8   2  251.01   19.02
   5  -8  -2  236.94   14.13
   5  -8  -2  246.33   18.57
  -5   8   2  191.12   14.31
  -5   8   1    0.26    1.09
   5  -8  -1   -0.55    1.15
   5  -8  -1    0.49    0.70
  -5   8   1   -0.02    1.47
   5  -8  -1    2.58    2.29
  -5   8   0    1.08    1.71
   5  -8   0    0.55    0.75
   5  -8   0    0.06    0.94
  -5   8   0   -0.79    2.11
   5  -8   0   -3.32    2.15
   5  -8   1  159.56    9.64
  -5   8  -1  159.74   14.76
   5  -8   1  172.30   11.96
  -5   8  -1  165.99    9.02
   5  -8   1  163.70   14.93
  -5   8  -1  161.20   11.17
  -5   8  -2   53.03    8.21
   5  -8   2   54.12    4.74
   5  -8   2   50.07    6.37
  -5   8  -2   55.75    5.59
   5  -8   2   57.80    8.77
  -5   8  -2   52.24    5.80
   5  -8   3   -0.23    0.45
  -5   8  -3   -0.20    0.96
   5  -8   3    0.73    0.87
  -5   8  -3   -0.95    1.06
   5  -8   3    2.14    1.37
   5  -8   3    0.63    0.87
  -5   8  -3   -0.47    0.76
   5  -8   4    2.37    0.80
  -5   8  -4    1.64    1.44
   5  -8   4    3.87    1.69
  -5   8  -4    2.37    2.64
   5  -8   4    4.94    1.69
   5  -8   4    7.69    3.27
  -5   8  -4    4.29    1.69
  -5   8  -5   11.78    2.99
  -5   8  -5    6.99    2.81
   5  -8   5    8.48    2.71
   5  -8   5    8.17    2.37
  -5   8  -5    8.75    2.52
  -5   8  -6   19.76    4.86
  -5   8  -6   17.33    3.64
   5  -8   6   21.86    3.91
   5  -8   6   22.06    4.05
  -5   8  -6   23.61    4.28
  -5   8  -7    0.11    0.71
  -5   8  -7    2.92    2.24
  -5   8  -7   -0.25    1.46
   5  -8   7    1.74    1.40
   5  -8   7    0.18    0.62
   5  -8   8    4.41    1.69
  -5   8  -8    5.18    2.09
  -5   8  -8    5.48    2.42
  -5   8  -8    2.90    1.35
   5  -8   8    7.78    2.75
   5  -8   9    0.13    0.68
  -5   8  -9    1.58    1.31
  -5   8  -9    1.93    2.05
  -5   8  -9    5.36    2.08
   5  -8   9    1.61    1.14
  -5   8 -10   46.47    6.29
  -5   8 -10   50.08    6.02
  -5   8 -10   49.21    6.37
   5  -8  10   45.99    5.14
   5  -8  10   42.35    6.84
   5  -8  11    7.69    2.09
  -5   8 -11   15.39    3.53
   5  -8  11   13.99    4.20
   5  -8  12   26.02    3.70
  -5   8 -12   26.84    4.29
   5  -8  12   22.17    5.26
  -5   8 -13   43.32    5.57
   5  -8  13   47.32    8.40
  -5   7  14    0.73    2.55
   5  -7 -14    3.46    3.35
  -5   7  13    7.00    3.47
  -5   7  13    9.08    4.23
   5  -7 -13    4.50    2.06
  -5   7  12   14.06    4.86
   5  -7 -12    9.35    2.00
  -5   7  12    8.92    3.97
   5  -7 -12    9.97    3.95
  -5   7  11   25.25    6.45
   5  -7 -11   24.37    3.35
  -5   7  11   22.40    5.64
   5  -7 -11   18.69    5.45
  -5   7  10   16.46    5.11
   5  -7 -10   14.67    2.69
  -5   7  10   13.10    4.46
   5  -7 -10   20.31    5.21
  -5   7   9   73.90   10.24
   5  -7  -9   91.42    7.48
   5  -7  -9   89.82   11.04
  -5   7   9   80.49   11.23
  -5   7   8    3.04    2.78
  -5   7   8    1.32    1.74
   5  -7  -8   -0.21    0.78
   5  -7  -8    0.20    1.37
  -5   7   7   -2.11    2.26
   5  -7  -7    0.89    0.80
  -5   7   7    3.44    2.28
   5  -7  -7    1.61    1.79
   5  -7  -6  245.01   14.04
  -5   7   6  230.48   18.20
   5  -7  -6  232.71   17.72
  -5   7   6  223.37   17.30
  -5   7   5   43.31    7.00
   5  -7  -5   40.44    5.50
  -5   7   5   26.37    5.38
  -5   7   5   43.33    7.49
   5  -7  -5   49.17    7.62
  -5   7   4   41.83    6.60
  -5   7   4   28.55    6.13
   5  -7  -4   35.40    5.22
  -5   7   4   33.02    5.82
   5  -7  -4   32.57    6.27
   5  -7  -3  407.66   19.59
  -5   7   3  401.50   22.45
   5  -7  -3  439.64   20.57
  -5   7   3  411.06   24.51
   5  -7  -3  382.06   23.02
  -5   7   3  396.01   21.45
   5  -7  -2   83.04    7.46
  -5   7   2   67.51    8.55
   5  -7  -2   71.27    7.53
  -5   7   2   75.01    9.68
   5  -7  -2   76.62    9.38
  -5   7   2   66.90    7.69
   5  -7  -1   14.39    3.43
  -5   7   1   12.46    3.20
   5  -7  -1    8.29    2.22
  -5   7   1    4.31    2.51
  -5   7   1    8.95    3.25
   5  -7  -1   15.45    4.28
   5  -7   0  103.49    7.70
   5  -7   0  127.89    6.01
   5  -7   0  145.97   11.12
  -5   7   0  133.88   13.08
   5  -7   0  132.33   12.36
  -5   7   0  136.82   10.25
   5  -7   1   11.78    3.07
  -5   7  -1   11.38    2.28
  -5   7  -1   11.29    2.68
  -5   7  -1   18.14    4.74
   5  -7   1    9.61    1.77
   5  -7   1   12.46    3.80
  -5   7  -2   18.77    3.28
   5  -7   2   17.32    3.78
   5  -7   2   18.65    2.65
  -5   7  -2   23.62    5.27
   5  -7   2   20.60    2.97
   5  -7   2   20.16    4.89
   5  -7   3   13.27    3.18
   5  -7   3   15.94    2.22
  -5   7  -3   13.91    2.83
  -5   7  -3   15.36    4.27
   5  -7   3   11.17    2.40
   5  -7   3   13.96    4.16
  -5   7  -3   11.56    2.77
   5  -7   4   70.90    4.28
  -5   7  -4   77.94    6.52
   5  -7   4   74.20    7.78
  -5   7  -4   70.34    9.01
   5  -7   4   68.12    7.94
   5  -7   4   69.20    6.58
  -5   7  -4   64.91    7.11
  -5   7  -5    2.91    1.70
   5  -7   5    1.75    1.07
  -5   7  -5    3.48    1.50
   5  -7   5    3.39    1.83
   5  -7   5    2.01    0.96
  -5   7  -5    3.88    1.83
   5  -7   6   10.52    2.88
  -5   7  -6   15.14    2.94
   5  -7   6   12.39    3.44
   5  -7   6   12.78    3.15
  -5   7  -6   10.53    3.67
  -5   7  -6   12.01    3.22
  -5   7  -7   51.43    5.69
  -5   7  -7   47.59    6.00
  -5   7  -7   54.28    7.55
   5  -7   7   60.47    7.34
   5  -7   7   50.24    6.00
   5  -7   7   52.80    6.78
  -5   7  -8   15.28    3.15
  -5   7  -8   16.64    4.04
  -5   7  -8   21.73    3.98
   5  -7   8   17.83    3.41
   5  -7   8   21.83    4.23
   5  -7   8   26.74    5.09
   5  -7   9   36.84    4.73
  -5   7  -9   45.18    5.84
  -5   7  -9   42.00    6.11
  -5   7  -9   35.78    5.20
   5  -7   9   46.05    6.81
  -5   7 -10   28.78    4.57
  -5   7 -10   27.96    4.86
   5  -7  10   32.35    4.20
  -5   7 -10   34.64    5.17
   5  -7  10   30.90    5.76
  -5   7 -11   39.35    5.32
  -5   7 -11   37.59    5.16
  -5   7 -11   35.64    5.81
   5  -7  11   42.15    4.60
   5  -7  11   50.61    7.81
  -5   7 -12    5.46    2.14
   5  -7  12    2.20    1.59
   5  -7  12    6.90    1.78
  -5   7 -13    8.58    2.55
   5  -7  13    6.19    3.46
  -5   6  16   33.28    7.76
   5  -6 -16   35.79    7.80
  -5   6  15   -0.94    2.02
   5  -6 -15   -1.83    3.27
  -5   6  14    2.57    2.41
   5  -6 -14   -1.53    2.14
  -5   6  13    3.96    2.71
   5  -6 -13   -0.66    1.18
   5  -6 -12   18.41    2.73
  -5   6  12   21.22    5.53
   5  -6 -12   11.18    4.38
  -5   6  11    6.85    2.63
   5  -6 -11    1.29    0.78
   5  -6 -11    5.06    3.09
  -5   6  10    0.09    1.33
   5  -6 -10   -0.24    0.72
  -5   6  10    2.26    2.20
   5  -6 -10    2.41    2.41
  -5   6   9   22.19    5.81
   5  -6  -9   31.09    4.36
  -5   6   9   26.17    5.96
   5  -6  -9   29.09    2.38
   5  -6  -9   25.11    5.58
   5  -6  -8  110.34    8.81
  -5   6   8   95.09   11.24
   5  -6  -8   97.87   10.70
  -5   6   8  101.13   11.82
   5  -6  -7    0.67    1.15
  -5   6   7   -0.39    1.42
  -5   6   7    1.19    1.86
   5  -6  -7   -2.26    2.27
  -5   6   7    0.17    0.81
  -5   6   6    0.94    2.01
  -5   6   6   -0.83    1.07
  -5   6   6    0.69    1.09
   5  -6  -6    1.61    1.95
   5  -6  -6    0.06    0.75
  -5   6   5    4.36    2.03
  -5   6   5    7.23    2.44
  -5   6   5    9.27    3.45
   5  -6  -5    8.88    2.78
   5  -6  -5    9.70    3.10
  -5   6   4   23.39    4.88
   5  -6  -4   33.35    5.01
  -5   6   4   28.86    5.02
  -5   6   4   34.85    5.19
  -5   6   4   32.62    6.13
   5  -6  -4   34.96    5.20
   5  -6  -4   22.33    4.70
  -5   6   3   42.73    7.12
  -5   6   3   35.26    5.17
   5  -6  -3   36.35    5.45
   5  -6  -3   50.49    7.15
  -5   6   3   41.26    6.34
  -5   6   3   41.15    6.06
   5  -6  -3   49.97    5.85
  -5   6   2  101.59    8.59
   5  -6  -2   98.95    9.18
  -5   6   2  107.71   11.42
   5  -6  -2   90.77    9.49
  -5   6   2  101.39   10.16
  -5   6   2   87.96    8.76
   5  -6  -2  106.84    8.38
   5  -6  -1    9.08    2.31
  -5   6   1   21.29    5.03
   5  -6  -1   19.51    1.98
   5  -6  -1   26.03    4.63
  -5   6   1   25.39    4.11
   5  -6  -1   22.98    4.73
  -5   6   1   21.51    4.68
  -5   6   0    7.18    2.71
   5  -6   0    8.15    2.61
  -5   6   0   10.16    2.63
   5  -6   0    9.50    1.71
   5  -6   0   11.33    3.48
  -5   6   0    8.66    3.02
   5  -6   1  129.20    7.87
   5  -6   1  117.19   10.27
  -5   6  -1  115.08   11.64
   5  -6   1  128.62   10.96
   5  -6   1  119.27    7.14
  -5   6  -1  117.04    8.08
   5  -6   1  119.37   11.26
  -5   6  -1  115.02   11.18
   5  -6   2  153.00    8.08
  -5   6  -2  153.78    8.05
   5  -6   2  151.13   11.76
  -5   6  -2  149.56   13.19
   5  -6   2  152.59   12.00
   5  -6   2  158.31    9.17
  -5   6  -2  154.38   10.16
   5  -6   2  156.49   13.22
  -5   6  -2  130.74   12.40
  -5   6  -3   11.82    2.91
   5  -6   3    9.91    1.65
  -5   6  -3   12.47    2.00
  -5   6  -3   12.39    3.56
   5  -6   3    7.53    2.64
   5  -6   3   12.84    3.39
   5  -6   3   12.65    2.65
   5  -6   4    9.43    1.33
  -5   6  -4   12.80    2.15
  -5   6  -4   12.94    3.69
   5  -6   4   15.50    3.86
  -5   6  -4   14.05    3.20
   5  -6   4   14.05    3.52
   5  -6   4   12.67    2.68
  -5   6  -4   10.18    2.86
  -5   6  -5   86.01    6.11
   5  -6   5  103.96    9.27
  -5   6  -5  101.70   10.54
   5  -6   5  101.46    9.94
   5  -6   5   95.67    8.37
  -5   6  -5   86.76    7.91
  -5   6  -5   88.28    8.94
  -5   6  -6  246.24   12.04
   5  -6   6  251.22   14.90
  -5   6  -6  252.41   16.90
   5  -6   6  245.26   16.28
   5  -6   6  272.63   15.77
  -5   6  -6  265.60   13.87
  -5   6  -6  258.70   16.72
   5  -6   7    9.29    2.56
  -5   6  -7    3.83    1.48
  -5   6  -7    1.97    1.61
  -5   6  -7    4.55    1.82
   5  -6   7    7.34    2.77
  -5   6  -7    4.57    1.71
   5  -6   7    5.47    2.28
  -5   6  -8   36.35    4.82
  -5   6  -8   39.16    5.50
   5  -6   8   40.08    5.24
  -5   6  -8   37.01    5.79
   5  -6   8   36.02    5.81
  -5   6  -8   41.57    4.85
   5  -6   8   36.45    5.96
   5  -6   9   10.58    2.53
  -5   6  -9    8.98    2.65
  -5   6  -9   11.26    2.81
  -5   6  -9    6.69    2.19
   5  -6   9    8.03    2.91
  -5   6  -9   12.94    2.57
   5  -6   9   11.38    3.58
  -5   6 -10    1.47    1.28
  -5   6 -10    3.24    1.79
   5  -6  10    1.45    1.15
  -5   6 -10    0.08    0.99
   5  -6  10   -0.03    1.39
  -5   6 -11   12.25    3.03
  -5   6 -11   15.45    3.41
  -5   6 -11   19.89    4.58
   5  -6  11   12.63    4.01
   5  -6  11    9.69    2.14
   5  -6  12   23.77    3.20
  -5   6 -12   18.94    3.64
  -5   6 -12   16.66    4.50
   5  -6  12   21.61    5.10
  -5   6 -13   12.72    3.09
   5  -6  13   10.69    3.68
  -5   6 -14    1.40    1.18
   5  -6  14    3.68    2.47
  -5   5  17    0.65    2.60
   5  -5 -17    1.78    1.89
  -5   5  16   32.67    7.56
   5  -5 -16   31.81    7.05
  -5   5  15    7.10    3.05
   5  -5 -15    8.60    3.34
  -5   5  14    5.41    2.52
   5  -5 -14    1.45    1.90
  -5   5  13    5.09    2.55
   5  -5 -13    6.52    3.01
   5  -5 -12    0.98    0.78
  -5   5  12   -0.07    1.11
   5  -5 -12    0.69    1.44
   5  -5 -11   81.38    6.84
  -5   5  11   79.02   10.42
  -5   5  11   92.27    7.59
   5  -5 -11   84.90   10.01
   5  -5 -10   23.89    3.85
  -5   5  10   21.72    3.82
  -5   5  10   31.43    6.41
   5  -5 -10   26.69    3.35
   5  -5 -10   15.51    4.22
   5  -5  -9   85.54    7.80
  -5   5   9   74.12    9.80
   5  -5  -9   84.42    5.57
   5  -5  -9   73.92    9.00
   5  -5  -8   50.16    6.18
  -5   5   8   68.20    9.29
   5  -5  -8   60.01    4.16
   5  -5  -8   56.02    7.43
  -5   5   7   15.46    3.93
  -5   5   7   20.94    5.10
   5  -5  -7   15.14    1.80
   5  -5  -7   12.71    3.25
   5  -5  -7   15.61    3.81
   5  -5  -6    3.79    0.88
   5  -5  -6    2.70    1.74
  -5   5   6    3.03    1.22
  -5   5   6    5.69    2.90
   5  -5  -6    2.42    0.66
   5  -5  -6    1.02    0.73
  -5   5   5  208.72   12.90
  -5   5   5  203.80   14.20
   5  -5  -5  211.27   13.90
  -5   5   5  193.10   15.55
   5  -5  -5  215.56    7.09
   5  -5  -5  218.84    7.90
   5  -5  -5  193.96   13.68
   5  -5  -5  215.55   14.03
   5  -5  -4    4.37    1.80
  -5   5   4    1.84    1.27
   5  -5  -4    2.84    1.56
  -5   5   4    2.95    1.36
  -5   5   4    2.99    2.20
   5  -5  -4    2.36    0.50
   5  -5  -4    3.80    2.12
   5  -5  -4    3.15    0.76
  -5   5   4    3.13    1.87
  -5   5   3   74.15    6.45
   5  -5  -3   84.32    8.59
  -5   5   3   86.98    9.93
   5  -5  -3   89.30    4.69
   5  -5  -3   82.77    8.33
  -5   5   3   80.05    8.24
   5  -5  -3   79.71    7.56
   5  -5  -2    4.90    1.68
  -5   5   2    6.22    2.72
   5  -5  -2    7.95    2.78
  -5   5   2    7.26    1.75
   5  -5  -2    3.83    1.86
   5  -5  -2    6.76    2.37
   5  -5  -2    9.00    1.54
  -5   5   2    8.02    2.64
  -5   5   1   21.99    4.77
  -5   5   1   23.40    2.90
   5  -5  -1   22.37    4.49
   5  -5  -1   20.50    4.15
   5  -5  -1   27.07    3.05
   5  -5  -1   28.66    4.76
  -5   5   1   22.29    4.27
  -5   5   0   59.25    4.09
   5  -5   0   59.95    7.40
  -5   5   0   62.40    8.20
   5  -5   0   60.04    7.29
   5  -5   0   52.20    4.70
   5  -5   0   45.54    6.33
  -5   5   0   62.76    7.37
   5  -5   0   57.99    5.60
  -5   5  -1   12.87    2.66
  -5   5  -1    8.44    3.25
  -5   5  -1   12.09    1.37
   5  -5   1   15.43    2.66
  -5   5  -1   13.46    1.60
   5  -5   1   12.35    3.43
   5  -5   1   15.43    3.61
   5  -5   1    9.48    2.78
   5  -5   1   12.05    2.39
  -5   5  -1   16.12    3.85
  -5   5  -2   18.44    3.34
   5  -5   2   17.39    2.66
   5  -5   2   14.15    3.58
  -5   5  -2   20.39    4.54
   5  -5   2   16.96    4.01
   5  -5   2   15.39    2.85
  -5   5  -2   17.71    4.24
  -5   5  -3   18.50    3.65
   5  -5   3   13.50    2.01
  -5   5  -3   12.35    1.31
  -5   5  -3   13.48    3.72
   5  -5   3   11.70    3.12
   5  -5   3   14.48    3.78
   5  -5   3   12.85    2.86
  -5   5  -3   11.25    3.29
  -5   5  -4    0.05    0.64
   5  -5   4    1.06    0.54
   5  -5   4    1.84    1.34
  -5   5  -4    0.74    0.68
  -5   5  -4    1.06    0.64
   5  -5   4    2.82    1.76
  -5   5  -4    0.99    0.81
   5  -5   4    1.34    0.91
  -5   5  -4    3.67    2.47
  -5   5  -5   97.31    5.94
   5  -5   5   95.84    9.10
  -5   5  -5   98.09    9.92
   5  -5   5  101.29   10.09
   5  -5   5  103.88    9.05
  -5   5  -5   86.50    7.11
  -5   5  -5  100.55    9.76
  -5   5  -6   43.96    4.56
   5  -5   6   41.04    5.76
  -5   5  -6   45.36    6.74
   5  -5   6   43.04    6.69
   5  -5   6   38.90    5.80
  -5   5  -6   45.75    4.77
  -5   5  -6   38.49    6.21
  -5   5  -7   68.58    6.52
   5  -5   7   65.52    7.20
  -5   5  -7   59.76    6.79
  -5   5  -7   60.86    7.61
   5  -5   7   52.42    7.30
   5  -5   7   69.73    8.19
  -5   5  -7   62.11    5.56
  -5   5  -8    6.04    2.17
  -5   5  -8    6.93    2.21
   5  -5   8    6.72    2.65
  -5   5  -8    4.82    2.02
  -5   5  -8    6.46    1.97
   5  -5   8    8.44    2.43
   5  -5   8    4.69    1.93
  -5   5  -9    0.09    0.93
  -5   5  -9    0.30    1.25
   5  -5   9   -0.24    1.17
  -5   5  -9    0.97    1.59
  -5   5  -9   -0.18    0.48
   5  -5   9    0.79    1.23
  -5   5  -9    0.05    0.99
   5  -5   9    0.75    1.15
   5  -5  10    9.97    2.46
  -5   5 -10    7.81    2.26
  -5   5 -10    8.55    2.51
  -5   5 -10   11.16    3.27
   5  -5  10    7.33    2.85
   5  -5  11   27.78    3.82
  -5   5 -11   26.92    4.32
  -5   5 -11   29.25    6.02
   5  -5  11   35.77    6.63
  -5   5 -12    1.98    1.40
  -5   5 -12    3.00    2.69
   5  -5  12   -0.89    0.95
   5  -5  12   -0.62    1.84
  -5   5 -13    1.11    0.98
  -5   5 -13    6.78    3.02
   5  -5  13    4.19    2.43
  -5   5 -14    0.30    0.74
   5  -5  14   -2.10    2.69
  -5   4  17    2.08    1.53
   5  -4 -17   10.15    4.96
  -5   4  16    1.01    1.76
   5  -4 -16    1.74    1.72
  -5   4  15   -1.90    2.61
   5  -4 -15   -0.68    1.94
  -5   4  14   -0.38    1.51
   5  -4 -14   -1.58    1.81
  -5   4  13   33.41    6.87
   5  -4 -13   38.82    4.13
   5  -4 -13   51.27   12.23
   5  -4 -13   35.03    6.38
  -5   4  12    3.73    2.19
   5  -4 -12    6.44    1.96
   5  -4 -12    1.23    2.32
  -5   4  11    0.37    1.42
   5  -4 -11    1.09    1.39
   5  -4 -11    0.48    0.59
   5  -4 -11    1.60    1.51
   5  -4 -10   32.77    4.81
  -5   4  10   34.06    6.55
   5  -4 -10   43.44   11.02
   5  -4 -10   43.29    6.42
   5  -4  -9    2.65    1.13
  -5   4   9    2.21    1.62
   5  -4  -9    5.53    4.45
   5  -4  -9    3.42    1.16
   5  -4  -9    4.66    1.95
  -5   4   8    1.62    1.33
   5  -4  -8    2.79    1.80
  -5   4   8    3.55    2.11
   5  -4  -8    3.37    3.04
   5  -4  -8    2.78    1.13
   5  -4  -8    4.11    1.88
   5  -4  -7   39.24    5.72
  -5   4   7   36.39    5.43
  -5   4   7   30.47    5.91
   5  -4  -7   32.16    3.13
   5  -4  -7   25.61    4.46
   5  -4  -6    0.66    0.69
   5  -4  -6   -0.75    0.99
  -5   4   6    1.77    0.81
  -5   4   6    2.22    2.21
   5  -4  -6    0.88    0.60
   5  -4  -6    0.21    0.73
  -5   4   5   51.31    5.80
   5  -4  -5   56.11    7.01
  -5   4   5   61.23    7.17
  -5   4   5   46.36    7.12
   5  -4  -5   50.62    3.80
   5  -4  -5   56.23    6.31
   5  -4  -5   55.67    6.79
  -5   4   4  188.23   10.64
   5  -4  -4  172.99   12.88
  -5   4   4  192.44   14.78
   5  -4  -4  169.30    8.98
   5  -4  -4  194.43   12.21
   5  -4  -4  203.70   13.05
  -5   4   3   61.93    5.24
   5  -4  -3   64.50    7.56
  -5   4   3   48.94    7.17
   5  -4  -3   61.00    7.10
   5  -4  -3   54.91    4.83
   5  -4  -3   57.89    6.30
   5  -4  -3   54.99    6.28
  -5   4   2   58.17    4.42
   5  -4  -2   63.99    7.55
  -5   4   2   65.41    8.25
   5  -4  -2   59.61    7.07
   5  -4  -2   60.85    5.27
   5  -4  -2   60.17    6.43
   5  -4  -1   20.52    4.20
  -5   4   1   21.63    2.08
  -5   4   1   21.86    4.76
   5  -4  -1   18.90    4.08
   5  -4  -1   20.14    3.70
   5  -4  -1   18.65    2.96
   5  -4   0   -1.06    1.32
   5  -4   0    1.15    0.56
  -5   4   0    0.59    1.04
   5  -4   0    0.03    1.01
   5  -4   0    0.21    0.51
   5  -4   0    1.26    1.18
   5  -4   1   12.62    3.47
   5  -4   1   11.31    2.31
  -5   4  -1   13.91    2.96
  -5   4  -1   14.34    3.83
   5  -4   1   13.05    3.52
   5  -4   1   18.03    3.22
   5  -4   2   26.26    4.81
  -5   4  -2   28.16    4.41
  -5   4  -2   24.40    4.93
   5  -4   2   33.48    5.57
   5  -4   2   31.63    4.49
  -5   4  -2   32.26    5.28
   5  -4   2   31.85    3.67
   5  -4   3  105.14    9.99
  -5   4  -3   96.14    9.76
   5  -4   3   94.88    9.72
   5  -4   3  113.12    9.09
  -5   4  -3   96.98    8.85
  -5   4  -3   98.37    9.82
   5  -4   3  102.30    6.42
  -5   4  -4    0.82    0.81
   5  -4   4    0.77    0.59
   5  -4   4    1.59    0.97
  -5   4  -4    0.25    0.88
   5  -4   4    0.84    0.89
   5  -4   4    1.99    1.63
  -5   4  -5   10.16    3.22
   5  -4   5    9.69    1.32
   5  -4   5    9.66    2.77
   5  -4   5    8.15    1.14
  -5   4  -5   10.23    3.16
   5  -4   5   10.63    3.27
  -5   4  -5   10.37    2.06
  -5   4  -5    6.45    2.54
   5  -4   5    6.50    2.24
   5  -4   6   51.63    6.79
  -5   4  -6   53.47    7.06
   5  -4   6   47.94    7.13
  -5   4  -6   53.13    4.57
   5  -4   6   54.75    7.12
  -5   4  -6   55.63    7.81
   5  -4   7   98.71    7.04
  -5   4  -7   90.75    8.84
   5  -4   7   99.98    9.36
  -5   4  -7   93.95    8.56
  -5   4  -7   98.06    9.65
   5  -4   7   97.19   10.37
   5  -4   7  109.34   10.39
  -5   4  -7   98.12    6.35
   5  -4   8    0.13    0.74
   5  -4   8   -0.06    0.81
  -5   4  -8    1.06    1.43
  -5   4  -8   -0.29    1.12
   5  -4   8   -0.54    1.61
  -5   4  -8    2.58    2.03
  -5   4  -8    0.63    0.42
   5  -4   8   -0.22    0.83
   5  -4   9    0.82    0.85
  -5   4  -9    1.30    1.52
  -5   4  -9    0.60    0.61
   5  -4   9   -0.49    0.82
  -5   4  -9    1.28    1.57
  -5   4  -9    0.96    0.41
   5  -4   9    0.91    0.90
   5  -4  10   30.20    4.87
  -5   4 -10   35.24    5.00
   5  -4  10   32.84    4.59
  -5   4 -10   34.77    6.80
   5  -4  10   39.67    6.80
  -5   4 -11   17.84    3.50
   5  -4  11   14.94    4.32
   5  -4  11   17.90    3.12
   5  -4  12   20.41    3.01
  -5   4 -12   19.44    3.72
   5  -4  12   27.71    5.99
  -5   4 -13    4.54    1.74
   5  -4  13    4.27    2.52
  -5   4 -14    8.12    2.37
   5  -4  14    8.53    3.43
  -5   3  16    2.59    2.56
   5  -3 -16   11.72    6.80
   5  -3 -15    0.48    2.94
   5  -3 -15    0.62    1.58
  -5   3  15    3.61    2.66
  -5   3  14    1.23    1.38
   5  -3 -14   -0.62    1.62
  -5   3  13   16.52    4.67
   5  -3 -13   21.81    3.23
   5  -3 -13   21.37    4.89
   5  -3 -12    4.58    1.88
  -5   3  12    0.46    0.83
   5  -3 -12    1.74    2.43
   5  -3 -12    5.75    2.04
   5  -3 -12    4.15    1.79
   5  -3 -11   -0.18    0.86
  -5   3  11    0.11    1.30
   5  -3 -11    4.75    5.76
   5  -3 -11    0.59    0.98
   5  -3 -11   -0.91    1.29
   5  -3 -10   14.98    3.45
  -5   3  10   11.51    3.68
   5  -3 -10   17.16    5.63
   5  -3 -10    5.60    1.77
   5  -3 -10   12.45    3.31
   5  -3  -9   24.54    4.47
  -5   3   9   23.92    5.00
  -5   3   9   24.67    5.38
   5  -3  -9   16.13    4.99
   5  -3  -9   18.19    3.65
  -5   3   8   43.31    6.13
  -5   3   8   47.71    7.32
   5  -3  -8   36.66    3.91
   5  -3  -8   23.69    6.00
   5  -3  -8   37.28    5.11
   5  -3  -8   37.22    5.67
  -5   3   7    1.56    0.65
  -5   3   7    2.25    1.93
   5  -3  -7    1.34    1.49
   5  -3  -7    0.29    0.49
   5  -3  -7    1.24    1.35
   5  -3  -7    1.05    0.77
   5  -3  -6   15.35    3.70
  -5   3   6    6.02    2.27
  -5   3   6    8.04    2.46
  -5   3   6    6.09    2.61
   5  -3  -6    8.31    1.75
   5  -3  -6    8.25    2.06
   5  -3  -5   37.30    5.62
  -5   3   5   34.44    4.58
  -5   3   5   38.36    5.55
  -5   3   5   36.23    6.08
   5  -3  -5   31.19    5.04
   5  -3  -5   37.23    5.82
   5  -3  -5   28.15    3.97
   5  -3  -4    5.12    2.15
  -5   3   4    6.22    1.80
  -5   3   4    5.46    2.47
   5  -3  -4    5.07    2.11
   5  -3  -4    1.06    0.83
   5  -3  -4    4.92    1.76
  -5   3   4    4.65    1.46
  -5   3   3  152.44    8.25
   5  -3  -3  141.37   10.06
   5  -3  -3  144.73   11.14
   5  -3  -3  146.47    9.25
   5  -3  -3  147.20    9.47
  -5   3   3  147.78    9.33
  -5   3   3  145.69   12.28
  -5   3   2  286.39   10.77
  -5   3   2  288.05   17.85
   5  -3  -2  280.91   14.02
   5  -3  -2  282.74   14.24
  -5   3   2  285.42   14.16
  -5   3   1  279.54   17.44
   5  -3  -1  288.83   14.52
   5  -3  -1  292.84   15.07
  -5   3   1  272.62   14.45
   5  -3  -1  252.45   14.11
   5  -3   0   11.17    2.57
  -5   3   0   13.59    3.53
   5  -3   0    7.62    2.73
  -5   3   0    9.75    2.52
   5  -3   0   10.75    2.59
  -5   3  -1  256.74   16.77
   5  -3   1  285.19   17.62
   5  -3   1  278.85   15.11
  -5   3  -2  119.55   10.88
   5  -3   2  128.41   11.41
   5  -3   2  122.68    9.77
  -5   3  -2  107.77    9.11
  -5   3  -3   -0.02    0.83
  -5   3  -3    1.59    1.34
   5  -3   3    2.50    1.55
  -5   3  -3   -0.33    1.05
   5  -3   3   -0.23    0.71
  -5   3  -4   11.17    3.18
  -5   3  -4    9.19    2.89
   5  -3   4    9.60    3.31
  -5   3  -4    7.13    2.69
   5  -3   4    9.78    2.87
   5  -3   5  101.63    5.51
   5  -3   5   92.79    5.56
  -5   3  -5  100.25    9.63
   5  -3   5   93.23   10.01
  -5   3  -5   89.32    5.69
   5  -3   5   90.85    9.24
  -5   3  -5   95.29   10.02
  -5   3  -5   93.64   10.10
   5  -3   6   93.67    4.70
   5  -3   6   97.04    6.51
   5  -3   6   87.01    9.00
  -5   3  -6   90.40    9.16
   5  -3   6   91.26    9.96
  -5   3  -6   89.86    5.40
   5  -3   6   85.42    9.18
   5  -3   7    1.41    1.29
   5  -3   7    0.11    0.26
   5  -3   7    0.55    0.54
  -5   3  -7    2.69    1.91
  -5   3  -7   -1.71    1.67
   5  -3   7   -0.23    1.46
  -5   3  -7   -0.26    0.43
   5  -3   7   -0.76    1.30
   5  -3   8    0.22    0.24
   5  -3   8   -0.19    0.87
   5  -3   8    0.08    0.63
  -5   3  -8    2.30    1.68
  -5   3  -8   -0.63    1.27
  -5   3  -8    1.12    0.54
   5  -3   8    1.35    1.51
  -5   3  -9   26.50    4.30
   5  -3   9   30.34    4.79
   5  -3   9   39.84    5.38
   5  -3   9   33.39    6.31
   5  -3   9   31.58    2.12
   5  -3  10   20.75    4.07
   5  -3  10   22.56    3.97
  -5   3 -10   19.30    3.68
   5  -3  10   23.56    5.47
  -5   3 -11   35.65    4.94
   5  -3  11   24.76    3.83
   5  -3  11   25.59    5.64
  -5   3 -12    5.19    1.89
   5  -3  12    5.06    2.42
  -5   3 -13    9.49    2.56
   5  -3  13    9.31    3.89
  -5   3 -14    1.93    1.13
   5  -3  14    1.96    1.47
  -5   2  17   89.92   12.12
   5  -2 -16    1.13    1.88
  -5   2  16    0.53    0.96
   5  -2 -16    0.38    2.86
  -5   2  15   51.77    8.03
   5  -2 -15   55.27   12.31
  -5   2  14    0.76    0.88
   5  -2 -14    0.70    2.33
   5  -2 -13    5.10    1.75
  -5   2  13    3.62    1.89
   5  -2 -13   -0.18    2.15
   5  -2 -12   63.73    6.70
  -5   2  12   49.75    7.69
   5  -2 -12   51.55   10.17
   5  -2 -12   62.49    7.50
   5  -2 -11   40.05    5.59
  -5   2  11   34.34    6.09
   5  -2 -11   39.51    5.10
   5  -2 -11   34.87    6.73
   5  -2 -11   43.72    5.92
  -5   2  10    6.64    3.09
   5  -2 -10    7.86    3.28
   5  -2 -10    4.67    1.68
   5  -2 -10    5.76    1.88
  -5   2   9    4.70    2.24
  -5   2   9    4.96    2.37
   5  -2  -9   10.31    3.66
   5  -2  -9    7.41    2.01
   5  -2  -9    5.89    1.97
  -5   2   8    7.81    2.70
  -5   2   8    5.30    2.20
   5  -2  -8    3.37    1.66
   5  -2  -8    3.80    1.39
  -5   2   7   51.91    6.46
   5  -2  -7   43.97    6.42
  -5   2   7   59.70    6.91
  -5   2   7   52.50    7.33
   5  -2  -7   48.51    4.85
   5  -2  -7   52.36    7.03
   5  -2  -6   -2.29    1.45
  -5   2   6    0.53    1.09
  -5   2   6    0.35    0.98
  -5   2   6    0.49    1.43
   5  -2  -6    0.40    0.73
   5  -2  -6    1.65    0.99
   5  -2  -5   14.95    3.51
  -5   2   5   11.72    2.71
  -5   2   5   14.86    3.30
   5  -2  -5   14.92    3.10
  -5   2   5   14.76    3.86
   5  -2  -5   14.73    3.61
   5  -2  -5   15.42    2.45
   5  -2  -4   -0.36    0.46
  -5   2   4   -0.15    0.66
   5  -2  -4    0.46    0.79
  -5   2   4   -0.48    0.62
   5  -2  -4    1.41    1.56
   5  -2  -4    0.68    0.73
  -5   2   3   56.55    4.72
   5  -2  -3   60.75    5.08
  -5   2   3   51.97    6.91
   5  -2  -3   56.77    6.96
   5  -2  -3   58.16    5.19
  -5   2   3   51.65    4.67
   5  -2  -2  104.75    6.07
  -5   2   2  117.58   10.64
   5  -2  -2  114.85   10.23
   5  -2  -2  119.72    9.35
  -5   2   2  101.76    7.20
   5  -2  -1   41.53    2.92
  -5   2   1   44.87    6.47
   5  -2  -1   42.83    5.57
  -5   2   1   41.43    4.66
   5  -2   0   11.68    3.05
  -5   2   0    8.25    2.75
  -5   2   0    8.99    2.21
  -5   2  -1  111.90   10.25
   5  -2   1  106.98   10.29
   5  -2   1  121.67    9.97
  -5   2  -1   99.93    8.36
  -5   2  -2   20.86    4.09
   5  -2   2   26.27    5.05
  -5   2  -2   28.31    5.10
   5  -2   2   33.05    5.26
   5  -2   3  141.22    4.88
  -5   2  -3  135.49   11.01
   5  -2   3  133.00   11.54
   5  -2   3  127.47   10.41
  -5   2  -3  125.52   10.42
   5  -2   4   35.21    3.90
  -5   2  -4   29.61    5.15
   5  -2   4   34.04    3.08
  -5   2  -4   41.89    6.03
   5  -2   4   36.97    6.11
   5  -2   4   36.74    5.83
   5  -2   5   28.81    3.25
  -5   2  -5   19.57    4.60
   5  -2   5   26.14    3.10
  -5   2  -5   27.68    4.92
   5  -2   5   25.31    5.28
  -5   2  -5   27.25    2.49
   5  -2   5   26.16    4.96
  -5   2  -6    7.17    2.53
   5  -2   6    6.84    1.52
   5  -2   6    6.18    1.65
   5  -2   6    5.11    2.13
  -5   2  -6    1.94    1.14
  -5   2  -6    6.87    1.08
   5  -2   6    6.88    2.61
   5  -2   7  101.51    5.91
   5  -2   7   94.18    7.54
  -5   2  -7   99.05    8.71
  -5   2  -7   98.86    9.46
   5  -2   7   99.61   10.55
  -5   2  -7  101.86    3.77
   5  -2   8   10.77    1.91
   5  -2   8    9.79    2.64
  -5   2  -8   12.14    2.94
   5  -2   8    7.59    3.12
   5  -2   9    0.54    0.75
   5  -2   9   -0.39    0.88
  -5   2  -9    1.71    1.36
   5  -2   9    2.31    1.34
   5  -2   9   -1.30    1.04
   5  -2  10   18.02    3.73
   5  -2  10   22.20    2.79
   5  -2  10   12.95    3.28
  -5   2 -10   17.30    3.41
   5  -2  10   17.76    4.44
   5  -2  11   -0.76    0.79
  -5   2 -11    0.61    0.66
   5  -2  11    0.64    1.59
   5  -2  12    2.58    2.41
  -5   2 -12    2.43    1.18
  -5   2 -13    9.50    2.54
   5  -2  13   10.36    3.52
  -5   2 -14   -0.45    0.72
   5  -1 -17    0.23    1.66
  -5   1  17    5.92    3.51
   5  -1 -16    1.23    1.45
   5  -1 -16   -1.35    2.87
  -5   1  16    5.46    3.29
   5  -1 -15    6.21    2.59
  -5   1  15   11.81    3.89
   5  -1 -15   14.83    6.19
  -5   1  15    7.19    3.21
   5  -1 -14    9.41    2.35
  -5   1  14   11.31    3.26
  -5   1  14   15.87    2.77
   5  -1 -14   18.57    5.73
  -5   1  13   20.18    4.56
   5  -1 -13   37.16    8.17
  -5   1  12    0.70    1.03
   5  -1 -12    0.04    1.45
   5  -1 -11    2.41    2.05
  -5   1  11    1.54    1.01
   5  -1 -10  150.66   14.17
  -5   1  10  148.21   12.66
   5  -1 -10  145.55   10.60
   5  -1 -10  161.07    9.97
  -5   1   9   97.27   10.23
   5  -1  -9   74.78    9.29
  -5   1   9   88.76    9.52
   5  -1  -9   90.07    7.80
   5  -1  -9   89.59    6.59
  -5   1   8    2.75    1.74
   5  -1  -8    2.37    1.47
  -5   1   8    3.53    1.90
   5  -1  -8    0.88    0.76
   5  -1  -8    3.09    1.12
   5  -1  -7   36.76    5.62
   5  -1  -7   37.08    5.99
  -5   1   7   45.44    6.02
  -5   1   7   37.62    5.29
   5  -1  -7   38.25    5.33
  -5   1   7   31.76    5.57
   5  -1  -7   34.55    3.28
  -5   1   6    1.27    0.76
  -5   1   6    2.43    1.09
  -5   1   6    3.41    2.00
   5  -1  -6    0.86    1.48
   5  -1  -6    1.37    0.61
  -5   1   5   14.51    3.00
  -5   1   5   14.68    3.24
   5  -1  -5   11.14    2.73
   5  -1  -5   13.13    3.19
   5  -1  -5   13.39    1.85
  -5   1   5   12.02    3.14
   5  -1  -4   85.43    7.16
  -5   1   4   89.68    9.25
   5  -1  -4   90.88    8.76
   5  -1  -3   86.86    6.73
  -5   1   3   90.08    9.23
   5  -1  -3   87.88    8.97
  -5   1   3   87.61    5.13
   5  -1  -2   26.07    4.44
   5  -1  -2   29.66    3.44
  -5   1   2   30.44    5.28
   5  -1  -2   29.78    5.13
  -5   1   2   26.72    3.05
   5  -1  -1    2.96    1.51
   5  -1  -1    5.61    1.41
  -5   1   1    8.98    2.90
   5  -1  -1    6.92    2.47
  -5   1   1    7.82    1.82
   5  -1   0   19.98    4.12
   5  -1   0   19.86    2.36
   5  -1   0   10.31    3.09
  -5   1   0   20.13    4.66
  -5   1   0   20.99    3.19
   5  -1   1   19.35    4.03
   5  -1   1   21.80    4.55
  -5   1  -1   19.55    4.15
  -5   1  -1   17.05    3.23
   5  -1   2  269.59   13.07
  -5   1  -2  318.76   17.94
   5  -1   2  308.43   18.52
  -5   1  -3  224.02   14.58
   5  -1   3  198.55   10.12
   5  -1   3  178.88   14.07
   5  -1   3  198.75   14.39
  -5   1  -3  179.39   13.15
   5  -1   4   43.41    4.73
  -5   1  -4   39.69    6.56
   5  -1   4   53.62    4.91
  -5   1  -4   53.17    6.91
   5  -1   4   51.06    7.13
   5  -1   4   43.01    6.69
   5  -1   5   45.13    4.65
  -5   1  -5   41.50    6.11
   5  -1   5   39.65    4.47
  -5   1  -5   43.65    2.19
  -5   1  -5   45.48    2.40
   5  -1   5   44.91    6.82
   5  -1   6  563.81   20.08
   5  -1   6  515.14   21.16
  -5   1  -6  546.79   23.18
  -5   1  -6  608.96   26.16
   5  -1   6  545.86   27.51
   5  -1   7  198.06   10.17
   5  -1   7  187.15   11.86
  -5   1  -7  228.44   13.21
   5  -1   7  195.80   15.64
   5  -1   8   10.50    2.07
   5  -1   8    9.40    2.70
  -5   1  -8   10.85    2.71
   5  -1   8   10.49    3.60
   5  -1   9   12.64    2.49
   5  -1   9   10.41    2.93
  -5   1  -9   12.46    2.90
   5  -1   9    6.74    2.52
  -5   1 -10   45.99    5.48
   5  -1  10   55.04    6.91
   5  -1  10   50.06    8.12
   5  -1  10   46.07    4.77
   5  -1  11    1.31    0.96
  -5   1 -11    0.81    1.20
  -5   1 -11    0.90    0.87
   5  -1  11    1.76    1.65
   5  -1  11   -0.31    1.19
  -5   1 -12   16.03    3.32
   5  -1  12   13.98    4.45
  -5   1 -13    0.59    1.17
   5  -1  13    1.92    1.67
   5   0 -17    8.33    5.40
  -5   0  17   16.94    5.25
   5   0 -16    1.36    2.03
   5   0 -16    3.72    3.26
  -5   0  16    0.92    1.45
   5   0 -15    3.15    1.93
   5   0 -15   -0.79    1.61
  -5   0  15    0.55    2.05
  -5   0  14   44.57    4.59
  -5   0  14   33.36    5.55
   5   0 -14   35.70    8.15
  -5   0  14   42.07    7.47
  -5   0  13    0.49    0.74
   5   0 -13    4.50    2.98
  -5   0  13    1.94    1.78
  -5   0  13    3.94    2.63
  -5   0  13    2.71    1.37
  -5   0  12   60.50    6.31
  -5   0  12   57.43    7.40
   5   0 -12   56.56    9.18
  -5   0  12   67.31    6.38
  -5   0  11   22.73    3.94
   5   0 -11   25.91    5.86
  -5   0  11   36.31    5.68
   5   0 -10  103.46   11.44
  -5   0  10  116.24   10.55
   5   0 -10  131.21    7.72
   5   0  -9  239.42   17.22
  -5   0   9  237.74   15.65
   5   0  -9  252.10   14.83
   5   0  -9  254.05   10.25
  -5   0   8   13.29    3.77
  -5   0   8    9.85    2.51
   5   0  -8    4.21    2.03
  -5   0   8   11.01    3.19
   5   0  -8    5.50    2.13
   5   0  -8    7.38    1.07
  -5   0   7  103.35    9.64
   5   0  -7  105.95   10.23
  -5   0   7  140.76   10.23
  -5   0   7  113.89   10.45
   5   0  -7  125.70    9.93
  -5   0   6   88.83    8.22
  -5   0   6   91.00    8.27
  -5   0   6   88.50    9.09
   5   0  -6  100.50    8.99
  -5   0   5    1.19    1.07
   5   0  -5    1.17    1.21
  -5   0   5    0.76    0.65
  -5   0   4   33.02    5.40
   5   0  -4   38.11    5.08
   5   0  -4   34.35    5.44
   5   0  -3  102.16    8.04
  -5   0   3  117.07   10.30
   5   0  -3  129.05   10.76
  -5   0   3  103.52    4.28
   5   0  -2  338.57   15.59
  -5   0   2  329.51   18.65
   5   0  -2  362.29   19.68
  -5   0   2  354.45   12.55
   5   0  -1   37.18    4.26
  -5   0   1   37.99    5.86
   5   0  -1   36.75    5.76
   5   0  -1   52.04    7.06
  -5   0   1   40.08    3.82
  -5   0   0   47.44    6.45
   5   0   0   50.51    6.89
   5   0   0   48.00    7.03
  -5   0  -1   75.63    8.27
   5   0   1   72.10    8.41
   5   0   1   69.17    8.57
   5   0   2    4.03    2.50
   5   0   2    1.06    0.98
  -5   0  -2    0.58    1.02
  -5   0  -2    2.06    0.82
   5   0   3    4.52    1.78
   5   0   3    4.15    1.53
  -5   0  -3    4.38    2.19
   5   0   3    1.02    1.10
  -5   0  -3    3.42    1.01
   5   0   4   18.51    3.27
  -5   0  -4   10.73    3.04
  -5   0  -4   10.44    1.14
   5   0   4   11.42    3.16
   5   0   4    8.62    2.85
   5   0   5    9.22    2.28
  -5   0  -5    9.92    2.47
   5   0   5    8.62    3.10
   5   0   5    7.93    2.87
   5   0   6    0.97    0.67
  -5   0  -6    0.76    0.65
   5   0   6    2.26    1.62
   5   0   7   79.59    6.71
   5   0   7   68.12    7.72
  -5   0  -7   76.11    7.04
   5   0   7   85.75   10.36
  -5   0  -7   75.04    7.25
   5   0   8   79.71    6.80
  -5   0  -8   80.47    7.39
   5   0   8   68.29    7.85
  -5   0  -8   86.29    7.47
   5   0   8   79.93   10.25
  -5   0  -8   76.63    7.01
   5   0   9   38.58    4.73
  -5   0  -9   38.99    4.66
  -5   0  -9   47.32    5.34
  -5   0  -9   37.89    4.89
   5   0   9   36.01    5.69
   5   0   9   50.27    8.04
   5   0  10    2.60    1.18
  -5   0 -10    0.81    1.32
  -5   0 -10    2.59    1.28
   5   0  10    4.56    3.16
  -5   0 -11   46.55    5.51
   5   0  11   47.75    8.03
   5   0  11   50.66    5.86
  -5   0 -12    4.62    1.80
   5   0  12    8.48    3.50
  -5   0 -13   12.18    2.89
   5   0  13   10.74    4.14
   5   1 -17   28.21    6.68
  -5  -1  17   23.33    5.83
   5   1 -16    9.40    4.33
   5   1 -16   12.01    4.08
  -5  -1  16   14.96    4.75
   5   1 -15    9.43    4.58
  -5  -1  15    6.15    3.10
  -5  -1  14    5.97    1.68
  -5  -1  14    5.78    2.00
  -5  -1  14    6.88    3.54
   5   1 -14    9.15    4.29
  -5  -1  13   45.31    4.90
   5   1 -13   41.39    8.16
  -5  -1  13   45.09    5.71
  -5  -1  13   45.75    4.70
  -5  -1  13   33.54    6.63
  -5  -1  12   14.09    3.28
  -5  -1  12   10.37    2.54
   5   1 -12   14.05    4.99
  -5  -1  12   13.64    4.09
  -5  -1  12   12.72    2.68
   5   1 -11    1.79    2.37
  -5  -1  11    3.81    2.12
  -5  -1  11   -0.72    0.92
  -5  -1  11    0.43    1.37
  -5  -1  11    0.84    0.89
  -5  -1  10   12.27    2.87
   5   1 -10   13.68    4.26
  -5  -1  10   14.49    3.46
  -5  -1  10   19.85    3.70
  -5  -1  10   11.38    3.63
   5   1 -10   17.27    2.17
   5   1 -10   15.59    1.94
  -5  -1   9    6.05    1.78
   5   1  -9    6.57    2.71
  -5  -1   9    4.92    1.91
   5   1  -9    5.42    1.99
  -5  -1   9    8.56    2.65
  -5  -1   9    4.22    2.00
  -5  -1   8    0.18    0.91
  -5  -1   8    0.35    0.46
   5   1  -8   -0.12    1.61
  -5  -1   8    1.07    1.31
   5   1  -8    0.79    0.77
  -5  -1   8    0.43    0.70
   5   1  -7  233.83   16.11
  -5  -1   7  241.59   13.57
  -5  -1   7  238.84   14.96
   5   1  -7  231.80   14.33
  -5  -1   7  246.68   15.92
  -5  -1   7  223.64   13.81
   5   1  -6    1.66    1.49
  -5  -1   6    4.51    1.83
  -5  -1   6    2.19    1.80
   5   1  -6    4.12    1.94
  -5  -1   6    2.33    1.28
   5   1  -5    0.08    0.92
  -5  -1   5    2.89    1.38
  -5  -1   5    5.23    2.23
   5   1  -5    5.64    2.22
  -5  -1   5    1.59    0.71
  -5  -1   4  243.87   15.17
   5   1  -4  236.11   15.22
  -5  -1   4  223.66   13.82
  -5  -1   3    0.91    1.62
   5   1  -3    0.25    0.78
  -5  -1   3   -0.03    0.90
   5   1  -2   78.10    7.27
  -5  -1   2   89.51    8.73
   5   1  -2   69.96    8.03
  -5  -1   2   81.77    7.09
  -5  -1   2   73.45    4.42
   5   1  -1   44.73    7.02
  -5  -1   1   35.67    5.45
   5   1  -1   39.87    6.08
  -5  -1   1   34.42    4.41
  -5  -1   0  195.05   13.89
   5   1   0  194.67   14.29
  -5  -1   0  241.17   11.63
   5   1   0  218.80   16.50
   5   1   1    3.97    2.51
  -5  -1  -1    3.49    2.38
   5   1   1    2.15    1.68
  -5  -1  -1    3.96    1.23
   5   1   2   13.14    3.19
  -5  -1  -2   13.36    3.44
  -5  -1  -2   16.57    2.17
   5   1   3    6.41    2.72
  -5  -1  -3    5.00    2.03
   5   1   3   13.03    3.03
  -5  -1  -3    7.71    1.26
  -5  -1  -4   11.22    2.96
   5   1   4    5.34    1.91
  -5  -1  -4    7.03    1.96
  -5  -1  -4    5.43    0.75
   5   1   4    8.12    4.04
   5   1   4    7.22    2.99
  -5  -1  -5   -0.48    1.03
   5   1   5    1.53    1.34
  -5  -1  -5    1.05    0.53
  -5  -1  -5   -1.16    1.32
   5   1   5   -0.22    1.15
   5   1   5    0.35    1.22
  -5  -1  -6   -0.59    1.43
   5   1   6    0.87    1.31
  -5  -1  -6   -0.12    0.70
  -5  -1  -6   -0.48    1.27
   5   1   6    0.23    1.40
   5   1   6   -0.45    1.18
  -5  -1  -7   10.03    2.55
   5   1   7   11.41    2.67
  -5  -1  -7   12.07    2.78
  -5  -1  -7    9.42    2.38
   5   1   7    1.78    1.83
   5   1   7   14.97    4.41
   5   1   8    4.00    1.78
  -5  -1  -8    5.19    2.04
  -5  -1  -8    4.02    1.75
   5   1   8   -0.86    1.33
   5   1   8    6.29    3.14
  -5  -1  -8    0.96    0.68
   5   1   9    4.39    1.76
  -5  -1  -9    7.11    2.04
  -5  -1  -9    5.49    1.64
   5   1   9    5.64    2.81
   5   1  10    6.61    2.30
  -5  -1 -10    5.84    1.53
  -5  -1 -10    7.71    2.14
   5   1  10    9.13    3.64
   5   1  11    3.43    1.55
  -5  -1 -11    3.03    1.46
   5   1  11    3.70    2.00
   5   1  12    1.68    1.44
  -5  -1 -12    0.52    1.03
   5   1  12    2.06    2.56
  -5  -1 -13    9.05    2.64
   5   2 -16   12.95    5.17
  -5  -2  16   14.62    4.49
   5   2 -15    5.83    3.01
  -5  -2  15    4.69    2.66
   5   2 -14   98.08   13.21
  -5  -2  14  108.47   11.90
  -5  -2  14  120.38    7.58
   5   2 -13   50.71    9.25
  -5  -2  13   61.02    5.78
  -5  -2  13   52.87    8.19
  -5  -2  13   54.42    5.24
   5   2 -12    2.25    2.29
  -5  -2  12    0.85    0.83
  -5  -2  12    2.31    1.44
  -5  -2  12    1.90    1.88
  -5  -2  11   51.16    5.64
  -5  -2  11   50.22    5.69
   5   2 -11   53.36    8.85
  -5  -2  11   56.83    8.11
   5   2 -10   10.15    3.80
  -5  -2  10   12.69    2.91
  -5  -2  10   16.40    3.36
   5   2 -10   17.24    3.35
  -5  -2  10   12.90    4.00
   5   2  -9    2.12    2.02
  -5  -2   9    1.47    1.27
  -5  -2   9   -0.23    0.58
   5   2  -9   -0.47    1.05
  -5  -2   9    1.80    1.81
  -5  -2   8   44.50    5.75
  -5  -2   8   45.60    5.11
   5   2  -8   47.62    7.66
  -5  -2   8   44.34    5.65
   5   2  -8   45.18    6.05
  -5  -2   8   42.79    6.38
  -5  -2   7   39.92    4.82
   5   2  -7   38.57    6.69
  -5  -2   7   36.40    5.28
   5   2  -7   40.57    5.80
  -5  -2   7   33.81    5.02
  -5  -2   7   42.87    6.22
   5   2  -6   26.39    5.25
  -5  -2   6   30.56    4.23
  -5  -2   6   36.73    5.27
   5   2  -6   30.33    5.09
  -5  -2   6   27.09    4.59
  -5  -2   6   28.51    5.01
   5   2  -5    3.81    2.05
  -5  -2   5    3.64    1.37
  -5  -2   5    5.35    1.89
   5   2  -5    2.24    1.33
  -5  -2   5    4.18    1.85
  -5  -2   5    5.05    2.01
   5   2  -4   16.26    3.94
   5   2  -4   13.69    3.53
  -5  -2   4   15.22    3.39
  -5  -2   4   18.67    3.80
  -5  -2   4   11.25    2.83
  -5  -2   3   63.06    7.31
  -5  -2   3   71.40    7.52
   5   2  -3   65.19    7.67
  -5  -2   3   66.40    6.67
  -5  -2   2    7.41    2.76
   5   2  -2    5.06    2.26
  -5  -2   2    7.53    2.61
  -5  -2   2    7.06    2.00
   5   2  -1    0.53    1.83
  -5  -2   1    0.09    1.00
  -5  -2   1    0.24    0.74
  -5  -2   1    1.36    0.54
   5   2  -1    0.19    1.31
   5   2   0   15.64    4.49
  -5  -2   0   15.36    3.56
   5   2   0   13.63    3.67
  -5  -2   0   16.58    3.56
  -5  -2   0   19.01    3.02
   5   2   1   19.71    5.04
   5   2   1   14.28    3.45
  -5  -2  -1   21.72    4.27
  -5  -2  -1   24.71    3.09
   5   2   2    1.07    1.31
  -5  -2  -2    0.28    0.87
  -5  -2  -2    0.46    0.61
   5   2   3    1.18    1.20
   5   2   3    2.64    1.50
  -5  -2  -3    2.47    0.96
  -5  -2  -3    1.43    1.11
  -5  -2  -3    2.30    0.82
   5   2   4   38.06    7.07
  -5  -2  -4   40.57    5.51
   5   2   4   32.68    4.95
  -5  -2  -4   33.42    4.22
   5   2   5    0.18    1.14
  -5  -2  -5    1.74    1.37
  -5  -2  -5   -0.27    0.94
   5   2   5    1.65    2.20
   5   2   5    0.98    1.22
  -5  -2  -6  257.00   14.39
   5   2   6  282.65   15.83
   5   2   6  258.13   20.69
  -5  -2  -6  273.56   13.32
   5   2   6  292.08   20.77
   5   2   7    3.56    1.71
  -5  -2  -7    5.16    1.57
  -5  -2  -7    3.76    1.44
   5   2   7    2.65    1.42
   5   2   8   13.15    3.21
  -5  -2  -8   15.58    2.83
  -5  -2  -8   17.33    2.99
   5   2   8    8.93    3.62
   5   2   9   23.80    4.41
  -5  -2  -9   28.65    3.89
   5   2   9   21.59    5.69
  -5  -2  -9   27.69    3.51
   5   2  10    1.83    1.39
  -5  -2 -10    5.51    1.73
  -5  -2 -10    2.55    1.03
   5   2  11    5.40    2.47
  -5  -2 -11    2.45    1.22
   5   2  11    6.84    3.50
   5   2  12    3.44    1.75
  -5  -2 -12    0.97    0.51
   5   2  12    1.25    1.34
  -5  -2 -13    1.18    0.82
   5   3 -16    3.93    3.33
  -5  -3  16    0.56    1.56
   5   3 -15   28.68    7.68
  -5  -3  15   26.22    5.75
   5   3 -14  149.05   16.52
  -5  -3  14  168.17   14.74
  -5  -3  14  157.09    9.01
  -5  -3  13   12.76    2.48
   5   3 -13    8.82    3.61
  -5  -3  13   11.81    3.76
  -5  -3  12    6.14    1.57
  -5  -3  12    5.31    1.82
   5   3 -12    5.30    2.61
  -5  -3  12    0.96    1.07
   5   3 -11   -1.19    1.91
  -5  -3  11    0.40    0.55
  -5  -3  11    0.96    0.85
  -5  -3  11   -0.17    1.38
   5   3 -10   35.78    7.22
  -5  -3  10   31.15    4.03
  -5  -3  10   23.49    3.83
   5   3 -10   36.65    4.69
  -5  -3  10   32.63    6.01
  -5  -3   9   30.67    4.55
  -5  -3   9   30.26    3.76
   5   3  -9   32.82    6.71
  -5  -3   9   32.24    4.33
   5   3  -9   30.95    4.70
  -5  -3   9   36.72    6.07
   5   3  -8    6.18    2.69
  -5  -3   8    4.97    1.54
  -5  -3   8    5.72    1.92
  -5  -3   8    3.44    1.63
   5   3  -8    4.23    2.15
  -5  -3   8    2.57    1.59
  -5  -3   7  116.21    9.52
   5   3  -7  122.85   12.73
  -5  -3   7  137.80    8.65
  -5  -3   7  124.79    9.41
   5   3  -7  128.47   10.82
  -5  -3   7  135.17   11.22
  -5  -3   6   39.72    5.46
  -5  -3   6   29.95    3.94
   5   3  -6   41.87    7.08
  -5  -3   6   38.62    5.22
   5   3  -6   33.09    5.47
  -5  -3   6   37.16    5.56
   5   3  -5    0.69    1.55
  -5  -3   5    0.51    0.51
  -5  -3   5   -0.27    1.25
  -5  -3   5    3.38    1.99
   5   3  -4   10.32    3.41
  -5  -3   4   13.66    3.23
   5   3  -4   15.27    3.78
  -5  -3   4   10.73    2.92
  -5  -3   4   11.92    3.00
  -5  -3   3  246.55   14.96
   5   3  -3  237.95   16.07
   5   3  -3  238.34   16.26
  -5  -3   3  269.90   14.50
  -5  -3   3  232.12    9.17
  -5  -3   2  123.39   10.25
   5   3  -2  116.05   11.28
  -5  -3   2  136.67    9.57
  -5  -3   2  145.14    7.83
  -5  -3   1   32.18    4.93
  -5  -3   1   30.86    4.05
   5   3   0   17.51    4.82
   5   3   0   14.83    3.71
  -5  -3   0   16.16    2.76
  -5  -3   0   11.71    2.97
  -5  -3  -1  105.00    9.28
   5   3   1   91.99    9.62
  -5  -3  -1  117.82    7.38
   5   3   1  109.36   12.78
   5   3   2   16.43    5.28
   5   3   2    8.38    2.94
  -5  -3  -2   12.50    3.25
  -5  -3  -2    8.92    1.85
  -5  -3  -2    6.77    1.86
   5   3   3   13.61    4.23
   5   3   3   12.76    3.43
  -5  -3  -3   15.58    2.66
  -5  -3  -3   12.48    2.00
  -5  -3  -3   10.93    2.70
   5   3   4   47.41    8.22
  -5  -3  -4   43.76    5.56
   5   3   4   35.70    5.48
  -5  -3  -4   43.55    4.50
   5   3   5    0.50    1.17
  -5  -3  -5    0.73    1.27
  -5  -3  -5    1.40    1.01
   5   3   5   -1.67    2.19
   5   3   6  221.88   14.87
  -5  -3  -6  225.46   11.18
   5   3   6  220.71   18.57
  -5  -3  -6  226.71   12.53
   5   3   7   97.73    9.51
  -5  -3  -7   93.91    6.91
   5   3   7   98.14   12.28
  -5  -3  -7  101.74    7.59
   5   3   8   35.76    5.65
  -5  -3  -8   31.62    3.96
   5   3   8   24.46    6.01
  -5  -3  -8   30.83    3.92
   5   3   9    7.34    2.51
  -5  -3  -9   13.18    2.32
  -5  -3  -9    7.12    1.75
   5   3   9    8.39    3.85
   5   3  10    0.05    1.04
  -5  -3 -10    0.38    0.56
   5   3  11   12.58    3.61
  -5  -3 -11   12.82    2.81
   5   3  11   21.42    5.84
   5   3  12    2.22    2.19
  -5  -3 -12    1.27    1.26
  -5  -3 -13    2.47    1.36
   5   4 -15   31.09    7.91
  -5  -4  15   29.87    6.32
  -5  -4  15   32.67    3.93
  -5  -4  14    6.81    1.81
   5   4 -14    7.20    3.93
  -5  -4  14    5.96    2.64
  -5  -4  13    6.48    1.80
   5   4 -13    5.38    2.76
  -5  -4  13    5.59    2.73
  -5  -4  12   10.84    2.49
   5   4 -12   18.85    5.76
  -5  -4  12   13.58    4.38
   5   4 -11   16.58    5.42
  -5  -4  11   20.49    3.44
  -5  -4  11   22.85    5.14
   5   4 -10    0.71    2.11
  -5  -4  10    2.43    1.34
  -5  -4  10    2.02    1.99
   5   4  -9    6.47    3.56
  -5  -4   9    6.56    2.27
  -5  -4   9    2.26    0.99
   5   4  -9    2.00    1.51
  -5  -4   9    6.07    3.57
   5   4  -8  261.96   20.59
  -5  -4   8  270.76   11.92
   5   4  -8  273.15   16.33
  -5  -4   8  319.09   18.79
  -5  -4   8  270.77   14.80
   5   4  -7   11.44    4.35
  -5  -4   7   16.60    2.53
  -5  -4   7   15.04    3.15
   5   4  -7   16.49    3.97
  -5  -4   7   12.92    3.53
   5   4  -6   21.78    5.54
  -5  -4   6   21.01    3.99
   5   4  -6   17.20    3.93
  -5  -4   6   23.44    4.52
  -5  -4   5   96.86    8.57
   5   4  -5  105.65   11.62
   5   4  -5   96.41    9.82
  -5  -4   5  115.42    9.99
  -5  -4   4   30.54    3.66
   5   4  -4   25.60    5.63
  -5  -4   4   29.95    4.70
   5   4  -4   28.79    5.45
  -5  -4   4   26.03    4.46
  -5  -4   4   27.99    2.65
  -5  -4   3    0.15    0.56
  -5  -4   3    3.35    1.88
  -5  -4   3    0.80    1.28
  -5  -4   3    0.97    0.73
   5   4  -2   -1.46    2.02
  -5  -4   2    0.52    0.82
  -5  -4   2    1.90    1.31
  -5  -4   2   -0.67    0.58
  -5  -4   1  503.39   22.12
   5   4  -1  508.79   26.45
  -5  -4   1  495.70   20.37
  -5  -4   1  461.13   19.75
   5   4   0    4.84    2.27
   5   4   0    3.04    1.85
  -5  -4   0    2.63    1.52
  -5  -4   0    1.90    0.92
  -5  -4   0    1.00    0.82
   5   4   1    2.27    2.64
   5   4   1    1.20    1.03
  -5  -4  -1    1.89    1.38
  -5  -4  -1    0.40    0.57
  -5  -4  -1    2.75    1.24
   5   4   2   47.56    6.86
   5   4   2   46.34    8.77
  -5  -4  -2   41.84    4.09
  -5  -4  -2   42.91    4.52
  -5  -4  -2   41.01    5.27
  -5  -4  -3    1.48    1.46
  -5  -4  -3    1.47    0.88
   5   4   4   99.22   10.02
  -5  -4  -4  110.46    6.80
   5   4   4  113.71   13.76
  -5  -4  -4  100.81    8.25
   5   4   5   13.03    3.97
  -5  -4  -5   10.24    2.54
  -5  -4  -5   13.13    2.22
   5   4   5   10.04    4.39
   5   4   6   61.51    7.91
  -5  -4  -6   70.00    5.40
   5   4   6   78.96   11.46
  -5  -4  -6   64.23    6.12
   5   4   7   14.38    3.76
  -5  -4  -7   10.47    2.25
  -5  -4  -7   13.32    2.36
   5   4   7   10.72    4.54
   5   4   8    2.43    1.72
  -5  -4  -8    1.07    0.73
  -5  -4  -8    1.50    0.89
   5   4   8    3.18    2.95
   5   4   9    2.28    1.44
  -5  -4  -9    1.02    0.61
  -5  -4  -9    1.03    0.93
   5   4   9    2.19    1.99
   5   4  10    2.61    2.02
  -5  -4 -10    0.05    0.51
   5   4  10    0.61    1.68
   5   4  11    6.76    3.42
  -5  -4 -11   15.09    3.00
   5   4  12   75.45    9.61
  -5  -4 -12   58.15    6.16
  -5  -5  14    0.50    0.75
   5   5 -14    1.45    1.79
  -5  -5  14    0.13    1.66
  -5  -5  13    4.07    1.66
   5   5 -13    5.91    3.29
  -5  -5  13    1.07    2.22
  -5  -5  12   18.16    3.15
   5   5 -12   12.13    4.61
  -5  -5  12   21.84    5.25
  -5  -5  11   27.09    3.95
   5   5 -11   33.61    7.99
  -5  -5  11   36.66    6.64
   5   5 -10   -0.10    1.89
  -5  -5  10   -0.39    0.75
  -5  -5  10   -1.51    0.98
   5   5  -9   90.36   12.60
  -5  -5   9   76.62    5.05
  -5  -5   9   81.60    9.39
  -5  -5   9   74.83    7.05
  -5  -5   8   28.21    2.93
   5   5  -8   36.18    7.86
   5   5  -8   30.72    5.10
  -5  -5   8   36.72    6.00
  -5  -5   8   35.14    4.76
   5   5  -7   -0.96    2.13
  -5  -5   7    0.94    1.12
   5   5  -7   -0.03    1.37
  -5  -5   7   -0.71    1.20
   5   5  -6   -0.86    1.60
  -5  -5   6    1.84    1.18
   5   5  -6    2.07    1.27
  -5  -5   6    2.59    1.90
   5   5  -5   -1.24    1.35
  -5  -5   5    0.45    0.36
  -5  -5   5    0.24    1.25
   5   5  -5   -2.10    1.63
  -5  -5   5    0.91    1.36
  -5  -5   5   -0.72    0.58
   5   5  -4    5.82    3.16
  -5  -5   4    5.41    1.36
  -5  -5   4    9.41    2.65
  -5  -5   4    5.60    2.12
  -5  -5   4    5.72    1.59
   5   5  -3   -0.54    1.56
  -5  -5   3    0.71    0.68
  -5  -5   3    1.53    1.59
  -5  -5   3    0.97    1.04
  -5  -5   3    1.33    1.00
   5   5  -2    4.04    2.82
  -5  -5   2    0.65    0.44
  -5  -5   2    4.53    1.92
  -5  -5   2    0.99    0.89
  -5  -5   2    3.04    1.43
   5   5  -1   32.59    7.30
   5   5  -1   42.98    7.23
  -5  -5   1   32.28    3.20
  -5  -5   1   43.11    5.39
  -5  -5   1   42.82    5.33
  -5  -5   1   41.24    5.41
   5   5   0   61.66    8.39
   5   5   0   69.60   10.96
  -5  -5   0   57.78    4.28
  -5  -5   0   58.16    6.19
  -5  -5   0   55.56    6.64
  -5  -5   0   55.44    6.21
   5   5   1    6.83    3.20
   5   5   1   10.99    3.56
  -5  -5  -1    7.09    2.23
  -5  -5  -1    9.28    1.67
  -5  -5  -1    4.35    1.67
  -5  -5  -1    6.13    2.31
   5   5   2   -0.40    2.11
   5   5   2    0.88    1.25
  -5  -5  -2    0.63    1.19
  -5  -5  -2    4.38    1.63
   5   5   3    9.24    3.77
   5   5   3   13.45    3.80
  -5  -5  -3   13.38    2.95
  -5  -5  -3   11.08    1.79
   5   5   4  171.47   14.02
  -5  -5  -4  172.26    8.19
   5   5   4  183.47   18.32
  -5  -5  -4  171.77   10.84
   5   5   5  141.54   12.65
  -5  -5  -5  135.45    7.29
   5   5   5  144.51   15.99
  -5  -5  -5  133.44    9.16
   5   5   6   -0.44    1.36
  -5  -5  -6    1.17    0.92
  -5  -5  -6    0.86    0.85
   5   5   6    1.33    2.63
   5   5   7   10.28    3.59
  -5  -5  -7   14.42    2.87
  -5  -5  -7   14.79    2.49
   5   5   7    9.67    3.77
   5   5   8    6.69    3.12
  -5  -5  -8    2.45    1.12
  -5  -5  -8    4.16    1.49
   5   5   8   -0.05    2.33
   5   5   9   25.18    5.74
  -5  -5  -9   22.22    3.38
   5   5   9   33.41    7.91
   5   5  10    4.00    2.58
   5   5  11   53.92    8.43
  -5  -6  14   25.59    3.88
  -5  -6  13   30.40    4.27
   5   6 -13   23.07    7.01
  -5  -6  13   18.67    4.90
  -5  -6  12    5.19    1.76
   5   6 -12    3.23    1.82
  -5  -6  12    2.69    1.93
  -5  -6  11    4.77    1.71
   5   6 -11    6.45    3.87
  -5  -6  11    7.43    2.99
   5   6 -10   52.11    9.92
  -5  -6  10   44.76    7.35
  -5  -6  10   43.16    5.20
   5   6  -9   31.64    7.74
  -5  -6   9   29.87    5.83
  -5  -6   9   32.96    4.65
   5   6  -8   25.20    6.37
  -5  -6   8   25.76    4.04
  -5  -6   8   17.88    4.36
   5   6  -7   18.61    5.96
  -5  -6   7   31.40    4.60
  -5  -6   7   28.99    5.51
   5   6  -6    6.15    3.53
  -5  -6   6    4.96    1.87
  -5  -6   6    6.24    2.71
   5   6  -5    7.46    3.17
   5   6  -5    3.32    1.05
  -5  -6   5    2.73    1.50
  -5  -6   5    4.05    2.09
  -5  -6   5    4.73    1.65
   5   6  -4  191.06   16.71
  -5  -6   4  162.96   12.60
  -5  -6   4  153.96    9.49
  -5  -6   4  155.65   10.89
   5   6  -3  159.30   15.20
  -5  -6   3  163.28   12.16
  -5  -6   3  143.85    9.73
  -5  -6   3  157.17   10.97
   5   6  -2  157.69   14.70
  -5  -6   2  156.83    6.17
  -5  -6   2  144.57   11.23
  -5  -6   2  146.63   10.39
  -5  -6   2  163.61   11.11
   5   6  -1  157.51   14.49
  -5  -6   1  154.16    5.90
  -5  -6   1  134.02   10.65
   5   6  -1  153.12   16.74
  -5  -6   1  136.97   10.67
  -5  -6   1  145.30   10.46
   5   6   0  100.30   11.07
   5   6   0   84.37   12.59
  -5  -6   0   93.96    4.37
  -5  -6   0   97.12    8.56
  -5  -6   0   82.74    8.61
  -5  -6   0   87.07    7.90
   5   6   1    0.30    0.79
  -5  -6  -1   -0.59    0.57
  -5  -6  -1    1.82    1.67
   5   6   2   48.03    9.54
   5   6   2   52.40    7.89
  -5  -6  -2   52.18    5.90
  -5  -6  -2   48.15    7.38
   5   6   3   33.22    8.10
   5   6   3   26.99    5.51
  -5  -6  -3   24.04    3.91
  -5  -6  -3   20.17    5.24
   5   6   4   84.91   12.65
   5   6   4   80.22    9.71
  -5  -6  -4   56.43    5.93
   5   6   5  210.87   16.37
   5   6   5  215.92   20.19
  -5  -6  -5  201.97   11.79
   5   6   6    9.73    3.45
  -5  -6  -6    5.52    2.07
   5   6   6    9.70    4.09
  -5  -6  -7    9.79    2.49
   5   6   7    4.12    3.96
  -5  -6  -8    0.46    0.54
   5   6   8   -0.34    2.25
  -5  -7  14   10.62    2.67
  -5  -7  13    1.28    1.13
  -5  -7  12   -0.50    0.57
  -5  -7  11    1.28    1.43
   5   7 -11   -2.47    2.43
  -5  -7  11    3.11    2.29
  -5  -7  10   14.19    3.06
   5   7 -10    9.91    4.63
  -5  -7  10   17.52    4.68
   5   7  -9   75.37   12.19
  -5  -7   9   72.73    9.37
  -5  -7   9   81.95    7.54
   5   7  -8   99.01   12.50
   5   7  -8   82.78   12.57
  -5  -7   8   95.70   10.62
  -5  -7   8  105.38    8.71
   5   7  -7   -0.62    1.31
   5   7  -7   -0.23    2.02
  -5  -7   7    0.15    0.65
  -5  -7   7    1.45    1.62
   5   7  -6    8.36    3.27
   5   7  -6   10.77    4.07
  -5  -7   6   13.08    3.10
  -5  -7   6    8.45    3.27
   5   7  -5   15.30    4.96
   5   7  -5   21.38    6.01
  -5  -7   5   19.72    3.69
  -5  -7   5   20.18    5.89
   5   7  -4    1.16    1.23
  -5  -7   4    0.65    0.81
  -5  -7   4    1.15    1.27
   5   7  -3   95.01   11.68
  -5  -7   3   95.70    9.68
  -5  -7   3   85.24    7.91
  -5  -7   3   92.27    8.32
   5   7  -2  106.60   12.28
  -5  -7   2   94.84    9.43
  -5  -7   2  100.09    8.96
  -5  -7   2   97.33    8.46
   5   7  -1    4.61    2.62
   5   7  -1    3.89    2.65
  -5  -7   1    4.06    1.78
  -5  -7   1    1.77    1.49
  -5  -7   1    2.39    2.08
   5   7   0    2.92    2.41
   5   7   0    1.54    1.21
  -5  -7   0   -0.93    1.07
  -5  -7   0    4.19    2.17
   5   7   1    6.25    3.22
  -5  -7  -1    4.58    1.86
  -5  -7  -1    3.36    1.93
   5   7   2   34.65    8.57
   5   7   2   30.31    6.21
  -5  -7  -2   36.16    5.01
  -5  -7  -2   26.82    5.77
   5   7   3   45.27    9.74
   5   7   3   34.50    6.71
  -5  -7  -3   34.02    4.79
  -5  -7  -3   34.47    6.90
   5   7   4  105.35   11.86
  -5  -7  -4   78.82   11.12
  -5  -7  -4  102.75    8.45
   5   7   5    3.27    2.22
  -5  -7  -5    4.94    1.93
  -5  -7  -5    5.61    3.18
   5   7   5    4.73    3.85
  -5  -7  -6    1.59    0.59
  -5  -7  -6    2.73    2.73
   5   7   6    4.52    3.52
  -5  -7  -7    3.02    1.38
  -5  -7  -7    8.08    4.03
  -5  -8  12   20.76    3.93
   5   8 -11   32.05    7.28
  -5  -8  11   25.36    4.37
   5   8 -10   29.66    7.29
  -5  -8  10   24.47    4.28
   5   8  -9    0.29    1.71
  -5  -8   9    0.82    0.92
   5   8  -9   -0.27    1.64
  -5  -8   9    3.60    2.70
   5   8  -8    4.80    3.35
   5   8  -8   11.21    4.88
  -5  -8   8   10.25    2.84
  -5  -8   8    6.41    2.65
   5   8  -7    2.62    1.91
   5   8  -7    0.62    2.09
  -5  -8   7    2.04    1.54
  -5  -8   7    0.62    1.77
   5   8  -6    2.55    2.80
   5   8  -6    2.02    2.21
  -5  -8   6   -0.87    1.11
  -5  -8   6   -1.60    1.70
   5   8  -5   14.07    4.81
   5   8  -5    9.08    4.32
  -5  -8   5   11.58    2.99
  -5  -8   5   10.09    2.88
   5   8  -4    1.12    2.15
  -5  -8   4    2.78    1.24
  -5  -8   4    1.13    1.86
   5   8  -3    0.45    2.35
  -5  -8   3    3.40    1.68
  -5  -8   3    1.54    2.00
   5   8  -2   -3.35    3.52
  -5  -8   2    2.85    1.65
  -5  -8   2   -0.46    1.53
   5   8  -1   10.40    4.66
   5   8  -1   16.51    4.87
  -5  -8   1    7.55    2.26
   5   8   0   24.72    7.14
   5   8   0   17.59    4.93
  -5  -8   0   17.05    3.46
  -5  -8   0   22.33    4.81
   5   8   1    2.75    2.71
   5   8   1    2.33    1.96
  -5  -8  -1    3.68    1.74
  -5  -8  -1   -0.21    1.68
   5   8   2    6.10    3.67
  -5  -8  -2    8.27    2.57
  -5  -8  -2    8.18    3.23
   5   8   3  107.32   15.52
  -5  -8  -3   82.93   11.02
  -5  -8  -3   92.12    8.38
  -5  -8  -4   27.40    4.53
  -5  -8  -4   19.74    5.50
  -5  -8  -5    0.36    1.79
  -5  -8  -6    0.67    2.15
  -5  -9   7    0.42    1.85
  -5  -9   6    6.66    2.92
  -5  -9   5   -1.97    2.38
  -5  -9   4   33.60    6.46
  -5  -9   3    2.96    1.97
   5   9  -2    4.77    4.57
  -6  13   3   12.93    4.26
  -6  13   2    4.90    2.70
  -6  13  -1    3.34    3.08
  -6  13  -2    4.31    4.29
  -6  13  -3    6.87    3.52
  -6  13  -4   -2.16    3.05
  -6  12   5   22.97    5.99
  -6  12   4   25.82    6.05
  -6  12   3   -0.63    1.18
  -6  12   3    0.26    1.56
   6 -12  -3    3.27    1.92
  -6  12   2   51.24    7.85
  -6  12   2   63.96   11.38
   6 -12  -2   82.26    8.61
  -6  12   1   35.20    6.38
  -6  12   1   41.75    9.32
   6 -12  -1   50.06    6.76
   6 -12  -1   47.43    9.96
  -6  12   0   15.18    3.84
   6 -12   0   25.83    4.86
  -6  12   0   14.80    5.21
   6 -12   0   15.20    5.74
   6 -12   1   22.21    4.39
  -6  12  -1   17.14    5.68
   6 -12   1   22.26    6.75
  -6  12  -2  215.01   21.43
   6 -12   2  267.93   16.20
   6 -12   2  206.87   20.97
  -6  12  -3   34.05    8.42
   6 -12   3   38.01    5.85
  -6  12  -4   -4.13    3.64
   6 -12   4    0.89    1.24
  -6  12  -5   13.31    4.69
   6 -11  -9   19.34    3.71
   6 -11  -8    9.69    2.82
  -6  11   7   47.87    9.04
   6 -11  -7   53.54    6.64
  -6  11   6   13.07    4.57
   6 -11  -6   11.90    3.20
   6 -11  -6    7.80    4.10
  -6  11   5   24.66    5.96
   6 -11  -5   27.54    4.68
  -6  11   5   29.44    7.02
   6 -11  -5   31.56    7.69
  -6  11   4    4.91    2.44
  -6  11   4    0.63    1.23
   6 -11  -4    4.00    3.15
  -6  11   3   19.09    4.61
  -6  11   3   17.64    5.37
   6 -11  -3   24.66    4.52
   6 -11  -3   21.65    6.73
  -6  11   2    0.71    1.23
  -6  11   2   -0.18    2.79
   6 -11  -2    5.70    2.08
   6 -11  -2    4.80    3.42
  -6  11   1    3.09    2.32
  -6  11   1   -1.99    2.22
   6 -11  -1    0.27    1.01
   6 -11  -1   -1.48    1.47
  -6  11   0   -0.89    0.87
   6 -11   0    3.97    1.90
   6 -11   0    4.32    2.30
  -6  11  -1    0.60    1.47
   6 -11   1    3.80    2.22
  -6  11  -1    5.34    2.63
   6 -11   1    0.07    1.84
  -6  11  -2  121.42   14.68
   6 -11   2  120.15   10.42
   6 -11   2  111.65   14.35
  -6  11  -3   52.54    9.62
   6 -11   3   63.03    7.30
   6 -11   3   50.73    9.92
  -6  11  -4    7.42    3.41
   6 -11   4    6.19    2.29
   6 -11   4    7.73    3.87
  -6  11  -5   42.10    8.35
   6 -11   5   51.25    6.55
   6 -11   6    7.46    2.62
  -6  11  -6    2.43    1.41
  -6  11  -6    7.20    3.03
   6 -11   7    0.91    1.14
  -6  11  -7    0.79    1.97
  -6  11  -7    2.51    1.67
   6 -11   8   33.52    5.19
  -6  11  -8   36.97    5.85
   6 -11   9   13.43    3.49
  -6  11  -9   20.16    4.18
  -6  11 -10    2.66    2.08
   6 -11  10    5.22    1.87
   6 -11  11    4.02    1.51
   6 -10 -10    9.42    2.59
   6 -10  -9    5.18    2.14
   6 -10  -9    4.31    3.59
   6 -10  -8   21.09    3.87
  -6  10   8   10.55    4.58
  -6  10   8   22.04    6.25
  -6  10   7   -2.59    2.55
  -6  10   7    2.92    2.72
   6 -10  -7   -0.35    0.84
   6 -10  -7    1.17    1.55
  -6  10   6    0.31    1.07
   6 -10  -6    4.84    2.08
  -6  10   6    1.60    1.69
   6 -10  -6    2.41    2.79
  -6  10   5   12.47    4.01
   6 -10  -5   15.59    3.49
  -6  10   5    9.55    3.55
   6 -10  -5    9.21    3.79
  -6  10   4  130.71   15.08
   6 -10  -4  163.67   11.72
   6 -10  -4  129.44   15.03
  -6  10   4  116.73   12.26
  -6  10   3   10.22    3.51
   6 -10  -3    9.74    2.84
  -6  10   3    7.33    3.68
   6 -10  -3   10.73    4.26
   6 -10  -2   -0.17    1.07
  -6  10   2    0.30    1.26
  -6  10   2    3.24    3.59
   6 -10  -2    2.50    2.40
  -6  10   1   46.37    6.82
  -6  10   1   47.13    8.93
   6 -10  -1   43.74    8.43
   6 -10  -1   41.24    5.98
   6 -10   0   74.42    8.08
  -6  10   0   70.70   10.88
   6 -10   0   67.09   10.63
  -6  10   0   66.61    7.95
  -6  10  -1    2.45    1.81
  -6  10  -1    0.57    2.14
   6 -10   1    0.87    1.22
   6 -10   1    0.91    1.02
  -6  10  -2   18.15    5.50
   6 -10   2   15.25    5.19
   6 -10   2   28.43    4.89
  -6  10  -3   21.62    4.53
  -6  10  -3   18.92    5.43
   6 -10   3   14.18    5.31
   6 -10   3   20.14    4.17
   6 -10   4    2.35    1.49
  -6  10  -4    1.31    1.83
   6 -10   4    1.10    2.00
   6 -10   5   24.11    4.42
  -6  10  -5   34.16    7.20
   6 -10   6    2.37    1.53
  -6  10  -6    1.70    1.64
   6 -10   6    0.69    0.75
   6 -10   7    4.51    1.91
  -6  10  -7    1.58    2.19
  -6  10  -7    3.00    2.09
   6 -10   7    4.26    1.99
  -6  10  -8  129.96   11.29
  -6  10  -8  131.06   13.16
   6 -10   8  123.92   10.01
   6 -10   8  115.06   10.85
  -6  10  -9    0.40    0.86
   6 -10   9   -0.48    0.89
   6 -10   9    0.60    0.83
   6 -10  10   25.89    4.45
  -6  10 -10   30.47    5.16
   6 -10  10   21.91    5.14
   6 -10  11    3.59    1.73
  -6  10 -11    5.00    2.24
   6 -10  11    2.20    2.03
   6 -10  12   -0.42    1.17
   6  -9 -11   19.86    3.45
   6  -9 -11   17.25    5.63
  -6   9  10    7.79    3.78
  -6   9  10    4.58    3.18
   6  -9 -10   12.07    2.81
   6  -9 -10    4.49    2.22
  -6   9   9   44.01    8.66
  -6   9   9   40.47    8.23
   6  -9  -9   56.28    6.13
   6  -9  -9   33.34    7.29
  -6   9   8   28.27    6.84
   6  -9  -8   40.07    5.26
  -6   9   8   34.89    7.51
   6  -9  -8   40.30    8.04
  -6   9   7   -1.28    1.21
  -6   9   7    0.63    1.28
   6  -9  -7    3.14    2.51
   6  -9  -7    1.02    1.14
  -6   9   6   17.48    5.14
  -6   9   6   28.40    6.96
   6  -9  -6   23.86    4.39
   6  -9  -6   20.82    6.16
  -6   9   5    5.50    2.50
  -6   9   5   13.57    4.85
   6  -9  -5   17.97    3.65
   6  -9  -5   12.40    4.07
  -6   9   4   -0.13    1.30
  -6   9   4   -1.18    2.24
   6  -9  -4   -0.75    0.99
   6  -9  -4    1.60    2.16
   6  -9  -3   70.66    7.81
  -6   9   3   69.41   10.70
   6  -9  -3   63.98    9.80
  -6   9   3   66.97    8.67
  -6   9   2   35.63    6.07
   6  -9  -2   41.07    6.05
  -6   9   2   32.12    6.51
  -6   9   2   42.68    8.30
   6  -9  -2   34.49    7.31
  -6   9   1    4.11    2.21
   6  -9  -1   10.48    2.92
  -6   9   1    5.91    2.95
  -6   9   1    7.04    2.75
   6  -9  -1   10.96    4.41
   6  -9   0   75.13    8.25
  -6   9   0   66.11   10.19
   6  -9   0   76.60   10.79
  -6   9   0   58.11    7.23
   6  -9   1  502.55   20.12
  -6   9  -1  488.55   29.89
   6  -9   1  490.63   23.86
   6  -9   1  500.24   29.43
   6  -9   2    7.47    1.83
   6  -9   2    9.25    3.08
  -6   9  -2    3.52    1.76
  -6   9  -3   11.45    2.88
   6  -9   3    9.28    2.72
  -6   9  -3    6.19    3.49
   6  -9   3    8.72    2.08
   6  -9   3    3.23    2.52
  -6   9  -4    0.50    0.52
  -6   9  -4    0.20    1.26
   6  -9   4   -0.10    0.87
   6  -9   4    1.98    1.16
  -6   9  -5    1.70    1.83
  -6   9  -5    5.06    1.99
   6  -9   5    6.15    2.29
   6  -9   5    9.14    2.42
  -6   9  -6    1.68    1.54
   6  -9   6    0.49    1.12
   6  -9   6   -0.82    0.96
  -6   9  -7    8.57    3.62
  -6   9  -7   11.63    3.28
   6  -9   7   11.64    3.06
   6  -9   7    8.63    2.38
   6  -9   8   69.50    7.38
  -6   9  -8   91.48    9.24
  -6   9  -8   83.47   10.12
   6  -9   8   83.22    8.97
   6  -9   9    4.93    1.81
  -6   9  -9    6.97    3.00
  -6   9  -9    8.62    2.81
   6  -9   9    9.88    3.33
   6  -9  10   18.94    3.68
   6  -9  10   21.73    5.08
  -6   9 -10   23.37    4.61
   6  -9  11   14.91    3.15
  -6   9 -11   10.87    3.18
   6  -9  11   14.63    4.32
   6  -9  12   -0.22    1.72
   6  -8 -13    3.75    3.52
  -6   8  12   16.48    5.92
   6  -8 -12   17.12    5.10
   6  -8 -11    7.54    2.22
  -6   8  11    6.83    3.41
   6  -8 -11    5.15    2.64
   6  -8 -10    7.68    2.34
  -6   8  10    2.11    1.92
   6  -8 -10    7.69    3.48
  -6   8   9   -0.54    1.82
  -6   8   9    3.97    1.93
   6  -8  -9    2.61    1.67
   6  -8  -9    1.26    1.13
  -6   8   8   24.17    5.94
  -6   8   8   21.26    5.62
   6  -8  -8   22.72    4.07
   6  -8  -8   22.25    5.54
   6  -8  -7  125.35   10.15
  -6   8   7  109.17   13.39
   6  -8  -7  102.76   12.16
  -6   8   7  107.35   12.68
  -6   8   6   11.40    3.92
   6  -8  -6    9.78    2.89
  -6   8   6   12.35    4.64
   6  -8  -6   10.05    3.88
  -6   8   5  150.88   12.30
   6  -8  -5  118.26   10.40
  -6   8   5  134.01   14.74
   6  -8  -5  111.09   12.57
  -6   8   5  121.27   12.66
  -6   8   4    3.22    2.15
   6  -8  -4    7.18    2.60
  -6   8   4    5.87    3.38
  -6   8   4    5.34    2.89
   6  -8  -4    5.29    2.79
  -6   8   3   84.46    9.01
   6  -8  -3   88.08    9.11
  -6   8   3   82.25   11.47
   6  -8  -3   86.23   10.78
  -6   8   3   75.46    9.15
  -6   8   2   64.13    7.82
   6  -8  -2   71.63    8.30
  -6   8   2   64.01    9.90
   6  -8  -2   58.06    8.73
   6  -8  -1    0.02    0.93
   6  -8  -1   -0.94    0.93
  -6   8   1    0.80    1.09
  -6   8   1    0.13    1.74
   6  -8  -1   -0.48    2.03
   6  -8   0    0.26    1.05
   6  -8   0    1.29    0.93
  -6   8   0    1.10    2.40
  -6   8   0    3.45    2.30
   6  -8   0    0.12    0.35
   6  -8   0   -0.75    1.17
   6  -8   1  648.71   23.72
   6  -8   1  709.59   21.72
   6  -8   1  613.74   28.42
  -6   8  -1  615.75   33.66
  -6   8  -1  641.43   23.07
   6  -8   1  597.04   31.94
  -6   8  -2  103.10    7.46
   6  -8   2   90.68    9.50
  -6   8  -2  100.04   12.20
   6  -8   2   99.70    6.94
  -6   8  -2  116.67    8.86
   6  -8   2   99.30   11.92
   6  -8   3   52.05    4.41
  -6   8  -3   52.86    5.04
   6  -8   3   42.75    6.45
  -6   8  -3   52.95    8.78
   6  -8   3   60.07    5.73
  -6   8  -3   47.84    6.17
   6  -8   3   44.91    8.10
  -6   8  -4   24.72    4.58
   6  -8   4   26.49    2.73
   6  -8   4   29.39    5.08
  -6   8  -4   19.59    2.99
  -6   8  -4   28.94    6.46
   6  -8   4   25.60    4.06
  -6   8  -5    1.62    1.38
   6  -8   5    6.09    2.46
  -6   8  -5    2.67    1.37
  -6   8  -5    1.76    1.65
   6  -8   5    1.24    1.04
   6  -8   6   10.11    2.80
  -6   8  -6   16.75    2.66
  -6   8  -6   19.86    5.00
   6  -8   6   21.87    4.06
  -6   8  -7    3.00    1.53
   6  -8   7    0.47    0.90
  -6   8  -7    3.09    2.03
   6  -8   7    3.99    2.36
  -6   8  -8   28.62    5.12
  -6   8  -8   32.92    6.08
   6  -8   8   31.76    5.01
   6  -8   8   38.93    6.14
  -6   8  -9   16.20    4.02
   6  -8   9   12.20    2.90
   6  -8   9   26.91    5.38
  -6   8  -9   18.27    4.02
  -6   8 -10    3.44    1.41
  -6   8 -10    6.55    2.16
   6  -8  10    8.70    3.24
   6  -8  10    5.08    1.96
   6  -8  11   -0.06    0.60
  -6   8 -11    1.36    1.27
   6  -8  11    1.55    2.02
  -6   8 -12   47.52    6.37
   6  -8  12   41.11    7.71
   6  -7 -15   44.24    8.48
  -6   7  14    6.21    3.81
   6  -7 -14    4.51    3.11
  -6   7  13   68.39   11.08
   6  -7 -13   61.12    9.77
  -6   7  12   11.08    4.52
   6  -7 -12   12.02    3.92
   6  -7 -12   16.22    3.06
  -6   7  11    4.39    3.43
   6  -7 -11    8.34    2.30
   6  -7 -11    6.74    3.15
   6  -7 -10    2.55    1.55
  -6   7  10    1.77    2.08
   6  -7 -10    5.93    3.23
   6  -7  -9   13.15    3.15
  -6   7   9    7.53    4.27
   6  -7  -9   15.82    4.35
   6  -7  -8   26.16    4.55
  -6   7   8   23.64    6.11
   6  -7  -8   22.43    5.20
   6  -7  -7   27.82    4.89
  -6   7   7   24.36    6.06
   6  -7  -7   32.89    6.27
  -6   7   6  112.15   10.28
   6  -7  -6  107.47   10.01
  -6   7   6   93.85   12.10
   6  -7  -6  112.34   11.80
  -6   7   5  126.80   10.51
   6  -7  -5  126.82   11.11
  -6   7   5  102.25   12.39
   6  -7  -5   94.85   10.87
  -6   7   4   96.29    8.91
   6  -7  -4   83.25    9.03
  -6   7   4   84.56   11.39
   6  -7  -4   89.32   10.42
  -6   7   3   14.33    3.17
  -6   7   3   12.28    4.29
   6  -7  -3   14.29    3.71
   6  -7  -3   10.75    3.48
   6  -7  -2   19.28    3.77
  -6   7   2   17.71    3.27
  -6   7   2   19.09    5.50
   6  -7  -2   20.20    4.47
   6  -7  -2   17.99    4.67
   6  -7  -1  329.12   16.72
  -6   7   1  349.87   15.85
   6  -7  -1  344.92   19.94
  -6   7   1  333.43   22.91
   6  -7  -1  348.22   11.72
   6  -7  -1  308.85   20.34
   6  -7   0  109.53    8.47
  -6   7   0   99.18    7.36
   6  -7   0  117.32   11.01
  -6   7   0  105.08   12.41
   6  -7   0  112.54    6.50
   6  -7   0  107.63   11.28
  -6   7  -1   81.26    6.28
   6  -7   1   79.72    9.10
  -6   7  -1   73.76   10.12
   6  -7   1   86.67    6.23
  -6   7  -1   73.42    6.63
   6  -7   1   62.66    8.69
  -6   7  -2   -0.04    0.70
   6  -7   2   -0.16    0.58
  -6   7  -2    0.97    0.71
  -6   7  -2    2.19    2.15
  -6   7  -2    0.75    0.80
   6  -7   2    0.05    0.90
   6  -7   2    0.91    0.86
   6  -7   2   -2.39    1.93
  -6   7  -3    4.32    1.96
   6  -7   3    5.87    1.55
  -6   7  -3    7.16    1.36
  -6   7  -3    3.86    2.14
   6  -7   3    4.29    2.31
   6  -7   3    6.14    1.92
   6  -7   4   60.69    3.90
  -6   7  -4   61.28    3.99
   6  -7   4   57.88    7.64
  -6   7  -4   62.41    9.01
   6  -7   4   54.81    6.23
  -6   7  -4   68.45    7.93
  -6   7  -5   19.85    4.24
   6  -7   5   20.94    1.48
  -6   7  -5   19.60    2.33
  -6   7  -5   21.47    5.44
   6  -7   5   18.44    3.66
   6  -7   5   22.85    4.56
  -6   7  -6    3.15    2.89
  -6   7  -6    8.99    1.78
   6  -7   6   10.48    2.99
   6  -7   6   10.96    2.98
  -6   7  -7  102.32    7.02
  -6   7  -7   87.31    8.95
   6  -7   7   99.25    9.54
  -6   7  -7  106.52   11.44
   6  -7   7  103.72   10.02
  -6   7  -8   63.47    7.60
  -6   7  -8   63.23    8.35
   6  -7   8   55.73    6.82
   6  -7   8   60.77    7.94
   6  -7   9    4.09    1.72
  -6   7  -9    4.31    2.42
  -6   7  -9    3.85    1.83
   6  -7   9    4.23    2.16
  -6   7 -10    0.48    1.06
  -6   7 -10    1.69    1.13
   6  -7  10    3.59    2.42
   6  -7  10    2.85    1.35
  -6   7 -11    3.19    2.14
  -6   7 -11    7.36    2.28
   6  -7  11    6.63    2.13
   6  -7  11    1.50    2.33
  -6   7 -12    2.35    1.28
   6  -7  12    1.45    2.01
   6  -7  13    9.01    3.71
  -6   6  16   43.52    9.33
  -6   6  15    0.24    1.43
   6  -6 -15   -3.20    1.52
  -6   6  14   46.64    9.15
   6  -6 -14   43.07    8.01
  -6   6  13    3.95    3.05
   6  -6 -13   -1.10    2.10
   6  -6 -12    4.73    1.59
  -6   6  12    2.96    2.40
   6  -6 -12    2.76    1.70
   6  -6 -11   17.69    3.44
  -6   6  11    9.36    3.62
   6  -6 -11   21.34    5.27
   6  -6 -10   11.50    3.07
  -6   6  10    4.89    3.00
   6  -6 -10    4.82    2.01
  -6   6   9   44.17    8.27
   6  -6  -9   39.05    5.63
   6  -6  -9   39.21    6.74
  -6   6   8   -0.10    0.98
   6  -6  -8    3.22    1.80
   6  -6  -8    1.03    1.12
  -6   6   7    9.42    3.11
  -6   6   7    9.09    3.74
   6  -6  -7    5.35    2.27
   6  -6  -7    5.01    2.16
  -6   6   6   13.59    3.43
   6  -6  -6   13.46    3.75
  -6   6   6   15.37    4.87
   6  -6  -6   17.64    4.29
  -6   6   5   40.05    5.50
   6  -6  -5   36.40    6.13
  -6   6   5   45.80    8.23
   6  -6  -5   43.83    6.65
   6  -6  -4   -0.15    1.01
  -6   6   4   -0.40    0.91
  -6   6   4   -0.26    1.56
   6  -6  -4    0.78    0.33
   6  -6  -4    0.43    0.29
   6  -6  -4    0.20    1.43
  -6   6   4    3.83    2.45
  -6   6   3  121.72    8.48
   6  -6  -3  131.12   12.02
  -6   6   3  148.58   14.37
   6  -6  -3  138.84    5.97
   6  -6  -3  127.14   11.44
  -6   6   3  139.21   12.46
   6  -6  -3  139.39   11.01
   6  -6  -2    8.25    2.45
   6  -6  -2    6.57    2.90
  -6   6   2    9.77    2.02
  -6   6   2   10.50    3.96
   6  -6  -2    7.73    2.79
   6  -6  -2    9.74    1.70
  -6   6   2    7.85    2.68
  -6   6   1  364.73   13.71
   6  -6  -1  407.12   22.27
  -6   6   1  404.93   24.83
   6  -6  -1  386.95   14.58
   6  -6  -1  343.86   20.29
  -6   6   1  362.76   21.15
   6  -6  -1  370.91   17.88
  -6   6   0  440.34   12.55
   6  -6   0  434.92   22.76
  -6   6   0  428.50   25.15
   6  -6   0  453.95   16.40
   6  -6   0  400.71   22.01
  -6   6   0  451.07   23.55
   6  -6   1   34.28    6.14
  -6   6  -1   35.01    6.77
   6  -6   1   37.56    4.41
   6  -6   1   31.47    6.01
   6  -6   2   54.41    7.64
  -6   6  -2   44.22    7.63
   6  -6   2   53.14    5.69
  -6   6  -2   45.08    5.84
   6  -6   2   53.89    4.91
  -6   6  -3    9.83    3.08
   6  -6   3   11.15    1.94
   6  -6   3   13.77    3.76
  -6   6  -3   12.01    4.10
   6  -6   3   14.26    3.13
   6  -6   4   43.61    3.30
  -6   6  -4   41.19    6.44
   6  -6   4   33.61    5.81
  -6   6  -4   43.84    7.36
   6  -6   4   39.54    5.43
   6  -6   5   49.82    2.44
  -6   6  -5   51.80    7.44
   6  -6   5   43.64    6.74
  -6   6  -5   47.89    7.53
   6  -6   5   46.30    6.29
  -6   6  -5   53.52    6.10
  -6   6  -6    8.82    2.82
   6  -6   6   20.89    4.63
  -6   6  -6   13.48    2.26
  -6   6  -6   11.78    2.66
   6  -6   6    9.39    3.00
  -6   6  -7    7.75    3.17
  -6   6  -7    5.98    2.58
  -6   6  -7    4.50    1.50
  -6   6  -7    2.78    1.24
   6  -6   7    3.24    1.54
   6  -6   7    6.36    2.67
  -6   6  -8   21.29    4.74
  -6   6  -8   17.63    3.58
   6  -6   8   22.65    4.91
   6  -6   8   23.45    4.48
  -6   6  -8   24.45    4.72
  -6   6  -9    9.28    2.99
  -6   6  -9    7.93    3.01
   6  -6   9   12.34    3.57
   6  -6   9   16.48    3.64
   6  -6  10    2.68    1.44
  -6   6 -10    1.90    1.47
  -6   6 -10    3.00    1.89
   6  -6  10    0.88    0.90
   6  -6  11    7.09    2.25
  -6   6 -11   13.75    3.65
  -6   6 -11   14.95    3.62
   6  -6  11   14.63    4.33
  -6   6 -12    4.44    2.10
   6  -6  12    1.78    2.13
   6  -6  13    2.07    2.61
  -6   5  16    6.45    3.96
  -6   5  15   19.56    6.14
   6  -5 -15   24.87    5.79
  -6   5  14    6.33    3.14
   6  -5 -14    6.15    2.58
   6  -5 -13    9.34    2.36
  -6   5  13   15.12    5.33
   6  -5 -13   11.91    4.18
   6  -5 -12   48.74    5.69
  -6   5  12   54.29    9.39
   6  -5 -12   44.25    7.12
   6  -5 -11   60.44    6.78
  -6   5  11   78.40   10.91
   6  -5 -11   59.45    8.05
  -6   5  10    6.18    2.92
   6  -5 -10    7.32    2.71
   6  -5 -10    7.52    2.69
   6  -5  -9   -0.21    1.03
  -6   5   9    0.16    0.98
   6  -5  -9    0.38    0.93
   6  -5  -9    1.10    1.09
  -6   5   8  398.52   21.56
   6  -5  -8  369.74   20.63
  -6   5   8  347.47   23.97
   6  -5  -8  375.68   13.61
   6  -5  -8  364.36   20.42
   6  -5  -7    0.78    1.14
  -6   5   7    0.44    0.86
  -6   5   7   -0.32    1.53
   6  -5  -7    0.63    0.48
   6  -5  -7    1.70    1.49
  -6   5   6   64.17    7.11
   6  -5  -6   58.75    7.88
  -6   5   6   52.36    8.41
   6  -5  -6   56.26    3.83
   6  -5  -6   50.71    4.47
   6  -5  -6   57.42    7.10
   6  -5  -5   -0.39    0.68
   6  -5  -5   -1.33    1.23
  -6   5   5    0.88    1.13
  -6   5   5    0.01    1.27
   6  -5  -5    0.17    0.48
   6  -5  -5    1.10    1.04
   6  -5  -4   -0.50    0.91
   6  -5  -4   -0.50    1.01
  -6   5   4    1.68    1.06
  -6   5   4   -0.72    0.78
   6  -5  -4   -0.90    1.44
  -6   5   4    1.39    1.07
   6  -5  -4   -0.10    0.34
   6  -5  -3   -0.06    0.84
   6  -5  -3   -1.03    2.30
  -6   5   3    0.26    0.43
  -6   5   3    0.87    1.47
   6  -5  -3    0.39    0.99
  -6   5   3    0.33    0.89
   6  -5  -3    0.50    0.60
   6  -5  -2   11.27    2.94
   6  -5  -2    8.89    3.33
  -6   5   2    8.59    1.73
  -6   5   2    4.70    2.38
   6  -5  -2   10.78    3.01
  -6   5   2    5.50    2.33
   6  -5  -2    8.90    2.18
  -6   5   1  196.31    7.08
   6  -5  -1  196.73   15.12
  -6   5   1  188.58   15.96
   6  -5  -1  206.89   11.24
   6  -5  -1  179.49   13.28
  -6   5   1  183.48   13.38
   6  -5  -1  182.08   11.78
   6  -5   0  298.08   19.53
  -6   5   0  334.28   21.34
   6  -5   0  347.44   15.95
   6  -5   0  315.54   18.92
  -6   5   0  308.39   18.33
   6  -5   1   18.28    4.63
  -6   5  -1   16.43    4.57
  -6   5  -1   15.63    3.85
   6  -5   1   16.88    3.40
   6  -5   2  142.16   12.82
  -6   5  -2  163.64   14.43
   6  -5   2  145.19   10.63
  -6   5  -2  142.36   10.92
  -6   5  -2  149.01   12.79
   6  -5   2  161.12    9.37
  -6   5  -3   19.44    4.28
   6  -5   3   21.50    2.96
   6  -5   3   20.68    4.62
  -6   5  -3   14.41    4.20
   6  -5   3   22.34    4.14
  -6   5  -4    3.16    1.96
   6  -5   4    4.05    1.18
   6  -5   4    2.30    1.58
  -6   5  -4    5.12    2.53
   6  -5   4    2.60    1.55
   6  -5   5   15.59    4.16
  -6   5  -5   17.59    3.18
   6  -5   5   17.53    4.14
  -6   5  -5   15.02    4.04
   6  -5   5   14.97    1.74
   6  -5   6    0.86    0.91
  -6   5  -6    2.63    1.80
  -6   5  -6    0.11    0.93
   6  -5   6    0.86    1.17
   6  -5   7   26.84    5.13
  -6   5  -7   29.38    5.58
  -6   5  -7   27.48    4.78
  -6   5  -7   29.04    3.70
   6  -5   7   26.01    5.28
  -6   5  -8    7.46    3.09
   6  -5   8    6.83    2.40
  -6   5  -8    1.71    1.48
   6  -5   8    9.93    3.34
  -6   5  -9    4.87    2.56
  -6   5  -9    3.16    1.62
   6  -5   9    4.30    2.19
   6  -5   9    1.54    1.27
  -6   5 -10    0.54    0.98
  -6   5 -10   -0.40    0.81
   6  -5  10    0.44    0.82
   6  -5  10    0.56    1.43
   6  -5  11   13.64    2.87
  -6   5 -11    9.84    3.00
   6  -5  11    6.98    3.27
  -6   5 -12   42.13    5.74
   6  -5  12   28.18    6.27
   6  -5  13   35.74    7.53
  -6   4  16   14.98    4.65
  -6   4  15   -0.08    2.29
   6  -4 -15    1.68    1.51
  -6   4  14    5.43    2.89
   6  -4 -14    9.86    6.64
   6  -4 -14    1.57    1.49
  -6   4  13   -1.87    2.28
   6  -4 -13   -0.47    0.86
   6  -4 -13    0.89    0.97
   6  -4 -12   13.86    3.27
  -6   4  12   16.41    5.11
   6  -4 -12    3.07    3.97
   6  -4 -12   10.98    3.18
   6  -4 -11   10.04    2.85
  -6   4  11    5.67    2.83
   6  -4 -11    2.09    4.08
   6  -4 -11    8.10    2.76
   6  -4 -10    5.92    2.53
  -6   4  10    8.70    3.26
   6  -4 -10    6.04    4.50
   6  -4 -10    3.09    1.63
   6  -4  -9   47.25    6.84
  -6   4   9   54.52    8.74
   6  -4  -9   61.46   11.29
   6  -4  -9   41.95    5.93
  -6   4   8   60.07    7.59
   6  -4  -8   65.50    8.18
  -6   4   8   58.64    8.95
   6  -4  -8   67.49    5.31
   6  -4  -8   58.57   10.02
   6  -4  -8   62.88    6.99
  -6   4   7   71.26    7.92
   6  -4  -7   67.14    8.51
   6  -4  -7   74.05   10.73
  -6   4   7   63.89    9.14
   6  -4  -7   69.05    5.27
   6  -4  -7   74.27    7.43
  -6   4   6    5.73    2.15
  -6   4   6    4.26    2.22
   6  -4  -6    4.69    1.88
   6  -4  -6    7.78    3.29
   6  -4  -5    8.59    2.19
  -6   4   5    8.07    2.12
  -6   4   5    6.64    2.62
   6  -4  -5    8.08    2.31
   6  -4  -5   11.37    3.13
   6  -4  -4   32.91    5.33
  -6   4   4   27.55    3.70
  -6   4   4   28.30    6.19
   6  -4  -4   27.46    3.98
   6  -4  -4   25.46    4.19
   6  -4  -4   23.05    4.78
   6  -4  -3   21.93    3.53
   6  -4  -3   29.25    4.91
  -6   4   3   19.46    2.80
  -6   4   3   17.53    4.55
   6  -4  -3   18.37    3.61
   6  -4  -3   23.44    4.94
  -6   4   2   44.24    3.31
  -6   4   2   35.41    6.58
   6  -4  -2   40.18    5.06
   6  -4  -2   43.12    5.79
   6  -4  -2   45.12    5.76
  -6   4   1   69.05    9.17
   6  -4  -1   75.43    6.99
   6  -4  -1   63.28    6.63
  -6   4   0   41.83    7.07
   6  -4   0   47.02    5.73
  -6   4   0   40.88    5.75
  -6   4  -1   14.18    4.00
  -6   4  -1   20.98    4.27
   6  -4   1   18.20    4.31
   6  -4   1   19.00    3.85
   6  -4   2   11.06    2.38
  -6   4  -2   11.50    2.99
  -6   4  -2   11.93    3.64
  -6   4  -2   19.14    4.22
   6  -4   2   12.03    3.47
   6  -4   2   11.41    3.07
  -6   4  -3   40.86    6.20
  -6   4  -3   42.18    6.92
   6  -4   3   51.18    6.68
  -6   4  -3   47.26    6.82
   6  -4   3   40.80    6.60
   6  -4   3   45.36    4.63
   6  -4   4   61.87    8.27
  -6   4  -4   62.79    8.44
   6  -4   4   74.25    8.41
  -6   4  -4   58.43    7.90
   6  -4   4   70.53    5.45
   6  -4   5    2.47    1.46
   6  -4   5    1.80    0.74
   6  -4   5    1.93    0.85
  -6   4  -5    0.48    1.12
  -6   4  -5    1.50    1.04
   6  -4   5    0.95    1.27
   6  -4   6   59.71    3.46
   6  -4   6   56.66    7.75
  -6   4  -6   52.09    7.52
  -6   4  -6   52.67    4.67
   6  -4   6   54.26    7.75
   6  -4   6   58.73    3.93
   6  -4   7   57.28    2.53
   6  -4   7   59.77    7.90
  -6   4  -7   47.59    6.29
  -6   4  -7   59.43    8.07
   6  -4   7   59.27    8.16
  -6   4  -7   61.35    4.86
   6  -4   7   61.71    2.87
   6  -4   8   -1.02    1.31
   6  -4   8    1.52    0.90
  -6   4  -8    1.37    1.44
  -6   4  -8   -0.80    1.66
   6  -4   8   -0.52    0.80
   6  -4   9    3.29    2.06
  -6   4  -9    1.52    1.84
  -6   4  -9    0.19    1.23
   6  -4   9    2.86    2.73
   6  -4  10   13.00    3.28
  -6   4 -10   15.92    3.54
   6  -4  10   14.56    4.49
  -6   4 -11    1.72    1.70
   6  -4  11   -1.11    1.06
   6  -4  11    1.28    1.05
  -6   4 -12   58.46    6.82
   6  -4  12   60.91    9.30
   6  -4  13   40.76    8.28
  -6   3  16    4.15    2.13
   6  -3 -16   13.95    8.28
  -6   3  15   15.32    4.76
   6  -3 -15   32.51   10.74
  -6   3  14   10.90    4.01
   6  -3 -14    7.46    4.75
   6  -3 -14   10.04    3.14
   6  -3 -13    0.71    1.14
  -6   3  13    3.26    2.80
   6  -3 -13    5.34    5.15
   6  -3 -13   -0.34    0.59
   6  -3 -12    0.27    1.08
  -6   3  12    3.30    2.47
   6  -3 -12    3.34    3.07
   6  -3 -12   -0.58    1.04
   6  -3 -11   49.65    6.88
  -6   3  11   44.90    7.86
   6  -3 -11   44.11    5.05
   6  -3 -11   41.45    9.30
   6  -3 -11   40.88    5.59
   6  -3 -10   62.90    7.85
  -6   3  10   48.27    8.06
   6  -3 -10   52.31    5.52
   6  -3 -10   54.24    9.80
   6  -3 -10   64.58    6.83
  -6   3   9   10.42    3.50
   6  -3  -9   15.21    5.06
   6  -3  -9   10.21    2.39
   6  -3  -9   14.82    3.87
   6  -3  -9    8.12    2.44
  -6   3   8   42.89    6.39
  -6   3   8   41.99    7.31
   6  -3  -8   41.77    7.52
   6  -3  -8   44.00    5.34
  -6   3   7   83.07    8.44
   6  -3  -7   83.37   10.05
  -6   3   7   84.37   10.44
   6  -3  -7   87.24    7.23
  -6   3   6   41.81    5.47
  -6   3   6   44.79    7.31
   6  -3  -6   40.46    4.75
  -6   3   5  334.06   15.47
   6  -3  -5  296.33   17.24
  -6   3   5  304.00   20.16
   6  -3  -5  286.43   14.26
   6  -3  -4   -0.61    1.11
   6  -3  -4   -0.30    0.85
  -6   3   4    0.93    0.92
  -6   3   4    0.55    1.25
   6  -3  -4   -0.35    1.04
   6  -3  -4    1.48    1.14
   6  -3  -4    0.60    1.03
  -6   3   4   -0.05    0.77
   6  -3  -3   11.72    3.14
   6  -3  -3   23.96    4.30
  -6   3   3   18.61    2.57
  -6   3   3   20.69    5.24
   6  -3  -3   19.04    4.72
   6  -3  -3   15.93    3.14
   6  -3  -3   21.34    3.80
  -6   3   3   20.92    3.44
  -6   3   2  647.69   31.62
   6  -3  -2  750.16   32.39
   6  -3  -2  725.07   28.39
  -6   3   2  697.23   26.27
   6  -3  -2  662.90   28.07
   6  -3  -1    0.73    0.81
  -6   3   1    1.55    2.58
   6  -3  -1    0.99    0.82
  -6   3   1    0.24    1.19
  -6   3   0   37.56    6.72
   6  -3   0   31.64    5.15
  -6   3  -1   87.82    9.74
   6  -3   1   86.08    8.53
  -6   3  -2   41.27    6.77
  -6   3  -2   39.23    5.80
   6  -3   2   37.08    5.75
  -6   3  -3    9.45    2.90
  -6   3  -3   16.09    4.12
  -6   3  -3   14.87    3.72
   6  -3   3   15.41    3.77
  -6   3  -4    4.41    2.00
  -6   3  -4    5.60    2.33
   6  -3   4    1.60    1.52
   6  -3   5   10.08    2.00
  -6   3  -5   12.76    3.74
  -6   3  -5    8.28    1.65
   6  -3   5   13.31    3.81
   6  -3   6   11.14    1.88
   6  -3   6    9.10    1.74
  -6   3  -6   13.03    3.72
  -6   3  -6    9.85    1.79
   6  -3   6   16.07    4.48
   6  -3   7    1.47    0.66
   6  -3   7    1.65    0.88
  -6   3  -7    1.95    1.79
  -6   3  -7    0.53    0.81
  -6   3  -7    0.46    0.43
   6  -3   7   -0.81    1.66
   6  -3   8    6.00    2.50
   6  -3   8    6.56    1.25
   6  -3   8    6.16    2.07
  -6   3  -8    5.95    2.56
  -6   3  -8    8.14    2.77
   6  -3   8    6.89    2.66
   6  -3   9    0.57    1.59
  -6   3  -9    1.14    0.95
   6  -3   9    4.37    2.89
   6  -3  10   21.69    4.36
  -6   3 -10   21.00    4.19
   6  -3  10   25.87    5.96
   6  -3  11   20.59    4.02
  -6   3 -11   17.31    3.72
   6  -3  11   16.36    4.72
  -6   3 -12    2.62    1.39
   6  -3  12    3.24    1.93
   6  -2 -16   26.77    8.45
  -6   2  15  109.64   12.16
   6  -2 -15   92.11   15.32
  -6   2  14   20.67    5.19
   6  -2 -14   17.85    6.62
   6  -2 -13    1.93    1.81
  -6   2  13    1.48    1.47
   6  -2 -13   -0.96    2.88
   6  -2 -13    0.63    1.06
   6  -2 -12   75.60    8.26
  -6   2  12   76.39   10.00
   6  -2 -12   68.06   11.04
   6  -2 -12   75.32    7.22
  -6   2  11    3.58    2.55
   6  -2 -11    3.10    2.97
   6  -2 -11    0.88    1.30
  -6   2  10   46.22    7.49
   6  -2 -10   46.72    5.60
   6  -2 -10   46.31    7.81
   6  -2 -10   38.94    4.69
   6  -2  -9   64.60    8.98
  -6   2   9   67.85    9.25
   6  -2  -9   54.05    6.11
   6  -2  -9   50.02    5.10
  -6   2   8    8.69    3.03
  -6   2   8   10.38    3.61
   6  -2  -8    9.28    3.03
   6  -2  -8   10.54    2.54
   6  -2  -8    7.97    1.86
  -6   2   7   41.62    5.92
  -6   2   7   32.86    6.20
   6  -2  -7   36.58    5.82
   6  -2  -7   42.43    6.28
   6  -2  -7   39.28    4.08
  -6   2   6    0.62    0.74
  -6   2   6    0.13    1.04
   6  -2  -6   -0.08    1.46
   6  -2  -6    1.13    0.79
  -6   2   5   10.60    2.35
   6  -2  -5    9.36    2.54
  -6   2   5    9.21    3.28
   6  -2  -5   11.30    3.48
   6  -2  -5    7.98    1.94
   6  -2  -4   21.40    3.44
  -6   2   4   27.77    5.53
   6  -2  -4   20.02    4.49
  -6   2   4   21.23    2.98
   6  -2  -3   15.81    3.62
   6  -2  -3   13.86    2.51
  -6   2   3   16.27    4.53
   6  -2  -3    9.21    3.25
  -6   2   3    9.65    2.04
   6  -2  -2   19.31    4.36
   6  -2  -2   18.94    2.41
  -6   2   2   18.45    4.65
   6  -2  -2   11.74    3.27
  -6   2   2   23.18    3.51
   6  -2  -1  149.41    6.30
  -6   2   1  148.16   13.17
   6  -2  -1  132.71   12.54
   6  -2  -1  159.16   12.44
  -6   2   1  137.11    9.38
   6  -2   0    7.60    2.68
  -6   2   0    7.12    2.69
  -6   2   0    5.55    1.87
  -6   2  -1   67.86    8.69
   6  -2   1   60.23    7.75
  -6   2  -2   -0.29    1.55
  -6   2  -2   -0.27    0.66
   6  -2   2    0.96    1.15
  -6   2  -3   25.07    5.19
  -6   2  -3   25.62    4.81
   6  -2   3   29.77    5.53
   6  -2   4    9.91    2.26
   6  -2   4    8.91    1.41
  -6   2  -4    7.32    2.91
  -6   2  -4   13.44    3.78
   6  -2   4    9.72    3.07
   6  -2   5   36.62    4.28
   6  -2   5   30.91    3.24
  -6   2  -5   26.17    5.29
  -6   2  -5   34.48    2.90
   6  -2   5   35.00    6.38
   6  -2   6   41.54    4.21
   6  -2   6   35.99    4.00
  -6   2  -6   34.35    6.03
  -6   2  -6   37.19    5.47
  -6   2  -6   41.90    2.49
   6  -2   6   31.33    6.25
   6  -2   7   19.07    2.68
   6  -2   7   16.20    2.99
  -6   2  -7   22.39    4.99
  -6   2  -7   16.95    3.66
   6  -2   7   22.19    5.38
   6  -2   8   65.83    5.02
   6  -2   8   55.97    5.99
  -6   2  -8   59.19    7.03
   6  -2   8   59.38    8.85
  -6   2  -9   12.84    3.24
   6  -2   9   18.04    2.54
   6  -2   9   13.43    3.60
   6  -2   9   17.95    5.17
   6  -2  10   63.48    7.60
  -6   2 -10   62.55    7.14
   6  -2  10   69.10    9.82
   6  -2  11    6.08    2.24
  -6   2 -11    9.91    2.90
   6  -2  11    6.82    3.51
  -6   2 -12    0.49    0.57
   6  -2  12    1.80    2.22
   6  -1 -16    8.44    5.43
  -6   1  16    0.64    1.93
  -6   1  15    3.29    2.53
   6  -1 -15    3.16    2.81
  -6   1  15   -0.78    1.75
  -6   1  14    0.49    0.93
   6  -1 -14    2.89    2.33
  -6   1  14    1.55    1.42
  -6   1  13    1.29    1.51
   6  -1 -13   -0.41    2.52
   6  -1 -12  112.19   13.58
  -6   1  12  120.49   12.00
   6  -1 -12  101.13    7.57
  -6   1  11    5.26    2.38
   6  -1 -11   10.27    4.35
   6  -1 -11    6.71    1.77
   6  -1 -10   13.06    4.26
  -6   1  10   13.07    3.90
   6  -1 -10   12.24    2.05
   6  -1  -9  119.93   12.05
  -6   1   9  126.18   12.27
   6  -1  -9  127.67   10.14
   6  -1  -9  125.69    6.55
  -6   1   8    0.90    0.76
   6  -1  -8    2.52    2.03
  -6   1   8    2.15    1.58
   6  -1  -8    5.01    2.17
   6  -1  -8    2.16    0.82
  -6   1   7  215.81   14.35
   6  -1  -7  223.06   15.16
  -6   1   7  261.31   17.73
   6  -1  -7  239.91   15.77
  -6   1   6   22.38    5.10
   6  -1  -6   18.50    4.24
  -6   1   5   26.60    4.78
  -6   1   5   23.04    5.18
   6  -1  -5   21.00    4.66
   6  -1  -4   21.20    3.60
  -6   1   4   24.51    5.20
   6  -1  -4   16.64    4.02
   6  -1  -3    2.93    1.27
  -6   1   3   -0.66    0.73
   6  -1  -3    2.61    1.52
  -6   1   3    3.65    0.98
   6  -1  -2   94.67    6.87
  -6   1   2   84.77    9.86
   6  -1  -2  100.34   10.44
   6  -1  -2  107.27   10.84
  -6   1   2   91.31    6.28
   6  -1  -1   38.79    6.43
   6  -1  -1   40.46    3.98
  -6   1   1   36.40    6.21
   6  -1  -1   44.69    7.09
  -6   1   1   38.92    4.29
   6  -1   0    0.25    1.34
   6  -1   0    1.40    0.56
  -6   1   0    2.86    2.08
  -6   1   0    1.49    1.23
   6  -1   1   11.27    3.65
   6  -1   1    4.37    1.18
  -6   1  -1    8.05    2.83
   6  -1   2    8.54    3.21
  -6   1  -2    7.29    2.59
   6  -1   2    9.19    2.68
  -6   1  -2    1.34    1.13
   6  -1   3  229.31   11.15
  -6   1  -3  232.71   16.19
   6  -1   3  239.68   17.49
   6  -1   4    1.44    1.47
  -6   1  -4    3.12    2.14
   6  -1   4    0.98    0.49
   6  -1   4   -1.18    1.61
   6  -1   5  151.30    9.93
   6  -1   5  147.61    8.88
  -6   1  -5  160.42   13.34
  -6   1  -5  150.92    5.29
  -6   1  -5  144.83    5.27
   6  -1   5  142.25   13.48
   6  -1   6   41.69    4.79
   6  -1   6   43.63    4.95
  -6   1  -6   45.26    5.97
  -6   1  -6   53.19    7.44
   6  -1   6   42.76    7.38
   6  -1   7    5.36    1.66
   6  -1   7   11.05    2.65
  -6   1  -7    4.64    1.77
   6  -1   7    8.79    3.30
   6  -1   8    7.72    1.96
   6  -1   8   13.62    3.08
  -6   1  -8    6.18    2.35
   6  -1   8   15.64    4.61
   6  -1   9   26.64    3.57
  -6   1  -9   32.57    4.96
   6  -1   9   29.34    6.39
  -6   1 -10   35.23    5.12
  -6   1 -10   31.78    4.73
   6  -1  10   28.28    6.45
  -6   1 -11    0.79    0.88
   6  -1  11    1.06    2.24
  -6   1 -12    1.24    1.21
   6  -1  12    2.55    1.68
   6   0 -16   26.49    8.01
  -6   0  16   15.97    4.84
   6   0 -15    3.46    3.61
  -6   0  15   12.07    4.38
  -6   0  14   12.14    4.57
   6   0 -14   13.55    4.74
  -6   0  14    8.62    2.52
  -6   0  14    5.08    2.71
  -6   0  13    0.10    0.76
  -6   0  13    2.17    1.44
  -6   0  13    2.06    2.67
  -6   0  12   45.13    5.99
  -6   0  12   46.73    7.00
  -6   0  12   43.76    7.89
   6   0 -12   47.46    8.51
   6   0 -11  105.66   12.32
  -6   0  11   95.66   10.19
   6   0 -11  104.81    5.28
   6   0 -10   83.11   10.45
  -6   0  10   74.97    9.14
   6   0  -9   21.37    4.98
  -6   0   9   18.15    4.54
   6   0  -9   14.31    3.51
   6   0  -8  274.57   18.19
  -6   0   8  281.55   18.52
   6   0  -8  303.35   17.83
   6   0  -7   54.60    7.37
  -6   0   7   62.47    8.26
   6   0  -7   61.57    7.83
   6   0  -6   80.94    8.65
  -6   0   6  100.96   10.57
   6   0  -6   88.67    9.66
  -6   0   5   -0.49    0.57
  -6   0   5    2.25    1.42
   6   0  -5    1.62    2.02
  -6   0   4   19.39    4.65
   6   0  -4   20.93    4.82
   6   0  -3   78.12    7.40
  -6   0   3  104.86   10.59
   6   0  -3   77.91    9.33
  -6   0   3   80.38    3.92
   6   0  -2   15.89    4.27
   6   0  -2   11.91    2.68
  -6   0   2   20.08    4.65
   6   0  -2   12.09    3.51
  -6   0   2   12.20    1.91
   6   0  -1   12.13    3.73
   6   0  -1   17.76    3.17
  -6   0   1   12.33    3.70
  -6   0   1   10.28    2.06
   6   0   0   62.27    5.78
  -6   0   0   69.05    8.43
   6   0   0   73.37    9.63
  -6   0   0   48.72    5.21
  -6   0  -1  129.66   11.94
  -6   0  -1  144.06    8.95
   6   0   1  135.65   13.37
   6   0   2   11.16    3.84
  -6   0  -2   17.01    4.29
  -6   0  -2   12.53    2.17
   6   0   3   12.61    3.27
  -6   0  -3   13.73    4.11
   6   0   3   24.17    5.43
  -6   0  -3   16.93    2.26
   6   0   3   14.97    4.62
   6   0   4   19.52    3.83
  -6   0  -4   17.91    4.32
   6   0   4   17.48    3.85
  -6   0  -4   16.14    1.66
   6   0   4   15.00    4.17
   6   0   5    7.47    2.18
  -6   0  -5    3.47    1.59
   6   0   5    8.96    2.57
   6   0   5    7.89    3.35
   6   0   6    6.85    2.10
  -6   0  -6    3.73    1.70
   6   0   6    1.75    0.80
   6   0   6    6.21    3.33
   6   0   7    1.81    1.31
  -6   0  -7    1.32    1.22
   6   0   7    1.16    1.28
   6   0   7    1.53    1.99
   6   0   8   -0.14    0.49
  -6   0  -8    0.25    0.74
  -6   0  -8    1.89    1.78
   6   0   8   -0.24    1.59
   6   0   9    0.02    0.75
  -6   0  -9    0.84    1.18
  -6   0  -9   -0.83    1.17
   6   0   9   -1.12    1.63
   6   0  10   60.45    6.33
  -6   0 -10   54.17    6.03
  -6   0 -10   56.35    6.27
   6   0  10   57.94    9.35
  -6   0 -11   13.62    3.08
   6   0  11   10.05    3.98
  -6   0 -12    4.91    2.06
   6   1 -16   76.56   12.85
   6   1 -15   77.95   11.90
  -6  -1  15   80.87   11.02
  -6  -1  14   62.05    6.19
  -6  -1  14   73.80   10.12
   6   1 -14   49.35    9.32
   6   1 -13   12.89    4.66
  -6  -1  13   21.10    4.14
  -6  -1  13   13.24    2.99
  -6  -1  13    9.61    3.87
   6   1 -12   31.62    6.88
  -6  -1  12   35.40    5.53
  -6  -1  12   40.49    5.50
  -6  -1  12   37.61    6.99
   6   1 -11   13.45    4.44
  -6  -1  11   25.20    4.85
  -6  -1  11   24.58    4.43
  -6  -1  11   20.98    5.01
   6   1 -10   -0.12    0.82
  -6  -1  10   -0.65    1.15
   6   1 -10    0.38    0.69
  -6  -1  10   -0.31    1.29
  -6  -1  10   -0.39    1.61
   6   1  -9   15.50    4.55
  -6  -1   9   12.44    3.39
   6   1  -9   12.78    3.41
  -6  -1   9   12.05    3.22
  -6  -1   9   17.66    4.25
   6   1  -8    9.99    3.23
  -6  -1   8   12.69    3.42
   6   1  -8   16.66    4.01
  -6  -1   8   13.37    3.88
   6   1  -7    1.29    1.76
  -6  -1   7    0.70    0.88
   6   1  -7    2.19    1.05
  -6  -1   7    2.96    2.29
  -6  -1   6   34.11    5.24
   6   1  -6   29.67    5.44
  -6  -1   6   25.44    5.07
   6   1  -6   33.52    5.80
  -6  -1   6   34.74    5.65
   6   1  -5   10.59    3.46
  -6  -1   5    5.59    1.86
  -6  -1   5   15.48    3.82
   6   1  -5   10.91    3.45
  -6  -1   5   13.74    3.42
   6   1  -4    1.30    1.74
  -6  -1   4    3.43    2.03
   6   1  -4    2.44    1.34
  -6  -1   4    3.15    2.10
  -6  -1   3   10.73    3.38
  -6  -1   3   10.94    2.82
  -6  -1   2  155.52   12.77
  -6  -1   2  150.79   10.49
   6   1  -2  135.85   13.55
  -6  -1   2  123.79    6.48
   6   1  -1    0.53    2.28
  -6  -1   1    0.96    0.81
  -6  -1   1   -0.43    0.85
  -6  -1   0  124.30   11.53
  -6  -1   0  130.25    8.86
   6   1   0  128.08   13.89
   6   1   1   33.05    7.02
  -6  -1  -1   38.50    6.26
  -6  -1  -1   36.60    4.01
   6   1   2    8.24    3.27
   6   1   2    8.81    3.02
  -6  -1  -2   16.14    4.19
  -6  -1  -2   10.18    1.95
   6   1   3    2.36    2.06
   6   1   3    4.34    2.07
  -6  -1  -3    2.95    0.98
   6   1   4   43.07    5.90
  -6  -1  -4   50.30    6.87
  -6  -1  -4   41.70    5.35
  -6  -1  -4   37.02    2.36
   6   1   4   34.72    7.35
   6   1   4   38.74    7.49
   6   1   5    2.88    1.58
  -6  -1  -5    2.15    1.65
  -6  -1  -5    2.64    1.81
   6   1   5    7.06    3.08
   6   1   5    9.17    3.93
   6   1   6    4.62    1.80
  -6  -1  -6    8.02    2.36
  -6  -1  -6    6.64    2.04
   6   1   6    4.63    2.48
   6   1   6    5.01    2.83
   6   1   7    9.41    2.66
  -6  -1  -7    9.01    2.49
  -6  -1  -7    7.82    2.23
   6   1   7   12.49    4.67
   6   1   8    3.34    1.62
  -6  -1  -8    0.49    0.50
  -6  -1  -8    2.77    1.86
   6   1   8    0.26    1.62
   6   1   9    6.21    2.06
  -6  -1  -9    6.64    2.20
  -6  -1  -9    7.75    2.15
   6   1   9   10.50    4.34
   6   1  10   21.07    4.10
  -6  -1 -10   17.53    3.44
   6   1  10   14.47    4.53
  -6  -1 -11    7.17    2.28
   6   1  11    3.99    2.37
  -6  -1 -12    1.22    1.12
   6   2 -15    4.54    2.73
  -6  -2  15    9.88    4.08
  -6  -2  14    4.98    1.88
   6   2 -14    0.50    2.10
  -6  -2  14    2.24    1.32
  -6  -2  13   36.12    4.87
   6   2 -13   34.06    7.85
  -6  -2  13   39.59    7.22
   6   2 -12    3.14    2.05
  -6  -2  12    3.74    1.98
  -6  -2  12    4.37    1.95
  -6  -2  12    4.89    2.36
   6   2 -11    3.44    2.52
  -6  -2  11    5.89    2.05
  -6  -2  11    4.10    1.92
  -6  -2  11    7.75    3.72
   6   2 -10    0.92    1.23
  -6  -2  10    2.74    1.75
  -6  -2  10    2.17    0.88
   6   2 -10    4.04    1.70
  -6  -2  10    4.11    2.63
   6   2  -9   17.19    4.89
  -6  -2   9   16.26    3.64
  -6  -2   9   12.94    3.29
   6   2  -9   15.24    3.69
  -6  -2   9   15.97    4.18
   6   2  -8    4.85    2.41
  -6  -2   8    4.72    2.10
   6   2  -8    4.83    2.09
  -6  -2   8    6.17    2.14
  -6  -2   8    3.98    2.26
   6   2  -7   11.00    3.91
  -6  -2   7    6.75    2.49
   6   2  -7    9.90    3.26
  -6  -2   7   11.52    3.36
  -6  -2   7   14.76    3.85
  -6  -2   6    7.70    2.59
   6   2  -6   11.37    3.57
  -6  -2   6    6.07    2.33
   6   2  -6    9.49    3.44
  -6  -2   6    5.55    2.59
  -6  -2   6   10.66    3.32
   6   2  -5    3.31    1.66
  -6  -2   5    4.32    1.60
  -6  -2   5    5.59    2.27
   6   2  -5    6.32    2.70
  -6  -2   5    3.16    2.07
  -6  -2   5    1.67    0.84
   6   2  -4    3.39    1.79
  -6  -2   4    5.60    2.09
  -6  -2   4    6.30    2.59
  -6  -2   4    2.93    1.68
  -6  -2   4    2.12    1.44
   6   2  -3   12.78    3.54
  -6  -2   3    9.82    2.98
  -6  -2   3   11.92    3.22
  -6  -2   3   12.24    2.81
   6   2  -2   17.73    4.08
  -6  -2   2   24.68    4.77
  -6  -2   2   20.89    4.45
  -6  -2   2   18.07    3.53
   6   2  -1    5.93    2.97
  -6  -2   1    8.70    2.97
  -6  -2   1    3.05    1.68
  -6  -2   1    4.96    1.77
   6   2   0    3.45    2.61
  -6  -2   0    6.04    2.77
  -6  -2   0    2.67    1.62
  -6  -2   0    5.21    1.73
   6   2   1   34.82    7.33
   6   2   1   29.48    5.42
  -6  -2  -1   30.01    5.37
  -6  -2  -1   27.69    3.46
   6   2   2   16.62    5.16
   6   2   2   20.94    4.52
  -6  -2  -2   11.66    3.31
  -6  -2  -2   16.85    2.39
   6   2   3   49.84    9.04
   6   2   3   44.87    6.63
  -6  -2  -3   46.35    6.57
  -6  -2  -3   40.04    5.05
  -6  -2  -3   43.66    3.55
   6   2   4    1.42    1.55
  -6  -2  -4    0.52    0.67
  -6  -2  -4    1.98    1.22
   6   2   4    0.64    1.51
   6   2   5   28.80    5.06
  -6  -2  -5   25.56    3.99
  -6  -2  -5   28.05    4.80
   6   2   5   16.96    5.46
   6   2   5   32.63    7.28
   6   2   6    1.09    0.99
  -6  -2  -6    1.06    0.73
  -6  -2  -6    3.05    1.64
   6   2   6   -0.67    1.75
   6   2   7   20.32    4.27
  -6  -2  -7   18.71    3.68
  -6  -2  -7   17.54    3.26
   6   2   7   16.08    4.80
   6   2   8    1.15    1.14
  -6  -2  -8   -0.12    0.53
  -6  -2  -8    0.66    1.01
   6   2   8    0.52    1.37
   6   2   9    3.83    1.94
  -6  -2  -9    3.60    1.45
  -6  -2  -9    4.35    1.80
   6   2  10    3.14    2.13
  -6  -2 -10    3.13    1.42
   6   2  10    3.42    2.50
  -6  -2 -11   -1.12    1.25
  -6  -2 -12    0.99    0.75
   6   3 -15   14.13    4.85
  -6  -3  14   13.15    2.80
   6   3 -14    1.86    2.24
  -6  -3  14   14.01    4.65
  -6  -3  13    2.48    1.49
   6   3 -13   -0.56    1.49
  -6  -3  13    3.56    2.93
   6   3 -12    3.13    2.71
  -6  -3  12    2.51    1.54
  -6  -3  12    0.76    1.37
   6   3 -11   -0.94    0.94
  -6  -3  11    2.53    1.52
  -6  -3  11    1.47    0.85
  -6  -3  11   -0.48    1.26
   6   3 -10    9.40    3.76
  -6  -3  10    8.38    2.39
  -6  -3  10    7.05    2.31
  -6  -3  10    5.30    2.83
   6   3  -9    1.14    1.40
  -6  -3   9    3.83    1.83
  -6  -3   9    2.08    1.74
   6   3  -9    4.36    1.87
  -6  -3   9    4.50    2.20
   6   3  -8    2.45    2.31
  -6  -3   8    0.48    0.54
  -6  -3   8   -0.17    0.74
   6   3  -8    2.65    1.42
  -6  -3   8    0.73    1.40
   6   3  -7    3.93    2.48
  -6  -3   7    1.57    0.70
  -6  -3   7    3.14    1.67
  -6  -3   7    1.47    1.20
   6   3  -7    2.51    2.03
  -6  -3   7    3.62    2.56
  -6  -3   6   74.97    8.31
   6   3  -6   65.27    9.14
  -6  -3   6   64.21    6.42
  -6  -3   6   72.41    7.85
  -6  -3   6   58.39    7.39
   6   3  -5    1.54    2.16
  -6  -3   5   -0.08    0.86
  -6  -3   5   -0.82    0.87
  -6  -3   5    0.12    0.94
  -6  -3   5   -0.87    0.87
   6   3  -4    1.71    1.38
  -6  -3   4   -0.06    0.75
  -6  -3   4    1.41    1.62
  -6  -3   4    0.83    1.29
  -6  -3   4   -0.51    0.83
   6   3  -3    3.03    2.25
  -6  -3   3    4.19    2.06
  -6  -3   3    2.88    1.85
  -6  -3   3    2.62    0.78
  -6  -3   2   18.65    4.26
  -6  -3   2   23.82    4.02
  -6  -3   2   19.18    2.58
   6   3  -1    9.62    4.02
  -6  -3   1    9.54    2.92
  -6  -3   1    8.78    2.35
  -6  -3   0   57.40    7.23
   6   3   0   56.25    9.82
   6   3   0   49.85    7.64
  -6  -3   0   58.11    5.57
   6   3   1    1.76    2.54
   6   3   1    2.62    2.24
  -6  -3  -1    0.24    0.95
  -6  -3  -1    1.53    0.97
   6   3   2    0.33    2.00
   6   3   2    0.42    1.16
  -6  -3  -2   -0.26    0.94
  -6  -3  -2   -0.66    1.11
  -6  -3  -2    1.36    1.10
   6   3   3   -0.73    1.97
   6   3   3    0.65    0.94
  -6  -3  -3    0.31    1.10
  -6  -3  -3    1.13    0.93
  -6  -3  -3    1.17    0.65
   6   3   4   28.14    6.59
   6   3   4   41.87    6.49
  -6  -3  -4   30.02    4.07
  -6  -3  -4   34.78    5.26
   6   3   5    1.20    1.62
  -6  -3  -5    1.01    1.26
  -6  -3  -5    2.17    1.26
   6   3   5    2.64    2.72
   6   3   6   14.54    3.71
  -6  -3  -6   14.88    3.30
  -6  -3  -6   15.05    2.79
   6   3   6   16.03    5.24
   6   3   7    6.92    2.55
  -6  -3  -7    7.82    2.46
  -6  -3  -7    8.31    2.20
   6   3   7   14.07    5.17
   6   3   8   11.73    3.59
  -6  -3  -8   12.13    2.69
  -6  -3  -8   15.97    2.93
   6   3   8   18.08    5.75
   6   3   9   22.34    4.89
  -6  -3  -9   25.61    3.79
  -6  -3  -9   15.97    3.05
   6   3   9   19.09    5.94
   6   3  10   24.45    5.26
  -6  -3 -10   20.60    3.49
  -6  -3 -11    4.00    1.62
  -6  -4  14   -0.43    1.05
   6   4 -14    1.09    2.77
   6   4 -13   63.25   10.75
  -6  -4  13   69.79    9.61
  -6  -4  13   72.40    6.85
  -6  -4  12   24.30    4.02
   6   4 -12   16.96    5.13
  -6  -4  12   24.36    5.47
   6   4 -11    2.62    1.60
  -6  -4  11    5.08    2.03
  -6  -4  11   -0.05    1.52
   6   4 -10   44.78    8.61
  -6  -4  10   43.41    7.18
  -6  -4  10   43.61    5.53
   6   4  -9   76.44   11.29
  -6  -4   9   84.47    9.78
  -6  -4   9   93.36    8.57
   6   4  -8   46.35    8.55
  -6  -4   8   41.55    6.65
  -6  -4   8   45.00    5.91
  -6  -4   7   40.66    5.71
   6   4  -7   27.98    6.44
  -6  -4   7   30.77    3.87
  -6  -4   7   34.19    6.04
   6   4  -6   20.41    5.56
  -6  -4   6   26.35    3.52
  -6  -4   6   28.82    4.85
  -6  -4   6   31.83    5.48
   6   4  -5   31.79    6.51
  -6  -4   5   30.05    4.02
  -6  -4   5   32.85    5.29
  -6  -4   5   34.42    5.59
   6   4  -4    7.47    3.42
  -6  -4   4    4.43    1.46
  -6  -4   4    8.50    2.90
  -6  -4   4    8.95    2.73
   6   4  -3    8.15    3.27
  -6  -4   3   11.77    2.62
  -6  -4   3   10.13    2.98
  -6  -4   3    5.73    1.98
  -6  -4   3    5.41    1.24
   6   4  -2    0.92    1.54
   6   4  -2    3.28    2.59
  -6  -4   2    2.08    1.38
  -6  -4   2    1.05    1.23
  -6  -4   2    1.60    1.05
   6   4  -1   10.72    4.49
   6   4  -1   10.28    3.74
  -6  -4   1   12.07    3.20
  -6  -4   1    5.77    1.82
  -6  -4   1    5.77    1.96
   6   4   0    0.94    2.00
   6   4   0    1.91    1.41
  -6  -4   0   -0.23    1.29
  -6  -4   0    1.64    0.98
  -6  -4   0    1.64    1.24
   6   4   1   26.19    6.82
   6   4   1   25.32    5.41
  -6  -4  -1   23.00    4.30
  -6  -4  -1   24.39    3.50
  -6  -4  -1   17.71    2.94
   6   4   2   20.63    6.72
   6   4   2   25.14    5.29
  -6  -4  -2   24.05    4.53
  -6  -4  -2   24.39    3.38
  -6  -4  -2   21.41    3.20
   6   4   3   24.88    6.87
   6   4   3   21.19    4.84
  -6  -4  -3   18.86    3.86
  -6  -4  -3   18.41    2.87
   6   4   4   57.18   10.22
  -6  -4  -4   68.11    5.64
  -6  -4  -4   72.81    7.47
   6   4   5    0.50    0.90
  -6  -4  -5    0.45    0.81
  -6  -4  -5    0.06    0.44
   6   4   5    3.10    3.51
   6   4   6   -1.43    1.64
  -6  -4  -6   -1.64    1.30
  -6  -4  -6    0.97    0.81
   6   4   6   -1.61    1.44
   6   4   7   22.96    4.99
  -6  -4  -7   21.88    3.60
  -6  -4  -7   22.08    3.25
   6   4   7   27.00    6.86
   6   4   8    0.22    0.99
  -6  -4  -8   -0.78    1.22
  -6  -4  -8    0.03    0.67
   6   4   8    0.39    2.80
   6   4   9   30.39    6.02
  -6  -4  -9   30.15    4.00
   6   4  10   14.58    4.48
  -6  -5  14   17.91    3.29
  -6  -5  13   23.26    3.98
   6   5 -13   23.18    7.01
  -6  -5  12    6.36    1.94
   6   5 -12   11.51    4.64
  -6  -5  12   13.67    4.30
   6   5 -11    7.77    4.17
  -6  -5  11    2.33    1.44
  -6  -5  11    2.55    2.44
   6   5 -10    7.64    3.83
  -6  -5  10    4.75    1.82
  -6  -5  10    2.29    1.67
   6   5  -9   22.57    6.01
  -6  -5   9   20.25    3.78
  -6  -5   9   15.98    4.33
   6   5  -8   10.66    3.90
  -6  -5   8    9.69    2.67
  -6  -5   8    9.84    3.53
   6   5  -7    0.48    2.04
  -6  -5   7    1.60    1.57
  -6  -5   7    1.45    1.83
   6   5  -6    8.06    3.92
  -6  -5   6    1.07    1.13
  -6  -5   6    4.72    2.44
   6   5  -5   43.43    8.13
  -6  -5   5   46.65    6.68
  -6  -5   5   42.18    5.80
   6   5  -4   67.77   10.14
   6   5  -4   38.26    7.40
  -6  -5   4   61.15    7.27
  -6  -5   4   51.75    6.61
  -6  -5   3    3.65    1.65
  -6  -5   3    5.90    2.36
   6   5  -2   12.58    4.94
   6   5  -2   15.83    4.45
  -6  -5   2   11.04    3.05
  -6  -5   2    5.92    1.95
  -6  -5   2    9.32    2.20
   6   5  -1  115.05   12.59
  -6  -5   1   98.15    6.40
  -6  -5   1   99.49    8.59
   6   5  -1  113.43   14.71
  -6  -5   1   94.07    7.78
  -6  -5   1   99.20    9.09
   6   5   0   49.86    9.96
   6   5   0   35.18    6.69
  -6  -5   0   38.14    3.76
  -6  -5   0   40.74    5.14
  -6  -5   0   39.33    5.38
  -6  -5   0   40.36    5.75
   6   5   1    3.33    1.54
  -6  -5  -1    2.24    1.33
  -6  -5  -1    3.54    1.19
  -6  -5  -1    4.62    2.05
  -6  -5  -1    4.74    2.22
   6   5   2   55.44   10.57
   6   5   2   58.39    8.40
  -6  -5  -2   50.90    4.28
  -6  -5  -2   51.35    7.54
  -6  -5  -2   43.38    5.82
   6   5   3    6.28    4.40
   6   5   3    9.51    3.73
  -6  -5  -3    8.57    2.56
  -6  -5  -3    4.59    1.45
   6   5   4   64.77   11.38
   6   5   4   59.89    8.68
  -6  -5  -4   55.32    6.28
   6   5   5    3.27    2.21
  -6  -5  -5    4.35    1.63
   6   5   5    5.07    2.38
   6   5   6    6.51    3.00
  -6  -5  -6    2.76    1.52
   6   5   6    5.80    3.29
   6   5   7    1.84    1.54
  -6  -5  -7    1.51    1.33
   6   5   8    0.15    1.11
  -6  -6  14   29.14    4.38
  -6  -6  13    5.68    2.10
  -6  -6  12    1.74    1.53
   6   6 -12   -1.32    2.22
  -6  -6  11    0.97    0.73
   6   6 -11    1.45    2.74
  -6  -6  11    3.81    2.66
   6   6 -10   21.81    6.51
  -6  -6  10   22.36    4.01
  -6  -6  10   18.69    4.71
   6   6  -9    4.93    3.67
  -6  -6   9    4.24    1.88
  -6  -6   9    3.42    1.97
   6   6  -8    1.13    2.22
  -6  -6   8    3.64    1.73
  -6  -6   8   -0.07    1.63
   6   6  -7   36.93    7.76
  -6  -6   7   28.09    4.58
  -6  -6   7   26.26    5.35
   6   6  -6    3.28    2.64
  -6  -6   6    2.28    1.09
  -6  -6   6    3.03    1.76
   6   6  -5   -0.27    3.19
   6   6  -5    0.11    2.15
  -6  -6   5    2.03    1.33
  -6  -6   5   -0.76    1.42
   6   6  -4   -1.36    1.69
   6   6  -4    0.55    1.40
  -6  -6   4    1.83    1.45
  -6  -6   4    1.18    1.55
   6   6  -3   21.25    5.95
  -6  -6   3   25.05    4.41
  -6  -6   3   19.58    4.17
   6   6  -2   33.78    8.17
   6   6  -2   45.95    8.28
  -6  -6   2   41.80    5.90
  -6  -6   2   44.03    5.93
   6   6  -1   28.31    7.44
   6   6  -1   19.27    5.12
  -6  -6   1   20.22    3.99
  -6  -6   1   23.35    4.35
   6   6   0   10.00    4.21
   6   6   0    4.47    2.36
  -6  -6   0    3.66    1.94
  -6  -6   0    9.85    2.79
  -6  -6   0    9.27    2.80
   6   6   1   48.44   10.13
   6   6   1   39.39    7.22
  -6  -6  -1   37.85    5.31
  -6  -6  -1   42.33    6.57
   6   6   2    6.86    4.39
   6   6   2    2.85    2.34
  -6  -6  -2    8.20    2.60
  -6  -6  -2    2.32    2.30
   6   6   3    4.50    2.45
   6   6   3   11.24    4.17
  -6  -6  -3    9.19    2.64
  -6  -6  -3   10.21    3.65
   6   6   4   14.59    6.33
   6   6   4    7.64    3.34
  -6  -6  -4    6.96    2.13
  -6  -6  -4    7.41    3.56
   6   6   5    3.89    2.49
  -6  -6  -5    1.47    1.17
  -6  -6  -6    2.72    1.43
  -6  -6  -7    4.73    1.85
  -6  -7  11   13.51    3.47
  -6  -7  10    1.64    1.04
   6   7  -9   33.74    7.36
   6   7  -9   24.01    6.96
  -6  -7   9   24.87    4.40
  -6  -7   9   24.50    5.89
   6   7  -8   -0.97    1.67
   6   7  -8    1.30    1.74
  -6  -7   8   -1.30    0.54
   6   7  -7    5.63    2.08
   6   7  -7    2.81    2.20
  -6  -7   7    9.57    2.71
  -6  -7   7    6.46    2.68
   6   7  -6   21.22    5.91
   6   7  -6   19.12    6.33
  -6  -7   6   24.69    4.27
  -6  -7   6   26.47    5.56
   6   7  -5    1.01    1.22
   6   7  -5    0.32    1.83
  -6  -7   5    2.83    1.53
  -6  -7   5    1.63    1.38
   6   7  -4    1.31    2.66
   6   7  -4   -2.02    1.83
  -6  -7   4   -0.23    0.93
  -6  -7   4   -1.11    1.15
   6   7  -3   -1.43    1.69
  -6  -7   3   -0.52    0.69
  -6  -7   3    2.02    1.44
   6   7  -2   -0.61    2.42
   6   7  -2    0.86    1.97
  -6  -7   2   -0.20    0.86
  -6  -7   2   -0.68    1.04
   6   7  -1    7.00    3.68
   6   7  -1    5.57    3.08
  -6  -7   1    6.39    2.12
  -6  -7   1    5.28    2.41
   6   7   0    0.91    2.77
   6   7   0    3.27    2.61
  -6  -7   0    1.33    1.25
   6   7   1   39.23    9.50
   6   7   1   41.33    7.62
  -6  -7  -1   36.56    5.42
  -6  -7  -2   42.84    5.86
  -6  -7  -3   73.03    7.56
  -6  -8   7    8.49    3.35
  -6  -8   6   36.88    6.68
   6   8  -5   29.87    8.01
  -6  -8   5   31.31    6.01
   6   8  -4    1.11    2.88
  -6  -8   4    1.59    1.78
  -6  -8   3    1.59    1.49
  -7  12   5   24.66    6.20
  -7  12   4    0.94    1.65
  -7  12   3    3.72    2.72
  -7  12   2   44.85    7.28
  -7  12   1   26.42    7.81
  -7  12   0    8.02    4.16
  -7  12  -1   14.01    5.25
  -7  12  -2   13.10    5.51
  -7  12  -3    6.38    3.78
  -7  12  -4   28.91    7.44
  -7  12  -5    7.60    3.31
  -7  12  -6   -0.36    1.34
   7 -11  -8   14.07    3.46
   7 -11  -7    1.53    1.16
  -7  11   6    0.86    1.45
   7 -11  -6    0.46    1.05
   7 -11  -6    2.10    2.68
  -7  11   5   -0.49    1.03
   7 -11  -5    7.82    2.85
   7 -11  -5   11.51    4.36
  -7  11   4    6.83    3.16
   7 -11  -4    8.91    2.93
  -7  11   4    8.08    3.56
   7 -11  -4   15.10    5.48
  -7  11   3    4.39    2.32
   7 -11  -3   10.96    3.16
  -7  11   3   12.95    5.16
   7 -11  -3    9.06    3.90
   7 -11  -2   10.86    3.25
  -7  11   2    7.27    3.56
   7 -11  -2    7.97    4.30
   7 -11  -1    2.93    1.66
   7 -11  -1    0.58    1.63
   7 -11   0    6.91    2.79
   7 -11   0   10.15    4.09
   7 -11   1   10.12    3.08
  -7  11  -1    8.55    4.34
   7 -11   1    0.80    1.07
   7 -11   2   11.24    3.19
  -7  11  -2    9.25    4.25
   7 -11   2   11.49    4.76
   7 -11   3    0.29    0.70
  -7  11  -3    0.73    1.89
   7 -11   4    7.61    2.97
  -7  11  -4   11.82    4.95
   7 -11   5    0.63    1.40
  -7  11  -5    2.20    1.97
   7 -11   6   -0.79    1.42
  -7  11  -6   -1.76    3.01
   7 -11   7    1.07    1.53
  -7  11  -7   -1.26    1.48
  -7  11  -8    2.61    2.56
   7 -10 -10    5.91    2.15
   7 -10  -9    7.17    2.36
   7 -10  -9    7.40    4.16
   7 -10  -8    7.11    2.33
   7 -10  -8    3.65    3.37
   7 -10  -7    3.93    1.91
  -7  10   7   -1.00    2.17
   7 -10  -7    2.19    2.62
  -7  10   6    1.76    2.57
   7 -10  -6   -1.14    0.92
   7 -10  -6    2.24    2.06
  -7  10   5   -2.96    2.51
   7 -10  -5   -0.69    0.94
   7 -10  -5   -1.66    2.76
  -7  10   4    3.76    2.29
   7 -10  -4    1.11    1.34
   7 -10  -4   -0.44    2.23
  -7  10   3    8.15    3.72
   7 -10  -3    6.31    2.92
   7 -10  -3    7.19    3.61
  -7  10   2    3.99    3.64
   7 -10  -2    1.82    1.21
   7 -10  -2   -1.69    1.97
  -7  10   1   90.78   13.14
   7 -10  -1   86.33    9.41
   7 -10  -1   67.74   10.61
   7 -10   0   38.72    6.28
  -7  10   0   43.96    8.90
   7 -10   0   40.19    7.89
  -7  10  -1   20.21    6.15
   7 -10   1   18.28    4.16
   7 -10   1   24.88    6.69
  -7  10  -2    3.52    3.08
   7 -10   2    0.53    0.88
   7 -10   2    1.12    1.91
  -7  10  -3   29.05    7.37
   7 -10   3   22.01    4.65
  -7  10  -4    7.72    3.77
   7 -10   4    4.68    2.27
  -7  10  -5    3.99    3.03
   7 -10   5    9.64    3.07
  -7  10  -6   -2.16    2.10
   7 -10   6    0.35    1.01
  -7  10  -7    8.90    3.17
  -7  10  -7    7.51    2.53
   7 -10   7    6.19    2.44
   7 -10   7    9.89    3.12
   7 -10   8    3.34    1.77
  -7  10  -8    4.57    2.90
  -7  10  -8    1.30    1.28
   7 -10   8    4.50    2.77
   7 -10   9    1.75    1.08
   7 -10   9    4.25    2.52
   7 -10  10    3.04    1.72
   7 -10  10   -2.16    1.78
   7 -10  11    0.69    2.08
   7  -9 -11    0.55    0.76
   7  -9 -11    1.88    1.97
   7  -9 -10    2.19    1.49
   7  -9 -10   10.23    3.56
  -7   9   9   29.14    7.23
   7  -9  -9   39.18    5.67
   7  -9  -9   40.51    8.02
   7  -9  -8    1.25    0.94
   7  -9  -8    4.61    3.31
   7  -9  -7   10.30    3.18
  -7   9   7    6.61    3.47
   7  -9  -7    6.35    3.43
   7  -9  -6   31.29    5.45
  -7   9   6   19.39    5.92
   7  -9  -6   19.20    5.42
   7  -9  -5   42.72    6.47
  -7   9   5   28.26    7.00
   7  -9  -5   36.51    7.36
   7  -9  -4    4.09    2.12
  -7   9   4    5.32    3.21
   7  -9  -4    1.87    1.89
   7  -9  -3   -1.25    1.38
  -7   9   3   -1.55    2.25
   7  -9  -3    2.02    2.15
   7  -9  -2    0.07    0.80
  -7   9   2    3.36    2.54
   7  -9  -2    0.42    1.52
   7  -9  -1   -0.16    1.35
  -7   9   1    0.51    1.70
   7  -9  -1    0.74    1.16
   7  -9   0   30.04    5.56
  -7   9   0   32.75    7.41
   7  -9   0   26.68    6.20
   7  -9   1   32.83    5.94
  -7   9  -1   29.51    7.34
   7  -9   1   22.44    5.76
   7  -9   2    0.62    0.76
  -7   9  -2    2.35    1.96
   7  -9   2    2.56    1.38
   7  -9   2    3.01    3.14
   7  -9   3   12.75    3.83
  -7   9  -3   16.57    5.23
   7  -9   3   16.09    2.92
   7  -9   4   54.66    7.59
  -7   9  -4   74.62   10.90
   7  -9   4   60.45    6.25
   7  -9   5    6.10    2.61
  -7   9  -5    7.47    3.77
   7  -9   5    3.06    1.59
   7  -9   6   16.19    4.00
  -7   9  -6   17.86    5.05
   7  -9   6   18.18    3.94
  -7   9  -7   19.73    5.36
   7  -9   7   17.51    3.99
  -7   9  -7    9.14    3.06
   7  -9   7   20.31    4.37
  -7   9  -8   12.83    4.35
  -7   9  -8    6.94    2.53
   7  -9   8   10.30    2.89
   7  -9   8   10.40    3.40
  -7   9  -9    0.78    2.06
  -7   9  -9   -0.49    1.55
   7  -9   9    0.73    0.85
   7  -9   9   -1.09    1.52
   7  -9  10    4.63    1.96
  -7   9 -10    4.03    1.55
   7  -9  10    6.24    3.14
   7  -9  11    8.88    2.46
   7  -9  11   14.78    5.25
   7  -8 -13    3.58    2.68
   7  -8 -12    1.73    1.91
  -7   8  11   19.24    6.07
   7  -8 -11   24.49    4.27
   7  -8 -11   32.07    7.02
   7  -8 -10    1.85    1.11
  -7   8  10    0.22    1.68
   7  -8 -10    0.50    1.81
   7  -8  -9    0.17    1.03
   7  -8  -9   -1.18    1.34
   7  -8  -8    5.28    2.43
  -7   8   8    0.40    1.65
   7  -8  -8    3.62    2.79
   7  -8  -7    9.56    3.24
  -7   8   7   11.35    4.47
   7  -8  -7    9.68    3.63
   7  -8  -6   23.35    4.86
  -7   8   6   14.34    4.87
   7  -8  -6   15.89    4.76
  -7   8   5    4.42    2.86
   7  -8  -5    7.09    3.10
   7  -8  -5    1.10    1.31
  -7   8   4   26.44    6.81
   7  -8  -4   25.29    5.88
   7  -8  -4   28.80    5.60
  -7   8   3    6.37    3.95
   7  -8  -3    5.76    3.30
   7  -8  -3    7.18    2.91
  -7   8   2   11.80    4.48
   7  -8  -2   10.84    4.14
   7  -8  -2    8.25    2.92
  -7   8   1   46.12    8.66
   7  -8  -1   44.22    2.95
   7  -8  -1   29.69    6.05
   7  -8  -1   35.65    6.40
   7  -8   0   60.17    6.21
   7  -8   0   68.29    8.98
  -7   8   0   61.79   10.29
   7  -8   0   72.26    4.92
   7  -8   0   56.26    8.80
   7  -8   1    2.98    1.52
  -7   8  -1    2.29    2.61
   7  -8   1    0.59    0.76
   7  -8   1    3.09    2.27
   7  -8   1    5.25    2.72
  -7   8  -2   33.74    7.45
   7  -8   2   41.00    4.64
   7  -8   2   38.90    6.53
   7  -8   3   65.88    8.62
  -7   8  -3   60.84    9.75
   7  -8   3   71.43    6.69
  -7   8  -4    7.96    3.94
   7  -8   4    4.94    1.91
   7  -8   4    4.32    2.35
   7  -8   5    6.81    3.12
  -7   8  -5    7.25    3.86
   7  -8   5    6.01    2.11
   7  -8   6   56.72    7.76
  -7   8  -6   51.78    8.49
   7  -8   6   53.99    6.91
   7  -8   7    4.96    2.33
  -7   8  -7    0.68    2.44
   7  -8   7    5.71    2.56
   7  -8   8    1.37    1.09
  -7   8  -8    5.09    2.80
  -7   8  -8    2.88    2.22
   7  -8   8    1.05    0.93
   7  -8   9    8.99    3.16
  -7   8  -9   15.27    4.14
   7  -8   9   16.21    4.33
  -7   8 -10    0.37    1.12
  -7   8 -10    3.82    2.40
   7  -8  10   -0.35    0.90
   7  -8  10   -0.67    1.66
   7  -8  11    1.14    1.51
   7  -8  11    0.55    1.16
  -7   7  13   51.15   10.20
   7  -7 -13   62.86    9.45
   7  -7 -12   -0.10    1.14
  -7   7  12   -3.23    2.69
   7  -7 -12   -1.57    2.30
   7  -7 -11   22.10    4.18
  -7   7  11   15.57    5.67
   7  -7 -11   13.05    4.65
   7  -7 -10    3.19    1.85
  -7   7  10    1.64    2.31
   7  -7 -10    2.31    1.33
  -7   7   9    4.40    2.81
   7  -7  -9    1.67    1.87
   7  -7  -9    1.89    1.66
  -7   7   8   -0.12    1.59
   7  -7  -8    4.70    2.18
   7  -7  -8    6.21    2.61
  -7   7   7   17.76    5.93
   7  -7  -7   14.94    4.00
   7  -7  -7   11.73    3.58
   7  -7  -6    1.85    1.29
   7  -7  -6    0.84    1.11
  -7   7   5   20.17    6.16
   7  -7  -5   13.36    4.01
   7  -7  -5   14.17    4.00
  -7   7   4   32.92    4.51
   7  -7  -4   32.32    6.06
  -7   7   4   37.82    7.77
   7  -7  -4   29.80    5.88
  -7   7   3   85.32    6.84
   7  -7  -3   84.40   10.13
  -7   7   3   77.91   11.45
   7  -7  -3   89.14    3.99
   7  -7  -3   62.96    8.53
  -7   7   2   18.51    2.75
   7  -7  -2   28.74    5.90
  -7   7   2   30.26    6.95
   7  -7  -2   20.86    2.35
   7  -7  -2   19.81    4.63
  -7   7   1  464.00   14.99
   7  -7  -1  457.21   25.42
  -7   7   1  435.29   28.03
   7  -7  -1  461.80   16.39
   7  -7  -1  407.56   24.09
   7  -7  -1  451.08   20.85
   7  -7   0   89.61   10.55
  -7   7   0  108.07   13.23
   7  -7   0   98.65    6.87
   7  -7   0   94.73   10.73
   7  -7   0  101.14    8.48
   7  -7   1    1.98    1.35
   7  -7   1    3.66    2.34
  -7   7  -1    1.31    1.39
   7  -7   1    3.72    1.46
  -7   7  -2   36.52    7.37
   7  -7   2   31.19    6.09
   7  -7   2   35.26    4.72
  -7   7  -3    0.50    0.77
   7  -7   3    0.70    0.75
  -7   7  -3    0.86    2.41
   7  -7   3    0.18    1.07
   7  -7   3    0.92    1.05
  -7   7  -4    2.65    2.84
   7  -7   4    2.68    1.59
   7  -7   4   -0.73    0.89
  -7   7  -5   10.17    3.35
   7  -7   5    5.20    2.56
   7  -7   5    9.12    2.78
   7  -7   6   56.77    7.88
  -7   7  -6   50.71    8.37
   7  -7   6   51.06    7.07
  -7   7  -7   37.62    7.03
   7  -7   7   34.77    5.92
   7  -7   7   38.03    6.36
  -7   7  -8    1.58    1.55
  -7   7  -8    1.29    1.50
   7  -7   8    0.66    1.35
   7  -7   8    2.43    2.10
   7  -7   9    1.43    1.74
  -7   7  -9   -0.72    1.73
  -7   7  -9    1.55    1.77
   7  -7   9   -0.41    1.37
   7  -7  10   -0.76    1.28
  -7   7 -10   -0.50    1.18
  -7   7 -10    1.76    1.48
   7  -7  10    1.39    1.73
   7  -7  11   -2.02    1.38
   7  -7  11   -0.31    1.23
  -7   6  15   53.91   10.42
  -7   6  14   39.53    9.07
  -7   6  13    2.38    2.69
   7  -6 -13   -1.77    1.98
   7  -6 -12    8.73    2.72
  -7   6  12   13.76    4.82
   7  -6 -12    6.94    3.28
  -7   6  11    3.25    2.77
   7  -6 -11    0.86    0.61
   7  -6 -11    5.23    2.37
  -7   6  10   38.15    8.15
   7  -6 -10   46.87    6.70
   7  -6 -10   45.53    7.06
  -7   6   9   29.56    7.07
   7  -6  -9   29.26    5.36
   7  -6  -9   29.16    5.62
   7  -6  -8    1.69    1.48
  -7   6   8    3.31    2.98
   7  -6  -8    5.19    2.31
  -7   6   7    4.95    2.33
   7  -6  -7    5.05    2.35
  -7   6   7    7.08    3.65
   7  -6  -7    5.20    2.48
   7  -6  -7    5.96    1.26
  -7   6   6  176.86   12.25
   7  -6  -6  181.66   15.05
  -7   6   6  176.79   17.26
   7  -6  -6  186.53    7.24
   7  -6  -6  183.23    7.85
   7  -6  -6  168.60   13.53
  -7   6   5   52.66    5.91
   7  -6  -5   54.05    8.21
   7  -6  -5   48.16    3.39
  -7   6   5   55.88    9.42
   7  -6  -5   49.49    3.86
   7  -6  -5   43.71    6.62
   7  -6  -4   -0.35    1.74
  -7   6   4   -0.28    0.68
  -7   6   4    0.64    1.39
   7  -6  -4    2.23    1.90
   7  -6  -4    1.76    0.79
   7  -6  -3    2.06    2.18
  -7   6   3    0.12    0.41
  -7   6   3    0.70    0.97
   7  -6  -3    0.79    0.93
   7  -6  -3    1.36    0.84
   7  -6  -2    4.48    2.26
  -7   6   2    3.42    1.02
  -7   6   2    4.40    2.41
   7  -6  -2    1.76    1.66
   7  -6  -2    2.37    1.06
   7  -6  -1  198.85   16.34
  -7   6   1  192.47   17.53
   7  -6  -1  212.33   11.49
   7  -6  -1  198.18   15.04
   7  -6  -1  194.58   13.13
   7  -6   0  249.67   18.70
  -7   6   0  267.65   20.80
   7  -6   0  281.60   14.39
   7  -6   0  260.50   14.75
   7  -6   1    6.21    1.96
   7  -6   1    3.47    1.81
  -7   6  -1    8.28    3.59
   7  -6   1    6.23    2.23
   7  -6   2   12.89    3.81
  -7   6  -2   25.31    5.99
   7  -6   2   20.19    3.92
   7  -6   3  103.01   11.54
  -7   6  -3   81.39   10.85
   7  -6   3   92.09    8.90
  -7   6  -3   82.08    8.95
   7  -6   3  105.97    7.22
   7  -6   4  122.34   12.55
  -7   6  -4  113.41   12.85
   7  -6   4  145.25   11.65
   7  -6   4  134.21    7.29
   7  -6   5   19.37    4.76
  -7   6  -5   18.72    4.76
  -7   6  -5   23.79    4.03
   7  -6   5   23.43    4.87
   7  -6   6   74.00    9.42
  -7   6  -6   73.56    9.98
   7  -6   6   88.87    9.74
  -7   6  -7   39.59    7.18
   7  -6   7   44.23    7.10
   7  -6   7   43.33    6.88
  -7   6  -8    1.78    2.26
  -7   6  -8   -0.06    1.00
   7  -6   8    0.65    0.82
   7  -6   8    0.34    1.67
  -7   6  -9    2.51    2.15
  -7   6  -9    5.42    2.43
   7  -6   9    3.66    2.19
   7  -6   9    3.66    2.45
  -7   6 -10   62.71    7.74
   7  -6  10   67.11    7.83
  -7   6 -10   58.76    8.29
   7  -6  10   63.10    9.26
   7  -6  11    4.67    1.92
  -7   6 -11    9.49    3.47
  -7   6 -11    6.24    2.52
   7  -6  11    3.39    1.03
  -7   5  16    1.18    1.88
  -7   5  15   84.59   12.62
  -7   5  14    4.36    2.87
  -7   5  13   12.39    4.91
   7  -5 -13   13.01    3.26
  -7   5  12   15.65    5.16
   7  -5 -12   12.23    3.24
   7  -5 -12   13.19    3.81
   7  -5 -11    2.82    1.30
  -7   5  11    1.71    1.35
   7  -5 -11   -0.15    1.48
   7  -5 -10   -0.44    1.05
  -7   5  10    5.80    3.23
   7  -5 -10    3.99    2.43
   7  -5  -9    5.53    2.01
  -7   5   9    5.96    2.75
   7  -5  -9    5.48    2.19
   7  -5  -8   46.10    7.70
  -7   5   8   41.50    8.28
   7  -5  -8   42.66    6.11
  -7   5   7  197.71   13.34
   7  -5  -7  193.89   15.78
  -7   5   7  197.29   17.83
   7  -5  -7  172.48    8.73
   7  -5  -7  179.41   10.35
   7  -5  -7  160.30   12.28
   7  -5  -6   32.38    6.38
  -7   5   6   35.51    5.28
   7  -5  -6   29.88    3.34
  -7   5   6   27.01    6.64
   7  -5  -6   36.29    4.42
   7  -5  -6   31.91    5.15
  -7   5   5   68.53    6.50
   7  -5  -5   69.63    9.30
  -7   5   5   56.55    9.40
   7  -5  -5   61.57    5.95
   7  -5  -5   59.27    7.09
   7  -5  -4    2.91    1.15
   7  -5  -4    0.66    1.58
  -7   5   4    3.58    1.56
   7  -5  -4    0.32    0.65
  -7   5   4    3.07    1.75
   7  -5  -3   49.10    7.75
  -7   5   3   46.62    3.93
  -7   5   3   46.78    8.43
   7  -5  -3   48.48    5.44
   7  -5  -3   41.05    6.07
  -7   5   3   41.60    6.20
   7  -5  -2    1.16    2.30
   7  -5  -2    0.53    1.24
  -7   5   2   -1.93    2.20
   7  -5  -2    0.70    0.68
  -7   5   2    0.66    0.78
   7  -5  -2    1.37    1.17
   7  -5  -1    1.18    1.18
   7  -5  -1    2.14    1.75
  -7   5   1    1.17    1.95
  -7   5   1    2.24    2.22
   7  -5  -1    4.85    2.11
   7  -5   0   21.77    5.54
   7  -5   0   33.17    4.93
  -7   5   0   35.61    7.35
   7  -5   0   37.26    5.35
  -7   5   0   29.03    5.47
   7  -5   1    2.15    1.61
   7  -5   1    1.52    1.08
  -7   5  -1    0.51    1.60
   7  -5   1    2.20    1.49
   7  -5   2   52.21    8.12
  -7   5  -2   46.34    7.95
   7  -5   2   38.57    5.82
   7  -5   3   14.42    4.31
   7  -5   3   12.53    2.58
  -7   5  -3    8.32    2.78
  -7   5  -3    8.68    3.33
   7  -5   3   18.35    4.12
   7  -5   4   10.26    1.96
   7  -5   4   13.52    4.42
  -7   5  -4   10.57    3.71
   7  -5   4   12.90    3.51
   7  -5   5  120.13    6.60
   7  -5   5  134.36   13.25
  -7   5  -5  121.63   12.84
  -7   5  -5  117.82    8.58
   7  -5   5  121.83   11.57
   7  -5   5  126.75    7.11
   7  -5   6   12.52    1.36
   7  -5   6    8.97    3.45
  -7   5  -6   11.75    3.84
   7  -5   6   10.16    3.46
  -7   5  -7   -1.48    2.04
  -7   5  -7    1.71    1.34
   7  -5   7   -0.87    1.54
   7  -5   8   -1.14    0.74
  -7   5  -8    1.78    1.58
  -7   5  -8   -0.27    1.00
   7  -5   8   -1.16    1.56
   7  -5   9    8.48    2.77
  -7   5  -9    5.81    2.96
  -7   5  -9    8.30    2.82
   7  -5   9    7.83    3.30
  -7   5 -10   15.62    4.13
  -7   5 -10   11.68    3.12
   7  -5  10   25.28    4.96
   7  -5  10   22.71    5.52
  -7   5 -11    6.30    2.53
   7  -5  11    5.18    2.17
   7  -5  11    4.13    2.73
  -7   4  16    4.61    3.21
  -7   4  15   24.64    6.64
   7  -4 -15   41.50   12.22
  -7   4  14   17.07    5.35
   7  -4 -14   40.98   12.42
   7  -4 -13   27.63    4.99
  -7   4  13   25.05    6.53
   7  -4 -13   37.15   10.24
   7  -4 -12    6.02    2.38
  -7   4  12   12.69    4.66
   7  -4 -12    8.19    5.45
   7  -4 -12    9.83    3.19
   7  -4 -11    0.71    1.19
  -7   4  11   -1.22    1.47
   7  -4 -11    2.89    4.22
   7  -4 -11    0.24    0.86
   7  -4 -10   -0.17    0.93
  -7   4  10   -0.57    1.73
   7  -4 -10    1.30    2.13
   7  -4 -10   -3.83    1.73
   7  -4  -9    0.24    1.45
  -7   4   9   -1.09    2.22
   7  -4  -9    0.38    0.46
   7  -4  -9    0.39    0.54
  -7   4   8    3.32    1.49
  -7   4   8    1.20    2.20
   7  -4  -8    6.53    4.85
   7  -4  -8    4.92    1.94
   7  -4  -8    6.33    3.35
  -7   4   7   15.69    3.60
  -7   4   7   10.04    3.82
   7  -4  -7   18.80    6.15
   7  -4  -7   14.08    3.12
   7  -4  -7   10.75    3.33
   7  -4  -6   22.72    4.20
  -7   4   6   19.99    3.72
  -7   4   6   24.43    6.23
   7  -4  -6   16.02    3.22
   7  -4  -6   14.00    4.25
   7  -4  -5   35.93    5.12
  -7   4   5   25.58    3.77
  -7   4   5   26.53    6.25
   7  -4  -5   27.40    4.34
  -7   4   4   57.23    5.09
  -7   4   4   61.71    9.47
   7  -4  -4   60.43    6.85
   7  -4  -4   53.40    6.38
  -7   4   3  192.16   16.97
   7  -4  -3  197.46   13.10
  -7   4   2  409.00   25.77
   7  -4  -2  434.48   20.98
  -7   4   2  407.13   20.27
   7  -4  -2  434.42   22.15
  -7   4   1  133.89   13.92
   7  -4  -1  138.53   11.12
  -7   4   1  160.48   12.06
   7  -4  -1  139.18   11.29
   7  -4   0    1.64    1.41
  -7   4   0    0.98    1.59
  -7   4   0    3.10    2.29
   7  -4   0    2.16    1.35
   7  -4   1   16.75    3.47
  -7   4  -1   15.88    4.69
  -7   4  -1   15.97    4.15
   7  -4   1   12.65    3.44
  -7   4  -2   17.96    4.72
  -7   4  -2   11.82    3.57
   7  -4   2   13.67    3.54
  -7   4  -3    3.33    1.17
   7  -4   3    4.96    2.47
   7  -4   4    1.84    1.10
  -7   4  -4    4.24    2.33
   7  -4   4    5.52    2.33
   7  -4   5  156.57    8.51
   7  -4   5  148.78   13.83
  -7   4  -5  146.29   13.74
  -7   4  -5  137.72    8.65
   7  -4   5  137.68   12.74
   7  -4   5  137.45    8.54
   7  -4   6   -0.61    1.37
   7  -4   6   -0.35    0.50
  -7   4  -6   -0.59    1.61
   7  -4   6    0.82    1.99
   7  -4   7    4.64    1.89
  -7   4  -7    1.41    1.62
  -7   4  -7    1.06    1.74
   7  -4   7    3.73    2.83
   7  -4   8    1.04    1.83
  -7   4  -8    0.35    0.93
  -7   4  -8   -0.11    1.17
   7  -4   8    2.02    1.42
   7  -4   9    2.20    1.45
  -7   4  -9    4.81    2.80
  -7   4  -9    2.78    2.08
   7  -4   9   -1.37    1.13
   7  -4  10    7.32    2.90
  -7   4 -10    3.30    1.88
   7  -4  10    6.59    3.17
  -7   4 -11   15.83    3.77
   7  -4  11   16.18    5.03
  -7   3  15    8.83    4.03
   7  -3 -15   13.37    6.71
  -7   3  14    0.83    1.90
   7  -3 -14   13.15    7.03
   7  -3 -13   -0.84    1.91
  -7   3  13    1.20    1.64
   7  -3 -13   -1.78    2.40
   7  -3 -12   41.09    6.66
  -7   3  12   48.69    8.75
   7  -3 -12   34.50    8.65
  -7   3  11   -0.68    1.43
   7  -3 -11   -1.16    2.58
   7  -3 -11    1.40    1.39
   7  -3 -11    0.15    0.93
  -7   3  10   69.87   10.35
   7  -3 -10   77.25   11.21
   7  -3 -10   75.83    6.78
  -7   3   9   56.22    9.23
   7  -3  -9   42.79    5.13
   7  -3  -9   38.47    7.40
   7  -3  -9   46.48    5.04
  -7   3   8   72.39    8.14
   7  -3  -8   69.91    9.60
  -7   3   8   72.63   10.35
   7  -3  -8   59.28    6.07
   7  -3  -8   64.84    5.99
  -7   3   7   16.64    3.74
  -7   3   7   11.94    4.12
   7  -3  -7   16.70    5.44
   7  -3  -7   12.77    2.60
  -7   3   6    1.34    1.24
  -7   3   6    1.88    1.34
   7  -3  -6    0.72    1.13
   7  -3  -5    0.73    0.76
  -7   3   5    1.29    0.86
  -7   3   5    0.88    1.51
   7  -3  -5    1.70    1.74
   7  -3  -5    3.39    1.55
   7  -3  -4   -0.41    1.15
   7  -3  -4    0.05    0.77
  -7   3   4    0.39    0.56
   7  -3  -3   21.96    4.67
  -7   3   3   14.32    4.66
   7  -3  -3   19.43    3.40
  -7   3   3   26.63    4.02
  -7   3   2  581.61   31.25
   7  -3  -2  618.99   28.26
  -7   3   1  248.46   19.01
   7  -3  -1  246.71   16.40
  -7   3   0  167.78   15.15
   7  -3   0  182.56   13.98
  -7   3   0  154.40   11.49
  -7   3  -1    1.57    1.91
  -7   3  -1   -0.24    0.84
   7  -3   1    0.68    1.79
  -7   3  -2   13.79    4.31
  -7   3  -2   10.23    3.23
   7  -3   2   10.60    3.56
  -7   3  -3  146.89   13.89
   7  -3   3  126.85   12.10
  -7   3  -4    1.22    2.00
   7  -3   4    1.37    1.46
   7  -3   5   44.22    4.70
  -7   3  -5   34.39    6.56
   7  -3   5   47.13    7.66
   7  -3   6   -0.06    0.54
  -7   3  -6    0.58    1.02
   7  -3   6   -0.27    1.78
   7  -3   7    7.79    1.64
  -7   3  -7    4.99    2.79
  -7   3  -7    3.53    2.00
   7  -3   7   11.89    4.15
  -7   3  -8    3.67    1.88
   7  -3   8   -0.42    1.19
   7  -3   8    1.82    2.62
   7  -3   9    9.14    3.10
  -7   3  -9    7.50    2.81
   7  -3   9    4.64    2.33
   7  -3  10   40.81    6.56
  -7   3 -10   39.19    5.87
   7  -3  10   31.84    6.92
  -7   3 -11   42.94    6.25
   7  -3  11   38.05    7.73
   7  -2 -16   91.74   16.23
  -7   2  15   36.03    7.17
   7  -2 -15   29.86    8.79
  -7   2  14    8.52    3.42
   7  -2 -14    4.15    2.83
  -7   2  13   35.73    7.05
   7  -2 -13   32.75    7.95
   7  -2 -13   34.89    6.16
  -7   2  12   13.05    4.39
   7  -2 -12   12.73    4.83
  -7   2  11    0.68    1.64
   7  -2 -11   -0.98    1.97
  -7   2  10   44.51    7.86
   7  -2 -10   36.43    7.19
   7  -2 -10   36.46    3.77
  -7   2   9   56.48    8.92
   7  -2  -9   54.61    8.30
   7  -2  -9   65.75    4.92
  -7   2   8   77.69    8.44
   7  -2  -8   63.26    8.38
  -7   2   8   71.26    9.90
   7  -2  -8   72.21    5.17
  -7   2   7    0.24    0.92
  -7   2   7   -1.57    1.99
  -7   2   6   -1.27    2.19
  -7   2   5   12.21    4.07
   7  -2  -4   44.68    7.05
   7  -2  -4   45.87    5.08
  -7   2   4   48.92    8.07
  -7   2   4   38.86    3.93
   7  -2  -3    9.50    3.29
  -7   2   3    8.18    3.60
   7  -2  -3    9.26    2.09
  -7   2   3    8.40    2.02
   7  -2  -2   35.18    6.42
   7  -2  -2   34.99    3.34
  -7   2   2   24.42    5.64
  -7   2   2   28.10    3.84
   7  -2  -1   13.67    3.78
  -7   2   1   12.64    3.77
   7  -2  -1    9.73    1.37
  -7   2   1   13.08    2.86
   7  -2   0    2.85    2.56
  -7   2   0    0.77    0.85
  -7   2  -1  101.04   11.29
   7  -2   1  102.07   11.23
  -7   2  -1   92.22    8.63
  -7   2  -2   48.56    7.80
   7  -2   2   50.99    7.92
  -7   2  -2   57.64    7.08
  -7   2  -3   79.93    9.95
   7  -2   3   77.55    9.86
  -7   2  -3   68.11    8.17
   7  -2   4   87.54    7.89
  -7   2  -4   70.97    9.38
   7  -2   4   91.95   10.84
   7  -2   5  323.80   15.53
   7  -2   5  306.29   11.28
  -7   2  -5  303.70   20.16
   7  -2   5  292.17   20.55
   7  -2   6   88.75    6.88
  -7   2  -6   80.07    8.77
  -7   2  -6  100.81   11.02
   7  -2   6  108.17   12.09
   7  -2   7    2.85    1.13
  -7   2  -7    1.71    2.20
  -7   2  -7    6.52    2.61
   7  -2   7    1.86    1.53
  -7   2  -8   67.86    8.01
   7  -2   8   71.88   10.31
  -7   2  -9   88.04    8.98
   7  -2   9   76.82   10.78
  -7   2 -10   41.88    6.03
   7  -2  10   28.20    6.47
   7  -2  10   31.88    5.99
  -7   2 -11  116.93   10.28
   7  -1 -16   10.51    5.10
   7  -1 -15    8.14    4.07
  -7   1  14   29.62    5.93
   7  -1 -14   13.26    5.13
  -7   1  14   25.75    4.83
  -7   1  13    3.00    1.90
   7  -1 -13    4.20    2.92
  -7   1  12   22.61    5.52
   7  -1 -12   14.06    4.61
  -7   1  11   16.66    4.54
   7  -1 -11   14.56    4.48
   7  -1 -10   45.23    7.62
  -7   1  10   45.34    7.78
   7  -1  -9    0.56    0.92
  -7   1   9    1.39    1.80
   7  -1  -8  201.94   15.26
  -7   1   8  211.60   17.20
   7  -1  -7  184.98   13.74
  -7   1   7  200.42   16.73
   7  -1  -6   19.83    4.02
  -7   1   6   18.75    5.00
  -7   1   5   63.41    9.00
   7  -1  -4  695.43   26.51
  -7   1   4  690.16   33.96
   7  -1  -3  136.91    9.29
  -7   1   3  138.94   13.65
   7  -1  -3  154.85   14.32
  -7   1   3  137.64    7.17
   7  -1  -2   18.03    5.17
   7  -1  -2   15.16    2.68
  -7   1   2   24.31    5.55
  -7   1   2   14.08    2.48
   7  -1  -1    2.87    1.80
   7  -1  -1    8.28    1.93
  -7   1   1    4.13    1.65
  -7   1   1    5.59    1.69
   7  -1   0   12.44    4.42
   7  -1   0   11.22    2.03
  -7   1   0    4.60    2.50
   7  -1   1    5.95    2.99
   7  -1   1    9.46    1.74
  -7   1  -1    8.86    3.41
  -7   1  -1    1.10    1.19
   7  -1   2    1.82    0.85
  -7   1  -2    3.58    2.26
   7  -1   2    4.00    1.40
  -7   1  -2    1.95    1.54
   7  -1   2   -0.36    0.96
   7  -1   3   23.01    4.36
  -7   1  -3   12.67    3.79
   7  -1   3   12.75    1.65
  -7   1  -3   19.22    2.83
  -7   1  -3   11.85    3.41
   7  -1   3   18.71    5.19
   7  -1   4   28.73    3.48
   7  -1   4   29.19    4.76
  -7   1  -4   20.75    5.14
  -7   1  -4   30.76    2.96
   7  -1   4   31.05    6.53
   7  -1   5    4.67    1.83
  -7   1  -5    4.32    2.39
   7  -1   5    1.74    0.94
   7  -1   6   -0.52    0.65
  -7   1  -6    0.47    1.76
  -7   1  -6    1.55    1.47
   7  -1   6    1.57    1.85
   7  -1   7   30.03    4.17
  -7   1  -7   24.58    4.72
   7  -1   7   23.69    6.32
   7  -1   8   18.51    3.21
  -7   1  -8   14.82    3.60
   7  -1   8   16.48    5.16
  -7   1  -9   19.25    4.07
   7  -1   9   17.11    4.91
  -7   1 -10    2.80    1.65
   7  -1  10    1.72    1.60
  -7   1 -11    9.92    2.91
   7   0 -15   -2.91    3.75
   7   0 -14    1.45    2.16
  -7   0  14    5.76    2.60
  -7   0  14    0.82    1.67
  -7   0  13   12.23    3.90
   7   0 -13   13.78    4.87
  -7   0  13    7.72    2.69
  -7   0  13   12.86    4.73
   7   0 -12   25.70    6.32
  -7   0  12   30.58    5.93
  -7   0  12   25.52    5.03
  -7   0  12   35.44    7.37
   7   0 -11  144.41   14.63
  -7   0  11  129.07   12.75
  -7   0  11  144.25   14.57
   7   0 -10   19.92    4.87
  -7   0  10   20.89    5.00
   7   0  -9    5.31    2.57
  -7   0   9    6.90    2.92
   7   0  -8    7.46    3.06
  -7   0   8    5.86    2.82
   7   0  -7    7.34    2.86
  -7   0   7    8.09    3.12
   7   0  -6   33.77    5.61
  -7   0   6   52.42    8.11
   7   0  -5    6.71    2.49
  -7   0   5    2.32    1.23
  -7   0   4  170.05   14.76
  -7   0   3  274.31   19.11
  -7   0   3  262.97    8.83
   7   0  -2    0.20    1.66
   7   0  -2    0.64    1.13
  -7   0   2   -0.19    0.94
  -7   0   2    0.51    0.77
   7   0  -1   60.10    6.13
  -7   0   1   67.76    9.03
  -7   0   1   71.35    7.38
   7   0  -1   78.31   11.02
  -7   0   1   62.48    5.51
   7   0   0    0.28    1.30
   7   0   0   -2.37    1.18
  -7   0   0   -0.44    1.03
  -7   0   0    0.53    0.99
  -7   0   0   -1.06    0.84
   7   0   1    4.12    2.91
   7   0   1    3.40    1.47
  -7   0  -1   -0.27    1.35
  -7   0  -1    3.60    1.45
   7   0   2   61.67    9.86
   7   0   2   50.24    6.91
  -7   0  -2   52.62    7.92
  -7   0  -2   53.14    4.89
   7   0   3   39.25    5.97
  -7   0  -3   41.06    7.06
  -7   0  -3   35.44    3.37
   7   0   3   28.40    5.08
   7   0   3   33.50    7.09
   7   0   4    9.84    3.01
  -7   0  -4   15.50    4.35
   7   0   4   11.91    3.12
  -7   0  -4   15.65    1.64
   7   0   4   16.25    4.81
   7   0   5    5.84    2.32
  -7   0  -5    3.49    1.33
   7   0   5    4.50    2.73
   7   0   6    3.99    1.75
  -7   0  -6    4.82    2.05
   7   0   6    3.64    2.96
   7   0   7    8.12    2.52
  -7   0  -7    7.49    2.71
  -7   0  -7   10.62    3.16
   7   0   7    6.73    3.67
   7   0   8    7.47    2.11
  -7   0  -8   10.05    2.91
  -7   0  -8    8.51    2.66
   7   0   8    6.45    3.47
  -7   0  -9   72.92    7.92
  -7   0  -9   74.03    7.80
   7   0   9   72.73   10.82
  -7   0 -10    8.50    2.54
   7   1 -15   -1.58    1.55
  -7  -1  14    3.36    2.08
   7   1 -14    0.14    1.96
  -7  -1  14    1.23    1.17
   7   1 -13   55.05    9.43
  -7  -1  13   40.01    6.03
  -7  -1  13   43.51    8.15
   7   1 -12   -0.21    1.73
  -7  -1  12   -0.38    0.99
  -7  -1  12    0.31    1.62
  -7  -1  12   -0.24    1.15
   7   1 -11   33.21    6.76
  -7  -1  11   31.05    5.56
  -7  -1  11   39.40    6.24
  -7  -1  11   40.61    7.73
  -7  -1  10   68.28    8.48
   7   1 -10   62.96    9.24
  -7  -1  10   80.44    9.33
  -7  -1  10   70.92    9.87
   7   1  -9   -1.06    1.83
  -7  -1   9   -0.01    1.09
  -7  -1   9    1.95    2.10
  -7  -1   9   -0.42    1.54
   7   1  -8    2.02    1.58
  -7  -1   8    3.75    2.29
  -7  -1   8    7.09    2.91
  -7  -1   8    7.22    2.83
   7   1  -7   -0.68    2.37
  -7  -1   7   -0.96    1.63
  -7  -1   7    0.76    1.00
   7   1  -6   28.21    5.33
  -7  -1   6   23.74    5.26
  -7  -1   6   26.30    5.41
   7   1  -5    3.06    2.06
  -7  -1   5    4.65    2.52
  -7  -1   5    2.79    2.34
   7   1  -4   69.29    8.00
  -7  -1   4   64.95    8.74
  -7  -1   4   59.04    7.45
   7   1  -3    2.67    1.51
   7   1  -3    0.74    1.28
  -7  -1   3   -0.21    1.59
  -7  -1   3    2.87    1.54
   7   1  -2   14.92    4.98
   7   1  -2   14.89    3.55
  -7  -1   2   11.12    3.81
  -7  -1   2   11.21    2.97
  -7  -1   2   10.33    1.70
   7   1  -1   -0.98    2.24
   7   1  -1   -0.95    0.92
  -7  -1   1   -0.46    1.28
  -7  -1   1   -0.70    0.96
  -7  -1   1    0.51    0.46
  -7  -1   0   77.19    9.39
  -7  -1   0   92.63    7.25
  -7  -1  -1   95.68   10.75
  -7  -1  -1   83.68    6.60
   7   1   1   95.41   12.91
   7   1   2   13.88    5.19
   7   1   2   12.04    3.44
  -7  -1  -2   11.81    3.81
  -7  -1  -2    9.17    1.77
   7   1   3   18.87    5.88
   7   1   3   20.11    4.67
  -7  -1  -3   20.68    4.73
  -7  -1  -3   18.36    2.23
   7   1   4   68.47    8.06
  -7  -1  -4   60.29    8.04
  -7  -1  -4   62.29    7.09
   7   1   4   64.74   10.50
   7   1   5   11.32    3.07
  -7  -1  -5   16.06    3.55
  -7  -1  -5   17.89    4.19
   7   1   5   22.19    6.07
   7   1   6   12.47    3.20
  -7  -1  -6    7.84    2.22
  -7  -1  -6    5.48    2.07
   7   1   6   14.01    5.06
   7   1   7    4.67    2.13
  -7  -1  -7    4.54    1.99
  -7  -1  -7    3.80    1.78
   7   1   7    0.23    1.11
   7   1   8    1.04    0.77
  -7  -1  -8    1.44    1.21
  -7  -1  -8    2.79    1.58
   7   1   8    1.28    2.38
   7   1   9   43.29    6.11
  -7  -1  -9   56.11    6.54
  -7  -1  -9   47.63    5.82
  -7  -1 -10   23.72    4.22
   7   2 -15   -1.37    2.39
  -7  -2  14   20.49    3.82
   7   2 -14   22.12    6.59
  -7  -2  13   49.64    6.33
   7   2 -13   30.53    7.15
  -7  -2  13   46.69    8.20
   7   2 -12    8.84    4.32
  -7  -2  12    9.91    3.02
  -7  -2  12    9.69    3.08
  -7  -2  12   11.70    3.91
   7   2 -11   -0.56    1.57
  -7  -2  11   -0.95    1.11
  -7  -2  11   -1.14    1.27
  -7  -2  11    1.47    1.76
   7   2 -10    1.46    1.63
  -7  -2  10    0.75    1.54
  -7  -2  10   -1.39    1.01
  -7  -2  10   -1.33    2.02
   7   2  -9    4.93    1.87
  -7  -2   9    2.21    1.83
  -7  -2   9    4.50    2.11
  -7  -2   8  114.91   11.25
   7   2  -8  113.79   12.34
  -7  -2   8  112.87   10.84
  -7  -2   8  138.76   12.79
   7   2  -7    6.59    2.89
  -7  -2   7    2.33    1.75
  -7  -2   7    8.30    3.39
  -7  -2   7    5.43    2.38
   7   2  -6    5.99    2.90
  -7  -2   6    3.45    2.09
  -7  -2   6    5.13    2.24
  -7  -2   6    6.63    2.69
  -7  -2   5  262.65   17.85
   7   2  -5  264.23   18.13
  -7  -2   5  261.68   17.73
  -7  -2   5  266.94   16.86
   7   2  -4    6.73    2.79
  -7  -2   4    9.90    3.60
  -7  -2   4    1.74    1.84
  -7  -2   4    9.19    2.89
   7   2  -3   33.03    7.44
   7   2  -3   33.87    5.89
  -7  -2   3   44.82    7.18
  -7  -2   3   37.89    6.40
  -7  -2   3   32.87    5.14
   7   2  -2   12.10    4.62
   7   2  -2   13.26    3.56
  -7  -2   2   13.81    4.05
  -7  -2   2    7.04    3.04
  -7  -2   2   15.69    3.43
  -7  -2   2   12.01    1.87
  -7  -2   2   12.71    1.79
   7   2  -1    9.39    4.24
   7   2  -1   10.40    3.26
  -7  -2   1   13.13    3.81
  -7  -2   1    9.91    3.28
  -7  -2   1    6.67    2.29
   7   2   0   21.68    6.26
   7   2   0   18.25    4.71
  -7  -2   0   12.55    3.75
  -7  -2   0   18.52    3.29
   7   2   1   37.64    8.13
   7   2   1   31.36    6.02
  -7  -2  -1   26.98    5.43
  -7  -2  -1   26.45    3.51
   7   2   2    8.30    4.47
   7   2   2   10.92    3.63
  -7  -2  -2    7.90    2.99
  -7  -2  -2    7.63    1.75
   7   2   3   51.86    9.97
  -7  -2  -3   54.55    7.54
   7   2   3   39.93    6.56
  -7  -2  -3   40.20    5.42
   7   2   4    8.60    2.89
  -7  -2  -4    7.75    2.30
  -7  -2  -4    8.94    2.83
   7   2   5    0.08    1.50
  -7  -2  -5    1.97    1.06
  -7  -2  -5   -0.68    0.81
   7   2   5    0.16    2.47
   7   2   6    5.58    2.80
  -7  -2  -6    4.93    2.09
  -7  -2  -6    3.88    1.85
   7   2   6    1.55    2.09
   7   2   7   -0.69    0.78
  -7  -2  -7    1.09    1.18
  -7  -2  -7    2.56    1.68
   7   2   8   -0.32    0.83
  -7  -2  -8    1.05    1.22
  -7  -2  -8    2.31    1.51
   7   2   9    1.36    1.51
  -7  -2  -9    1.29    1.22
  -7  -2 -10   10.05    2.62
  -7  -3  14    1.12    0.76
   7   3 -14    0.55    1.41
   7   3 -13   58.83   10.33
  -7  -3  13   52.75    8.49
  -7  -3  13   48.27    6.13
   7   3 -12    2.05    1.46
  -7  -3  12    1.44    1.30
  -7  -3  12    2.52    1.55
   7   3 -11    2.75    2.08
  -7  -3  11    0.50    1.23
  -7  -3  11    0.97    0.80
  -7  -3  11    5.36    2.90
   7   3 -10    4.81    2.55
  -7  -3  10   10.43    2.89
  -7  -3  10    8.62    2.60
  -7  -3  10    8.87    3.56
   7   3  -9    9.40    3.80
  -7  -3   9    8.74    2.82
  -7  -3   9   12.73    3.61
  -7  -3   9    8.16    3.29
   7   3  -8    6.20    2.57
  -7  -3   8    9.51    3.03
  -7  -3   8    6.43    2.59
  -7  -3   8   11.09    3.73
   7   3  -7    5.15    3.40
  -7  -3   7    0.68    1.35
  -7  -3   7    1.48    1.70
  -7  -3   7    1.99    2.10
   7   3  -6    0.40    0.87
  -7  -3   6    0.39    0.89
  -7  -3   6    4.49    2.19
  -7  -3   6    3.36    1.86
  -7  -3   5   69.48    8.57
   7   3  -5   99.57   11.33
  -7  -3   5   85.92    9.51
  -7  -3   5   89.41    9.34
  -7  -3   4   92.49   10.09
   7   3  -4   83.33   10.18
  -7  -3   4   90.58    9.06
   7   3  -3    9.61    4.40
   7   3  -3   17.86    4.67
  -7  -3   3   21.06    4.74
  -7  -3   3   18.61    3.87
   7   3  -2    2.96    2.88
   7   3  -2    3.90    2.10
  -7  -3   2    5.33    2.76
  -7  -3   2    4.27    1.94
   7   3  -1    3.63    3.28
   7   3  -1    3.87    2.65
  -7  -3   1    2.94    2.32
  -7  -3   1    5.59    1.47
  -7  -3   1    4.63    1.55
   7   3   0   -0.61    2.52
   7   3   0    0.14    1.43
  -7  -3   0    1.04    1.65
  -7  -3   0   -0.02    0.54
   7   3   1    7.68    4.21
   7   3   1   13.61    4.10
  -7  -3  -1    8.81    2.88
  -7  -3  -1   12.25    2.35
   7   3   2   12.38    4.46
   7   3   2   18.98    4.77
  -7  -3  -2   15.26    3.77
  -7  -3  -2   14.34    2.97
   7   3   3    1.27    3.11
   7   3   3    1.49    2.44
  -7  -3  -3    0.70    0.88
  -7  -3  -3    0.79    1.21
   7   3   4    4.26    2.24
  -7  -3  -4    1.95    1.76
  -7  -3  -4    2.07    1.17
   7   3   4    1.91    2.37
   7   3   5   24.05    5.18
  -7  -3  -5   21.02    4.23
  -7  -3  -5   19.37    3.37
   7   3   5   22.90    6.83
   7   3   6   10.84    3.51
  -7  -3  -6   10.14    3.12
  -7  -3  -6   15.44    3.03
   7   3   6   10.56    4.68
   7   3   7   45.35    7.18
  -7  -3  -7   44.30    5.13
  -7  -3  -7   29.60    4.83
   7   3   8   10.80    3.39
  -7  -3  -8   17.65    3.44
  -7  -3  -8   17.82    3.26
   7   3   9    7.66    2.94
  -7  -3  -9    3.89    1.53
  -7  -4  14    0.36    1.15
  -7  -4  13    1.45    1.46
   7   4 -13    8.94    4.24
   7   4 -12   22.83    6.67
  -7  -4  12   17.79    3.83
  -7  -4  12   33.19    6.83
   7   4 -11   -1.41    2.71
  -7  -4  11    1.99    1.57
  -7  -4  11    4.08    2.92
   7   4 -10   10.49    4.16
  -7  -4  10   12.74    3.35
  -7  -4  10   14.74    4.39
   7   4  -9    2.53    3.25
  -7  -4   9    2.67    1.77
  -7  -4   9    2.01    1.90
   7   4  -8   13.47    4.71
  -7  -4   8   16.09    3.74
  -7  -4   8   18.30    4.73
  -7  -4   7   76.06    8.50
  -7  -4   7   91.46    9.97
   7   4  -6   30.94    6.78
  -7  -4   6   33.18    5.60
  -7  -4   6   35.91    6.12
   7   4  -5   36.60    7.24
  -7  -4   5   36.35    5.91
  -7  -4   5   43.70    6.43
   7   4  -4   44.65    7.85
  -7  -4   4   42.87    6.58
  -7  -4   4   42.61    6.11
   7   4  -3   42.00    8.99
   7   4  -3   36.63    6.96
  -7  -4   3   46.33    6.78
  -7  -4   3   50.68    6.47
   7   4  -2   37.45    8.38
   7   4  -2   38.97    7.88
   7   4  -2   40.03    7.26
  -7  -4   2   40.30    6.38
  -7  -4   2   53.54    6.32
   7   4  -1    7.51    3.91
   7   4  -1    7.31    3.09
  -7  -4   1    5.35    2.42
  -7  -4   1    6.82    2.04
   7   4   0   55.58   11.13
   7   4   0   40.46    7.47
  -7  -4   0   43.65    6.44
  -7  -4   0   49.66    5.50
  -7  -4  -1   59.40    7.47
   7   4   1   69.28   12.42
   7   4   1   56.12    8.63
  -7  -4  -1   64.92    6.11
   7   4   2    5.59    2.69
   7   4   2    4.83    2.83
  -7  -4  -2    9.45    3.13
  -7  -4  -2    0.41    0.58
   7   4   3    7.48    6.08
   7   4   3    2.29    1.88
  -7  -4  -3    4.06    2.03
  -7  -4  -3    5.09    1.68
   7   4   4   14.19    4.36
  -7  -4  -4    8.97    2.86
  -7  -4  -4   13.54    2.59
   7   4   4   12.10    5.02
   7   4   5   10.93    3.98
  -7  -4  -5    4.51    2.26
  -7  -4  -5    8.94    2.18
   7   4   5    4.66    3.28
   7   4   6    9.19    3.61
  -7  -4  -6    8.42    2.61
   7   4   7    9.14    3.59
  -7  -4  -7    3.04    1.75
   7   4   8    3.53    2.01
  -7  -5  14   -0.83    1.35
  -7  -5  13    2.64    1.51
  -7  -5  12    6.82    2.32
   7   5 -12    8.58    4.94
   7   5 -11   10.58    4.78
  -7  -5  11   15.64    3.48
   7   5 -10    3.41    3.70
  -7  -5  10    1.05    0.92
  -7  -5  10   -1.88    2.19
   7   5  -9   16.35    5.48
  -7  -5   9   29.79    4.87
  -7  -5   9   23.03    5.45
   7   5  -8   11.33    3.86
  -7  -5   8   15.42    3.59
  -7  -5   8   17.28    4.60
   7   5  -7   -2.25    2.36
  -7  -5   7    0.86    1.21
  -7  -5   7    2.10    2.32
   7   5  -6   12.96    4.25
  -7  -5   6   19.49    4.23
  -7  -5   6   23.58    4.85
   7   5  -5   15.26    5.18
  -7  -5   5   15.51    3.77
  -7  -5   5    7.31    2.64
   7   5  -4   40.83    8.27
   7   5  -4   35.00    7.25
  -7  -5   4   33.71    5.60
  -7  -5   4   41.36    6.29
   7   5  -3   -0.08    2.28
   7   5  -3   -1.05    2.44
   7   5  -3    1.20    1.27
  -7  -5   3    3.77    2.03
  -7  -5   3    0.76    0.68
   7   5  -2   83.03   13.34
   7   5  -2   79.11   11.17
  -7  -5   2   78.83    8.01
  -7  -5   2   80.88    8.58
   7   5  -1   44.98    9.86
   7   5  -1   36.80    7.37
  -7  -5   1   35.01    5.62
  -7  -5   1   38.17    5.34
   7   5   0    1.14    2.55
   7   5   0    2.30    1.84
  -7  -5   0    2.39    1.60
   7   5   1   31.91    8.67
   7   5   1   23.65    5.76
  -7  -5  -1   27.07    4.92
   7   5   2   85.88   10.88
  -7  -5  -2   63.94    7.44
   7   5   3   -2.27    1.85
  -7  -5  -3    0.12    0.78
   7   5   4    3.27    1.45
  -7  -5  -4    3.50    1.48
   7   5   5    2.70    2.06
  -7  -5  -5    5.37    2.21
  -7  -5  -6    5.71    1.99
   7   6 -10    9.37    4.20
   7   6  -9    2.35    3.35
  -7  -6   9    4.45    3.10
   7   6  -8   -2.34    2.73
  -7  -6   8    2.34    1.86
   7   6  -7    3.12    2.94
  -7  -6   7    1.32    1.61
  -7  -6   7    0.52    0.95
   7   6  -6   30.87    7.78
   7   6  -6   31.68    7.54
  -7  -6   6   24.97    4.73
  -7  -6   6   28.61    5.67
   7   6  -5    1.88    2.67
   7   6  -5    4.16    3.29
  -7  -6   5    7.04    2.65
  -7  -6   5    4.63    2.20
   7   6  -4    1.24    2.50
  -7  -6   4   -0.92    1.57
  -7  -6   4   -0.67    1.11
   7   6  -3   18.76    6.27
   7   6  -3   13.35    4.80
   7   6  -3   17.88    5.81
  -7  -6   3   15.59    3.63
  -7  -6   3   13.78    3.66
   7   6  -2    4.45    3.85
   7   6  -2    5.82    2.69
  -7  -6   2    4.26    2.09
  -7  -6   2    3.22    1.59
   7   6  -1    2.54    2.00
  -7  -6   1    3.44    2.31
  -7  -7   7   37.44    7.57
   7   7  -6    1.44    1.75
  -7  -7   6    1.03    1.23
   7   7  -5   11.58    4.26
  -7  -7   5    6.17    2.43
   7   7  -4   20.16    6.49
  -7  -7   4   26.15    5.43
   7   7  -3   29.83    7.33
  -8  12  -4    2.98    1.89
   8 -11  -5   14.02    5.47
   8 -11  -4    5.45    2.50
   8 -11  -3   -0.31    1.73
   8 -11  -2   16.85    4.89
  -8  11   1    5.02    5.00
   8 -11  -1    4.88    2.98
  -8  11   0   19.28    6.07
   8 -11   0   17.13    5.83
  -8  11  -1   21.83    6.80
   8 -11   1   17.67    5.77
  -8  11  -2    1.71    2.46
  -8  11  -3   11.37    5.14
  -8  11  -4   28.60    7.29
  -8  11  -5   -1.44    2.15
  -8  11  -6   -2.50    3.95
   8 -10  -9    2.13    2.38
   8 -10  -9   -0.93    1.75
   8 -10  -8    9.65    3.06
   8 -10  -8    6.52    3.26
   8 -10  -7    0.07    1.41
   8 -10  -7   -1.40    2.70
   8 -10  -6    1.40    1.58
   8 -10  -6    0.12    1.60
   8 -10  -5   15.18    3.97
  -8  10   5   15.54    5.56
   8 -10  -5   16.57    5.18
   8 -10  -4   18.59    4.58
  -8  10   4   20.83    6.49
   8 -10  -4   13.49    4.87
   8 -10  -3   12.00    3.63
  -8  10   3   10.00    5.23
   8 -10  -3   10.17    4.91
   8 -10  -2    9.48    3.15
  -8  10   2   10.88    5.07
   8 -10  -2    7.78    3.18
   8 -10  -1    1.24    1.42
   8 -10  -1    1.51    2.34
   8 -10   0    2.04    1.75
  -8  10   0    1.49    1.98
   8 -10   0    2.02    2.50
   8 -10   1    9.24    3.10
  -8  10  -1    5.83    3.57
   8 -10   1   14.15    4.75
   8 -10   2   20.13    4.71
  -8  10  -2   15.57    5.40
   8 -10   3    3.69    2.25
  -8  10  -3    2.35    2.86
   8 -10   4   14.46    4.02
  -8  10  -4    8.74    3.98
   8 -10   5    0.82    1.03
  -8  10  -5    0.26    2.40
  -8  10  -6   19.59    6.16
   8 -10   6    8.98    3.06
  -8  10  -7    0.97    2.56
   8 -10   7    1.87    1.62
   8  -9 -11   19.21    4.00
   8  -9 -10   59.20    7.33
   8  -9 -10   33.49    7.28
   8  -9  -9    1.87    1.56
   8  -9  -9    7.65    3.96
   8  -9  -8    1.35    1.62
   8  -9  -8    0.75    1.78
   8  -9  -7   18.60    4.53
  -8   9   7    7.56    3.77
   8  -9  -7   18.00    5.38
   8  -9  -6   17.73    4.47
  -8   9   6   23.53    6.87
   8  -9  -6   24.33    6.12
   8  -9  -5   53.63    7.93
  -8   9   5   54.08   10.22
   8  -9  -5   47.72    8.22
   8  -9  -4    3.08    2.02
  -8   9   4    6.27    3.82
   8  -9  -4    3.22    2.25
   8  -9  -3    6.69    3.00
  -8   9   3    5.77    4.00
   8  -9  -3    4.27    2.88
  -8   9   2    5.32    4.55
   8  -9  -2   -1.99    2.37
   8  -9  -2    3.60    1.77
  -8   9   1   23.84    6.22
   8  -9  -1   18.84    5.53
   8  -9  -1   20.74    4.95
  -8   9   0   23.01    6.50
   8  -9   0   12.55    4.26
   8  -9   0   20.37    4.85
  -8   9  -1   14.53    5.51
   8  -9   1   14.80    4.42
   8  -9   2    2.33    1.74
  -8   9  -2    2.01    1.56
   8  -9   3    0.37    1.36
  -8   9  -3   -0.16    2.44
   8  -9   4    0.50    1.59
  -8   9  -4   -0.20    1.46
   8  -9   5   -1.05    1.19
   8  -9   5    2.36    1.56
   8  -9   6    0.10    1.39
  -8   9  -6    2.24    1.30
   8  -9   6    3.23    1.92
   8  -9   7   21.89    5.22
  -8   9  -7   19.85    5.86
   8  -9   7   16.35    3.90
   8  -9   8   -1.70    1.67
  -8   9  -8    1.77    2.55
   8  -9   8   -0.05    1.60
   8  -9   9   -2.45    2.11
   8  -9   9    3.46    2.73
   8  -9  10    1.23    1.19
   8  -9  10   12.73    4.05
   8  -8 -11   -0.48    1.15
   8  -8 -11    2.65    3.11
   8  -8 -10   11.13    3.42
   8  -8 -10   13.49    4.59
   8  -8  -9   55.02    7.81
  -8   8   9   36.34    8.63
   8  -8  -9   53.31    8.74
  -8   8   8    0.59    1.70
   8  -8  -8   -3.03    2.69
  -8   8   7   -0.15    1.51
   8  -8  -7    7.58    3.34
   8  -8  -7    4.47    2.15
  -8   8   6   13.92    5.18
   8  -8  -6   10.47    3.30
   8  -8  -6   22.96    5.40
  -8   8   5   33.71    8.02
   8  -8  -5   33.13    6.42
  -8   8   4   13.07    4.81
   8  -8  -4   12.52    3.90
   8  -8  -4    7.28    3.05
  -8   8   3   30.19    7.44
   8  -8  -3   26.90    5.99
   8  -8  -3   16.13    4.56
  -8   8   2   53.78   10.03
   8  -8  -2   53.14    8.15
   8  -8  -2   51.07    8.05
   8  -8  -1  183.12   15.86
  -8   8   1  182.87   18.55
   8  -8  -1  173.54   15.56
  -8   8   0   -1.29    2.13
   8  -8   0    0.73    1.45
  -8   8  -1   25.30    6.86
   8  -8   1   36.85    4.46
   8  -8   1   36.63    6.99
   8  -8   2  102.24   11.77
  -8   8  -2  106.64   13.56
   8  -8   2  107.98    8.38
  -8   8  -3    3.76    3.04
   8  -8   3    3.38    2.72
   8  -8   3    1.64    1.17
  -8   8  -4    3.74    2.74
   8  -8   4   12.29    2.88
  -8   8  -5   12.08    4.87
   8  -8   5   20.91    4.28
   8  -8   5   21.43    5.45
  -8   8  -6   -1.15    2.84
   8  -8   6    0.32    0.67
   8  -8   6   -0.13    1.15
  -8   8  -7    6.27    3.64
   8  -8   7    5.47    2.12
   8  -8   7    1.45    1.65
   8  -8   8    0.28    1.00
  -8   8  -8    2.69    1.49
  -8   8  -8    2.96    2.12
   8  -8   8    4.66    2.92
   8  -8   9    2.55    1.92
  -8   8  -9   -0.97    2.29
   8  -8   9    3.91    2.52
   8  -8  10    3.87    2.15
   8  -8  10   -0.06    1.35
   8  -7 -12   12.86    3.39
  -8   7  11   15.39    5.50
   8  -7 -11   17.42    4.30
   8  -7 -10    1.18    1.50
   8  -7 -10    1.22    1.82
  -8   7   9    4.12    3.19
   8  -7  -9    3.63    2.17
   8  -7  -9    3.92    2.71
  -8   7   8   -0.19    1.06
   8  -7  -8   -1.03    1.45
   8  -7  -8    2.07    1.71
   8  -7  -7    3.18    2.23
  -8   7   7    1.54    1.26
   8  -7  -7    1.10    0.97
   8  -7  -6   23.52    5.71
  -8   7   6   26.39    7.17
   8  -7  -6   19.07    4.62
   8  -7  -5    4.16    2.35
  -8   7   5    3.64    3.11
   8  -7  -5    2.29    1.69
   8  -7  -4   30.03    6.53
  -8   7   4   22.32    6.39
   8  -7  -4   23.80    5.15
   8  -7  -3   -1.94    2.24
  -8   7   3   -0.42    1.38
   8  -7  -3   -5.01    2.40
   8  -7  -2    0.88    0.97
   8  -7  -2    0.38    1.28
   8  -7  -2    0.45    0.66
   8  -7  -1    4.96    2.40
  -8   7   1   14.39    4.79
   8  -7  -1   10.12    2.15
   8  -7   0   25.11    5.96
  -8   7   0   30.12    7.38
   8  -7   0   34.36    4.43
   8  -7   1    8.03    3.46
  -8   7  -1    9.03    4.30
   8  -7   1   12.16    2.80
   8  -7   2   -0.81    1.13
  -8   7  -2    0.67    1.66
   8  -7   2    0.15    0.64
   8  -7   3    0.65    1.62
  -8   7  -3   -1.38    1.45
   8  -7   3   -3.12    1.63
   8  -7   4   16.86    4.66
  -8   7  -4    7.96    3.36
   8  -7   4   13.94    3.54
  -8   7  -5    0.67    1.13
   8  -7   5   -3.73    2.32
   8  -7   5   -0.14    1.78
  -8   7  -6    3.99    1.24
   8  -7   6    9.53    3.36
   8  -7   6   10.15    3.24
  -8   7  -7   16.89    5.30
   8  -7   7   22.34    5.24
   8  -7   7   22.22    4.89
  -8   7  -8    5.44    2.68
  -8   7  -8    4.49    1.70
   8  -7   8    7.34    3.41
  -8   7  -9   21.50    5.50
   8  -7   9   16.29    4.78
   8  -7   9   14.13    4.18
   8  -7  10    4.09    2.21
  -8   7 -10    7.36    3.26
   8  -7  10    9.02    3.62
  -8   6  13   20.56    6.68
  -8   6  12   -2.06    2.91
   8  -6 -12   -0.97    1.68
  -8   6  11    3.99    2.85
   8  -6 -11   -0.12    1.45
   8  -6 -10    6.12    2.87
  -8   6  10    1.93    1.69
   8  -6 -10    2.10    1.70
   8  -6  -9   45.63    7.44
  -8   6   9   38.87    8.53
   8  -6  -9   41.35    6.64
   8  -6  -8    4.61    2.50
  -8   6   8    9.27    4.55
   8  -6  -8    4.69    2.11
   8  -6  -7   12.88    4.14
  -8   6   7   12.04    4.89
   8  -6  -7   11.78    3.36
   8  -6  -6   18.55    5.19
  -8   6   6   11.32    4.61
   8  -6  -6   10.41    3.07
  -8   6   5    6.61    3.98
   8  -6  -5   13.21    3.61
   8  -6  -5   12.99    2.49
   8  -6  -4    3.25    1.96
  -8   6   4    3.97    3.14
   8  -6  -4    2.45    1.76
   8  -6  -4    3.46    1.47
   8  -6  -3   32.32    6.58
  -8   6   3   31.21    7.52
   8  -6  -3   40.26    4.74
   8  -6  -3   43.35    6.86
   8  -6  -2   18.47    5.00
  -8   6   2   16.08    5.32
   8  -6  -2   26.34    4.05
   8  -6  -1    7.11    3.02
  -8   6   1   12.50    4.68
   8  -6  -1    6.95    2.26
   8  -6   0    0.11    1.36
   8  -6   0    0.89    1.97
  -8   6   0    1.75    1.72
   8  -6   0   -0.37    1.26
   8  -6   1   14.44    3.17
   8  -6   1   19.98    5.42
  -8   6  -1   23.06    6.03
   8  -6   1   18.05    3.90
   8  -6   2    4.63    2.88
  -8   6  -2    3.46    2.80
   8  -6   2    3.33    1.26
   8  -6   3   19.44    5.42
  -8   6  -3   20.36    5.72
   8  -6   3   33.19    5.62
   8  -6   4    5.12    3.00
  -8   6  -4    0.58    1.45
   8  -6   4    5.99    2.37
   8  -6   5    1.46    1.81
  -8   6  -5    4.84    2.98
   8  -6   5    0.89    0.83
   8  -6   6   21.12    5.61
  -8   6  -6   22.19    5.77
   8  -6   6   21.71    5.01
   8  -6   7   14.83    4.34
  -8   6  -7   13.52    4.52
   8  -6   7   15.50    4.48
  -8   6  -8   24.12    5.62
   8  -6   8    9.21    3.41
  -8   6  -8   15.20    3.96
   8  -6   8   18.68    5.10
  -8   6  -9    1.97    1.87
   8  -6   9    3.61    2.13
   8  -6   9    6.03    2.72
  -8   6 -10    2.87    3.13
   8  -6  10    0.49    1.53
   8  -6  10    0.62    1.05
  -8   5  15   15.54    5.45
  -8   5  14    9.26    4.74
   8  -5 -13   -0.31    0.99
  -8   5  13   -2.45    2.90
   8  -5 -12   -1.24    1.41
  -8   5  12    5.27    4.21
   8  -5 -11    1.94    2.01
  -8   5  11    1.37    1.88
   8  -5 -10   75.57    9.84
  -8   5  10   83.95   12.36
   8  -5  -9   16.50    4.44
  -8   5   9   11.55    4.75
   8  -5  -9   17.28    3.74
   8  -5  -8    3.51    1.53
   8  -5  -8    1.24    1.09
  -8   5   8   -0.62    1.53
   8  -5  -8    2.81    2.02
   8  -5  -7    6.13    2.21
   8  -5  -7    8.36    3.31
  -8   5   7    9.62    4.49
   8  -5  -7    4.02    1.90
   8  -5  -6   31.61    4.72
   8  -5  -6   25.24    5.91
  -8   5   6   28.31    7.11
   8  -5  -6   30.19    5.03
   8  -5  -5   12.45    3.01
   8  -5  -5   15.61    4.70
  -8   5   5   17.70    5.27
   8  -5  -5    9.67    2.93
   8  -5  -4   79.62   10.52
  -8   5   4   76.11   11.26
   8  -5  -4   74.62    7.34
   8  -5  -4   56.03    7.14
  -8   5   4   68.11    7.87
   8  -5  -3   75.73   10.28
  -8   5   3   61.63   10.15
   8  -5  -3   66.96    7.22
  -8   5   3   59.49    7.30
  -8   5   2   -1.90    2.23
  -8   5   2   -0.07    1.07
   8  -5  -2   -2.59    1.50
   8  -5  -2    3.13    1.75
  -8   5   1   -0.89    1.95
  -8   5   1    0.25    1.43
   8  -5  -1    0.03    0.76
   8  -5  -1   -0.82    1.91
   8  -5   0   32.99    5.20
  -8   5   0   38.60    7.85
   8  -5   0   33.04    5.50
   8  -5   0   49.12    8.25
   8  -5   1    1.46    1.94
   8  -5   1    0.10    0.93
  -8   5  -1    0.15    1.63
   8  -5   1    2.31    1.49
   8  -5   2    6.18    2.85
   8  -5   2    7.63    2.52
  -8   5  -2   11.22    4.61
   8  -5   2    4.44    2.08
   8  -5   3    1.42    2.09
  -8   5  -3    1.16    1.60
   8  -5   3    1.24    1.76
   8  -5   4   11.16    3.96
  -8   5  -4    6.30    2.77
   8  -5   4    8.20    3.16
   8  -5   5   17.83    4.92
  -8   5  -5   16.67    5.14
   8  -5   5   17.98    4.49
   8  -5   6   -0.07    2.17
  -8   5  -6    0.27    1.58
   8  -5   6   -0.01    1.45
  -8   5  -7    0.74    0.94
  -8   5  -7    0.64    1.89
   8  -5   7   -1.21    1.78
   8  -5   8    1.84    1.91
  -8   5  -8    6.43    2.67
  -8   5  -8    6.13    2.57
   8  -5   8    4.43    2.88
   8  -5   9   11.13    3.98
  -8   5  -9    5.81    2.90
  -8   5  -9   10.15    3.37
   8  -5   9    5.45    2.30
  -8   5 -10    5.31    3.20
   8  -5  10    4.24    2.52
   8  -5  10    3.51    2.26
  -8   4  15    3.21    3.71
   8  -4 -15   14.16    7.38
  -8   4  14    8.85    4.38
   8  -4 -14   35.36   11.07
   8  -4 -13    3.80    2.29
  -8   4  13    1.51    1.78
   8  -4 -12   26.29    5.83
  -8   4  12   29.61    7.04
   8  -4 -12   47.74   12.08
   8  -4 -11    4.21    1.94
  -8   4  11   -0.24    1.06
   8  -4 -11    6.18    4.65
   8  -4 -10    1.23    1.21
  -8   4  10    3.93    3.21
  -8   4   9    2.82    2.78
   8  -4  -9    4.02    3.74
   8  -4  -9   -1.24    2.37
  -8   4   8   26.79    6.86
   8  -4  -8   39.02    7.95
   8  -4  -8   35.32    4.79
   8  -4  -8   28.52    6.37
  -8   4   7   43.62    8.69
   8  -4  -7   46.34    6.40
   8  -4  -7   47.53    5.61
   8  -4  -6   24.00    4.62
  -8   4   6   28.80    7.07
   8  -4  -6   29.94    4.60
   8  -4  -5    2.98    1.38
  -8   4   5    0.95    1.00
   8  -4  -4   31.00    5.36
  -8   4   4   42.05    8.09
  -8   4   3  102.08   12.71
   8  -4  -3  105.14   10.19
  -8   4   3  100.30    8.87
  -8   4   2    6.12    3.93
  -8   4   2    5.53    2.23
   8  -4  -2    6.98    2.46
  -8   4   1    4.25    3.18
  -8   4   1    8.55    2.80
   8  -4  -1    6.65    2.50
  -8   4   0   31.55    7.05
  -8   4   0   25.61    4.82
   8  -4   0   33.28    5.83
   8  -4   1   -1.58    0.75
  -8   4  -1   -1.61    2.21
   8  -4   1   -0.59    1.00
   8  -4   2    0.54    1.10
  -8   4  -2    1.41    1.59
   8  -4   2   -0.93    1.79
   8  -4   3   -1.14    1.41
  -8   4  -3    3.56    2.97
   8  -4   3    1.09    1.27
  -8   4  -4    3.63    2.37
   8  -4   4    1.02    1.90
   8  -4   4    2.50    1.94
   8  -4   5    9.24    2.10
   8  -4   5    7.85    3.13
   8  -4   5    6.84    3.32
  -8   4  -6    4.14    3.03
   8  -4   6    1.02    0.94
   8  -4   6    2.75    1.31
   8  -4   7    1.04    1.31
  -8   4  -7    3.61    2.52
  -8   4  -7    1.41    1.00
   8  -4   7    2.03    1.86
   8  -4   8   12.52    4.17
  -8   4  -8   12.54    3.89
  -8   4  -8    4.88    2.28
   8  -4   8    5.78    3.25
   8  -4   9    0.60    1.38
  -8   4  -9    3.41    2.78
  -8   4  -9   -0.23    1.61
   8  -4   9    0.61    1.88
   8  -4  10    2.76    2.19
  -8   3  15   13.98    4.99
   8  -3 -15   19.80    7.51
  -8   3  14    1.52    2.48
   8  -3 -14    5.57    4.39
   8  -3 -13    3.40    2.32
  -8   3  13    9.24    4.22
   8  -3 -13   12.65    6.69
  -8   3  12   14.42    5.10
   8  -3 -12   13.12    6.20
   8  -3 -12   15.68    4.53
  -8   3  11   -0.66    1.22
   8  -3 -11    2.82    3.13
  -8   3  10   20.80    5.98
   8  -3 -10   27.87    7.73
  -8   3   9    5.13    3.36
   8  -3  -9    1.96    2.39
  -8   3   8    1.13    1.47
   8  -3  -8   -0.16    1.47
  -8   3   7    1.83    2.03
   8  -3  -7    4.45    2.26
  -8   3   6   39.83    7.70
   8  -3  -6   57.24    8.02
   8  -3  -5   11.16    3.59
  -8   3   5    2.94    1.78
   8  -3  -5   13.12    3.62
   8  -3  -4   -1.48    0.99
  -8   3   4   -1.46    2.36
  -8   3   4    0.28    0.68
   8  -3  -3    5.34    2.83
  -8   3   3    6.34    3.49
  -8   3   3    4.63    1.69
   8  -3  -2    4.90    2.25
  -8   3   2    9.18    3.67
  -8   3   1    3.06    2.38
  -8   3   1    1.03    1.25
  -8   3   0   70.86   10.23
   8  -3   0   66.16    8.89
  -8   3   0   49.72    6.39
  -8   3  -1   10.13    3.88
  -8   3  -1   11.10    3.13
   8  -3   1   11.25    3.90
  -8   3  -2   14.36    4.70
   8  -3   2   12.23    3.78
  -8   3  -3   63.39    9.48
   8  -3   3   73.84    9.74
   8  -3   4    8.07    2.50
  -8   3  -4    4.45    3.06
   8  -3   4    5.12    3.55
   8  -3   5   -0.70    1.04
  -8   3  -5    2.08    2.06
   8  -3   5    0.17    1.61
  -8   3  -6    1.82    2.11
   8  -3   6    0.68    2.22
  -8   3  -7    4.51    2.82
  -8   3  -7    4.89    2.35
   8  -3   7   -0.27    2.00
  -8   3  -8    9.19    3.56
  -8   3  -8   12.80    3.64
   8  -3   8    6.19    3.49
   8  -3   8    7.44    3.35
   8  -3   9    5.65    2.90
  -8   3  -9    2.10    0.98
   8  -3   9    4.20    2.34
   8  -2 -15   -4.87    4.97
  -8   2  14   22.30    5.98
   8  -2 -14   29.99    8.66
  -8   2  13    3.95    2.67
   8  -2 -13    7.29    2.45
  -8   2  12    2.64    2.57
   8  -2 -12    1.78    2.25
  -8   2  11   21.92    5.77
   8  -2 -11   17.80    5.03
  -8   2  10   24.26    5.89
   8  -2 -10   13.15    3.35
  -8   2   9   10.83    3.93
   8  -2  -9    3.15    1.51
  -8   2   8    3.08    2.56
   8  -2  -8    1.92    1.22
  -8   2   7    1.19    2.31
   8  -2  -7    2.91    1.59
   8  -2  -6   44.34    6.08
  -8   2   6   45.58    8.46
   8  -2  -5   18.40    4.93
  -8   2   5   21.75    5.82
   8  -2  -4  174.78   10.38
  -8   2   4  158.34   15.74
   8  -2  -4  194.78   16.34
   8  -2  -3   23.77    5.55
  -8   2   3   19.35    5.51
   8  -2  -3   21.17    2.89
  -8   2   3   21.59    3.19
   8  -2  -2   64.77    4.26
  -8   2   2   58.87    9.36
   8  -2  -2   66.19    9.59
  -8   2   2   61.23    5.97
   8  -2  -1    2.30    1.55
  -8   2   1    6.58    3.04
   8  -2   0   -0.87    1.84
  -8   2   0    1.73    2.15
  -8   2   0    0.40    0.84
  -8   2  -1    0.69    1.43
  -8   2  -1    0.76    0.66
   8  -2   1   -0.62    1.80
  -8   2  -2    0.48    1.31
  -8   2  -2   -1.49    1.80
   8  -2   2    2.10    2.05
  -8   2  -3   24.17    6.07
   8  -2   3   17.89    4.74
   8  -2   4   78.55    7.90
  -8   2  -4   82.78   10.52
   8  -2   4   62.72    9.74
   8  -2   5   12.34    2.98
  -8   2  -5   16.41    4.55
   8  -2   5   13.45    4.33
   8  -2   6    2.93    1.49
  -8   2  -6    2.51    1.77
  -8   2  -6    1.10    1.16
   8  -2   6    0.85    1.08
  -8   2  -7   34.30    6.95
  -8   2  -7   45.72    6.88
   8  -2   7   50.99    8.68
  -8   2  -8   58.89    7.77
   8  -2   8   69.12   10.58
  -8   2  -9    1.61    1.40
   8  -2   9    1.97    2.65
   8  -1 -15   -4.41    4.58
   8  -1 -14    2.01    2.46
  -8   1  14    0.86    1.55
  -8   1  13   19.70    5.68
   8  -1 -13   10.92    3.46
  -8   1  13   19.63    5.72
  -8   1  12   27.43    6.59
   8  -1 -12   18.01    5.20
  -8   1  11    1.40    2.08
   8  -1 -11    2.05    2.06
  -8   1  10   39.97    7.82
   8  -1 -10   54.86    8.43
   8  -1  -9  166.18   14.34
  -8   1   9  168.22   16.02
   8  -1  -8  182.51   14.32
  -8   1   8  172.93   16.34
   8  -1  -7   62.21    7.74
  -8   1   7   62.81    9.55
   8  -1  -6   10.11    2.96
  -8   1   6    9.31    4.15
  -8   1   5  116.42   13.02
   8  -1  -5  124.82   13.17
  -8   1   4  298.96   21.81
   8  -1  -4  286.12   21.86
   8  -1  -3  195.58   11.14
  -8   1   3  186.82   16.86
   8  -1  -3  205.03   18.53
   8  -1  -2   34.81    7.42
   8  -1  -2   28.67    3.72
  -8   1   2   31.83    6.72
  -8   1   2   25.43    3.41
   8  -1  -1   11.82    4.49
   8  -1  -1   16.38    2.46
  -8   1   1   12.62    4.26
  -8   1   1   14.97    2.94
   8  -1   0    0.67    0.57
  -8   1   0   -0.45    1.74
   8  -1   1   16.15    4.83
   8  -1   1   19.12    2.38
  -8   1  -1   18.20    5.17
  -8   1  -1   13.91    3.07
  -8   1  -2    8.54    3.27
  -8   1  -2   10.75    2.54
   8  -1   2    6.14    3.42
   8  -1   3    0.63    0.85
  -8   1  -3    1.90    2.36
   8  -1   3   -1.22    2.81
   8  -1   4    5.18    2.33
  -8   1  -4    5.83    3.16
   8  -1   4    1.23    1.53
   8  -1   5    2.11    1.10
  -8   1  -5    0.01    1.68
   8  -1   6    0.63    1.07
  -8   1  -6   -0.79    1.23
   8  -1   6    0.96    1.92
  -8   1  -7   37.10    6.07
   8  -1   7   46.57    8.79
  -8   1  -8    3.39    2.14
   8  -1   8    0.20    1.81
  -8   1  -9   34.43    5.75
  -8   1  -9   45.56    6.74
   8   0 -15   14.81    5.43
   8   0 -14    0.75    1.48
  -8   0  14    2.41    1.80
  -8   0  13   17.22    4.87
   8   0 -13   17.40    5.55
  -8   0  13   17.66    4.37
  -8   0  12   24.74    5.72
   8   0 -12   25.80    6.27
  -8   0  12   15.55    4.32
  -8   0  12   23.06    6.14
   8   0 -11   16.47    4.89
  -8   0  11   17.00    4.71
  -8   0  11   20.05    5.21
  -8   0  11   14.18    4.95
   8   0 -10   37.58    6.98
  -8   0  10   40.26    7.27
  -8   0  10   46.04    8.17
   8   0  -9   -0.77    2.09
  -8   0   9    1.17    1.18
  -8   0   9    1.54    2.13
   8   0  -8    2.22    1.48
  -8   0   8    2.02    1.53
  -8   0   8    3.39    2.53
   8   0  -7   35.21    5.98
  -8   0   7   45.41    7.82
  -8   0   7   32.33    6.27
   8   0  -6   45.31    6.43
  -8   0   6   31.87    6.51
  -8   0   6   45.31    7.33
   8   0  -5   22.74    4.41
  -8   0   5   23.26    5.62
   8   0  -4    9.29    3.99
   8   0  -4    7.49    2.25
  -8   0   4   12.33    4.16
  -8   0   4    8.79    2.97
   8   0  -3   32.81    7.36
  -8   0   3   29.54    6.12
  -8   0   3   24.27    4.65
   8   0  -2   14.18    5.32
  -8   0   2    9.16    3.50
  -8   0   2    5.50    2.16
   8   0  -1   38.80    8.53
  -8   0   1   39.54    7.15
  -8   0   1   41.37    5.71
   8   0   0   73.82    6.48
  -8   0   0   60.49    9.33
  -8   0   0   71.20    6.97
   8   0   1   24.47    6.63
   8   0   1   23.46    3.50
  -8   0  -1   31.16    6.41
  -8   0  -1   27.83    3.94
   8   0   2  123.36   11.64
   8   0   2  104.07    7.85
  -8   0  -2  105.51   12.05
  -8   0  -2  133.13    8.00
   8   0   2  128.40   15.16
   8   0   3   20.44    4.48
  -8   0  -3   14.68    4.67
   8   0   3    9.69    4.49
   8   0   4    4.67    2.72
   8   0   4    4.09    2.95
   8   0   5    0.50    0.89
  -8   0  -5   -0.22    1.38
   8   0   5    1.30    2.04
   8   0   6    1.70    1.41
  -8   0  -6    1.68    0.98
  -8   0  -6    1.15    1.81
   8   0   6   -0.50    1.55
   8   0   7    6.82    2.38
  -8   0  -7    5.31    2.25
   8   0   7    1.18    1.43
  -8   0  -8    1.08    1.30
  -8   0  -8    7.04    2.84
  -8   0  -9   32.96    5.43
  -8  -1  14    6.88    2.50
   8   1 -14    9.35    4.47
   8   1 -13    5.37    2.53
  -8  -1  13    2.86    2.02
   8   1 -12   -3.25    2.78
  -8  -1  12    0.70    0.94
  -8  -1  12   -0.35    1.35
  -8  -1  12   -0.29    1.52
   8   1 -11   23.48    5.94
  -8  -1  11   22.50    5.18
  -8  -1  11   27.03    5.53
  -8  -1  11   15.05    4.75
   8   1 -10   27.71    6.12
  -8  -1  10   37.21    6.74
  -8  -1  10   31.68    6.14
  -8  -1  10   42.62    7.68
   8   1  -9   -0.04    1.20
  -8  -1   9   -2.38    2.02
  -8  -1   9   -0.04    1.19
  -8  -1   9    1.16    1.74
   8   1  -8    2.34    1.51
  -8  -1   8    7.17    3.26
  -8  -1   8    6.31    2.77
  -8  -1   8    8.80    3.21
   8   1  -7   29.00    5.56
  -8  -1   7   30.14    6.07
  -8  -1   7   23.53    5.47
  -8  -1   7   33.47    6.36
  -8  -1   6   98.81   11.51
   8   1  -6   89.48    9.72
  -8  -1   6   87.83   10.77
  -8  -1   6   99.20   10.62
   8   1  -5  319.85   19.27
  -8  -1   5  349.30   22.41
  -8  -1   5  358.00   20.70
   8   1  -4    9.65    4.56
   8   1  -4    5.11    2.42
  -8  -1   4    5.51    2.68
  -8  -1   4    5.52    2.32
   8   1  -3   20.50    6.58
   8   1  -3   19.48    4.25
  -8  -1   3   15.58    4.33
  -8  -1   3    7.98    2.61
   8   1  -2    0.75    1.63
   8   1  -2    0.43    1.45
  -8  -1   2    0.79    0.96
  -8  -1   2    4.67    2.20
   8   1  -1    3.77    3.11
   8   1  -1    4.58    2.24
  -8  -1   1   10.86    3.82
  -8  -1   1    8.88    2.46
   8   1   0    2.63    2.11
   8   1   0   -1.22    1.56
  -8  -1   0   -0.86    1.34
  -8  -1   0   -1.32    1.82
  -8  -1   0    1.17    1.17
   8   1   1   15.85    5.84
   8   1   1   23.72    5.30
   8   1   1   23.09    4.11
  -8  -1  -1   25.97    5.88
  -8  -1  -1   16.16    4.65
  -8  -1  -1   29.96    3.91
   8   1   2   32.66    8.04
   8   1   2   31.70    5.86
  -8  -1  -2   30.55    6.25
   8   1   3    9.21    3.31
  -8  -1  -3    3.20    2.14
   8   1   3    3.40    2.30
   8   1   4    2.21    2.16
  -8  -1  -4   -0.03    0.90
  -8  -1  -4   -1.97    1.81
   8   1   4    1.02    2.19
   8   1   5    0.58    1.08
  -8  -1  -5    1.58    1.14
  -8  -1  -5   -1.51    2.49
   8   1   5    1.21    2.37
   8   1   6   -1.74    1.66
  -8  -1  -6    1.36    1.31
  -8  -1  -6   -1.67    2.00
   8   1   6    3.09    4.14
   8   1   7   -0.54    0.90
  -8  -1  -7    1.04    1.11
  -8  -1  -7    0.62    0.88
  -8  -1  -8    7.84    2.68
  -8  -1  -8    5.50    2.58
  -8  -2  14    5.50    2.61
   8   2 -14   -0.51    3.53
   8   2 -13   50.12    9.41
  -8  -2  13   50.53    7.06
   8   2 -12    4.06    2.23
  -8  -2  12    8.25    2.73
  -8  -2  11   65.46    8.56
  -8  -2  11   66.86    8.42
   8   2 -11   69.34   10.31
  -8  -2  11   57.73    9.00
  -8  -2  10    2.84    2.05
  -8  -2  10    0.95    1.33
  -8  -2  10    3.37    2.18
   8   2  -9   11.18    4.05
  -8  -2   9   13.67    3.65
  -8  -2   9   13.37    3.62
  -8  -2   9    7.18    2.75
   8   2  -8    7.85    3.23
  -8  -2   8   12.82    4.04
  -8  -2   8   14.15    4.15
  -8  -2   8    7.63    3.95
   8   2  -7   33.89    6.51
  -8  -2   7   32.16    6.14
  -8  -2   7   26.21    5.73
  -8  -2   7   28.86    5.66
   8   2  -6   11.73    3.66
  -8  -2   6   20.65    5.14
  -8  -2   6   18.26    4.83
  -8  -2   6   22.92    5.12
  -8  -2   5  292.68   20.05
   8   2  -5  278.43   18.64
  -8  -2   5  270.70   18.99
  -8  -2   5  288.94   17.96
  -8  -2   4   71.02    9.56
   8   2  -4   58.24    8.02
  -8  -2   4   76.67    9.80
  -8  -2   4   67.47    8.07
   8   2  -4   92.08   13.19
   8   2  -3   28.70    7.53
   8   2  -3   23.69    4.91
  -8  -2   3   30.84    6.19
  -8  -2   3   28.28    5.85
  -8  -2   3   36.40    5.56
   8   2  -2    3.44    3.30
   8   2  -2    1.66    1.35
  -8  -2   2    0.64    1.17
  -8  -2   2    1.00    1.44
  -8  -2   2    3.53    1.62
   8   2  -1    8.28    4.74
   8   2  -1    7.18    2.57
  -8  -2   1    7.29    3.41
  -8  -2   1   11.56    2.86
   8   2   0   32.00    8.10
   8   2   0   25.31    5.77
   8   2   0   27.61    5.12
  -8  -2   0   36.44    6.66
  -8  -2   0   27.75    3.94
   8   2   1    4.30    2.71
  -8  -2  -1   -0.13    1.60
   8   2   2   -1.40    3.56
  -8  -2  -2    0.35    1.15
   8   2   3    3.25    1.93
  -8  -2  -3    3.75    1.73
  -8  -2  -3    2.79    1.61
   8   2   3    5.61    3.93
   8   2   4    0.76    0.86
  -8  -2  -4   -0.30    1.30
  -8  -2  -4    1.42    1.79
   8   2   4    4.73    3.88
   8   2   5   14.97    4.10
  -8  -2  -5   12.94    3.81
  -8  -2  -5    9.93    2.96
   8   2   6    1.22    1.42
  -8  -2  -6   -0.72    1.25
  -8  -2  -6    3.81    2.03
   8   2   7    0.54    1.99
  -8  -2  -7   -0.37    1.10
  -8  -2  -7    3.14    1.75
  -8  -2  -8   29.89    4.63
  -8  -3  14    4.59    1.94
  -8  -3  13   28.83    5.32
   8   3 -13   26.02    7.00
   8   3 -12   25.92    6.90
  -8  -3  12   31.66    5.49
   8   3 -11   12.84    5.83
  -8  -3  11    8.72    3.07
  -8  -3  11   10.54    3.78
   8   3 -10    8.22    3.60
  -8  -3  10   20.66    4.56
  -8  -3  10   11.75    3.36
  -8  -3  10   16.95    4.93
   8   3  -9    4.48    2.76
  -8  -3   9    7.28    2.76
  -8  -3   9    5.79    2.36
  -8  -3   9   11.67    3.51
   8   3  -8    2.26    1.50
  -8  -3   8    4.02    1.92
  -8  -3   8    3.23    2.03
  -8  -3   8    0.39    1.34
   8   3  -7    1.17    1.90
  -8  -3   7    1.92    1.20
  -8  -3   7    0.88    1.27
  -8  -3   7    4.44    2.80
   8   3  -6   38.43    7.24
  -8  -3   6   36.71    6.40
  -8  -3   6   26.67    5.51
  -8  -3   6   46.97    7.07
   8   3  -5   44.02    7.58
  -8  -3   5   35.82    6.40
  -8  -3   5   52.43    7.35
   8   3  -4   48.41    9.87
   8   3  -4   42.69    7.24
  -8  -3   4   43.05    7.21
  -8  -3   4   45.15    6.58
   8   3  -3   21.98    7.75
   8   3  -3   17.34    4.41
  -8  -3   3   23.24    5.10
  -8  -3   3   19.25    3.97
   8   3  -2    5.62    3.36
   8   3  -2    6.05    2.92
   8   3  -2    3.91    1.92
  -8  -3   2    2.57    1.67
  -8  -3   2    5.75    1.85
   8   3  -1   30.67    8.36
   8   3  -1   33.03    6.92
   8   3  -1   26.53    5.53
  -8  -3   1   31.86    5.98
  -8  -3   1   32.92    4.80
   8   3   0   55.39   11.32
   8   3   0   75.48   10.81
  -8  -3   0   54.02    7.91
   8   3   1   10.63    5.27
   8   3   1   14.68    4.47
  -8  -3  -1    3.80    1.88
   8   3   2   10.37    5.18
   8   3   2   17.79    4.90
  -8  -3  -2   17.47    4.35
  -8  -3  -2   14.19    3.12
   8   3   3    2.68    3.58
   8   3   3    6.41    3.17
  -8  -3  -3   -1.03    1.85
  -8  -3  -3    1.54    0.96
   8   3   4    5.76    3.03
  -8  -3  -4   11.86    3.83
  -8  -3  -4   10.62    2.82
   8   3   5    1.25    1.22
  -8  -3  -5   -0.01    0.81
  -8  -3  -5    1.17    1.13
   8   3   6   20.34    4.80
  -8  -3  -6   20.37    4.47
   8   3   7   15.92    4.45
   8   4 -11   28.11    7.06
  -8  -4  11   20.77    4.55
   8   4 -10   27.19    7.13
  -8  -4  10   29.18    5.41
   8   4  -9    0.17    1.23
  -8  -4   9   -1.05    1.07
   8   4  -8    8.00    3.92
  -8  -4   8   11.01    3.71
  -8  -4   8    8.39    3.52
  -8  -4   7  230.98   16.30
   8   4  -7  220.62   19.67
  -8  -4   7  253.95   18.09
  -8  -4   6   67.57    8.44
   8   4  -6   62.37   10.10
  -8  -4   6   70.49    8.99
   8   4  -5    1.90    1.64
  -8  -4   5    1.77    1.54
  -8  -4   5    1.51    1.04
   8   4  -4    2.71    2.26
   8   4  -4    1.46    1.17
  -8  -4   4    2.30    1.70
  -8  -4   4    2.51    1.66
   8   4  -3    1.67    2.81
   8   4  -3   -3.19    2.79
   8   4  -3    3.96    2.64
  -8  -4   3    0.62    1.32
  -8  -4   3   -0.08    1.29
   8   4  -2    1.00    3.25
   8   4  -2   -0.69    2.05
   8   4  -2   -1.18    1.61
  -8  -4   2    1.09    1.26
  -8  -4   2    0.39    1.60
   8   4  -1    7.60    4.55
   8   4  -1   10.82    4.56
   8   4  -1    8.57    3.51
  -8  -4   1   11.12    3.52
   8   4   0   15.54    6.08
   8   4   0   19.28    5.54
  -8  -4   0   23.28    4.95
   8   4   1   73.21   10.45
  -8  -4  -1   68.20    8.51
   8   4   2    3.65    2.80
  -8  -4  -2    3.71    2.14
   8   4   3    0.37    1.33
   8   4   4    7.36    4.00
   8   5 -10    5.92    3.81
   8   5  -9   12.66    5.05
   8   5  -8    4.27    2.45
  -8  -5   8   13.37    4.22
   8   5  -7   39.18    8.45
  -8  -5   7   63.99    8.73
   8   5  -6  119.81   14.67
  -8  -5   6   99.20   10.76
   8   5  -5   -5.78    3.27
  -8  -5   5    2.00    1.72
   8   5  -4   12.89    4.68
  -8  -5   4   12.27    3.20
   8   5  -3    4.95    3.23
   8   5  -2   25.55    6.36
   8   5  -1   11.35    4.84
   8   6  -6   36.61    8.20
  -8  -6   6   28.00    5.66
   8   6  -5   14.14    4.70
  -8  -6   5    9.22    3.20
   8   6  -4   11.65    4.60
   8   6  -3   -3.73    2.31
   8   6  -2    3.98    2.44
   8   6  -1    9.51    4.10
   9 -10  -7   28.10    7.15
   9 -10  -6   17.50    5.56
   9 -10  -5    8.03    3.21
   9 -10  -4   10.51    4.36
   9 -10  -3   22.35    5.84
   9 -10  -2   12.37    4.53
   9 -10  -1   25.75    6.53
  -9  10  -1    0.80    2.34
  -9  10  -2    5.37    4.11
  -9  10  -3   13.91    5.50
  -9  10  -4    1.42    2.69
  -9  10  -5    4.53    3.68
   9  -9  -8   10.93    3.87
   9  -9  -7    0.92    1.02
   9  -9  -7   -1.93    2.65
   9  -9  -6   11.62    4.32
   9  -9  -6    6.64    3.31
   9  -9  -5    1.39    1.28
   9  -9  -5    1.24    1.61
  -9   9   4   -0.60    2.13
   9  -9  -4    2.86    1.51
   9  -9  -4    1.25    2.13
  -9   9   3    4.48    3.58
   9  -9  -3   13.30    4.70
   9  -9  -3    3.82    2.33
  -9   9   2    5.14    3.76
   9  -9  -2    7.76    3.35
   9  -9  -2   10.41    3.85
  -9   9   1    2.87    2.53
   9  -9  -1    3.59    2.72
  -9   9   0    6.78    3.96
   9  -9   0   10.69    3.96
  -9   9  -1   29.33    7.71
   9  -9   1   24.34    5.94
  -9   9  -2    9.46    4.63
   9  -9   2   10.67    3.93
   9  -9   3   74.81   10.35
  -9   9  -3   99.71   14.13
  -9   9  -4   17.41    5.63
   9  -9   4   25.40    5.89
  -9   9  -5    3.86    3.18
  -9   9  -6    5.91    2.89
  -9   9  -7   -1.00    2.05
   9  -8 -11   18.49    4.59
   9  -8 -10    1.75    1.72
   9  -8  -9   13.38    4.15
   9  -8  -8    8.90    3.82
  -9   8   7    8.26    5.38
   9  -8  -7    6.03    2.66
   9  -8  -7    1.96    1.85
  -9   8   6   14.21    5.76
   9  -8  -6   11.50    4.04
   9  -8  -6    9.69    3.69
  -9   8   5   -1.63    2.27
   9  -8  -5    3.89    3.13
   9  -8  -5    0.55    1.11
  -9   8   4   16.99    6.58
   9  -8  -4   16.83    4.63
   9  -8  -4   22.30    5.16
  -9   8   3   10.55    5.18
   9  -8  -3    5.79    3.37
   9  -8  -3    8.96    3.31
   9  -8  -2   18.23    5.25
  -9   8   2   14.58    5.24
   9  -8  -1    4.95    3.28
  -9   8   1    4.93    4.54
   9  -8   0   62.70    9.45
  -9   8   0   74.89   12.07
  -9   8  -1   78.20   12.49
   9  -8   1   68.35   10.10
   9  -8   2   78.32   11.03
  -9   8  -2   91.59   13.12
   9  -8   3   96.74   11.97
  -9   8  -3  115.19   14.68
  -9   8  -4   16.39    5.24
   9  -8   4   27.70    6.26
   9  -8   4   22.76    4.47
  -9   8  -5   -1.44    1.51
   9  -8   5    5.63    3.34
   9  -8   5    5.02    2.45
  -9   8  -6   18.02    5.61
   9  -8   6   10.96    3.88
   9  -8   6   18.31    4.55
  -9   8  -7   24.58    6.55
   9  -8   7   17.14    4.57
   9  -8   7   19.10    5.30
  -9   8  -8    1.62    1.63
   9  -8   8    2.88    1.67
   9  -8   9   20.78    5.12
   9  -7 -11   -0.47    1.86
   9  -7 -10   -5.46    2.77
   9  -7  -9   12.34    4.31
  -9   7   9   14.59    5.66
   9  -7  -8   23.26    5.73
  -9   7   8   30.42    8.08
   9  -7  -7    1.04    1.80
  -9   7   7    4.15    3.90
   9  -7  -7    3.06    1.94
   9  -7  -6   30.99    6.54
  -9   7   6   28.31    7.41
   9  -7  -6   24.40    5.25
   9  -7  -5   -0.95    1.82
  -9   7   5    0.59    2.34
   9  -7  -5    3.23    2.57
   9  -7  -4   50.61    8.63
  -9   7   4   34.40    7.96
   9  -7  -4   32.10    6.03
   9  -7  -3    7.80    3.61
  -9   7   3    4.22    3.55
   9  -7  -2    4.22    2.47
  -9   7   2    3.26    2.57
   9  -7  -1   -2.44    2.00
  -9   7   1    1.37    1.46
   9  -7   0    4.87    2.78
  -9   7   0    1.97    2.19
   9  -7   0    4.20    1.94
   9  -7   1    2.05    2.26
  -9   7  -1   -1.44    2.30
   9  -7   1    1.89    0.56
   9  -7   2    0.84    1.23
  -9   7  -2    1.15    2.26
   9  -7   2    1.73    1.55
   9  -7   3   14.70    4.62
  -9   7  -3   11.73    4.59
   9  -7   3   15.74    3.86
   9  -7   4   -0.25    1.87
  -9   7  -4    4.30    2.33
   9  -7   4    5.39    2.64
   9  -7   5   32.38    7.00
  -9   7  -5   28.68    7.12
   9  -7   5   22.47    4.94
   9  -7   6    0.04    1.29
   9  -7   6    0.86    1.21
  -9   7  -7   11.73    4.28
   9  -7   7   11.49    4.14
   9  -7   7   14.16    4.36
  -9   7  -8   20.46    5.50
   9  -7   8   13.59    4.47
   9  -7   8   17.95    4.98
  -9   7  -9    7.62    3.47
   9  -7   9    4.33    2.37
   9  -7   9    7.26    3.88
   9  -6 -12   49.26    7.86
   9  -6 -11   47.35    8.04
  -9   6  11   61.72   11.79
   9  -6 -10    0.49    1.53
  -9   6  10    1.91    2.74
   9  -6  -9    0.31    1.54
  -9   6   9    1.21    1.91
   9  -6  -8   15.46    4.76
  -9   6   8   10.83    4.90
   9  -6  -7   71.54   10.55
  -9   6   7   60.95   11.06
   9  -6  -6   25.40    6.31
  -9   6   6   22.47    6.73
   9  -6  -6   20.60    4.28
   9  -6  -5    2.27    2.33
  -9   6   5    4.81    3.73
   9  -6  -5    1.24    1.00
   9  -6  -4   11.33    4.30
  -9   6   4   12.88    5.28
   9  -6  -3   46.91    8.70
  -9   6   3   39.63    8.56
   9  -6  -3   41.84    5.42
   9  -6  -2    8.18    3.42
  -9   6   2   17.07    5.57
   9  -6  -2   16.32    3.68
   9  -6  -1    2.96    1.92
  -9   6   1    5.24    3.64
   9  -6  -1    2.93    1.78
   9  -6   0   24.00    5.97
  -9   6   0   26.60    7.20
   9  -6   0   27.63    4.93
   9  -6   1   53.37    9.31
  -9   6  -1   50.45    9.49
   9  -6   1   49.19    6.75
   9  -6   2    1.93    2.39
  -9   6  -2    4.13    3.54
   9  -6   2    1.71    1.27
   9  -6   3    1.55    2.15
  -9   6  -3    2.33    2.53
   9  -6   3    0.01    0.85
   9  -6   4   12.21    4.35
  -9   6  -4    8.60    3.67
   9  -6   4   12.96    3.93
   9  -6   5    7.43    3.72
  -9   6  -5    3.31    1.45
   9  -6   5    4.54    2.41
   9  -6   6    6.14    3.18
  -9   6  -6   -2.53    2.95
   9  -6   6    9.14    3.51
   9  -6   7    6.04    2.98
  -9   6  -7    6.14    3.21
   9  -6   7   13.17    4.48
  -9   6  -8    2.88    2.23
   9  -6   8    5.06    2.46
   9  -6   9   52.07    8.22
  -9   5  13    0.70    1.67
   9  -5 -12    5.56    2.84
  -9   5  12    2.63    3.61
   9  -5 -11    2.05    2.70
  -9   5  11    0.22    1.62
   9  -5 -10   -0.52    1.63
  -9   5  10    3.50    2.89
   9  -5  -9    5.22    3.22
  -9   5   9    0.54    1.87
   9  -5  -8    2.54    2.57
  -9   5   8    1.30    2.09
   9  -5  -7   63.55   10.02
  -9   5   7   41.99    8.90
   9  -5  -6    0.76    1.70
   9  -5  -6    1.71    0.73
   9  -5  -5   14.17    3.33
  -9   5   5   17.52    5.72
   9  -5  -5   12.42    4.71
  -9   5   4    0.57    1.58
   9  -5  -4   -1.27    1.67
   9  -5  -4    3.05    2.13
  -9   5   3    2.08    2.46
   9  -5  -3    2.97    2.17
   9  -5  -3    2.24    1.25
  -9   5   2    9.38    4.07
   9  -5  -2   14.80    4.46
   9  -5  -2   15.24    3.77
  -9   5   1   19.83    5.85
   9  -5  -1   23.94    6.27
   9  -5  -1   36.58    5.88
  -9   5   0    4.08    3.22
   9  -5   0    1.29    1.60
   9  -5   0   -1.66    2.85
  -9   5  -1   20.66    5.79
   9  -5   1   17.52    4.44
   9  -5   1   26.25    6.45
  -9   5  -2    5.82    3.27
   9  -5   2    3.41    2.12
   9  -5   2    0.80    1.43
   9  -5   3   13.60    4.55
  -9   5  -3   10.04    4.41
   9  -5   3   22.92    5.16
   9  -5   4   10.77    4.13
  -9   5  -4    7.34    3.45
   9  -5   4    4.13    2.29
   9  -5   5    2.20    1.02
  -9   5  -5    1.34    1.15
   9  -5   5    4.39    2.23
   9  -5   6   -2.75    2.90
  -9   5  -6    7.52    3.70
   9  -5   6    5.64    2.87
  -9   5  -7   -0.09    1.18
   9  -5   7    1.15    1.31
   9  -5   8   -0.80    1.32
  -9   5  -8    1.21    1.33
   9  -5   8    2.84    2.22
   9  -5   9    1.62    1.49
  -9   4  14   -1.26    1.71
   9  -4 -13   21.15    5.64
  -9   4  13   22.20    6.53
   9  -4 -12    4.07    2.49
  -9   4  12    1.77    2.71
   9  -4 -11    0.06    1.13
  -9   4  11    4.67    3.34
  -9   4  10    2.35    2.05
   9  -4 -10    3.04    1.23
  -9   4   9   11.58    4.96
   9  -4  -9   16.81    5.13
   9  -4  -8   11.21    3.71
  -9   4   8    7.82    4.34
   9  -4  -8    9.98    4.32
   9  -4  -7    3.28    1.73
  -9   4   7    5.59    3.16
   9  -4  -6   -0.36    0.79
  -9   4   6    1.40    1.50
  -9   4   5   52.62    9.78
   9  -4  -5   60.87    8.06
   9  -4  -4   28.35    5.44
  -9   4   4   12.66    4.52
   9  -4  -3    1.66    1.57
  -9   4   3    0.15    1.85
  -9   4   2    4.53    2.08
   9  -4  -2    2.51    1.79
  -9   4   1   24.69    6.59
   9  -4  -1   27.03    5.49
  -9   4   0   14.73    5.00
   9  -4   0    6.85    2.80
  -9   4  -1    7.70    3.72
   9  -4   1    1.67    1.87
  -9   4  -2   27.04    6.83
   9  -4   2   25.33    5.59
  -9   4  -3   98.71   12.47
   9  -4   3   63.87    9.21
  -9   4  -4    2.07    2.15
   9  -4   4    0.84    1.81
   9  -4   4    1.57    1.87
  -9   4  -5    1.23    1.65
   9  -4   5    1.38    1.08
   9  -4   5    1.49    2.42
  -9   4  -6    1.21    1.58
   9  -4   6    1.04    1.09
   9  -4   6    2.71    2.42
   9  -4   7    2.45    1.57
  -9   4  -7    0.71    1.46
   9  -4   7    3.86    3.00
   9  -4   8    7.66    3.48
   9  -4   9    1.22    1.51
  -9   3  14   16.88    5.70
   9  -3 -14   31.22    9.69
  -9   3  13   76.55   11.91
   9  -3 -13   81.05   13.91
   9  -3 -13   77.03   10.46
  -9   3  12    5.12    3.43
   9  -3 -12    4.94    4.36
   9  -3 -12    7.55    3.23
  -9   3  11    4.02    2.94
   9  -3 -11    7.49    6.90
  -9   3  10   18.20    5.90
   9  -3 -10   21.82    6.76
  -9   3   9    5.58    3.27
   9  -3  -9   -0.31    1.87
   9  -3  -8   18.65    4.57
  -9   3   8   22.74    6.64
   9  -3  -7    3.63    2.06
  -9   3   7    5.88    3.28
   9  -3  -6    3.72    2.64
  -9   3   6    1.48    2.20
   9  -3  -5    0.15    1.83
  -9   3   5    4.07    2.85
   9  -3  -4    3.95    2.93
  -9   3   4   23.37    6.73
   9  -3  -3   14.24    4.47
  -9   3   3    4.67    2.71
   9  -3  -2   -0.80    1.20
  -9   3   2    2.37    2.67
  -9   3   1   22.58    6.18
   9  -3  -1   19.78    5.16
  -9   3   0   -2.29    1.17
   9  -3   0    1.29    1.52
  -9   3  -1    3.70    2.37
   9  -3   1    1.96    1.44
  -9   3  -2    6.65    3.13
   9  -3   2    9.92    3.65
  -9   3  -3    2.93    3.07
   9  -3   3   -0.13    1.36
   9  -3   4    1.60    1.16
  -9   3  -4    0.72    1.35
   9  -3   4    4.37    3.30
  -9   3  -5    5.90    3.47
   9  -3   5    1.65    1.36
  -9   3  -6   13.35    4.39
  -9   3  -6    5.12    2.39
   9  -3   6    8.24    3.83
  -9   3  -7   15.47    4.94
   9  -3   7   15.96    5.28
   9  -3   7   16.33    5.11
   9  -3   8   -0.03    1.08
   9  -3   9   10.29    3.61
   9  -2 -14    9.98    4.98
  -9   2  13    0.14    1.79
   9  -2 -13   -1.20    2.22
  -9   2  12   -1.92    1.74
   9  -2 -12   -1.09    2.07
  -9   2  11    3.94    3.44
   9  -2 -11   -0.23    2.08
  -9   2  10    1.95    2.41
   9  -2 -10   -1.19    3.23
  -9   2   9    6.15    2.78
   9  -2  -9   14.74    4.32
  -9   2   8    1.87    2.07
   9  -2  -8    2.85    1.03
   9  -2  -7    2.50    2.13
  -9   2   7    1.54    2.21
   9  -2  -7   -1.24    1.17
   9  -2  -6    9.01    3.78
  -9   2   6    7.95    3.73
  -9   2   5  103.58   13.31
   9  -2  -5   87.92   11.65
   9  -2  -4    2.21    2.13
  -9   2   4   13.54    4.64
   9  -2  -3   28.36    6.67
  -9   2   3   25.83    6.62
   9  -2  -2   -4.68    2.82
  -9   2   2    2.84    4.02
   9  -2  -1    0.94    1.33
  -9   2   1    5.22    3.41
  -9   2   0    1.81    2.43
   9  -2   0    0.89    1.59
  -9   2  -1    2.03    2.34
   9  -2   1    1.71    1.41
  -9   2  -2    6.48    2.89
   9  -2   2   -0.52    2.29
   9  -2   3    3.41    2.28
  -9   2  -3    2.27    2.11
   9  -2   3    1.79    1.88
   9  -2   4    4.88    2.09
  -9   2  -4    5.59    2.96
   9  -2   4    3.28    1.89
  -9   2  -5    5.76    3.05
   9  -2   5    5.59    3.34
  -9   2  -6   22.00    5.54
  -9   2  -6   31.25    5.96
   9  -2   6   24.44    6.65
   9  -1 -14    1.61    2.33
  -9   1  14    6.93    2.57
   9  -1 -13   -2.30    3.79
  -9   1  13    0.54    2.75
  -9   1  12    6.76    3.72
   9  -1 -12    1.90    1.77
  -9   1  11    1.05    2.04
  -9   1  11   -2.37    3.46
  -9   1  10   16.01    5.23
   9  -1 -10   10.48    3.46
  -9   1   9    1.35    1.85
   9  -1  -9    1.61    1.75
  -9   1   8   -0.45    1.05
   9  -1  -8    0.66    0.78
  -9   1   7    4.34    2.88
   9  -1  -7    2.84    1.65
   9  -1  -6  163.61   12.11
  -9   1   6  171.51   16.79
   9  -1  -6  162.64   16.53
   9  -1  -5    1.44    2.41
  -9   1   5    1.13    1.39
   9  -1  -4   21.65    6.22
  -9   1   4   23.64    6.23
   9  -1  -3   13.59    4.51
  -9   1   3   20.38    5.56
   9  -1  -2   43.53    8.80
  -9   1   2   38.69    7.95
   9  -1  -1    3.20    2.88
  -9   1   1   -1.42    2.06
  -9   1   1    1.70    1.04
   9  -1   0   -1.76    2.48
  -9   1   0    1.45    2.35
  -9   1   0    1.40    1.25
  -9   1  -1    4.34    2.46
   9  -1   1   14.08    4.83
   9  -1   2   21.93    4.95
  -9   1  -2   19.69    5.30
   9  -1   2   22.57    6.54
   9  -1   3    5.33    2.13
  -9   1  -3    9.76    3.74
   9  -1   3   10.01    4.83
   9  -1   4    8.41    2.89
  -9   1  -4   12.26    4.22
   9  -1   4   13.31    5.14
  -9   1  -5    3.03    2.04
   9  -1   5   -1.18    1.10
  -9   1  -6    1.14    1.05
  -9   1  -7   -2.21    2.13
   9   0 -13    9.09    4.51
  -9   0  13   -0.87    1.55
  -9   0  12    2.39    2.72
   9   0 -12   -3.04    2.63
  -9   0  12    0.60    1.36
  -9   0  11   25.42    5.99
   9   0 -11   36.60    7.29
  -9   0  11   23.31    5.90
  -9   0  10    9.73    4.23
   9   0 -10   12.48    4.51
  -9   0  10   12.33    4.17
  -9   0  10   10.71    4.16
   9   0  -9    9.85    3.89
  -9   0   9    7.91    3.66
  -9   0   9    8.15    3.62
   9   0  -8   13.88    4.21
  -9   0   8   17.24    4.90
  -9   0   8   14.02    4.41
   9   0  -7    0.73    0.91
  -9   0   7    2.86    1.20
  -9   0   7    0.86    1.05
   9   0  -6   -1.60    2.24
   9   0  -6    1.50    1.23
  -9   0   6   -0.48    1.20
  -9   0   6    0.95    1.08
   9   0  -5   13.64    5.19
  -9   0   5    3.24    2.70
  -9   0   5   10.63    3.34
   9   0  -4    1.26    1.71
  -9   0   4   -1.29    1.89
  -9   0   4    2.12    1.04
   9   0  -3    1.65    1.67
  -9   0   3    2.51    2.33
  -9   0   3    1.97    1.91
   9   0  -2    1.11    1.69
  -9   0   2    2.31    2.18
  -9   0   2    2.27    1.08
   9   0  -1   25.78    7.63
  -9   0   1   30.38    6.59
  -9   0   1   30.36    4.91
   9   0   0   28.55    7.71
  -9   0   0   17.04    4.97
   9   0   1    0.82    1.71
  -9   0  -1    1.26    0.87
   9   0   2   30.87    6.18
  -9   0  -2   28.88    6.48
   9   0   2   25.13    6.98
   9   0   3    8.60    2.69
   9   0   3    5.15    3.83
   9   0   4    3.32    2.18
  -9   0  -4    3.53    1.80
  -9   0  -4    1.27    1.57
   9   0   4    2.94    2.88
   9   0   5    3.92    2.08
  -9   0  -5    7.18    3.05
  -9   0  -5    3.10    2.70
  -9   0  -6   12.20    3.53
  -9   0  -6    8.26    3.30
  -9   0  -7    2.60    1.99
   9   1 -13    4.91    3.69
  -9  -1  13    7.61    3.35
   9   1 -12    0.85    2.39
  -9  -1  12    0.08    1.31
   9   1 -11   17.37    5.13
  -9  -1  11   11.68    3.87
  -9  -1  11   15.85    4.54
   9   1 -10   12.53    4.33
  -9  -1  10    7.22    3.17
  -9  -1  10   10.28    3.87
  -9  -1  10    9.34    3.62
   9   1  -9    7.28    3.10
  -9  -1   9   11.01    4.11
  -9  -1   9    9.05    3.87
  -9  -1   9    5.42    2.55
   9   1  -8   -1.05    1.61
  -9  -1   8   -1.16    2.47
  -9  -1   8    3.36    2.07
  -9  -1   8    0.40    1.33
   9   1  -7    6.55    2.61
  -9  -1   7    5.97    3.03
  -9  -1   7    7.55    3.16
  -9  -1   7    3.87    2.17
   9   1  -6   55.49   10.14
   9   1  -6   61.34    8.09
  -9  -1   6   55.16    8.77
  -9  -1   6   64.46    9.77
  -9  -1   6   54.96    8.00
   9   1  -5    1.52    1.98
  -9  -1   5    3.00    2.36
  -9  -1   5    3.91    2.92
  -9  -1   5    0.38    1.22
   9   1  -4    3.94    3.77
  -9  -1   4   -0.01    1.46
  -9  -1   4    1.65    1.39
  -9  -1   4   -2.06    2.26
   9   1  -3   -0.42    1.99
  -9  -1   3    0.04    1.34
  -9  -1   3   -1.19    2.00
  -9  -1   3    1.93    1.22
   9   1  -2   20.99    6.99
  -9  -1   2   11.52    4.00
  -9  -1   2   14.91    4.58
  -9  -1   2   17.02    3.90
   9   1  -1    3.20    3.31
  -9  -1   1   -0.44    1.98
  -9  -1   1   -0.28    0.95
   9   1   0   14.67    5.80
   9   1   0    7.74    3.11
  -9  -1   0   13.33    4.23
  -9  -1   0   11.86    3.96
   9   1   1    5.12    3.96
   9   1   1    4.21    2.65
  -9  -1  -1    7.56    3.61
   9   1   2    2.04    1.56
  -9  -1  -2    0.77    1.17
   9   1   2    0.76    1.95
  -9  -1  -3    0.32    1.64
  -9  -1  -3    0.46    1.18
   9   1   4    2.35    2.84
  -9  -1  -4    0.69    1.64
  -9  -1  -4    1.55    1.95
   9   1   5    3.79    1.19
  -9  -1  -5    2.97    1.20
  -9  -1  -5    5.03    3.19
  -9  -1  -6    0.23    2.15
  -9  -1  -6    3.26    2.77
   9   2 -12    9.55    3.94
   9   2 -11    4.50    2.71
   9   2 -10    1.66    1.18
  -9  -2  10    2.09    1.02
   9   2  -9   13.38    4.33
  -9  -2   9   19.65    4.96
  -9  -2   9   12.88    4.32
  -9  -2   9   19.16    5.25
   9   2  -8    2.36    2.74
  -9  -2   8    0.52    1.45
  -9  -2   8    0.80    1.17
  -9  -2   8    1.26    1.75
   9   2  -7   -1.45    1.79
  -9  -2   7   -1.07    1.13
  -9  -2   7    3.76    2.73
  -9  -2   7    1.85    1.80
   9   2  -6    5.58    3.25
   9   2  -6    0.40    0.92
  -9  -2   6    5.94    2.65
  -9  -2   6    8.16    3.20
   9   2  -5    7.85    3.97
  -9  -2   5    6.97    2.94
  -9  -2   5   10.75    3.91
  -9  -2   5   12.05    3.64
   9   2  -4    1.32    1.68
  -9  -2   4   10.27    3.89
  -9  -2   4    1.92    2.24
  -9  -2   4    8.04    2.67
   9   2  -3   15.91    6.38
  -9  -2   3    2.80    2.11
  -9  -2   3   15.51    4.34
  -9  -2   3   10.92    3.35
   9   2  -2    9.07    4.76
  -9  -2   2   13.20    4.28
   9   2  -1    1.23    3.06
   9   2  -1    1.81    2.51
  -9  -2   1    2.70    2.38
   9   2   0   11.71    5.62
   9   2   0   23.18    5.91
  -9  -2   0   15.37    4.56
   9   2   1    3.58    1.76
  -9  -2  -1    2.73    1.70
   9   2   2    2.57    2.32
  -9  -2  -2    3.54    0.91
   9   2   3    8.35    2.83
  -9  -2  -3    5.20    2.49
   9   2   4    0.74    1.26
  -9  -2  -4    5.19    2.08
   9   2   5   12.25    4.10
  -9  -2  -5   13.88    3.24
   9   3 -11    6.21    3.26
   9   3 -10   -0.70    2.00
   9   3  -9   28.06    6.62
   9   3  -8   38.71    7.56
  -9  -3   8   36.75    6.97
   9   3  -7    8.40    3.72
  -9  -3   7   25.88    5.73
   9   3  -6   23.43    5.84
  -9  -3   6   18.06    4.56
  -9  -3   5   67.70    8.64
  -9  -3   4   27.89    5.24
   9   3  -2    2.48    2.43
   9   3  -1   14.67    5.18
   9   3   0   33.31    7.30
   9   3   1    3.69    2.49
   9   4  -8    2.68    2.32
   9   4  -7   66.61   10.20
  -9  -4   7   81.39    9.85
  -9  -4   6   30.65    5.65
  -9  -4   5    7.80    3.27
  10  -7  -5    0.67    1.95
  10  -7  -4   71.22   11.54
  10  -7  -3    5.38    3.27
  10  -7  -2   15.15    5.17
 -10   7   2   10.24    4.63
  10  -7  -1    7.63    4.06
 -10   7   1    8.64    4.36
  10  -7   0   14.63    5.41
 -10   7   0   12.08    5.37
  10  -7   4    7.45    2.97
  10  -7   5   13.22    3.95
  10  -7   6   17.45    4.51
  10  -6  -8    3.24    2.83
  10  -6  -7    7.56    3.87
  10  -6  -6   35.73    7.88
 -10   6   6   41.39    9.34
  10  -6  -5    0.07    1.95
 -10   6   5    7.16    4.01
  10  -6  -4   -0.86    2.13
 -10   6   4    0.83    2.67
  10  -6  -3   -1.13    1.10
 -10   6   3    5.90    4.11
  10  -6  -2    3.40    2.74
 -10   6   2   -1.27    1.84
  10  -6  -1   17.97    5.61
 -10   6   1   14.23    5.51
  10  -6   0    9.11    3.76
 -10   6   0    6.49    3.29
  10  -6   0    6.71    2.69
  10  -6   1   40.51    8.33
 -10   6  -1   44.76    9.23
  10  -6   1   45.35    7.01
  10  -6   2   16.24    5.56
 -10   6  -2   10.24    4.49
  10  -6   2   12.59    3.69
  10  -6   3   15.82    5.23
  10  -6   3   17.93    4.49
  10  -6   4   43.73    7.45
  10  -6   5    6.90    3.13
  10  -6   6   10.32    3.97
  10  -5 -10    9.52    4.06
  10  -5  -9   -4.12    2.84
  10  -5  -8    3.47    3.53
 -10   5   8    2.27    1.26
  10  -5  -7    2.47    2.92
 -10   5   7    3.62    3.02
 -10   5   6   17.45    5.74
  10  -5  -6   10.80    4.41
 -10   5   5    8.01    3.41
  10  -5  -5   10.45    4.33
 -10   5   4    3.25    2.73
  10  -5  -4    9.01    3.72
  10  -5  -3    2.70    2.21
  10  -5  -3    4.88    2.13
 -10   5   2    2.10    2.29
  10  -5  -2    0.32    1.50
  10  -5  -2    3.28    2.04
 -10   5   1   13.69    5.25
  10  -5  -1   13.19    5.22
  10  -5  -1   24.29    5.36
 -10   5   0    6.99    4.06
  10  -5   0    5.13    2.59
  10  -5   0    7.64    4.19
 -10   5  -1    1.45    1.75
  10  -5   1    3.05    2.89
  10  -5   1    0.21    2.09
 -10   5  -2    2.77    2.85
  10  -5   2    2.89    1.80
  10  -5   2    7.03    4.02
  10  -5   3    2.02    3.28
  10  -5   3   -0.78    1.99
  10  -5   4   10.69    4.61
  10  -5   4   22.12    5.48
  10  -5   5    6.12    3.43
  10  -5   6    7.53    2.92
  10  -4 -11    3.66    3.25
 -10   4  10   10.45    5.54
  10  -4 -10    9.47    4.42
 -10   4   9    3.66    3.16
  10  -4  -9    1.07    2.23
 -10   4   8    0.08    1.98
 -10   4   7    1.87    3.44
  10  -4  -6   -0.32    1.84
 -10   4   6   -6.50    3.62
  10  -4  -5   36.27    6.75
 -10   4   5   23.60    6.53
  10  -4  -4   -1.70    2.48
 -10   4   4    2.27    1.75
 -10   4   3    5.24    3.34
  10  -4  -3    2.37    1.56
 -10   4   2   24.01    6.71
  10  -4  -2   31.76    6.45
 -10   4   1   38.15    8.40
  10  -4  -1   26.00    5.94
 -10   4   0   60.09   10.36
  10  -4   0   50.69    8.35
 -10   4  -1   62.53   10.40
  10  -4   1   63.44    9.54
 -10   4  -2    4.19    2.60
  10  -4   2    4.82    2.13
  10  -4   3    0.28    1.12
  10  -4   4   13.00    4.84
  10  -4   4   24.69    6.20
  10  -4   5   14.49    4.80
  10  -4   5   19.92    6.26
 -10   3  12   44.89    9.23
 -10   3  11   62.67   11.08
 -10   3  10    7.10    3.82
 -10   3   9   12.07    4.83
  10  -3  -8    5.96    2.84
 -10   3   8   10.16    4.66
  10  -3  -7   13.41    4.55
 -10   3   7    5.67    4.11
  10  -3  -6    6.74    3.67
 -10   3   6   -2.38    1.46
  10  -3  -5    4.03    2.81
 -10   3   5    0.63    2.34
  10  -3  -4   12.19    4.08
 -10   3   4   12.74    4.73
  10  -3  -3    3.62    1.24
 -10   3   3    2.41    2.26
 -10   3   2    0.41    1.08
  10  -3  -2    0.24    1.41
 -10   3   1   48.10    9.19
  10  -3  -1   53.92    9.18
 -10   3   0   19.55    5.58
  10  -3   0   23.39    6.08
 -10   3  -1    1.97    1.40
  10  -3   1    0.11    1.78
  10  -3   2    2.95    1.86
  10  -3   3   38.12    7.98
  10  -3   4    7.17    3.52
 -10   2  12   -2.55    3.09
 -10   2  11   18.35    6.42
 -10   2  10   -1.58    2.67
 -10   2   9   18.39    5.85
  10  -2  -9  104.72   14.29
  10  -2  -8    1.95    2.71
 -10   2   8    4.05    3.10
  10  -2  -7   21.64    5.86
 -10   2   7   29.78    7.34
  10  -2  -6   22.47    6.51
 -10   2   6   19.51    6.27
  10  -2  -5   13.52    5.40
 -10   2   5   15.32    5.15
  10  -2  -4   12.26    4.91
 -10   2   4   14.99    5.37
  10  -2  -3   26.13    6.75
 -10   2   3   23.02    6.59
  10  -2  -2   47.57    9.27
 -10   2   2   45.85    8.88
  10  -2  -1    1.93    2.74
 -10   2   1   -0.85    2.26
 -10   2   0   15.36    5.16
  10  -2   0   10.63    4.39
  10  -2   1   -0.32    2.25
  10  -2   2    2.96    1.58
  10  -2   2    1.89    1.30
  10  -2   3   10.23    4.27
 -10   1  11   -0.75    1.95
 -10   1  10    4.46    3.23
  10  -1  -9   -0.74    2.41
 -10   1   9    2.12    1.98
  10  -1  -8    5.97    2.28
 -10   1   8    7.97    4.27
 -10   1   8    6.05    3.08
  10  -1  -7   23.35    6.77
 -10   1   7   30.39    7.79
 -10   1   7   22.39    5.62
  10  -1  -6   42.25    9.04
 -10   1   6   55.03    9.72
 -10   1   6   57.85    9.16
  10  -1  -5   30.03    7.94
 -10   1   5   19.05    5.75
 -10   1   5   24.20    5.62
  10  -1  -4   17.90    5.72
 -10   1   4   18.28    5.90
 -10   1   4   22.86    5.42
  10  -1  -3   69.25   11.98
 -10   1   3   57.45    9.83
 -10   1   3   56.94    8.09
  10  -1  -2   56.15   10.83
 -10   1   2   43.95    8.56
 -10   1   2   46.82    7.17
  10  -1  -1    1.61    2.80
 -10   1   1    0.02    1.27
  10  -1   0    4.40    3.88
  10  -1   1    0.26    1.14
  10  -1   1   -0.54    2.72
  10  -1   2    1.38    1.55
  10  -1   2    0.95    3.40
 -10   0  11   32.35    6.81
 -10   0  10    4.21    3.50
 -10   0   9    7.93    3.19
  10   0  -8   -5.35    3.99
 -10   0   8   -2.08    2.47
 -10   0   8   -1.33    2.34
  10   0  -7    8.58    4.86
 -10   0   7    3.23    2.71
 -10   0   7    4.27    2.00
  10   0  -6   -0.43    3.28
 -10   0   6    1.47    1.03
 -10   0   6    5.14    2.65
  10   0  -5   32.72    8.15
 -10   0   5   19.05    5.43
 -10   0   5   22.46    5.44
  10   0  -4    7.22    3.85
 -10   0   4   -0.54    2.96
 -10   0   4    5.81    2.96
  10   0  -3    9.14    4.77
 -10   0   3    5.51    2.29
 -10   0   3    5.28    2.25
  10   0  -2   52.82   11.10
 -10   0   2   54.06    9.51
  10   0  -1   12.64    5.68
  10   0   0   -1.52    1.92
  10   0   1    4.88    2.84
  10   0   2   42.56    7.37
  10   0   3    0.19    1.66
 -10  -1  10    6.11    3.25
 -10  -1   9   -0.99    1.70
 -10  -1   8   11.86    4.24
 -10  -1   7   15.83    5.06
 -10  -1   7   15.54    4.96
 -10  -1   6    1.50    2.29
 -10  -1   6    1.44    1.77
 -10  -1   5   -2.28    2.22
 -10  -1   5   -0.31    1.25
 -10  -1   4    8.57    3.27
  10   1  -1    2.34    1.52
  10   1   0    3.55    2.65
  10   1   1    5.05    3.22
  10   1   2   10.55    3.30
 -10  -2   8    3.62    1.54
 -10  -2   7    4.42    2.62
 -10  -2   7    2.63    2.55
 -10  -2   6    7.77    2.97
  11  -5   0   19.26    5.02
  11  -5   1    8.06    3.25
  11  -5   2   -1.40    2.14
  11  -5   3    3.81    2.98
  11  -4  -3    3.46    2.18
  11  -4  -2   -0.63    1.35
  11  -4  -1    6.37    2.77
  11  -4   0   10.65    4.13
  11  -4   1   28.37    6.45
  11  -4   2   11.41    4.32
  11  -3  -5   14.02    4.70
  11  -3  -4   10.65    4.48
  11  -3  -3   -4.12    2.80
  11  -3  -2   11.98    4.64
  11  -3  -1    5.38    3.21
  11  -3   0    8.06    3.43
  11  -2  -7   87.69   12.33
  11  -2  -6   17.80    5.58
 -11   2   6   22.19    5.85
  11  -2  -5   16.70    6.03
 -11   2   5    7.11    3.98
  11  -2  -4   40.24    9.10
 -11   2   4   36.92    6.68
  11  -2  -3   13.52    4.95
  11  -2  -2   41.69    8.97
   0   0   0    0.00    0.00



TITL exp_1418 in P-1
REM P-1 (#2 in standard setting)
CELL 0.71073   8.275523  10.056635  14.214523  96.3654  98.4888 108.4177
ZERR    2.00   0.000334   0.000386   0.000568   0.0032   0.0033   0.0035
LATT  1
SFAC C H N O Cl
UNIT 48.00 24.00 2.00 12.00 2.00
TREF
HKLF 4
END
_computing_structure_solution     'SHELXT 2014/5 (Sheldrick, 2014)'
_computing_structure_solution     'SHELXT 2014/5 (Sheldrick, 2014)'
;
_shelx_hkl_checksum              47805
_shelx_fab_file
;
-10 0 1 -0.5155 0.0228
-10 0 2 -0.4509 0.0340
-10 0 3 -0.4636 -0.0015
-10 0 4 2.2325 -0.0072
-10 0 5 1.6410 -0.0126
-10 0 6 0.5870 -0.0060
-10 0 7 1.6633 0.0033
-10 1 1 -0.4220 -0.0129
-10 1 2 -0.2971 0.0168
-10 1 3 -1.1306 -0.0129
-10 1 4 0.4056 -0.0169
-10 1 5 1.6877 -0.0159
-10 1 6 0.6537 -0.0136
-10 1 7 0.5189 -0.0100
-10 1 8 0.4738 -0.0071
-10 2 1 -0.3954 -0.0405
-10 2 2 -0.2299 -0.0164
-10 2 3 -1.3043 -0.0181
-10 2 4 -1.2392 -0.0221
-10 2 5 -0.0790 -0.0137
-10 2 6 0.9382 -0.0089
-10 2 7 -1.0032 -0.0099
-10 2 8 0.4366 -0.0136
-10 2 9 -3.1147 -0.0054
-10 3 1 -0.2931 -0.0293
-10 3 2 -0.3764 -0.0291
-10 3 3 -1.1858 -0.0066
-10 3 4 -1.3462 -0.0127
-10 3 5 -1.7407 -0.0093
-10 3 6 0.2248 -0.0014
-10 3 7 -2.2983 -0.0050
-10 3 8 0.6059 -0.0049
-10 3 9 -2.1790 -0.0092
-10 4 1 0.0780 0.0046
-10 4 2 -0.0294 -0.0155
-10 4 3 -1.2386 0.0105
-10 4 4 -0.9487 0.0093
-10 4 5 -1.8582 0.0047
-10 4 6 0.1197 0.0066
-10 4 7 -2.1530 0.0017
-10 4 8 0.6217 0.0018
-10 4 9 0.1295 -0.0073
-10 5 1 -0.1906 0.0286
-10 5 2 0.8766 0.0047
-10 5 3 -1.3021 0.0168
-10 5 4 -0.8373 0.0243
-10 5 5 -1.6640 0.0228
-10 5 6 1.3610 0.0139
-10 5 7 -0.5312 0.0146
-10 5 8 1.5114 0.0091
-10 6 1 -1.3510 0.0317
-10 6 2 1.4495 0.0192
-10 6 3 -0.7520 0.0095
-10 6 4 -0.3227 0.0143
-10 6 5 -1.7058 0.0165
-10 6 6 1.9204 0.0043
-10 6 7 0.3591 0.0141
-10 7 1 -2.1752 0.0134
-10 7 2 0.9899 0.0211
-10 7 3 0.1545 0.0011
-10 7 4 0.6794 -0.0034
-10 7 5 -0.9157 -0.0095
-9 -3 1 0.2248 0.0255
-9 -3 2 0.5038 0.0358
-9 -3 4 1.0214 -0.0005
-9 -3 5 2.4536 -0.0093
-9 -3 6 0.3070 -0.0035
-9 -2 1 -0.3630 -0.0163
-9 -2 2 0.5938 0.0200
-9 -2 3 1.5112 -0.0169
-9 -2 4 2.4317 -0.0121
-9 -2 5 3.2392 -0.0141
-9 -2 6 1.7415 -0.0098
-9 -2 7 2.4111 -0.0050
-9 -2 8 -0.4971 -0.0018
-9 -2 9 0.1364 -0.0040
-9 -1 1 -0.8134 -0.0401
-9 -1 2 0.8693 -0.0093
-9 -1 3 0.9626 -0.0182
-9 -1 4 3.4205 -0.0255
-9 -1 5 2.8610 -0.0192
-9 -1 6 2.2672 -0.0141
-9 -1 7 2.5313 -0.0059
-9 -1 8 0.5840 -0.0050
-9 -1 9 -0.2960 -0.0050
-9 -1 10 0.3928 0.0039
-9 0 1 -0.8096 -0.0299
-9 0 2 1.1756 -0.0285
-9 0 3 -0.3648 -0.0052
-9 0 4 2.6688 -0.0223
-9 0 5 2.1884 -0.0126
-9 0 6 1.4118 -0.0057
-9 0 7 1.5642 0.0000
-9 0 8 -0.3722 0.0049
-9 0 9 -0.5244 0.0040
-9 0 10 -0.6948 0.0041
-9 0 11 -1.4726 0.0128
-9 1 1 -1.3534 -0.0044
-9 1 2 0.3871 -0.0251
-9 1 3 -1.6811 0.0161
-9 1 4 0.3682 0.0024
-9 1 5 0.9458 0.0034
-9 1 6 -0.0999 0.0073
-9 1 7 -0.0328 0.0050
-9 1 8 -2.6529 0.0069
-9 1 9 -1.7623 0.0113
-9 1 10 -1.8930 0.0084
-9 1 11 -1.3772 0.0071
-9 1 12 0.0675 0.0270
-9 2 1 -1.8689 0.0263
-9 2 2 -0.8965 -0.0015
-9 2 3 -2.5014 0.0285
-9 2 4 -1.3201 0.0282
-9 2 5 -0.6824 0.0167
-9 2 6 -1.2450 0.0116
-9 2 7 -1.2957 0.0075
-9 2 8 -2.6646 0.0031
-9 2 9 -2.2546 0.0105
-9 2 10 -2.1450 0.0095
-9 2 11 -1.3563 0.0063
-9 2 12 -0.0125 0.0148
-9 3 1 -1.2514 0.0451
-9 3 2 -1.2106 0.0241
-9 3 3 -2.8520 0.0179
-9 3 4 -1.8925 0.0302
-9 3 5 -1.2310 0.0177
-9 3 6 -1.1355 0.0059
-9 3 7 -1.2227 0.0020
-9 3 8 -0.7812 -0.0005
-9 3 9 -0.2552 0.0034
-9 3 10 -1.1001 -0.0015
-9 3 11 -1.2356 0.0003
-9 3 12 -0.5171 -0.0052
-9 4 1 -0.4461 0.0239
-9 4 2 -0.8070 0.0266
-9 4 3 -2.6399 -0.0101
-9 4 4 -2.3287 0.0056
-9 4 5 -0.4499 0.0050
-9 4 6 0.1700 -0.0048
-9 4 7 0.6962 -0.0105
-9 4 8 0.1347 -0.0083
-9 4 9 1.5586 -0.0070
-9 4 10 -0.0478 -0.0127
-9 4 11 -0.5905 -0.0115
-9 5 1 -0.5264 -0.0203
-9 5 2 -0.3061 0.0069
-9 5 3 -1.6572 -0.0293
-9 5 4 -2.0059 -0.0222
-9 5 5 0.6025 -0.0095
-9 5 6 1.6300 -0.0107
-9 5 7 2.9423 -0.0127
-9 5 8 1.0930 -0.0089
-9 5 9 1.3861 -0.0100
-9 5 10 0.3227 -0.0072
-9 5 11 -0.1616 -0.0049
-9 6 1 -1.3375 -0.0419
-9 6 2 0.4028 -0.0140
-9 6 3 -0.4392 -0.0229
-9 6 4 -0.5602 -0.0299
-9 6 5 1.1299 -0.0170
-9 6 6 2.3874 -0.0090
-9 6 7 2.8319 -0.0045
-9 6 8 2.9953 -0.0010
-9 6 9 1.1457 -0.0038
-9 6 10 1.0140 0.0020
-9 7 1 -2.4066 -0.0303
-9 7 2 0.8075 -0.0232
-9 7 3 0.3162 0.0008
-9 7 4 0.7290 -0.0096
-9 7 5 0.9588 -0.0113
-9 7 6 2.3789 0.0002
-9 7 7 0.9446 0.0044
-9 7 8 3.2352 0.0003
-9 7 9 1.4556 -0.0009
-9 8 1 -2.8447 -0.0035
-9 8 2 0.3522 -0.0179
-9 8 3 0.1493 0.0203
-9 8 4 1.0697 0.0174
-9 8 5 0.1330 0.0035
-9 8 6 1.3594 0.0140
-9 8 7 -0.0176 0.0186
-9 8 8 1.4472 0.0060
-9 9 1 -2.0822 0.0300
-9 9 2 -0.0193 0.0040
-9 9 3 -0.9831 0.0244
-9 9 4 0.4658 0.0187
-9 9 5 -1.1183 0.0031
-9 9 6 -0.6695 0.0155
-9 10 1 -0.9623 0.0517
-9 10 2 0.4654 0.0252
-9 10 3 -1.7248 0.0189
-8 -5 2 -0.4104 0.0350
-8 -5 3 0.0429 -0.0084
-8 -5 4 -0.9380 -0.0100
-8 -5 5 0.5224 -0.0247
-8 -5 6 -1.0825 -0.0223
-8 -4 1 0.5013 -0.0419
-8 -4 2 -0.0069 -0.0020
-8 -4 3 1.4295 -0.0191
-8 -4 4 0.8397 -0.0278
-8 -4 5 1.6975 -0.0169
-8 -4 6 -0.0527 -0.0130
-8 -4 7 0.2335 -0.0094
-8 -4 8 -0.5748 0.0037
-8 -4 9 -0.0638 -0.0026
-8 -4 10 -1.9679 0.0055
-8 -3 1 1.4239 -0.0436
-8 -3 2 0.8180 -0.0313
-8 -3 3 3.3897 -0.0012
-8 -3 4 3.0919 -0.0253
-8 -3 5 3.5796 -0.0091
-8 -3 6 0.9707 -0.0041
-8 -3 7 1.4877 -0.0033
-8 -3 8 -0.6728 0.0000
-8 -3 9 0.7432 0.0006
-8 -3 10 -1.7136 0.0031
-8 -3 11 -1.4789 -0.0032
-8 -2 1 1.7006 -0.0106
-8 -2 2 1.0138 -0.0329
-8 -2 3 3.8314 0.0230
-8 -2 4 3.9968 -0.0010
-8 -2 5 4.6850 -0.0012
-8 -2 6 1.3798 0.0008
-8 -2 7 2.2562 0.0059
-8 -2 8 -0.2420 0.0027
-8 -2 9 0.2169 0.0115
-8 -2 10 -0.6313 0.0116
-8 -2 11 -1.0958 0.0035
-8 -2 12 -0.5923 0.0132
-8 -1 1 1.0859 0.0335
-8 -1 2 0.8033 -0.0077
-8 -1 3 2.1213 0.0294
-8 -1 4 3.0247 0.0255
-8 -1 5 4.2227 0.0108
-8 -1 6 0.8488 0.0073
-8 -1 7 1.2358 0.0123
-8 -1 8 0.3796 0.0042
-8 -1 9 -1.7459 0.0125
-8 -1 10 0.0843 0.0110
-8 -1 11 -1.2996 0.0106
-8 -1 12 0.2363 0.0035
-8 -1 13 0.6335 0.0109
-8 0 1 -0.5298 0.0496
-8 0 2 0.0542 0.0235
-8 0 3 -0.0626 0.0168
-8 0 4 0.6115 0.0327
-8 0 5 2.7648 0.0144
-8 0 6 -0.7756 0.0077
-8 0 7 -1.1751 0.0063
-8 0 8 -0.3406 -0.0013
-8 0 9 -3.3873 0.0006
-8 0 10 -0.0715 -0.0003
-8 0 11 -1.2446 0.0064
-8 0 12 0.2920 -0.0021
-8 0 13 0.9400 -0.0003
-8 1 1 -2.3805 0.0251
-8 1 2 -1.8712 0.0368
-8 1 3 -1.1652 -0.0069
-8 1 4 -2.0643 0.0142
-8 1 5 1.1511 0.0015
-8 1 6 -2.7581 -0.0052
-8 1 7 -2.8953 -0.0082
-8 1 8 -1.8637 -0.0076
-8 1 9 -3.5397 -0.0110
-8 1 10 -0.8300 -0.0067
-8 1 11 -0.6689 0.0000
-8 1 12 0.3251 -0.0009
-8 1 13 0.4613 0.0028
-8 1 14 0.7304 0.0074
-8 2 1 -2.3650 -0.0146
-8 2 2 -3.5597 0.0261
-8 2 3 -1.2646 -0.0255
-8 2 4 -3.2165 -0.0144
-8 2 5 0.6644 -0.0098
-8 2 6 -2.7600 -0.0142
-8 2 7 -2.4400 -0.0151
-8 2 8 -1.5665 -0.0064
-8 2 9 -2.2165 -0.0138
-8 2 10 -1.2207 -0.0097
-8 2 11 -0.9625 -0.0050
-8 2 12 0.0434 -0.0034
-8 2 13 -0.6362 0.0038
-8 2 14 0.3883 -0.0012
-8 3 1 -0.9797 -0.0461
-8 3 2 -3.5328 -0.0045
-8 3 3 -1.1838 -0.0247
-8 3 4 -2.8819 -0.0316
-8 3 5 1.4390 -0.0095
-8 3 6 -0.0112 -0.0055
-8 3 7 -0.4006 -0.0078
-8 3 8 0.1805 0.0007
-8 3 9 -0.4941 -0.0047
-8 3 10 -0.4023 -0.0089
-8 3 11 -1.5957 -0.0100
-8 3 12 -0.8987 -0.0084
-8 3 13 -1.6483 -0.0048
-8 3 14 -1.4557 -0.0122
-8 4 1 -0.4771 -0.0476
-8 4 2 -2.6622 -0.0344
-8 4 3 -0.6219 -0.0038
-8 4 4 -1.8054 -0.0231
-8 4 5 2.3806 -0.0055
-8 4 6 3.0679 0.0069
-8 4 7 2.2806 0.0050
-8 4 8 1.2472 0.0051
-8 4 9 0.5507 0.0083
-8 4 10 0.7375 0.0039
-8 4 11 -0.8045 -0.0044
-8 4 12 -1.2448 -0.0038
-8 4 13 -1.3957 -0.0001
-8 5 1 -0.6132 -0.0058
-8 5 2 -2.1210 -0.0337
-8 5 3 0.4072 0.0218
-8 5 4 0.1551 0.0074
-8 5 5 3.2246 0.0027
-8 5 6 4.5345 0.0105
-8 5 7 4.8014 0.0141
-8 5 8 2.3601 0.0066
-8 5 9 1.5735 0.0103
-8 5 10 1.2922 0.0146
-8 5 11 0.3678 0.0082
-8 5 12 -0.4534 0.0045
-8 5 13 -0.0958 0.0105
-8 6 1 -0.4369 0.0446
-8 6 2 -1.6783 -0.0057
-8 6 3 0.4737 0.0271
-8 6 4 1.6115 0.0310
-8 6 5 3.3671 0.0117
-8 6 6 4.3818 0.0063
-8 6 7 5.0900 0.0109
-8 6 8 3.6021 0.0053
-8 6 9 2.4312 0.0027
-8 6 10 1.5543 0.0078
-8 6 11 -0.2858 0.0065
-8 6 12 -0.1112 0.0003
-8 7 1 -0.4056 0.0550
-8 7 2 -0.8254 0.0210
-8 7 3 -0.1971 0.0075
-8 7 4 1.0560 0.0262
-8 7 5 1.7778 0.0107
-8 7 6 2.8872 -0.0017
-8 7 7 2.7574 -0.0010
-8 7 8 2.8770 -0.0004
-8 7 9 1.5012 -0.0007
-8 7 10 1.2032 0.0013
-8 7 11 -1.9417 -0.0015
-8 8 1 -0.6683 0.0247
-8 8 2 -0.0571 0.0289
-8 8 3 -0.4718 -0.0179
-8 8 4 -0.3991 -0.0019
-8 8 5 -0.7499 0.0010
-8 8 6 0.4613 -0.0096
-8 8 7 0.6745 -0.0085
-8 8 8 0.8550 -0.0040
-8 8 9 -0.0175 0.0003
-8 8 10 -0.0843 0.0052
-8 9 1 -0.9330 -0.0161
-8 9 2 0.0957 0.0165
-8 9 3 -1.1182 -0.0277
-8 9 4 -1.3241 -0.0302
-8 9 5 -2.5445 -0.0058
-8 9 6 -1.6784 -0.0094
-8 9 7 0.2422 -0.0116
-8 9 8 -0.2112 -0.0027
-8 10 1 -1.1046 -0.0460
-8 10 2 0.1997 -0.0077
-8 10 3 -2.0667 -0.0162
-8 10 4 -1.2149 -0.0287
-8 10 5 -2.7166 -0.0005
-8 10 6 -2.0974 0.0082
-8 11 1 -0.8954 -0.0483
-8 11 2 0.5054 -0.0237
-8 11 3 -1.8279 -0.0026
-7 -6 1 -0.1684 -0.0304
-7 -6 2 -0.2125 -0.0196
-7 -6 3 -0.9264 0.0043
-7 -6 4 -1.0570 -0.0238
-7 -6 5 -0.8053 -0.0132
-7 -6 6 -1.0730 -0.0143
-7 -6 7 -0.9397 0.0005
-7 -6 8 -0.2971 -0.0018
-7 -6 9 0.0968 -0.0059
-7 -5 1 0.0838 -0.0098
-7 -5 2 0.6842 -0.0382
-7 -5 3 0.6768 0.0190
-7 -5 4 0.5095 -0.0029
-7 -5 5 0.1425 0.0033
-7 -5 6 -0.0008 -0.0024
-7 -5 7 -0.5680 0.0090
-7 -5 8 -0.3882 0.0057
-7 -5 9 -0.5575 0.0034
-7 -5 10 -1.6507 0.0125
-7 -5 11 -1.3116 0.0081
-7 -4 1 1.5059 0.0216
-7 -4 2 2.6468 -0.0241
-7 -4 3 2.7394 0.0240
-7 -4 4 3.0225 0.0260
-7 -4 5 1.4549 0.0149
-7 -4 6 0.9162 0.0105
-7 -4 7 0.0430 0.0106
-7 -4 8 -0.4440 0.0025
-7 -4 9 -1.2092 0.0059
-7 -4 10 -2.6350 0.0066
-7 -4 11 -2.2267 0.0063
-7 -4 12 -1.4057 0.0012
-7 -4 13 -0.1944 0.0003
-7 -3 1 2.8143 0.0492
-7 -3 2 3.9256 0.0160
-7 -3 3 4.0988 0.0165
-7 -3 4 4.3282 0.0373
-7 -3 5 2.7546 0.0079
-7 -3 6 0.8919 0.0047
-7 -3 7 0.8302 0.0062
-7 -3 8 -0.6933 -0.0006
-7 -3 9 -0.1644 0.0020
-7 -3 10 -2.5881 0.0029
-7 -3 11 -1.5040 0.0059
-7 -3 12 -0.6993 0.0031
-7 -3 13 0.1237 -0.0023
-7 -3 14 0.9990 0.0007
-7 -2 1 2.2284 0.0397
-7 -2 2 2.8308 0.0442
-7 -2 3 4.0689 -0.0069
-7 -2 4 3.4666 0.0211
-7 -2 5 3.3425 -0.0024
-7 -2 6 -0.2651 -0.0098
-7 -2 7 1.1484 -0.0050
-7 -2 8 -1.7352 -0.0013
-7 -2 9 0.4964 -0.0039
-7 -2 10 -1.5326 -0.0025
-7 -2 11 -0.5305 0.0045
-7 -2 12 1.0279 0.0056
-7 -2 13 1.4712 0.0045
-7 -2 14 1.9038 0.0017
-7 -1 1 0.3031 -0.0106
-7 -1 2 0.4718 0.0375
-7 -1 3 2.9098 -0.0265
-7 -1 4 1.6720 -0.0109
-7 -1 5 2.8775 -0.0065
-7 -1 6 -2.1470 -0.0141
-7 -1 7 -0.0392 -0.0187
-7 -1 8 -2.7211 -0.0060
-7 -1 9 -1.2228 -0.0088
-7 -1 10 -0.7387 -0.0112
-7 -1 11 -0.7980 -0.0031
-7 -1 12 1.1618 -0.0008
-7 -1 13 2.5161 0.0025
-7 -1 14 2.0206 0.0036
-7 -1 15 3.6994 0.0056
-7 0 1 -2.1590 -0.0596
-7 0 2 -1.7866 -0.0012
-7 0 3 0.9702 -0.0221
-7 0 4 -0.5038 -0.0337
-7 0 5 1.4651 -0.0094
-7 0 6 -3.8526 -0.0058
-7 0 7 -2.2607 -0.0190
-7 0 8 -2.5838 -0.0085
-7 0 9 -3.1035 -0.0060
-7 0 10 -0.3368 -0.0118
-7 0 11 -1.0488 -0.0107
-7 0 12 0.2013 -0.0065
-7 0 13 2.2247 -0.0015
-7 0 14 2.0409 0.0060
-7 0 15 3.3550 0.0055
-7 1 1 -3.9092 -0.0564
-7 1 2 -3.7742 -0.0416
-7 1 3 -0.7194 -0.0010
-7 1 4 -2.5179 -0.0289
-7 1 5 0.1833 -0.0069
-7 1 6 -4.2165 0.0059
-7 1 7 -3.4577 -0.0017
-7 1 8 -2.0169 -0.0022
-7 1 9 -3.1642 0.0026
-7 1 10 -0.4981 -0.0002
-7 1 11 -0.9394 -0.0061
-7 1 12 -0.3674 -0.0039
-7 1 13 0.6102 0.0010
-7 1 14 1.7691 0.0066
-7 1 15 2.2182 0.0028
-7 2 1 -3.0653 -0.0041
-7 2 2 -4.7310 -0.0473
-7 2 3 -0.8597 0.0189
-7 2 4 -2.4018 -0.0006
-7 2 5 1.0842 0.0070
-7 2 6 -1.8458 0.0157
-7 2 7 -2.1494 0.0166
-7 2 8 -1.0974 0.0054
-7 2 9 -2.0531 0.0061
-7 2 10 -0.8514 0.0081
-7 2 11 -1.4401 0.0034
-7 2 12 -0.9733 0.0007
-7 2 13 -1.6457 -0.0009
-7 2 14 0.7497 -0.0022
-7 2 15 0.2223 -0.0034
-7 3 1 -0.6690 0.0452
-7 3 2 -4.0176 -0.0163
-7 3 3 0.3058 0.0246
-7 3 4 -0.2004 0.0261
-7 3 5 3.8443 0.0160
-7 3 6 2.7010 0.0159
-7 3 7 0.6778 0.0203
-7 3 8 0.8961 0.0077
-7 3 9 -0.6415 0.0048
-7 3 10 -0.1812 0.0089
-7 3 11 -1.6413 0.0069
-7 3 12 -1.8309 0.0050
-7 3 13 -3.2178 -0.0020
-7 3 14 -0.9580 -0.0084
-7 3 15 -0.7522 -0.0002
-7 4 1 0.6187 0.0598
-7 4 2 -2.5386 0.0262
-7 4 3 1.9448 0.0127
-7 4 4 2.1672 0.0310
-7 4 5 6.0366 0.0082
-7 4 6 6.6241 0.0005
-7 4 7 3.3168 0.0080
-7 4 8 2.9993 0.0031
-7 4 9 0.8113 0.0008
-7 4 10 0.8436 0.0058
-7 4 11 -0.8359 0.0054
-7 4 12 -2.2066 0.0077
-7 4 13 -2.8803 0.0040
-7 4 14 -2.7294 -0.0016
-7 5 1 0.4641 0.0347
-7 5 2 -1.8889 0.0492
-7 5 3 2.7698 -0.0094
-7 5 4 3.6312 0.0115
-7 5 5 6.4209 -0.0011
-7 5 6 7.7922 -0.0147
-7 5 7 5.0532 -0.0091
-7 5 8 3.5126 -0.0041
-7 5 9 1.8890 -0.0060
-7 5 10 0.8502 -0.0059
-7 5 11 -0.4401 -0.0025
-7 5 12 -2.1856 0.0018
-7 5 13 -1.0107 -0.0006
-7 5 14 -2.8692 -0.0042
-7 6 1 0.0254 -0.0236
-7 6 2 -2.1970 0.0318
-7 6 3 1.2727 -0.0260
-7 6 4 3.2157 -0.0202
-7 6 5 4.5539 -0.0060
-7 6 6 5.7916 -0.0129
-7 6 7 4.8362 -0.0179
-7 6 8 2.0730 -0.0060
-7 6 9 1.2894 -0.0042
-7 6 10 0.2233 -0.0136
-7 6 11 -1.1812 -0.0110
-7 6 12 -2.3571 -0.0036
-7 6 13 0.0971 -0.0086
-7 7 1 0.0657 -0.0686
-7 7 2 -2.0144 -0.0085
-7 7 3 -1.2809 -0.0200
-7 7 4 0.7229 -0.0341
-7 7 5 0.9884 -0.0117
-7 7 6 1.9260 -0.0005
-7 7 7 2.3591 -0.0122
-7 7 8 0.1368 -0.0022
-7 7 9 -1.3840 0.0081
-7 7 10 -0.5075 -0.0023
-7 7 11 -2.0260 -0.0065
-7 7 12 -2.1488 0.0033
-7 8 1 0.4934 -0.0540
-7 8 2 -1.0857 -0.0351
-7 8 3 -2.3707 0.0037
-7 8 4 -2.1216 -0.0149
-7 8 5 -1.9109 -0.0104
-7 8 6 -1.1550 0.0064
-7 8 7 -0.2006 0.0011
-7 8 8 -0.5395 0.0003
-7 8 9 -3.4940 0.0118
-7 8 10 -1.2978 0.0079
-7 8 11 -2.2038 0.0017
-7 9 1 0.3655 0.0039
-7 9 2 -0.5142 -0.0331
-7 9 3 -2.0862 0.0233
-7 9 4 -3.5442 0.0166
-7 9 5 -2.7667 0.0032
-7 9 6 -1.8617 0.0058
-7 9 7 -0.7826 0.0099
-7 9 8 -0.0271 0.0001
-7 9 9 -2.5396 0.0023
-7 9 10 -1.2613 -0.0002
-7 10 1 -0.5989 0.0523
-7 10 2 -0.4323 -0.0102
-7 10 3 -1.5454 0.0257
-7 10 4 -2.9636 0.0346
-7 10 5 -2.4279 0.0152
-7 10 6 -1.0990 0.0047
-7 10 7 0.0678 0.0141
-7 10 8 0.5653 0.0062
-7 11 1 -1.3118 0.0544
-7 11 2 -0.4750 0.0124
-7 11 3 -0.9164 0.0022
-7 11 4 -1.1500 0.0229
-7 11 5 -1.5794 0.0039
-7 11 6 -0.3902 -0.0070
-7 12 1 -1.1065 0.0147
-6 -7 1 -0.9054 0.0229
-6 -7 2 -1.1417 -0.0271
-6 -7 3 -0.5852 0.0135
-6 -7 4 -2.1164 0.0189
-6 -7 5 -0.3391 0.0183
-6 -7 6 -1.1159 0.0016
-6 -7 7 -0.8312 -0.0004
-6 -7 8 -0.4745 0.0038
-6 -7 9 0.2434 0.0007
-6 -7 10 -1.5302 0.0006
-6 -6 1 0.9554 0.0589
-6 -6 2 -0.0928 0.0146
-6 -6 3 1.0582 0.0090
-6 -6 4 -1.1129 0.0334
-6 -6 5 0.3029 0.0128
-6 -6 6 0.0924 0.0099
-6 -6 7 -0.1540 -0.0020
-6 -6 8 -0.6964 0.0068
-6 -6 9 0.5477 -0.0002
-6 -6 10 -2.1046 0.0010
-6 -6 11 -0.6886 0.0147
-6 -6 12 0.0244 0.0120
-6 -5 1 3.3214 0.0414
-6 -5 2 1.6693 0.0406
-6 -5 3 3.2645 -0.0065
-6 -5 4 1.0179 0.0285
-6 -5 5 1.0129 0.0063
-6 -5 6 0.7605 0.0026
-6 -5 7 0.1626 -0.0076
-6 -5 8 -1.5314 0.0010
-6 -5 9 -1.0061 -0.0031
-6 -5 10 -2.1544 -0.0061
-6 -5 11 -2.0074 0.0001
-6 -5 12 -0.5344 0.0014
-6 -5 13 -0.2985 0.0038
-6 -4 1 5.0715 -0.0081
-6 -4 2 3.3676 0.0391
-6 -4 3 3.9038 -0.0224
-6 -4 4 2.8865 -0.0015
-6 -4 5 1.2790 -0.0055
-6 -4 6 0.3927 -0.0111
-6 -4 7 0.1053 -0.0157
-6 -4 8 -1.3863 -0.0057
-6 -4 9 -2.4258 -0.0037
-6 -4 10 -1.7664 -0.0063
-6 -4 11 -1.7518 -0.0054
-6 -4 12 -0.7247 -0.0022
-6 -4 13 1.5618 0.0009
-6 -4 14 0.3401 0.0033
-6 -3 1 4.8445 -0.0486
-6 -3 2 4.3835 0.0079
-6 -3 3 3.1515 -0.0211
-6 -3 4 3.3494 -0.0310
-6 -3 5 1.2709 -0.0110
-6 -3 6 -0.5153 -0.0120
-6 -3 7 -0.0472 -0.0149
-6 -3 8 -0.4998 -0.0092
-6 -3 9 -1.6615 -0.0055
-6 -3 10 -0.7359 -0.0032
-6 -3 11 -0.1822 -0.0048
-6 -3 12 0.2469 0.0003
-6 -3 13 2.7930 0.0048
-6 -3 14 2.4256 0.0051
-6 -3 15 2.9218 0.0040
-6 -2 1 2.5529 -0.0564
-6 -2 2 3.7471 -0.0396
-6 -2 3 2.3498 -0.0035
-6 -2 4 2.2050 -0.0341
-6 -2 5 0.4645 -0.0032
-6 -2 6 -2.7069 0.0013
-6 -2 7 -1.1085 -0.0015
-6 -2 8 -1.2595 -0.0067
-6 -2 9 -0.8928 -0.0028
-6 -2 10 -0.0733 0.0003
-6 -2 11 0.8726 -0.0030
-6 -2 12 1.9056 -0.0029
-6 -2 13 3.6673 -0.0007
-6 -2 14 3.5340 0.0001
-6 -2 15 4.0967 0.0039
-6 -1 1 -0.3053 -0.0207
-6 -1 2 1.2457 -0.0601
-6 -1 3 1.3666 0.0193
-6 -1 4 0.1401 -0.0076
-6 -1 5 -0.6868 0.0073
-6 -1 6 -5.5340 0.0143
-6 -1 7 -3.0180 0.0143
-6 -1 8 -2.8822 0.0003
-6 -1 9 -1.7221 0.0046
-6 -1 10 -0.4915 0.0042
-6 -1 11 0.3719 -0.0004
-6 -1 12 2.4217 -0.0037
-6 -1 13 4.3271 -0.0053
-6 -1 14 4.0690 -0.0048
-6 -1 15 3.7036 0.0064
-6 -1 16 2.0435 0.0019
-6 0 1 -3.0294 0.0391
-6 0 2 -1.9957 -0.0298
-6 0 3 -0.3359 0.0286
-6 0 4 -2.2310 0.0274
-6 0 5 -0.9595 0.0108
-6 0 6 -6.2326 0.0159
-6 0 7 -3.9969 0.0210
-6 0 8 -2.8760 0.0068
-6 0 9 -2.2283 0.0056
-6 0 10 -0.9883 0.0045
-6 0 11 -0.8846 -0.0018
-6 0 12 0.8975 0.0001
-6 0 13 3.3563 -0.0013
-6 0 14 3.2896 -0.0047
-6 0 15 2.5057 0.0012
-6 0 16 1.1507 -0.0028
-6 1 1 -4.6710 0.0723
-6 1 2 -3.9981 0.0250
-6 1 3 -0.7091 0.0124
-6 1 4 -2.9661 0.0395
-6 1 5 0.3207 0.0084
-6 1 6 -3.9945 0.0042
-6 1 7 -2.9037 0.0126
-6 1 8 -1.9071 0.0081
-6 1 9 -1.6617 -0.0005
-6 1 10 -1.0914 0.0018
-6 1 11 -2.0060 -0.0019
-6 1 12 -1.5030 0.0013
-6 1 13 0.5492 0.0013
-6 1 14 0.8667 -0.0033
-6 1 15 1.1183 -0.0096
-6 1 16 -0.4440 -0.0081
-6 2 1 -3.6817 0.0400
-6 2 2 -3.7867 0.0568
-6 2 3 1.8263 -0.0149
-6 2 4 0.1797 0.0162
-6 2 5 3.5906 0.0010
-6 2 6 -0.0871 -0.0120
-6 2 7 -0.1725 -0.0071
-6 2 8 -0.7562 0.0025
-6 2 9 -0.9680 -0.0046
-6 2 10 -0.9691 -0.0023
-6 2 11 -2.4159 0.0027
-6 2 12 -3.0075 0.0000
-6 2 13 -1.9672 -0.0015
-6 2 14 -1.1718 -0.0002
-6 2 15 0.0869 -0.0094
-6 2 16 -1.2783 -0.0019
-6 3 1 -0.7885 -0.0308
-6 3 2 -2.3388 0.0404
-6 3 3 4.8993 -0.0291
-6 3 4 5.2514 -0.0205
-6 3 5 7.7073 -0.0110
-6 3 6 4.3192 -0.0182
-6 3 7 2.4817 -0.0203
-6 3 8 1.3995 -0.0035
-6 3 9 -0.2957 -0.0013
-6 3 10 -0.6557 -0.0045
-6 3 11 -1.8209 0.0047
-6 3 12 -3.2737 0.0002
-6 3 13 -2.8357 -0.0011
-6 3 14 -1.8360 0.0066
-6 3 15 0.0675 0.0004
-6 3 16 -1.3076 0.0082
-6 4 1 1.4663 -0.0684
-6 4 2 -1.3231 -0.0047
-6 4 3 5.8480 -0.0216
-6 4 4 7.7464 -0.0357
-6 4 5 9.6936 -0.0154
-6 4 6 7.4626 -0.0083
-6 4 7 3.2425 -0.0149
-6 4 8 3.1376 -0.0051
-6 4 9 0.1476 0.0028
-6 4 10 -0.8129 -0.0026
-6 4 11 -1.0187 0.0011
-6 4 12 -2.9955 -0.0014
-6 4 13 -2.2287 -0.0001
-6 4 14 -2.0119 0.0082
-6 4 15 0.9621 0.0030
-6 5 1 1.8412 -0.0468
-6 5 2 -1.7395 -0.0419
-6 5 3 4.3992 -0.0003
-6 5 4 6.1213 -0.0213
-6 5 5 7.8223 -0.0048
-6 5 6 7.1206 0.0080
-6 5 7 2.1014 0.0010
-6 5 8 2.0347 -0.0044
-6 5 9 -0.1746 0.0021
-6 5 10 -1.5974 0.0013
-6 5 11 -0.8184 -0.0018
-6 5 12 -2.4184 -0.0042
-6 5 13 -0.5168 -0.0030
-6 5 14 -1.2074 -0.0001
-6 5 15 2.0881 -0.0016
-6 6 1 1.0535 0.0056
-6 6 2 -2.8115 -0.0470
-6 6 3 1.4361 0.0226
-6 6 4 2.4647 0.0059
-6 6 5 3.5103 0.0068
-6 6 6 3.6288 0.0143
-6 6 7 0.5366 0.0115
-6 6 8 -0.8747 -0.0026
-6 6 9 -1.2389 -0.0008
-6 6 10 -2.2304 0.0066
-6 6 11 -0.9688 0.0023
-6 6 12 -1.8583 -0.0009
-6 6 13 0.7108 0.0022
-6 6 14 0.3851 0.0012
-6 7 1 0.1335 0.0556
-6 7 2 -3.2252 -0.0145
-6 7 3 -1.7201 0.0334
-6 7 4 -0.8410 0.0306
-6 7 5 -0.5518 0.0100
-6 7 6 0.0214 0.0070
-6 7 7 -0.6830 0.0109
-6 7 8 -2.6680 0.0013
-6 7 9 -2.5392 -0.0055
-6 7 10 -2.6238 0.0057
-6 7 11 -0.9004 0.0082
-6 7 12 -1.5298 0.0008
-6 7 13 0.4129 0.0058
-6 8 1 -0.2797 0.0656
-6 8 2 -3.0299 0.0273
-6 8 3 -3.7348 0.0154
-6 8 4 -2.9643 0.0314
-6 8 5 -2.8060 0.0075
-6 8 6 -1.5664 -0.0051
-6 8 7 -1.5945 0.0030
-6 8 8 -2.4949 0.0054
-6 8 9 -2.9648 -0.0091
-6 8 10 -2.8558 -0.0068
-6 8 11 -0.4408 0.0068
-6 8 12 -1.0315 -0.0031
-6 9 1 -0.1125 0.0203
-6 9 2 -2.3185 0.0400
-6 9 3 -3.8352 -0.0181
-6 9 4 -3.3821 -0.0002
-6 9 5 -2.7705 -0.0007
-6 9 6 -0.8762 -0.0136
-6 9 7 -1.1391 -0.0063
-6 9 8 -0.8327 0.0060
-6 9 9 -1.2150 -0.0063
-6 9 10 -2.0629 -0.0152
-6 9 11 0.2587 0.0002
-6 10 1 -0.3886 -0.0383
-6 10 2 -1.0019 0.0210
-6 10 3 -2.5657 -0.0292
-6 10 4 -2.0560 -0.0297
-6 10 5 -1.1694 -0.0083
-6 10 6 0.9515 -0.0101
-6 10 7 0.9807 -0.0064
-6 10 8 1.4220 0.0097
-6 10 9 1.6882 -0.0008
-6 11 1 -1.4747 -0.0626
-6 11 2 -0.1148 -0.0059
-6 11 3 -1.1997 -0.0170
-6 11 4 -0.4526 -0.0316
-6 11 5 0.2174 -0.0101
-6 11 6 1.8085 0.0009
-6 11 7 2.0986 0.0011
-6 12 1 -1.8887 -0.0447
-6 12 2 -0.4324 -0.0169
-6 12 3 -0.2041 -0.0046
-6 12 4 0.2377 -0.0179
-5 -9 3 1.9453 0.0070
-5 -9 4 -3.4223 0.0270
-5 -9 5 1.3688 0.0194
-5 -8 1 -1.0093 0.0242
-5 -8 2 -3.4113 0.0416
-5 -8 3 1.6559 -0.0029
-5 -8 4 -3.8078 0.0210
-5 -8 5 1.2393 -0.0010
-5 -8 6 -2.5209 0.0043
-5 -8 7 0.0857 -0.0114
-5 -8 8 -1.3280 -0.0009
-5 -8 9 -0.0429 -0.0085
-5 -8 10 1.0040 -0.0158
-5 -7 1 0.8028 -0.0066
-5 -7 2 -2.4522 0.0412
-5 -7 3 1.7569 -0.0223
-5 -7 4 -2.7478 0.0021
-5 -7 5 1.5939 -0.0051
-5 -7 6 -1.9882 -0.0040
-5 -7 7 0.3600 -0.0115
-5 -7 8 -1.9255 0.0007
-5 -7 9 -1.5153 0.0012
-5 -7 10 -0.7918 -0.0069
-5 -7 11 -0.9803 -0.0041
-5 -7 12 -0.5273 -0.0055
-5 -6 1 4.1842 -0.0457
-5 -6 2 -0.0440 0.0129
-5 -6 3 2.9101 -0.0264
-5 -6 4 -0.7266 -0.0249
-5 -6 5 2.0726 -0.0063
-5 -6 6 -0.9747 -0.0055
-5 -6 7 0.0813 -0.0074
-5 -6 8 -2.3047 -0.0049
-5 -6 9 -2.8346 0.0014
-5 -6 10 -1.5798 -0.0000
-5 -6 11 -2.1365 -0.0008
-5 -6 12 -1.0089 0.0010
-5 -6 13 -1.6705 0.0125
-5 -6 14 -2.2410 0.0003
-5 -5 1 7.1701 -0.0626
-5 -5 2 2.3728 -0.0365
-5 -5 3 4.1877 -0.0090
-5 -5 4 1.0577 -0.0374
-5 -5 5 1.8502 -0.0058
-5 -5 6 -0.2858 -0.0071
-5 -5 7 -0.6215 0.0034
-5 -5 8 -1.7918 -0.0063
-5 -5 9 -3.3632 -0.0005
-5 -5 10 -0.5378 0.0013
-5 -5 11 -1.1036 -0.0045
-5 -5 12 0.3768 -0.0012
-5 -5 13 1.3127 0.0001
-5 -5 14 -1.1696 0.0012
-5 -4 1 8.1751 -0.0196
-5 -4 2 3.6032 -0.0579
-5 -4 3 4.3580 0.0182
-5 -4 4 1.7101 -0.0168
-5 -4 5 0.8560 0.0049
-5 -4 6 -0.1559 0.0023
-5 -4 7 -1.3376 0.0142
-5 -4 8 -0.6536 0.0003
-5 -4 9 -3.1413 0.0015
-5 -4 10 0.1283 0.0036
-5 -4 11 0.1293 0.0005
-5 -4 12 0.7560 0.0034
-5 -4 13 5.0294 -0.0016
-5 -4 14 1.1112 -0.0013
-5 -4 15 2.1212 -0.0031
-5 -3 1 6.5643 0.0434
-5 -3 2 3.3208 -0.0329
-5 -3 3 3.2675 0.0305
-5 -3 4 0.9698 0.0217
-5 -3 5 -1.1442 0.0145
-5 -3 6 -0.9626 0.0151
-5 -3 7 -1.9080 0.0127
-5 -3 8 0.1474 0.0016
-5 -3 9 -2.1460 -0.0030
-5 -3 10 0.2844 0.0007
-5 -3 11 1.1902 -0.0001
-5 -3 12 -0.3933 0.0022
-5 -3 13 6.8158 -0.0009
-5 -3 14 2.6897 -0.0009
-5 -3 15 3.6409 -0.0084
-5 -3 16 0.8785 -0.0028
-5 -2 1 2.8326 0.0657
-5 -2 2 1.3907 0.0164
-5 -2 3 1.1342 0.0162
-5 -2 4 -0.8397 0.0435
-5 -2 5 -4.2430 0.0109
-5 -2 6 -3.6389 0.0130
-5 -2 7 -3.0931 0.0056
-5 -2 8 -0.1273 0.0032
-5 -2 9 -1.2600 -0.0034
-5 -2 10 0.5414 0.0003
-5 -2 11 3.1108 -0.0032
-5 -2 12 -0.0433 -0.0069
-5 -2 13 7.2800 -0.0065
-5 -2 14 3.3986 -0.0017
-5 -2 15 3.9762 -0.0076
-5 -2 16 1.1815 -0.0051
-5 -1 1 -1.3593 0.0381
-5 -1 2 -1.5682 0.0568
-5 -1 3 -1.5186 -0.0114
-5 -1 4 -2.3999 0.0287
-5 -1 5 -5.9804 -0.0011
-5 -1 6 -6.0401 -0.0044
-5 -1 7 -4.5898 -0.0026
-5 -1 8 -0.7850 0.0059
-5 -1 9 -1.2770 0.0025
-5 -1 10 -0.3299 0.0020
-5 -1 11 3.4477 0.0014
-5 -1 12 0.9218 -0.0071
-5 -1 13 6.2855 -0.0058
-5 -1 14 3.0816 -0.0005
-5 -1 15 2.0826 -0.0041
-5 -1 16 0.4408 -0.0067
-5 -1 17 -1.3439 -0.0010
-5 0 1 -3.9691 -0.0166
-5 0 2 -3.2068 0.0552
-5 0 3 -2.4237 -0.0322
-5 0 4 -2.0812 -0.0114
-5 0 5 -4.0020 -0.0108
-5 0 6 -4.7926 -0.0164
-5 0 7 -4.2533 -0.0118
-5 0 8 -0.7179 0.0017
-5 0 9 -1.4808 0.0015
-5 0 10 -2.2502 -0.0040
-5 0 11 0.4681 0.0032
-5 0 12 -0.7354 -0.0011
-5 0 13 3.0306 -0.0009
-5 0 14 1.4843 0.0014
-5 0 15 -0.3219 -0.0015
-5 0 16 -0.4928 -0.0043
-5 0 17 -2.3424 -0.0010
-5 1 1 -3.7583 -0.0640
-5 1 2 -1.5895 0.0078
-5 1 3 0.9897 -0.0296
-5 1 4 1.0007 -0.0434
-5 1 5 0.7396 -0.0138
-5 1 6 -1.5172 -0.0111
-5 1 7 -1.4904 -0.0137
-5 1 8 -0.3925 -0.0035
-5 1 9 -1.3183 -0.0003
-5 1 10 -3.4009 -0.0068
-5 1 11 -2.7231 0.0012
-5 1 12 -3.5132 0.0039
-5 1 13 -0.5673 0.0011
-5 1 14 -0.2469 0.0018
-5 1 15 -0.9833 0.0038
-5 1 16 -0.8244 0.0034
-5 1 17 -1.3326 0.0019
-5 2 1 -1.4833 -0.0654
-5 2 2 1.8411 -0.0460
-5 2 3 7.1919 -0.0006
-5 2 4 5.9204 -0.0405
-5 2 5 6.3664 -0.0101
-5 2 6 0.4342 0.0019
-5 2 7 1.7011 -0.0043
-5 2 8 -0.3519 -0.0046
-5 2 9 -0.8669 0.0022
-5 2 10 -3.0994 -0.0012
-5 2 11 -3.2355 -0.0003
-5 2 12 -3.8713 0.0053
-5 2 13 -2.2401 0.0023
-5 2 14 -0.6601 -0.0003
-5 2 15 -0.3854 0.0088
-5 2 16 -1.1074 0.0077
-5 2 17 -0.2190 0.0012
-5 3 1 0.7586 -0.0093
-5 3 2 4.0007 -0.0610
-5 3 3 11.4686 0.0315
-5 3 4 9.8503 -0.0047
-5 3 5 11.0574 0.0006
-5 3 6 1.8135 0.0116
-5 3 7 3.3178 0.0097
-5 3 8 -0.1999 -0.0032
-5 3 9 -0.2918 0.0009
-5 3 10 -2.1747 0.0033
-5 3 11 -2.1139 -0.0028
-5 3 12 -2.2770 0.0010
-5 3 13 -2.5311 0.0040
-5 3 14 0.0452 -0.0036
-5 3 15 0.5100 0.0043
-5 3 16 -1.0925 0.0027
-5 4 1 1.2313 0.0573
-5 4 2 2.8213 -0.0268
-5 4 3 10.8002 0.0358
-5 4 4 9.8328 0.0334
-5 4 5 11.4945 0.0133
-5 4 6 3.2847 0.0136
-5 4 7 2.6307 0.0166
-5 4 8 -0.2679 0.0013
-5 4 9 -0.3212 -0.0038
-5 4 10 -1.6052 0.0051
-5 4 11 -1.1383 -0.0017
-5 4 12 -0.8338 -0.0035
-5 4 13 -2.0618 0.0040
-5 4 14 0.9794 -0.0024
-5 4 15 2.1963 -0.0022
-5 4 16 0.3778 -0.0006
-5 5 1 0.4167 0.0673
-5 5 2 -1.1641 0.0246
-5 5 3 5.8753 0.0098
-5 5 4 5.5815 0.0397
-5 5 5 6.4886 0.0143
-5 5 6 2.3663 0.0036
-5 5 7 0.0737 0.0086
-5 5 8 -1.3315 0.0049
-5 5 9 -1.4873 -0.0044
-5 5 10 -1.7215 0.0048
-5 5 11 -0.7348 0.0025
-5 5 12 0.1825 -0.0012
-5 5 13 -0.4230 0.0012
-5 5 14 1.8321 0.0004
-5 5 15 3.9878 -0.0010
-5 6 1 0.2354 0.0192
-5 6 2 -4.1426 0.0517
-5 6 3 0.4546 -0.0191
-5 6 4 0.7703 0.0137
-5 6 5 0.8062 0.0019
-5 6 6 -0.3972 -0.0129
-5 6 7 -2.3511 -0.0075
-5 6 8 -2.6834 0.0019
-5 6 9 -2.9533 -0.0015
-5 6 10 -2.1866 -0.0004
-5 6 11 -1.0098 -0.0003
-5 6 12 0.4597 0.0035
-5 6 13 0.7632 0.0001
-5 6 14 1.6971 -0.0018
-5 6 15 3.4150 0.0023
-5 7 1 0.0458 -0.0317
-5 7 2 -4.2643 0.0388
-5 7 3 -2.7994 -0.0306
-5 7 4 -1.5813 -0.0158
-5 7 5 -1.4671 -0.0063
-5 7 6 -1.4955 -0.0160
-5 7 7 -2.8525 -0.0149
-5 7 8 -3.0947 -0.0032
-5 7 9 -3.3284 0.0014
-5 7 10 -2.4498 -0.0068
-5 7 11 -1.2715 -0.0096
-5 7 12 -0.1896 0.0010
-5 7 13 0.1685 0.0000
-5 7 14 0.2917 -0.0072
-5 8 1 -1.0926 -0.0554
-5 8 2 -3.6374 -0.0014
-5 8 3 -4.1922 -0.0261
-5 8 4 -2.1245 -0.0315
-5 8 5 -1.7478 -0.0053
-5 8 6 -0.9167 -0.0012
-5 8 7 -1.6542 -0.0079
-5 8 8 -2.4701 -0.0042
-5 8 9 -2.0425 0.0079
-5 8 10 -2.3085 -0.0034
-5 8 11 -0.6458 -0.0097
-5 8 12 -0.6518 -0.0017
-5 8 13 -0.3608 -0.0008
-5 9 1 -1.1099 -0.0451
-5 9 2 -2.6567 -0.0345
-5 9 3 -3.6807 -0.0038
-5 9 4 -1.1737 -0.0260
-5 9 5 -0.6013 -0.0062
-5 9 6 0.0850 0.0109
-5 9 7 1.0904 0.0026
-5 9 8 -0.6010 -0.0069
-5 9 9 0.6111 0.0122
-5 9 10 -1.5817 0.0086
-5 9 11 0.1469 0.0018
-5 10 1 -0.2275 0.0041
-5 10 2 -0.6918 -0.0330
-5 10 3 -1.9338 0.0294
-5 10 4 0.7525 0.0042
-5 10 5 2.3660 -0.0048
-5 10 6 1.3147 0.0132
-5 10 7 4.2458 0.0103
-5 10 8 1.7701 -0.0085
-5 10 9 2.8213 0.0037
-5 11 1 -0.9681 0.0576
-5 11 2 0.7434 -0.0112
-5 11 3 -0.9384 0.0357
-5 11 4 1.1689 0.0290
-5 11 5 4.1098 -0.0002
-5 11 6 1.2637 0.0147
-5 11 7 4.4241 0.0129
-5 12 1 -2.1954 0.0656
-5 12 2 0.6212 0.0014
-5 12 3 -0.4194 0.0048
-5 12 4 0.0469 0.0201
-5 12 5 3.1060 -0.0057
-4 -9 1 -1.7336 -0.0420
-4 -9 2 -2.8504 0.0183
-4 -9 3 0.3127 -0.0274
-4 -9 4 -2.7191 -0.0217
-4 -9 5 0.4808 -0.0093
-4 -9 6 -1.7187 0.0007
-4 -9 7 -0.5563 -0.0076
-4 -9 8 0.2535 -0.0125
-4 -9 9 1.3286 0.0079
-4 -9 10 1.2515 -0.0060
-4 -8 1 -0.8552 -0.0445
-4 -8 2 -2.4897 -0.0264
-4 -8 3 1.2510 -0.0110
-4 -8 4 -3.2450 -0.0377
-4 -8 5 0.6893 -0.0121
-4 -8 6 -2.3304 -0.0085
-4 -8 7 -1.2362 0.0050
-4 -8 8 -1.6225 -0.0117
-4 -8 9 -0.1972 0.0032
-4 -8 10 -0.4365 -0.0134
-4 -8 11 0.4223 -0.0133
-4 -8 12 -0.5830 -0.0093
-4 -7 1 1.7358 -0.0119
-4 -7 2 -1.6371 -0.0561
-4 -7 3 2.8737 0.0145
-4 -7 4 -2.4997 -0.0232
-4 -7 5 1.3812 0.0054
-4 -7 6 -2.4599 0.0028
-4 -7 7 -1.7176 0.0127
-4 -7 8 -4.2565 -0.0023
-4 -7 9 -1.8980 0.0036
-4 -7 10 -2.3139 -0.0050
-4 -7 11 -1.3690 -0.0003
-4 -7 12 -1.4479 -0.0040
-4 -7 13 -1.1573 -0.0076
-4 -7 14 -2.0426 -0.0070
-4 -6 1 6.6861 0.0297
-4 -6 2 0.1230 -0.0461
-4 -6 3 4.7549 0.0297
-4 -6 4 -1.1538 0.0059
-4 -6 5 2.2254 0.0082
-4 -6 6 -1.8557 0.0120
-4 -6 7 -1.0836 0.0072
-4 -6 8 -4.6189 0.0036
-4 -6 9 -1.9643 -0.0038
-4 -6 10 -1.1087 0.0013
-4 -6 11 -0.5448 0.0027
-4 -6 12 -0.5844 0.0005
-4 -6 13 -0.3114 -0.0003
-4 -6 14 -1.8022 0.0025
-4 -5 1 10.5943 0.0583
-4 -5 2 1.6680 0.0033
-4 -5 3 5.5890 0.0225
-4 -5 4 -0.9854 0.0343
-4 -5 5 1.9340 0.0045
-4 -5 6 -1.2212 0.0139
-4 -5 7 -0.8275 0.0039
-4 -5 8 -2.5878 0.0095
-4 -5 9 -1.2540 -0.0088
-4 -5 10 1.1878 0.0019
-4 -5 11 1.7595 -0.0035
-4 -5 12 2.9133 -0.0026
-4 -5 13 2.3238 -0.0074
-4 -5 14 -0.2752 0.0019
-4 -5 15 1.3097 -0.0038
-4 -5 16 -0.9466 -0.0027
-4 -4 1 10.3761 0.0478
-4 -4 2 1.2494 0.0545
-4 -4 3 4.8824 -0.0064
-4 -4 4 -2.5270 0.0364
-4 -4 5 -0.1444 0.0036
-4 -4 6 -1.0654 0.0070
-4 -4 7 -2.1246 0.0002
-4 -4 8 -0.9997 0.0077
-4 -4 9 -1.2904 -0.0054
-4 -4 10 1.5860 0.0010
-4 -4 11 1.2832 0.0011
-4 -4 12 5.1031 -0.0011
-4 -4 13 5.1761 -0.0086
-4 -4 14 1.5995 -0.0003
-4 -4 15 2.8646 -0.0064
-4 -4 16 0.1087 -0.0060
-4 -4 17 -1.0667 -0.0011
-4 -3 1 7.6246 -0.0112
-4 -3 2 -0.6277 0.0605
-4 -3 3 3.0509 -0.0363
-4 -3 4 -4.6030 0.0015
-4 -3 5 -3.5528 -0.0047
-4 -3 6 -1.4932 -0.0089
-4 -3 7 -3.1117 -0.0098
-4 -3 8 -0.2088 -0.0027
-4 -3 9 -1.1259 -0.0006
-4 -3 10 2.0164 -0.0039
-4 -3 11 0.3274 0.0059
-4 -3 12 4.3844 -0.0001
-4 -3 13 7.0234 -0.0038
-4 -3 14 2.6863 -0.0021
-4 -3 15 3.3186 -0.0005
-4 -3 16 1.1821 -0.0066
-4 -3 17 -0.6432 -0.0018
-4 -2 1 4.1912 -0.0657
-4 -2 2 -2.5589 0.0195
-4 -2 3 0.0095 -0.0361
-4 -2 4 -6.2628 -0.0386
-4 -2 5 -7.1691 -0.0128
-4 -2 6 -3.2562 -0.0174
-4 -2 7 -3.4492 -0.0101
-4 -2 8 0.2582 -0.0029
-4 -2 9 -0.5998 0.0082
-4 -2 10 2.4884 -0.0024
-4 -2 11 1.8974 0.0041
-4 -2 12 2.5847 0.0001
-4 -2 13 7.0250 0.0021
-4 -2 14 1.8794 -0.0050
-4 -2 15 1.7607 0.0040
-4 -2 16 0.1726 0.0002
-4 -2 17 -0.5922 -0.0060
-4 -1 1 -0.0573 -0.0626
-4 -1 2 -3.2723 -0.0354
-4 -1 3 -2.5745 -0.0036
-4 -1 4 -5.8581 -0.0476
-4 -1 5 -8.3750 -0.0083
-4 -1 6 -4.2709 -0.0093
-4 -1 7 -4.0689 -0.0005
-4 -1 8 -0.2641 0.0011
-4 -1 9 -0.9492 0.0107
-4 -1 10 -0.3387 0.0032
-4 -1 11 2.3334 0.0001
-4 -1 12 -0.0445 0.0033
-4 -1 13 4.5016 0.0098
-4 -1 14 -0.1395 -0.0028
-4 -1 15 -1.0140 0.0048
-4 -1 16 -1.6973 0.0090
-4 -1 17 -1.6000 0.0009
-4 0 1 -2.7447 -0.0103
-4 0 2 -0.3374 -0.0683
-4 0 3 -0.3504 0.0315
-4 0 4 -0.8312 -0.0172
-4 0 5 -5.6278 0.0029
-4 0 6 -1.3153 0.0077
-4 0 7 -3.5532 0.0082
-4 0 8 -1.2244 -0.0009
-4 0 9 -1.7248 0.0017
-4 0 10 -5.0833 0.0042
-4 0 11 -0.2658 -0.0037
-4 0 12 -3.1234 0.0036
-4 0 13 1.1528 0.0108
-4 0 14 -0.8984 0.0021
-4 0 15 -2.1939 0.0035
-4 0 16 -1.5649 0.0093
-4 0 17 -1.9053 0.0071
-4 1 1 -0.8761 0.0500
-4 1 2 6.3393 -0.0486
-4 1 3 7.2881 0.0410
-4 1 4 7.9594 0.0302
-4 1 5 -0.7924 0.0080
-4 1 6 3.0176 0.0169
-4 1 7 -1.1504 0.0128
-4 1 8 -1.5178 -0.0007
-4 1 9 -1.7232 -0.0047
-4 1 10 -7.3229 0.0058
-4 1 11 -2.1849 -0.0028
-4 1 12 -4.4555 0.0016
-4 1 13 -0.6194 0.0028
-4 1 14 -0.3944 0.0038
-4 1 15 -1.3204 0.0006
-4 1 16 -0.5527 0.0017
-4 1 17 -0.9911 0.0026
-4 2 1 3.4417 0.0764
-4 2 2 11.8480 0.0144
-4 2 3 14.1248 0.0174
-4 2 4 14.7443 0.0528
-4 2 5 3.8300 0.0044
-4 2 6 3.8224 0.0060
-4 2 7 1.0544 0.0069
-4 2 8 -1.4492 -0.0006
-4 2 9 -0.6369 -0.0078
-4 2 10 -6.1090 0.0031
-4 2 11 -1.6354 -0.0012
-4 2 12 -3.2944 -0.0012
-4 2 13 -0.6641 -0.0071
-4 2 14 -0.0431 0.0007
-4 2 15 -0.1349 -0.0032
-4 2 16 -0.7342 -0.0054
-4 2 17 -0.5868 -0.0002
-4 3 1 5.7080 0.0454
-4 3 2 12.4850 0.0646
-4 3 3 15.2881 -0.0219
-4 3 4 15.3698 0.0289
-4 3 5 7.1468 0.0001
-4 3 6 1.9411 -0.0116
-4 3 7 1.6198 -0.0068
-4 3 8 -1.9140 -0.0032
-4 3 9 0.6962 -0.0083
-4 3 10 -3.4559 -0.0051
-4 3 11 -0.6267 -0.0002
-4 3 12 -1.2024 -0.0027
-4 3 13 0.0478 -0.0096
-4 3 14 1.1237 -0.0014
-4 3 15 1.5675 -0.0042
-4 3 16 -0.2010 -0.0074
-4 4 1 3.3124 -0.0232
-4 4 2 8.2426 0.0598
-4 4 3 11.0654 -0.0423
-4 4 4 10.7770 -0.0178
-4 4 5 6.9326 -0.0002
-4 4 6 0.2401 -0.0138
-4 4 7 0.8745 -0.0146
-4 4 8 -3.1218 -0.0013
-4 4 9 0.6696 0.0006
-4 4 10 -1.5998 -0.0080
-4 4 11 -0.3109 0.0034
-4 4 12 0.4543 -0.0004
-4 4 13 1.0950 -0.0044
-4 4 14 3.3558 0.0015
-4 4 15 3.8328 -0.0008
-4 4 16 2.0038 -0.0042
-4 5 1 -1.9693 -0.0755
-4 5 2 1.0125 0.0107
-4 5 3 3.6052 -0.0249
-4 5 4 3.9835 -0.0451
-4 5 5 2.3982 0.0002
-4 5 6 -2.0424 0.0001
-4 5 7 -0.9763 -0.0101
-4 5 8 -4.6728 0.0024
-4 5 9 -1.1113 0.0101
-4 5 10 -1.4851 -0.0064
-4 5 11 -0.3645 0.0019
-4 5 12 1.1718 0.0003
-4 5 13 1.9351 -0.0017
-4 5 14 4.1042 0.0016
-4 5 15 4.3231 -0.0017
-4 5 16 3.0995 0.0007
-4 6 1 -4.7029 -0.0674
-4 6 2 -4.0577 -0.0414
-4 6 3 -2.5033 0.0109
-4 6 4 -0.8771 -0.0335
-4 6 5 -1.1814 0.0005
-4 6 6 -4.2446 0.0139
-4 6 7 -2.6418 0.0021
-4 6 8 -5.3548 0.0021
-4 6 9 -2.9941 0.0091
-4 6 10 -1.8896 -0.0033
-4 6 11 -0.8346 -0.0027
-4 6 12 0.5835 -0.0002
-4 6 13 1.3506 0.0007
-4 6 14 2.2727 0.0004
-4 6 15 2.1947 -0.0067
-4 7 1 -4.0991 -0.0070
-4 7 2 -4.1433 -0.0590
-4 7 3 -3.9951 0.0321
-4 7 4 -1.9180 0.0026
-4 7 5 -0.0179 0.0023
-4 7 6 -3.5202 0.0162
-4 7 7 -2.1457 0.0120
-4 7 8 -3.8790 0.0017
-4 7 9 -3.3853 0.0011
-4 7 10 -1.3203 0.0040
-4 7 11 -1.3737 0.0004
-4 7 12 -0.5223 0.0011
-4 7 13 -0.4119 0.0066
-4 7 14 0.0887 0.0049
-4 8 1 -3.3817 0.0526
-4 8 2 -2.5065 -0.0316
-4 8 3 -2.7701 0.0284
-4 8 4 -1.4613 0.0326
-4 8 5 2.2495 0.0009
-4 8 6 -0.8533 0.0044
-4 8 7 0.0520 0.0105
-4 8 8 -0.8718 0.0047
-4 8 9 -2.2457 -0.0062
-4 8 10 -0.4259 0.0093
-4 8 11 -1.3458 0.0081
-4 8 12 -0.7599 -0.0015
-4 8 13 -1.1961 0.0068
-4 9 1 -1.9983 0.0698
-4 9 2 -1.3564 0.0167
-4 9 3 -0.4866 0.0093
-4 9 4 -0.2552 0.0359
-4 9 5 3.6220 -0.0055
-4 9 6 1.7380 -0.0159
-4 9 7 2.7588 -0.0016
-4 9 8 2.0858 0.0056
-4 9 9 -0.1199 -0.0102
-4 9 10 -0.0189 0.0041
-4 9 11 -0.9230 0.0090
-4 10 1 0.0723 0.0381
-4 10 2 -0.6260 0.0453
-4 10 3 1.7159 -0.0159
-4 10 4 1.6689 0.0137
-4 10 5 5.0014 -0.0041
-4 10 6 3.5771 -0.0257
-4 10 7 4.6674 -0.0087
-4 10 8 3.5056 0.0035
-4 10 9 1.5820 -0.0094
-4 11 1 0.1961 -0.0228
-4 11 2 -0.4672 0.0362
-4 11 3 1.6802 -0.0326
-4 11 4 1.9549 -0.0177
-4 11 5 4.3219 0.0088
-4 11 6 3.0055 -0.0153
-4 11 7 3.5705 -0.0022
-4 12 1 -0.9381 -0.0688
-4 12 2 -0.1865 0.0111
-4 12 3 0.4857 -0.0193
-4 12 4 0.8065 -0.0326
-4 12 5 1.6277 0.0182
-3 -10 1 -2.8154 -0.0235
-3 -10 2 -1.8179 -0.0526
-3 -10 3 -0.4491 0.0203
-3 -10 4 -0.3797 -0.0131
-3 -10 5 -1.4737 0.0060
-3 -10 6 1.1598 -0.0050
-3 -10 7 -1.5238 0.0162
-3 -10 8 3.2490 -0.0012
-3 -10 9 1.4736 0.0201
-3 -9 1 -1.7232 0.0225
-3 -9 2 -2.1397 -0.0500
-3 -9 3 -0.7875 0.0250
-3 -9 4 -1.1370 0.0016
-3 -9 5 -3.0346 0.0050
-3 -9 6 0.5983 0.0013
-3 -9 7 -3.0790 0.0161
-3 -9 8 1.9722 0.0107
-3 -9 9 0.0912 0.0079
-3 -9 10 0.3488 0.0078
-3 -9 11 0.6701 0.0032
-3 -9 12 -1.3226 0.0080
-3 -8 1 0.3780 0.0527
-3 -8 2 -1.1489 -0.0092
-3 -8 3 -0.0756 0.0139
-3 -8 4 -0.4391 0.0271
-3 -8 5 -3.5624 0.0021
-3 -8 6 0.1181 0.0078
-3 -8 7 -4.9024 0.0002
-3 -8 8 -0.6433 0.0100
-3 -8 9 -1.3244 -0.0085
-3 -8 10 -1.7513 0.0029
-3 -8 11 -0.3835 -0.0047
-3 -8 12 -0.1606 0.0027
-3 -8 13 -3.1168 -0.0105
-3 -8 14 -0.8025 0.0015
-3 -7 1 3.7827 0.0445
-3 -7 2 0.7257 0.0466
-3 -7 3 1.3426 -0.0074
-3 -7 4 1.1652 0.0356
-3 -7 5 -2.6258 -0.0058
-3 -7 6 -0.0848 0.0015
-3 -7 7 -4.8648 -0.0144
-3 -7 8 -3.3628 0.0053
-3 -7 9 -0.8867 -0.0113
-3 -7 10 -1.7386 0.0008
-3 -7 11 -1.2625 -0.0005
-3 -7 12 0.6941 -0.0023
-3 -7 13 -2.1617 -0.0108
-3 -7 14 -0.8901 -0.0059
-3 -6 1 7.5015 0.0013
-3 -6 2 1.9679 0.0711
-3 -6 3 1.8687 -0.0298
-3 -6 4 1.5755 0.0087
-3 -6 5 -0.9577 -0.0126
-3 -6 6 -0.3579 -0.0118
-3 -6 7 -2.1834 -0.0165
-3 -6 8 -3.8747 0.0017
-3 -6 9 0.9182 -0.0048
-3 -6 10 1.1231 -0.0055
-3 -6 11 1.0507 0.0027
-3 -6 12 1.6542 -0.0034
-3 -6 13 -0.0005 -0.0032
-3 -6 14 -0.0492 -0.0060
-3 -6 15 -1.1222 0.0006
-3 -6 16 -0.4228 -0.0076
-3 -5 1 8.4807 -0.0474
-3 -5 2 1.3308 0.0424
-3 -5 3 0.8545 -0.0327
-3 -5 4 -0.7209 -0.0305
-3 -5 5 -0.3726 -0.0036
-3 -5 6 -1.7086 -0.0124
-3 -5 7 -0.0344 -0.0043
-3 -5 8 -2.6248 -0.0007
-3 -5 9 2.2696 0.0053
-3 -5 10 3.0725 -0.0063
-3 -5 11 4.6865 -0.0003
-3 -5 12 3.3933 -0.0010
-3 -5 13 2.5283 0.0031
-3 -5 14 0.9773 -0.0053
-3 -5 15 0.1510 0.0019
-3 -5 16 0.1168 -0.0027
-3 -5 17 -1.3017 -0.0047
-3 -4 1 7.1627 -0.0703
-3 -4 2 -0.8906 -0.0236
-3 -4 3 -0.7777 -0.0085
-3 -4 4 -4.8805 -0.0493
-3 -4 5 -1.5462 0.0083
-3 -4 6 -3.5672 -0.0034
-3 -4 7 -0.0856 0.0080
-3 -4 8 -1.6658 -0.0047
-3 -4 9 2.5452 0.0117
-3 -4 10 2.7466 0.0027
-3 -4 11 5.6374 0.0007
-3 -4 12 4.7213 0.0035
-3 -4 13 4.4097 0.0080
-3 -4 14 1.4980 0.0008
-3 -4 15 1.2329 0.0027
-3 -4 16 0.4322 0.0028
-3 -4 17 -1.2893 0.0026
-3 -3 1 6.2831 -0.0370
-3 -3 2 -3.9670 -0.0741
-3 -3 3 -3.0811 0.0270
-3 -3 4 -9.2851 -0.0272
-3 -3 5 -3.8923 0.0083
-3 -3 6 -4.8666 0.0060
-3 -3 7 -0.6482 0.0115
-3 -3 8 -0.9328 -0.0052
-3 -3 9 2.0421 0.0095
-3 -3 10 2.5844 0.0077
-3 -3 11 4.6721 0.0023
-3 -3 12 4.5751 0.0025
-3 -3 13 4.9295 0.0069
-3 -3 14 1.0647 0.0057
-3 -3 15 0.6904 0.0019
-3 -3 16 0.3155 0.0050
-3 -3 17 -1.4033 0.0053
-3 -2 1 5.1558 0.0406
-3 -2 2 -6.4821 -0.0624
-3 -2 3 -5.3660 0.0422
-3 -2 4 -11.6986 0.0225
-3 -2 5 -5.7033 0.0022
-3 -2 6 -5.5266 0.0123
-3 -2 7 -1.3577 0.0083
-3 -2 8 -0.5062 0.0005
-3 -2 9 0.1477 0.0009
-3 -2 10 1.4491 0.0059
-3 -2 11 3.2470 0.0017
-3 -2 12 2.3609 -0.0004
-3 -2 13 3.6173 0.0018
-3 -2 14 -0.7993 0.0059
-3 -2 15 -1.1888 -0.0028
-3 -2 16 -0.7706 0.0041
-3 -2 17 -0.9670 0.0024
-3 -2 18 -0.3902 -0.0016
-3 -1 1 3.9355 0.0874
-3 -1 2 -4.4078 0.0001
-3 -1 3 -3.6230 0.0184
-3 -1 4 -8.8181 0.0549
-3 -1 5 -4.7818 -0.0037
-3 -1 6 -4.3138 0.0062
-3 -1 7 -2.3820 -0.0014
-3 -1 8 -1.3903 0.0021
-3 -1 9 -2.4098 -0.0119
-3 -1 10 -2.7103 0.0003
-3 -1 11 0.7674 -0.0004
-3 -1 12 -1.0677 -0.0010
-3 -1 13 1.3863 -0.0035
-3 -1 14 -2.3101 0.0035
-3 -1 15 -2.3495 -0.0049
-3 -1 16 -1.8093 0.0002
-3 -1 17 -0.6134 0.0013
-3 -1 18 -0.1998 -0.0043
-3 0 1 7.8502 0.0578
-3 0 2 6.3879 0.0628
-3 0 3 5.1594 -0.0209
-3 0 4 0.7134 0.0431
-3 0 5 -1.7920 -0.0049
-3 0 6 -0.4172 -0.0082
-3 0 7 -2.7507 -0.0087
-3 0 8 -3.3167 0.0023
-3 0 9 -3.6732 -0.0143
-3 0 10 -6.9585 -0.0046
-3 0 11 -1.5659 -0.0018
-3 0 12 -2.9865 -0.0019
-3 0 13 -0.0839 -0.0080
-3 0 14 -1.3505 -0.0031
-3 0 15 -1.7141 -0.0029
-3 0 16 -1.1963 -0.0071
-3 0 17 -0.4178 -0.0006
-3 0 18 -0.7002 -0.0073
-3 1 1 15.5990 -0.0122
-3 1 2 20.6890 0.0812
-3 1 3 15.9458 -0.0367
-3 1 4 12.9246 -0.0004
-3 1 5 0.4265 0.0002
-3 1 6 3.8310 -0.0145
-3 1 7 -1.9606 -0.0079
-3 1 8 -4.4710 0.0042
-3 1 9 -3.0338 -0.0013
-3 1 10 -7.9905 -0.0046
-3 1 11 -1.8689 -0.0005
-3 1 12 -2.4787 -0.0014
-3 1 13 -0.6211 -0.0061
-3 1 14 0.3461 -0.0072
-3 1 15 -0.8700 0.0009
-3 1 16 -0.3914 -0.0066
-3 1 17 -0.1721 -0.0030
-3 1 18 -1.2872 0.0003
-3 2 1 16.8301 -0.0695
-3 2 2 25.4764 0.0363
-3 2 3 18.5524 -0.0197
-3 2 4 19.4847 -0.0436
-3 2 5 0.5033 0.0054
-3 2 6 4.7084 -0.0060
-3 2 7 -0.6974 -0.0042
-3 2 8 -3.8633 0.0004
-3 2 9 -0.6920 0.0096
-3 2 10 -6.0325 -0.0038
-3 2 11 -0.4089 -0.0001
-3 2 12 -0.7140 -0.0001
-3 2 13 0.0953 0.0005
-3 2 14 1.3749 -0.0033
-3 2 15 0.1788 0.0022
-3 2 16 -0.5939 0.0035
-3 2 17 0.1300 -0.0022
-3 3 1 9.7835 -0.0807
-3 3 2 18.4670 -0.0426
-3 3 3 11.6192 0.0114
-3 3 4 16.3961 -0.0533
-3 3 5 -0.4740 0.0037
-3 3 6 1.1921 0.0110
-3 3 7 -0.3245 0.0029
-3 3 8 -3.4532 -0.0032
-3 3 9 1.6433 0.0130
-3 3 10 -3.2627 -0.0004
-3 3 11 1.0695 0.0001
-3 3 12 1.3981 0.0013
-3 3 13 2.5362 0.0052
-3 3 14 3.1361 0.0024
-3 3 15 2.8834 0.0006
-3 3 16 -0.0839 0.0076
-3 3 17 0.7308 -0.0020
-3 4 1 1.1433 -0.0292
-3 4 2 8.8349 -0.0872
-3 4 3 3.0317 0.0322
-3 4 4 8.2034 -0.0187
-3 4 5 -1.2438 -0.0054
-3 4 6 -3.7199 0.0186
-3 4 7 -1.2731 0.0094
-3 4 8 -5.0037 -0.0025
-3 4 9 1.6105 0.0088
-3 4 10 -1.7977 0.0048
-3 4 11 1.2265 -0.0005
-3 4 12 2.6052 0.0007
-3 4 13 4.4610 0.0060
-3 4 14 4.5590 0.0026
-3 4 15 4.8980 0.0008
-3 4 16 0.9645 0.0024
-3 5 1 -6.3111 0.0536
-3 5 2 1.2207 -0.0592
-3 5 3 -2.7582 0.0253
-3 5 4 0.8034 0.0322
-3 5 5 -2.0199 -0.0094
-3 5 6 -6.9411 0.0079
-3 5 7 -2.4748 0.0086
-3 5 8 -7.0342 -0.0015
-3 5 9 0.0106 -0.0058
-3 5 10 -1.7928 0.0058
-3 5 11 0.4964 -0.0028
-3 5 12 1.7377 -0.0030
-3 5 13 3.6450 0.0036
-3 5 14 3.3503 -0.0016
-3 5 15 3.6674 0.0031
-3 5 16 0.7529 -0.0031
-3 6 1 -9.9220 0.0931
-3 6 2 -3.2378 0.0102
-3 6 3 -4.5654 -0.0065
-3 6 4 -2.2772 0.0517
-3 6 5 -1.3276 -0.0011
-3 6 6 -7.0743 -0.0102
-3 6 7 -2.1520 0.0024
-3 6 8 -7.1098 0.0026
-3 6 9 -0.7812 -0.0155
-3 6 10 -1.8819 0.0058
-3 6 11 -0.0991 0.0020
-3 6 12 -0.4576 -0.0019
-3 6 13 1.0930 0.0008
-3 6 14 0.8916 -0.0026
-3 6 15 1.3470 0.0069
-3 7 1 -7.8709 0.0520
-3 7 2 -3.2502 0.0640
-3 7 3 -2.2299 -0.0314
-3 7 4 -0.9107 0.0254
-3 7 5 2.2718 0.0072
-3 7 6 -3.9586 -0.0217
-3 7 7 0.3120 -0.0059
-3 7 8 -4.4665 0.0048
-3 7 9 -0.6345 -0.0108
-3 7 10 -1.4769 0.0016
-3 7 11 -0.5667 0.0062
-3 7 12 -1.8486 0.0025
-3 7 13 -1.0433 -0.0068
-3 7 14 -0.4473 -0.0028
-3 8 1 -4.2083 -0.0269
-3 8 2 -1.2416 0.0672
-3 8 3 0.8213 -0.0228
-3 8 4 1.2313 -0.0142
-3 8 5 5.7527 0.0063
-3 8 6 0.3217 -0.0177
-3 8 7 2.9018 -0.0099
-3 8 8 -0.6811 -0.0003
-3 8 9 -0.4220 0.0001
-3 8 10 -0.9979 -0.0094
-3 8 11 -1.1498 -0.0025
-3 8 12 -1.4135 0.0045
-3 9 1 -1.6776 -0.0752
-3 9 2 0.2856 0.0193
-3 9 3 2.8258 0.0029
-3 9 4 2.6050 -0.0350
-3 9 5 7.0362 0.0009
-3 9 6 3.8034 0.0014
-3 9 7 4.1307 -0.0040
-3 9 8 1.8359 -0.0050
-3 9 9 0.0978 0.0105
-3 9 10 -0.4145 -0.0133
-3 9 11 -1.3190 -0.0106
-3 10 1 0.0635 -0.0640
-3 10 2 0.6169 -0.0386
-3 10 3 4.0673 0.0180
-3 10 4 3.3407 -0.0304
-3 10 5 6.5870 -0.0059
-3 10 6 5.2635 0.0223
-3 10 7 4.1861 0.0040
-3 10 8 1.9161 -0.0052
-3 10 9 0.6110 0.0152
-3 11 1 0.5873 -0.0084
-3 11 2 -0.4258 -0.0547
-3 11 3 3.0885 0.0220
-3 11 4 2.0230 -0.0051
-3 11 5 3.6876 -0.0147
-3 11 6 3.4131 0.0270
-3 11 7 2.7251 0.0043
-3 12 1 0.2263 0.0500
-3 12 2 -0.9559 -0.0280
-3 12 3 0.7279 0.0183
-3 12 4 0.0853 0.0225
-2 -11 1 -1.8747 0.0489
-2 -11 2 0.1396 -0.0250
-2 -11 3 -1.0772 0.0028
-2 -11 4 1.7417 0.0136
-2 -11 5 -2.3410 -0.0012
-2 -11 6 3.3876 0.0091
-2 -11 7 -0.9359 -0.0068
-2 -10 1 -2.4312 0.0490
-2 -10 2 -0.3600 0.0461
-2 -10 3 -2.2546 -0.0060
-2 -10 4 1.2898 0.0250
-2 -10 5 -5.1716 -0.0114
-2 -10 6 4.2157 0.0003
-2 -10 7 -3.4299 -0.0107
-2 -10 8 5.3264 0.0091
-2 -10 9 -0.1190 -0.0064
-2 -10 10 1.1923 0.0053
-2 -10 11 -1.0023 -0.0068
-2 -9 1 -1.0340 0.0110
-2 -9 2 -0.2249 0.0773
-2 -9 3 -2.8685 -0.0199
-2 -9 4 1.7170 0.0160
-2 -9 5 -7.6128 -0.0041
-2 -9 6 3.9685 -0.0013
-2 -9 7 -6.4647 -0.0098
-2 -9 8 3.2934 0.0084
-2 -9 9 -2.1559 0.0014
-2 -9 10 -0.5752 0.0035
-2 -9 11 -0.4884 0.0053
-2 -9 12 -3.6418 0.0121
-2 -9 13 -1.9722 0.0022
-2 -8 1 1.8645 -0.0427
-2 -8 2 1.7469 0.0551
-2 -8 3 -2.4629 -0.0164
-2 -8 4 3.6744 -0.0121
-2 -8 5 -8.6588 -0.0007
-2 -8 6 3.7043 -0.0034
-2 -8 7 -8.0002 -0.0060
-2 -8 8 1.1482 -0.0027
-2 -8 9 -1.8914 0.0107
-2 -8 10 -2.0324 -0.0008
-2 -8 11 0.4788 0.0035
-2 -8 12 -2.6762 0.0050
-2 -8 13 -2.2638 0.0041
-2 -8 14 -0.8048 -0.0058
-2 -7 1 3.5155 -0.0694
-2 -7 2 3.6594 -0.0065
-2 -7 3 -2.6663 0.0064
-2 -7 4 6.2103 -0.0364
-2 -7 5 -8.2679 -0.0025
-2 -7 6 3.5781 -0.0032
-2 -7 7 -6.6295 0.0071
-2 -7 8 -0.5007 -0.0060
-2 -7 9 1.0171 0.0144
-2 -7 10 -0.6897 -0.0010
-2 -7 11 1.7306 0.0002
-2 -7 12 -0.0400 -0.0018
-2 -7 13 -1.5167 0.0084
-2 -7 14 -0.4475 -0.0014
-2 -7 15 -1.1406 0.0076
-2 -7 16 -3.6797 0.0089
-2 -6 1 2.5880 -0.0402
-2 -6 2 3.8536 -0.0716
-2 -6 3 -5.3121 0.0274
-2 -6 4 7.2203 -0.0351
-2 -6 5 -7.6075 -0.0002
-2 -6 6 2.8278 0.0045
-2 -6 7 -3.2668 0.0169
-2 -6 8 -0.7241 -0.0017
-2 -6 9 4.1550 0.0101
-2 -6 10 3.2001 0.0008
-2 -6 11 3.4276 0.0019
-2 -6 12 3.0228 -0.0017
-2 -6 13 -0.1564 0.0082
-2 -6 14 0.9452 0.0062
-2 -6 15 -0.6564 0.0029
-2 -6 16 -1.4531 0.0112
-2 -5 1 0.6367 0.0272
-2 -5 2 3.3643 -0.0869
-2 -5 3 -9.9707 0.0301
-2 -5 4 5.4641 -0.0030
-2 -5 5 -7.9895 0.0013
-2 -5 6 0.8818 0.0108
-2 -5 7 -0.5106 0.0120
-2 -5 8 0.0124 -0.0017
-2 -5 9 5.5009 -0.0017
-2 -5 10 6.2537 0.0034
-2 -5 11 4.4682 0.0019
-2 -5 12 4.6328 0.0011
-2 -5 13 0.8791 0.0013
-2 -5 14 1.8930 0.0053
-2 -5 15 -0.5371 -0.0021
-2 -5 16 0.7733 0.0047
-2 -5 17 -0.6129 0.0074
-2 -4 1 -2.4944 0.0793
-2 -4 2 1.5060 -0.0283
-2 -4 3 -15.4294 0.0112
-2 -4 4 0.9501 0.0391
-2 -4 5 -8.2924 -0.0035
-2 -4 6 -1.4876 0.0032
-2 -4 7 1.0196 -0.0016
-2 -4 8 0.3239 -0.0027
-2 -4 9 4.9699 -0.0135
-2 -4 10 6.7626 0.0034
-2 -4 11 4.3569 -0.0018
-2 -4 12 4.4287 0.0029
-2 -4 13 0.8448 -0.0041
-2 -4 14 1.6422 0.0031
-2 -4 15 -1.2317 -0.0015
-2 -4 16 0.7991 -0.0004
-2 -4 17 -0.5573 0.0003
-2 -3 1 -7.1286 0.0738
-2 -3 2 -1.9401 0.0602
-2 -3 3 -17.9837 -0.0182
-2 -3 4 -4.7585 0.0546
-2 -3 5 -6.4976 -0.0056
-2 -3 6 -3.1960 -0.0103
-2 -3 7 1.2293 -0.0135
-2 -3 8 -0.3630 0.0013
-2 -3 9 2.5739 -0.0139
-2 -3 10 5.3290 -0.0023
-2 -3 11 3.5054 -0.0048
-2 -3 12 3.6647 0.0012
-2 -3 13 -0.2341 -0.0056
-2 -3 14 0.6592 -0.0009
-2 -3 15 -2.3624 -0.0008
-2 -3 16 0.1684 -0.0058
-2 -3 17 -0.5402 -0.0029
-2 -3 18 -1.3435 -0.0056
-2 -2 1 -8.0360 0.0072
-2 -2 2 -2.5799 0.0979
-2 -2 3 -11.2196 -0.0357
-2 -2 4 -7.0304 0.0209
-2 -2 5 -2.3118 -0.0015
-2 -2 6 -3.1745 -0.0148
-2 -2 7 -0.4138 -0.0182
-2 -2 8 -2.0437 0.0033
-2 -2 9 -1.8576 -0.0030
-2 -2 10 1.7122 -0.0073
-2 -2 11 1.1717 -0.0020
-2 -2 12 2.1546 -0.0021
-2 -2 13 -1.6823 -0.0039
-2 -2 14 -0.5601 -0.0055
-2 -2 15 -3.3545 -0.0024
-2 -2 16 -0.4465 -0.0082
-2 -2 17 -0.0529 -0.0039
-2 -2 18 -1.0966 -0.0025
-2 -1 1 1.5160 -0.0754
-2 -1 2 1.9681 0.0503
-2 -1 3 2.6273 -0.0219
-2 -1 4 -4.2180 -0.0362
-2 -1 5 1.3494 0.0036
-2 -1 6 -2.1650 -0.0074
-2 -1 7 -2.6036 -0.0108
-2 -1 8 -4.1941 0.0012
-2 -1 9 -5.9029 0.0070
-2 -1 10 -2.8357 -0.0072
-2 -1 11 -1.8527 0.0016
-2 -1 12 0.0594 -0.0041
-2 -1 13 -2.1230 -0.0016
-2 -1 14 -0.9844 -0.0048
-2 -1 15 -2.7802 -0.0012
-2 -1 16 -1.0970 -0.0023
-2 -1 17 0.1800 -0.0034
-2 -1 18 -0.6239 0.0061
-2 0 1 20.9050 -0.1013
-2 0 2 11.2686 -0.0360
-2 0 3 14.1451 0.0152
-2 0 4 0.6249 -0.0619
-2 0 5 1.9768 0.0064
-2 0 6 -2.3699 0.0073
-2 0 7 -3.6931 0.0063
-2 0 8 -6.0780 0.0011
-2 0 9 -6.8831 0.0117
-2 0 10 -5.0627 -0.0016
-2 0 11 -2.8701 0.0014
-2 0 12 -0.5063 -0.0025
-2 0 13 -1.0945 0.0017
-2 0 14 -0.0478 -0.0005
-2 0 15 -0.8055 0.0021
-2 0 16 -0.8760 0.0044
-2 0 17 0.0167 -0.0006
-2 0 18 -0.5320 0.0067
-2 1 1 35.4898 -0.0415
-2 1 2 21.8310 -0.0873
-2 1 3 19.2930 0.0408
-2 1 4 5.9886 -0.0315
-2 1 5 1.6100 0.0033
-2 1 6 -2.4411 0.0172
-2 1 7 -2.7766 0.0175
-2 1 8 -6.0194 -0.0019
-2 1 9 -4.8466 0.0080
-2 1 10 -4.0412 0.0069
-2 1 11 -1.4939 0.0001
-2 1 12 0.9832 0.0019
-2 1 13 0.2186 0.0069
-2 1 14 1.3808 0.0034
-2 1 15 0.2307 0.0030
-2 1 16 -0.2231 0.0051
-2 1 17 0.0377 0.0038
-2 1 18 -0.5892 0.0013
-2 2 1 29.3119 0.0522
-2 2 2 23.0057 -0.0663
-2 2 3 16.3176 0.0314
-2 2 4 8.4675 0.0273
-2 2 5 0.3188 -0.0022
-2 2 6 -1.8544 0.0137
-2 2 7 -0.9804 0.0161
-2 2 8 -3.6440 -0.0059
-2 2 9 -1.3269 -0.0044
-2 2 10 -1.6520 0.0103
-2 2 11 0.7863 -0.0006
-2 2 12 3.1667 0.0026
-2 2 13 1.7014 0.0059
-2 2 14 3.0589 0.0038
-2 2 15 0.6233 -0.0005
-2 2 16 -0.1685 0.0003
-2 2 17 0.4353 0.0037
-2 3 1 10.4832 0.0988
-2 3 2 12.3831 0.0062
-2 3 3 6.4511 -0.0060
-2 3 4 4.5181 0.0590
-2 3 5 -3.7253 -0.0050
-2 3 6 -4.1327 -0.0020
-2 3 7 -1.4383 0.0068
-2 3 8 -2.5063 -0.0003
-2 3 9 1.0570 -0.0114
-2 3 10 -0.2111 0.0056
-2 3 11 2.4050 0.0007
-2 3 12 4.7183 0.0009
-2 3 13 3.6185 -0.0014
-2 3 14 4.6027 0.0012
-2 3 15 2.1307 -0.0021
-2 3 16 -0.2209 -0.0032
-2 3 17 0.7829 -0.0000
-2 4 1 -2.0479 0.0637
-2 4 2 1.9633 0.0718
-2 4 3 -1.8241 -0.0413
-2 4 4 -1.0703 0.0349
-2 4 5 -6.5124 -0.0055
-2 4 6 -7.9020 -0.0200
-2 4 7 -3.4538 -0.0093
-2 4 8 -4.0128 0.0057
-2 4 9 0.9291 -0.0074
-2 4 10 -0.2497 -0.0046
-2 4 11 2.0612 0.0021
-2 4 12 4.2375 0.0009
-2 4 13 4.1736 -0.0051
-2 4 14 4.1413 -0.0011
-2 4 15 3.1573 0.0010
-2 4 16 -0.1175 0.0010
-2 5 1 -6.8098 -0.0193
-2 5 2 -2.0195 0.0772
-2 5 3 -4.1783 -0.0431
-2 5 4 -2.7842 -0.0167
-2 5 5 -4.9668 0.0014
-2 5 6 -8.5407 -0.0204
-2 5 7 -3.5952 -0.0191
-2 5 8 -5.0597 0.0047
-2 5 9 0.0108 0.0012
-2 5 10 -0.5692 -0.0108
-2 5 11 0.3897 0.0014
-2 5 12 1.5544 0.0013
-2 5 13 2.4489 -0.0046
-2 5 14 1.8249 -0.0024
-2 5 15 2.3385 -0.0016
-2 5 16 -0.2189 0.0061
-2 6 1 -8.3563 -0.0837
-2 6 2 -1.8690 0.0176
-2 6 3 -2.7185 -0.0090
-2 6 4 -0.9094 -0.0510
-2 6 5 -1.2337 0.0095
-2 6 6 -6.0729 0.0004
-2 6 7 -1.5180 -0.0134
-2 6 8 -4.2957 0.0036
-2 6 9 -0.2974 0.0098
-2 6 10 -0.9148 -0.0072
-2 6 11 -0.8829 -0.0013
-2 6 12 -1.3943 0.0009
-2 6 13 0.1896 -0.0027
-2 6 14 -0.0230 -0.0016
-2 6 15 1.4416 -0.0080
-2 7 1 -5.9314 -0.0804
-2 7 2 0.5593 -0.0514
-2 7 3 1.1207 0.0328
-2 7 4 2.5053 -0.0418
-2 7 5 3.4909 0.0032
-2 7 6 -2.3864 0.0194
-2 7 7 1.3915 -0.0023
-2 7 8 -2.6818 -0.0028
-2 7 9 -0.3808 0.0108
-2 7 10 -1.5553 -0.0015
-2 7 11 -1.3922 -0.0080
-2 7 12 -2.6239 -0.0028
-2 7 13 -1.0173 0.0034
-2 7 14 -0.8126 -0.0007
-2 8 1 -2.3346 -0.0166
-2 8 2 2.4599 -0.0688
-2 8 3 4.9234 0.0468
-2 8 4 4.8320 0.0056
-2 8 5 7.7104 -0.0076
-2 8 6 1.0366 0.0218
-2 8 7 3.4177 0.0109
-2 8 8 -0.9176 -0.0111
-2 8 9 -0.5996 0.0050
-2 8 10 -1.6043 0.0073
-2 8 11 -1.5247 -0.0079
-2 8 12 -1.9554 -0.0049
-2 9 1 -0.4583 0.0503
-2 9 2 2.5697 -0.0307
-2 9 3 6.6356 0.0184
-2 9 4 4.9459 0.0424
-2 9 5 9.1471 -0.0055
-2 9 6 2.9046 0.0074
-2 9 7 3.2396 0.0201
-2 9 8 0.1913 -0.0082
-2 9 9 -0.7791 -0.0037
-2 9 10 -0.5655 0.0173
-2 10 1 0.3280 0.0710
-2 10 2 1.5183 0.0229
-2 10 3 6.1980 -0.0212
-2 10 4 3.1387 0.0315
-2 10 5 7.5611 0.0030
-2 10 6 2.8922 -0.0130
-2 10 7 1.7660 0.0088
-2 10 8 0.1558 0.0013
-2 11 1 0.0176 0.0393
-2 11 2 -1.0062 0.0500
-2 11 3 3.6873 -0.0346
-2 11 4 -0.3136 -0.0002
-2 11 5 3.9257 0.0067
-2 11 6 1.3548 -0.0185
-2 12 1 -0.4871 -0.0168
-2 12 2 -2.7981 0.0336
-2 12 3 1.1373 -0.0278
-2 12 4 -2.3746 -0.0145
-1 -11 1 -0.1898 -0.0350
-1 -11 2 -1.3819 0.0491
-1 -11 3 -0.3245 -0.0253
-1 -11 4 -0.5471 -0.0135
-1 -11 5 -0.8824 -0.0119
-1 -11 6 2.9696 -0.0039
-1 -11 7 0.1655 -0.0163
-1 -11 8 4.9191 -0.0112
-1 -11 9 -0.2804 0.0061
-1 -11 10 -0.3514 -0.0055
-1 -10 1 -0.3658 -0.0536
-1 -10 2 -1.0847 0.0002
-1 -10 3 -1.8686 -0.0013
-1 -10 4 -0.2344 -0.0350
-1 -10 5 -4.8621 -0.0067
-1 -10 6 3.1392 -0.0097
-1 -10 7 -4.1291 -0.0006
-1 -10 8 3.8468 -0.0118
-1 -10 9 -1.4985 0.0020
-1 -10 10 -1.9816 -0.0058
-1 -10 11 -1.4541 0.0041
-1 -10 12 -3.5599 -0.0095
-1 -9 1 0.5277 -0.0410
-1 -9 2 0.3087 -0.0639
-1 -9 3 -3.1850 0.0287
-1 -9 4 1.2785 -0.0216
-1 -9 5 -8.7412 0.0117
-1 -9 6 3.8278 0.0003
-1 -9 7 -7.6215 0.0122
-1 -9 8 2.4518 -0.0024
-1 -9 9 -1.8501 0.0060
-1 -9 10 -2.8554 0.0027
-1 -9 11 -1.4758 0.0079
-1 -9 12 -3.7561 -0.0062
-1 -9 13 -0.8710 0.0053
-1 -9 14 -0.3094 -0.0015
-1 -8 1 1.8645 0.0177
-1 -8 2 2.2404 -0.0783
-1 -8 3 -3.8879 0.0376
-1 -8 4 4.5164 0.0087
-1 -8 5 -11.2834 0.0095
-1 -8 6 5.3078 0.0062
-1 -8 7 -7.8204 0.0140
-1 -8 8 2.0214 0.0001
-1 -8 9 0.3378 -0.0003
-1 -8 10 -1.5400 0.0046
-1 -8 11 0.0449 0.0049
-1 -8 12 -2.5744 0.0002
-1 -8 13 -0.9027 0.0026
-1 -8 14 -0.2027 0.0001
-1 -8 15 -3.0241 -0.0022
-1 -7 1 1.1764 0.0750
-1 -7 2 3.5946 -0.0238
-1 -7 3 -6.0799 0.0172
-1 -7 4 8.7120 0.0377
-1 -7 5 -11.9523 0.0001
-1 -7 6 5.9614 0.0038
-1 -7 7 -4.9972 0.0080
-1 -7 8 2.4162 0.0040
-1 -7 9 4.4167 -0.0109
-1 -7 10 1.5077 0.0023
-1 -7 11 2.9147 0.0005
-1 -7 12 -0.2964 0.0053
-1 -7 13 -0.5583 0.0033
-1 -7 14 0.3712 0.0065
-1 -7 15 -2.4737 0.0001
-1 -7 16 -2.5833 0.0024
-1 -6 1 -2.3361 0.0724
-1 -6 2 4.8595 0.0505
-1 -6 3 -12.4468 -0.0187
-1 -6 4 10.2613 0.0383
-1 -6 5 -12.2514 -0.0028
-1 -6 6 5.1385 -0.0040
-1 -6 7 -1.6778 -0.0085
-1 -6 8 3.3186 0.0061
-1 -6 9 8.1587 -0.0127
-1 -6 10 4.6187 0.0005
-1 -6 11 4.8191 -0.0014
-1 -6 12 2.2654 0.0037
-1 -6 13 -0.1207 -0.0035
-1 -6 14 1.1391 0.0024
-1 -6 15 -0.9577 0.0000
-1 -6 16 -0.6928 -0.0009
-1 -6 17 -1.3355 0.0023
-1 -5 1 -9.2092 0.0079
-1 -5 2 7.0889 0.0848
-1 -5 3 -21.1786 -0.0409
-1 -5 4 9.4956 0.0053
-1 -5 5 -12.7605 -0.0018
-1 -5 6 4.2984 -0.0121
-1 -5 7 0.5267 -0.0218
-1 -5 8 3.5012 0.0013
-1 -5 9 9.1207 -0.0068
-1 -5 10 6.3712 -0.0026
-1 -5 11 4.1652 -0.0020
-1 -5 12 3.3330 -0.0021
-1 -5 13 -0.1106 -0.0073
-1 -5 14 1.2977 -0.0052
-1 -5 15 -0.8508 0.0011
-1 -5 16 0.9237 -0.0056
-1 -5 17 -0.3165 -0.0001
-1 -4 1 -20.9196 -0.0695
-1 -4 2 9.0816 0.0582
-1 -4 3 -28.1147 -0.0318
-1 -4 4 8.9656 -0.0322
-1 -4 5 -10.7958 0.0039
-1 -4 6 3.2903 -0.0111
-1 -4 7 1.8123 -0.0140
-1 -4 8 1.7974 -0.0013
-1 -4 9 6.9071 0.0027
-1 -4 10 6.2452 -0.0055
-1 -4 11 2.4541 -0.0013
-1 -4 12 2.6584 -0.0029
-1 -4 13 -0.9255 -0.0016
-1 -4 14 0.6259 -0.0043
-1 -4 15 -1.4233 0.0032
-1 -4 16 0.6774 -0.0023
-1 -4 17 0.4036 -0.0050
-1 -4 18 -0.4972 -0.0001
-1 -3 1 -29.8591 -0.1005
-1 -3 2 13.1411 -0.0116
-1 -3 3 -26.4513 -0.0006
-1 -3 4 7.0165 -0.0441
-1 -3 5 -5.4913 0.0083
-1 -3 6 -0.1776 0.0026
-1 -3 7 0.5862 0.0050
-1 -3 8 -2.1668 -0.0011
-1 -3 9 2.5525 0.0123
-1 -3 10 4.1872 -0.0040
-1 -3 11 0.8254 -0.0007
-1 -3 12 1.6903 0.0005
-1 -3 13 -2.3839 0.0029
-1 -3 14 -0.5575 -0.0006
-1 -3 15 -2.0170 0.0020
-1 -3 16 0.0469 0.0019
-1 -3 17 0.6395 -0.0021
-1 -3 18 -0.0856 0.0026
-1 -2 1 -24.8763 -0.0491
-1 -2 2 19.6436 -0.0774
-1 -2 4 3.0182 -0.0200
-1 -2 5 0.1409 0.0012
-1 -2 6 -4.1430 0.0185
-1 -2 7 -3.6954 0.0182
-1 -2 8 -6.8588 -0.0044
-1 -2 9 -3.0677 0.0136
-1 -2 10 0.6846 0.0025
-1 -2 11 -1.4488 0.0004
-1 -2 12 0.8627 0.0033
-1 -2 13 -3.5667 0.0035
-1 -2 14 -1.0958 0.0021
-1 -2 15 -3.0550 0.0015
-1 -2 16 -0.5090 0.0043
-1 -2 17 0.3817 0.0039
-1 -2 18 0.0090 0.0036
-1 -1 1 -8.2881 0.0505
-1 -1 2 18.0076 -0.0891
-1 -1 3 6.7505 0.0434
-1 -1 4 -1.3412 0.0236
-1 -1 5 2.2544 -0.0086
-1 -1 6 -4.9610 0.0201
-1 -1 7 -7.1645 0.0197
-1 -1 8 -8.6129 -0.0053
-1 -1 9 -7.3165 0.0022
-1 -1 10 -1.9148 0.0071
-1 -1 11 -2.8694 0.0018
-1 -1 12 0.5480 0.0037
-1 -1 13 -3.2274 0.0040
-1 -1 14 -0.0672 0.0053
-1 -1 15 -3.0798 0.0016
-1 -1 16 -0.9996 0.0042
-1 -1 17 -0.2391 0.0036
-1 -1 18 -0.0802 -0.0013
-1 0 1 12.8236 0.0966
-1 0 3 14.4754 0.0151
-1 0 4 -4.2118 0.0451
-1 0 5 1.2847 -0.0090
-1 0 6 -3.6099 0.0018
-1 0 7 -6.9293 0.0061
-1 0 8 -6.0709 0.0007
-1 0 9 -7.2781 -0.0112
-1 0 10 -1.3798 0.0050
-1 0 11 -1.1445 0.0026
-1 0 12 2.0223 0.0013
-1 0 13 -1.0429 0.0024
-1 0 14 1.5396 0.0047
-1 0 15 -1.3180 -0.0023
-1 0 16 -0.6847 -0.0009
-1 0 17 -0.5577 0.0007
-1 0 18 -0.1543 -0.0075
-1 1 1 29.8581 0.0418
-1 1 3 14.9009 -0.0320
-1 1 4 -3.9084 0.0243
-1 1 5 0.6768 -0.0029
-1 1 6 -1.9623 -0.0205
-1 1 7 -4.1553 -0.0149
-1 1 8 -1.6463 0.0052
-1 1 9 -3.9866 -0.0138
-1 1 10 1.1951 -0.0011
-1 1 11 1.8244 0.0028
-1 1 12 4.6620 -0.0026
-1 1 13 1.5504 -0.0020
-1 1 14 2.5962 -0.0007
-1 1 15 0.1781 -0.0054
-1 1 16 0.0139 -0.0052
-1 1 17 -0.0313 0.0017
-1 1 18 -0.3438 -0.0037
-1 2 1 27.8560 -0.0391
-1 2 2 8.2333 0.0936
-1 2 3 10.3794 -0.0493
-1 2 4 -4.3514 -0.0138
-1 2 5 -2.0768 0.0056
-1 2 6 -2.0534 -0.0250
-1 2 7 -2.5665 -0.0223
-1 2 8 1.2560 0.0060
-1 2 9 -1.0824 -0.0048
-1 2 10 2.9798 -0.0067
-1 2 11 2.9541 0.0011
-1 2 12 6.3409 -0.0041
-1 2 13 2.9251 -0.0058
-1 2 14 3.5032 -0.0051
-1 2 15 0.6429 -0.0036
-1 2 16 -0.0740 -0.0026
-1 2 17 0.8859 -0.0007
-1 3 1 10.1762 -0.0574
-1 3 2 1.9140 0.0727
-1 3 3 1.0311 -0.0225
-1 3 4 -7.7610 -0.0393
-1 3 5 -8.2824 0.0103
-1 3 6 -5.0320 -0.0081
-1 3 7 -4.0620 -0.0129
-1 3 8 0.8217 0.0043
-1 3 9 -0.3466 0.0081
-1 3 10 2.8289 -0.0069
-1 3 11 2.2097 -0.0029
-1 3 12 6.2890 -0.0002
-1 3 13 2.9063 -0.0036
-1 3 14 4.0008 -0.0040
-1 3 15 1.2689 0.0004
-1 3 16 -0.6920 0.0031
-1 3 17 1.1168 -0.0055
-1 4 1 -1.8206 -0.0132
-1 4 2 -3.7976 -0.0061
-1 4 3 -3.8228 0.0208
-1 4 4 -7.7586 -0.0341
-1 4 5 -10.0901 0.0044
-1 4 6 -6.8006 0.0159
-1 4 7 -5.0607 0.0017
-1 4 8 -0.8951 -0.0043
-1 4 9 -0.7354 0.0143
-1 4 10 1.7381 -0.0002
-1 4 11 0.6128 -0.0059
-1 4 12 4.5465 0.0028
-1 4 13 1.9902 0.0032
-1 4 14 2.8474 -0.0009
-1 4 15 1.6113 0.0027
-1 4 16 -0.9410 0.0005
-1 5 1 -3.2774 0.0345
-1 5 2 -3.0637 -0.0766
-1 5 3 -1.4095 0.0450
-1 5 4 -3.3979 0.0038
-1 5 5 -5.6883 -0.0050
-1 5 6 -5.2297 0.0291
-1 5 7 -3.4393 0.0173
-1 5 8 -1.1860 -0.0123
-1 5 9 -1.2727 0.0081
-1 5 10 0.5805 0.0087
-1 5 11 -1.3217 -0.0031
-1 5 12 1.4493 0.0005
-1 5 13 0.6404 0.0057
-1 5 14 0.7645 0.0018
-1 5 15 0.8872 0.0019
-1 6 1 -1.9683 0.0419
-1 6 2 -0.0645 -0.0840
-1 6 3 1.7603 0.0315
-1 6 4 0.5184 0.0394
-1 6 5 -1.1409 -0.0093
-1 6 6 -2.8487 0.0153
-1 6 7 -1.7576 0.0221
-1 6 8 -0.6369 -0.0080
-1 6 9 -1.7701 -0.0061
-1 6 10 -0.6527 0.0101
-1 6 11 -2.5708 0.0030
-1 6 12 -1.2798 -0.0005
-1 6 13 -0.3237 0.0016
-1 6 14 -0.3209 0.0077
-1 7 1 -0.0513 0.0134
-1 7 2 3.5503 -0.0271
-1 7 3 4.7064 -0.0031
-1 7 4 4.1157 0.0391
-1 7 5 2.6793 -0.0051
-1 7 6 -0.1022 -0.0133
-1 7 7 -0.5162 0.0075
-1 7 8 -0.5098 0.0043
-1 7 9 -1.6310 -0.0145
-1 7 10 -1.4544 0.0012
-1 7 11 -2.4007 0.0062
-1 7 12 -2.1072 0.0006
-1 7 13 -0.3705 -0.0009
-1 8 1 1.4070 -0.0198
-1 8 2 5.8362 0.0456
-1 8 3 7.6131 -0.0302
-1 8 4 6.9002 0.0096
-1 8 5 5.7869 0.0061
-1 8 6 2.0262 -0.0255
-1 8 7 0.7567 -0.0085
-1 8 8 -0.8321 0.0137
-1 8 9 -1.1353 -0.0075
-1 8 10 -1.3095 -0.0063
-1 8 11 -1.4668 0.0115
-1 8 12 -1.6021 -0.0016
-1 9 1 1.6091 -0.0326
-1 9 2 4.9266 0.0738
-1 9 3 7.6438 -0.0362
-1 9 4 6.3777 -0.0260
-1 9 5 5.9258 0.0115
-1 9 6 1.5584 -0.0175
-1 9 7 0.7757 -0.0156
-1 9 8 -1.0910 0.0121
-1 9 9 -0.9124 0.0001
-1 9 10 -0.5773 -0.0104
-1 10 1 0.8159 -0.0167
-1 10 2 2.1989 0.0409
-1 10 3 4.5686 -0.0110
-1 10 4 3.2461 -0.0380
-1 10 5 3.8831 0.0059
-1 10 6 0.0409 0.0001
-1 10 7 -0.1637 -0.0180
-1 10 8 -0.9922 0.0033
-1 10 9 -0.6179 -0.0032
-1 11 1 -1.1052 0.0093
-1 11 2 -1.0571 -0.0196
-1 11 3 1.0508 0.0253
-1 11 4 -0.1951 -0.0090
-1 11 5 1.5857 -0.0051
-1 11 6 -0.6517 0.0201
-1 12 1 -1.7159 0.0163
-1 12 2 -2.7687 -0.0561
-1 12 3 -0.2606 0.0245
0 -12 1 -0.5313 -0.0001
0 -12 2 -0.7174 -0.0195
0 -12 3 -1.2414 0.0175
0 -12 4 1.4440 0.0029
0 -12 5 1.4550 0.0037
0 -12 6 1.8178 0.0046
0 -12 7 1.7641 0.0017
0 -11 1 -0.6780 0.0485
0 -11 2 -1.3322 -0.0681
0 -11 3 -2.3700 0.0234
0 -11 4 -0.7003 0.0041
0 -11 5 -0.7698 0.0009
0 -11 6 0.4299 0.0062
0 -11 7 -0.0600 0.0094
0 -11 8 0.7636 -0.0031
0 -11 9 -1.0436 0.0025
0 -11 10 -1.7800 -0.0074
0 -11 11 -1.2724 0.0148
0 -10 1 0.0764 0.0443
0 -10 2 -1.0894 -0.0692
0 -10 3 -3.2727 0.0227
0 -10 4 -1.6210 0.0237
0 -10 5 -4.1066 0.0052
0 -10 6 -0.5100 0.0008
0 -10 7 -2.5730 0.0022
0 -10 8 -0.2375 -0.0005
0 -10 9 -1.3565 -0.0086
0 -10 10 -3.7345 -0.0116
0 -10 11 -1.0436 0.0034
0 -10 12 -2.3127 -0.0020
0 -10 13 -0.3595 0.0051
0 -9 1 0.7656 0.0016
0 -9 2 -0.3641 -0.0128
0 -9 3 -3.9039 -0.0010
0 -9 4 -0.8739 0.0243
0 -9 5 -6.4302 0.0020
0 -9 6 0.8197 -0.0077
0 -9 7 -2.9912 -0.0143
0 -9 8 0.1095 0.0080
0 -9 9 0.4403 -0.0096
0 -9 10 -3.9313 -0.0025
0 -9 11 -0.3928 -0.0041
0 -9 12 -1.5022 0.0006
0 -9 13 -0.0890 -0.0061
0 -9 14 -0.4157 -0.0030
0 -8 1 1.2307 -0.0379
0 -8 2 0.7627 0.0608
0 -8 3 -3.5678 -0.0293
0 -8 4 1.9814 -0.0009
0 -8 5 -7.2357 -0.0053
0 -8 6 2.6929 -0.0136
0 -8 7 -0.9347 -0.0215
0 -8 8 2.1082 0.0061
0 -8 9 3.8846 -0.0091
0 -8 10 -0.9522 0.0005
0 -8 11 0.7536 -0.0052
0 -8 12 -0.5032 -0.0000
0 -8 13 0.1419 -0.0055
0 -8 14 -0.5952 -0.0081
0 -8 15 -2.8541 -0.0036
0 -7 1 -0.0327 -0.0489
0 -7 2 0.9679 0.0898
0 -7 3 -5.5367 -0.0321
0 -7 4 4.2514 -0.0264
0 -7 5 -5.9549 -0.0011
0 -7 6 2.7932 -0.0105
0 -7 7 2.1216 -0.0113
0 -7 8 4.4796 0.0015
0 -7 9 7.3469 0.0003
0 -7 10 2.3996 -0.0012
0 -7 11 2.5837 -0.0022
0 -7 12 0.0523 -0.0026
0 -7 13 0.1911 -0.0026
0 -7 14 -0.0446 -0.0085
0 -7 15 -2.1381 -0.0034
0 -7 16 -1.6868 -0.0029
0 -6 1 -5.1642 -0.0290
0 -6 2 0.5220 0.0415
0 -6 3 -10.9621 -0.0083
0 -6 4 2.1865 -0.0332
0 -6 5 -3.7009 0.0053
0 -6 6 2.0454 0.0019
0 -6 7 4.5688 0.0034
0 -6 8 5.6093 -0.0033
0 -6 9 9.9553 0.0134
0 -6 10 3.7016 -0.0006
0 -6 11 3.7833 -0.0018
0 -6 12 0.4298 -0.0022
0 -6 13 -0.0305 -0.0013
0 -6 14 0.0833 -0.0052
0 -6 15 -0.5818 -0.0004
0 -6 16 -0.7167 -0.0018
0 -6 17 -0.8382 -0.0050
0 -5 1 -14.1098 0.0137
0 -5 2 2.4041 -0.0445
0 -5 3 -14.0456 0.0225
0 -5 6 1.9816 0.0183
0 -5 7 5.0921 0.0169
0 -5 8 4.0103 -0.0060
0 -5 9 9.8650 0.0152
0 -5 10 3.5766 0.0028
0 -5 11 3.2284 -0.0031
0 -5 12 0.4827 0.0016
0 -5 13 -0.4422 0.0039
0 -5 14 -0.2833 0.0014
0 -5 15 -0.3995 0.0025
0 -5 16 0.0681 0.0030
0 -5 17 0.1533 -0.0033
0 -4 1 -24.4761 0.0483
0 -4 2 7.2746 -0.0928
0 -4 4 6.4300 0.0273
0 -4 5 -2.7634 0.0020
0 -4 6 0.1330 0.0215
0 -4 7 3.0817 0.0223
0 -4 8 -0.0462 -0.0034
0 -4 9 6.1257 0.0036
0 -4 10 2.6745 0.0063
0 -4 11 1.3056 -0.0008
0 -4 12 -0.3243 0.0031
0 -4 13 -1.2745 0.0077
0 -4 14 -0.6601 0.0067
0 -4 15 -0.5831 0.0004
0 -4 16 0.4077 0.0056
0 -4 17 0.5378 0.0023
0 -4 18 0.4407 0.0009
0 -3 1 -29.1215 0.0464
0 -3 2 17.2433 -0.0666
0 -3 3 -20.1826 0.0149
0 -3 4 9.8123 0.0434
0 -3 5 -4.3368 -0.0023
0 -3 6 -6.2750 0.0029
0 -3 7 -1.1769 0.0097
0 -3 8 -4.9812 -0.0002
0 -3 9 1.1188 -0.0105
0 -3 10 1.2694 0.0055
0 -3 11 -0.7323 0.0029
0 -3 12 -1.3421 -0.0007
0 -3 13 -2.4050 0.0026
0 -3 14 -1.4386 0.0061
0 -3 15 -0.9131 -0.0023
0 -3 16 0.6328 0.0014
0 -3 17 0.4884 0.0051
0 -3 18 1.5795 -0.0030
0 -2 1 -25.5236 0.0265
0 -2 2 31.5074 0.0083
0 -2 3 -20.3025 -0.0177
0 -2 4 7.8315 0.0268
0 -2 5 -4.2236 -0.0060
0 -2 6 -12.4200 -0.0183
0 -2 7 -5.3086 -0.0088
0 -2 8 -8.8326 0.0022
0 -2 9 -2.8654 -0.0135
0 -2 10 0.1646 0.0008
0 -2 11 -1.7199 0.0055
0 -2 12 -1.1910 -0.0035
0 -2 13 -2.9178 -0.0037
0 -2 14 -1.7249 0.0012
0 -2 15 -2.0830 -0.0008
0 -2 16 0.1298 -0.0041
0 -2 17 0.2115 0.0007
0 -2 18 1.4023 -0.0049
0 -1 1 -20.9153 0.0087
0 -1 2 37.3338 0.0689
0 -1 3 -13.0147 -0.0351
0 -1 4 5.3044 -0.0078
0 -1 5 -0.8393 -0.0033
0 -1 6 -11.6145 -0.0230
0 -1 7 -6.2570 -0.0189
0 -1 8 -8.7404 0.0049
0 -1 9 -4.4496 -0.0049
0 -1 10 0.3926 -0.0053
0 -1 11 -0.5755 0.0037
0 -1 12 0.7530 -0.0024
0 -1 13 -2.3513 -0.0050
0 -1 14 -0.4230 -0.0040
0 -1 15 -2.6153 -0.0011
0 -1 16 -0.6760 -0.0059
0 -1 17 0.0595 -0.0061
0 -1 18 0.4565 -0.0022
0 0 3 -6.0370 -0.0238
0 0 4 2.4001 -0.0417
0 0 5 2.3803 0.0039
0 0 6 -5.7173 -0.0085
0 0 7 -4.1721 -0.0192
0 0 8 -4.3516 0.0048
0 0 9 -2.5153 0.0060
0 0 10 2.3760 -0.0087
0 0 11 2.6153 -0.0031
0 0 12 4.1001 -0.0002
0 0 13 -0.5479 -0.0040
0 0 14 1.2465 -0.0053
0 0 15 -1.3868 -0.0020
0 0 16 -0.6343 -0.0030
0 0 17 -0.0157 -0.0039
0 0 18 0.1076 0.0048
0 1 0 59.8991 0.0601
0 1 1 -2.6972 -0.0630
0 1 2 19.6506 0.0179
0 1 3 -2.9423 0.0099
0 1 4 -3.9346 -0.0471
0 1 5 1.5114 0.0067
0 1 6 -1.2508 0.0163
0 1 7 -1.6797 -0.0068
0 1 8 0.2957 0.0005
0 1 9 0.5826 0.0127
0 1 10 4.5477 -0.0038
0 1 11 4.9855 -0.0067
0 1 12 6.7854 0.0028
0 1 13 2.0643 -0.0002
0 1 14 1.9768 -0.0017
0 1 15 0.1160 0.0034
0 1 16 0.0519 0.0021
0 1 17 -0.3296 0.0040
0 2 0 38.8197 0.1538
0 2 1 0.4220 -0.0596
0 2 2 7.3405 -0.0297
0 2 3 -3.7145 0.0367
0 2 4 -11.6875 -0.0119
0 2 5 -3.9759 0.0017
0 2 6 -1.4755 0.0271
0 2 7 -1.2206 0.0138
0 2 8 1.9537 -0.0060
0 2 9 0.9633 0.0088
0 2 10 4.9062 0.0049
0 2 11 4.2230 -0.0041
0 2 12 6.7232 0.0033
0 2 13 3.5187 0.0047
0 2 14 2.0664 0.0021
0 2 15 0.4253 0.0067
0 2 16 0.2943 0.0046
0 2 17 -0.7230 0.0006
0 3 0 13.0994 0.1907
0 3 1 -4.9967 -0.0036
0 3 2 -3.8697 -0.0451
0 3 3 -5.6376 0.0300
0 3 4 -13.7144 0.0325
0 3 5 -9.0683 -0.0035
0 3 6 -3.7901 0.0098
0 3 7 -2.7386 0.0234
0 3 8 1.5548 -0.0085
0 3 9 -0.8526 -0.0053
0 3 10 3.7169 0.0086
0 3 11 1.9300 0.0000
0 3 12 4.7699 -0.0007
0 3 13 2.6038 0.0047
0 3 14 1.7449 0.0046
0 3 15 -0.1756 0.0005
0 3 16 -0.0514 0.0042
0 4 0 -0.5858 0.0906
0 4 1 -4.4494 0.0547
0 4 2 -4.5937 -0.0287
0 4 3 -3.3519 -0.0008
0 4 4 -7.9026 0.0479
0 4 5 -8.1657 -0.0024
0 4 6 -3.7394 -0.0157
0 4 7 -3.4076 0.0141
0 4 8 1.0993 -0.0021
0 4 9 -2.1527 -0.0147
0 4 10 1.8395 0.0065
0 4 11 -0.0713 0.0052
0 4 12 2.5866 -0.0045
0 4 13 0.5083 0.0010
0 4 14 0.7804 0.0046
0 4 15 -1.0868 -0.0038
0 4 16 -0.3279 -0.0012
0 5 0 -3.3788 -0.0803
0 5 1 0.4832 0.0629
0 5 2 0.4981 0.0026
0 5 3 0.9609 -0.0295
0 5 4 -2.0217 0.0271
0 5 5 -3.9843 0.0001
0 5 6 -1.9684 -0.0261
0 5 7 -2.5343 -0.0041
0 5 8 0.8479 0.0072
0 5 9 -2.6362 -0.0101
0 5 10 -0.5850 -0.0010
0 5 11 -1.9159 0.0093
0 5 12 0.4321 -0.0038
0 5 13 -1.0149 -0.0021
0 5 14 -0.1009 -0.0023
0 5 15 -1.8270 0.0036
0 6 0 -2.7536 -0.1811
0 6 1 2.3239 0.0191
0 6 2 3.1701 0.0287
0 6 3 3.7627 -0.0356
0 6 4 0.7275 -0.0116
0 6 5 -0.7186 0.0005
0 6 6 -0.4357 -0.0175
0 6 7 -1.8464 -0.0195
0 6 8 0.7245 0.0104
0 6 9 -2.3453 0.0024
0 6 10 -2.0823 -0.0107
0 6 11 -2.7383 0.0034
0 6 12 -0.8415 0.0021
0 6 13 -1.0875 -0.0053
0 6 14 0.1369 -0.0114
0 7 0 -0.1077 -0.1341
0 7 1 3.4853 -0.0305
0 7 2 5.7092 0.0331
0 7 3 6.7664 -0.0109
0 7 4 4.2106 -0.0394
0 7 5 1.9324 0.0023
0 7 6 1.4373 0.0064
0 7 7 -1.6004 -0.0210
0 7 8 0.6051 0.0057
0 7 9 -1.2654 0.0127
0 7 10 -1.5458 -0.0121
0 7 11 -1.8197 -0.0099
0 7 12 -0.6627 0.0119
0 7 13 -0.2570 -0.0080
0 8 0 1.9619 0.0148
0 8 1 4.5006 -0.0475
0 8 2 7.4063 0.0095
0 8 3 8.0974 0.0192
0 8 4 6.4712 -0.0364
0 8 5 2.6284 0.0015
0 8 6 2.0454 0.0266
0 8 7 -1.7420 -0.0058
0 8 8 -0.1045 -0.0056
0 8 9 -0.9803 0.0132
0 8 10 -0.6096 -0.0036
0 8 11 -0.6952 -0.0119
0 9 0 1.4515 0.1406
0 9 1 3.2982 -0.0297
0 9 2 5.1284 -0.0193
0 9 3 5.3768 0.0252
0 9 4 4.6759 -0.0066
0 9 5 0.9398 -0.0033
0 9 6 0.5041 0.0204
0 9 7 -2.2739 0.0129
0 9 8 -0.5416 -0.0141
0 9 9 -1.4024 0.0026
0 10 0 -0.5023 0.1447
0 10 1 0.3680 0.0070
0 10 2 1.2817 -0.0234
0 10 3 1.5041 0.0159
0 10 4 1.6487 0.0269
0 10 5 -0.4677 -0.0032
0 10 6 -0.5935 0.0004
0 10 7 -2.3992 0.0203
0 10 8 -0.0919 -0.0018
0 11 0 -1.8406 0.0334
0 11 1 -2.5014 0.0370
0 11 2 -1.4541 -0.0154
0 11 3 -0.7193 -0.0006
0 11 4 -0.1890 0.0331
0 11 5 -0.9850 -0.0062
0 12 0 -1.0951 -0.0870
0 12 1 -2.5823 0.0381
1 -12 0 -1.3378 0.0081
1 -12 1 -1.8841 0.0495
1 -12 2 -0.3047 -0.0128
1 -12 3 -2.6393 -0.0052
1 -12 4 1.5860 0.0153
1 -12 5 0.0498 0.0064
1 -12 6 0.0543 0.0012
1 -12 7 -0.2151 0.0011
1 -12 8 -0.7675 0.0100
1 -11 0 -0.6664 -0.0858
1 -11 1 -2.1812 0.0451
1 -11 2 -1.0521 0.0065
1 -11 3 -3.5371 -0.0119
1 -11 4 -1.5294 0.0116
1 -11 5 -1.6219 0.0006
1 -11 6 -1.5280 -0.0016
1 -11 7 -0.8506 -0.0122
1 -11 8 -1.8259 -0.0017
1 -11 9 -0.3254 -0.0064
1 -11 10 -1.9081 -0.0023
1 -11 11 -0.8564 -0.0106
1 -10 0 0.8696 -0.1331
1 -10 1 -1.2210 0.0028
1 -10 2 -1.5458 0.0278
1 -10 3 -3.2791 -0.0156
1 -10 4 -3.3380 -0.0102
1 -10 5 -2.0564 -0.0043
1 -10 6 -2.1781 -0.0030
1 -10 7 -0.3463 -0.0125
1 -10 8 -2.7347 -0.0002
1 -10 9 -0.3612 0.0018
1 -10 10 -2.5982 -0.0032
1 -10 11 0.2470 -0.0064
1 -10 12 -0.7946 0.0007
1 -10 13 -0.3435 0.0004
1 -9 0 1.2665 -0.0666
1 -9 1 -0.4044 -0.0497
1 -9 2 -1.3908 0.0293
1 -9 3 -1.9062 -0.0093
1 -9 4 -3.6132 -0.0340
1 -9 5 -0.9018 -0.0053
1 -9 6 -0.7214 0.0066
1 -9 7 2.9196 -0.0044
1 -9 8 -1.2708 0.0004
1 -9 9 2.3077 0.0099
1 -9 10 -2.4543 -0.0011
1 -9 11 1.2423 -0.0035
1 -9 12 -0.0513 -0.0020
1 -9 13 -0.6608 0.0009
1 -9 14 -0.5170 -0.0016
1 -8 0 0.6186 0.0722
1 -8 1 -0.2488 -0.0655
1 -8 2 -1.3880 0.0068
1 -8 3 -0.1800 0.0116
1 -8 4 -2.2510 -0.0272
1 -8 5 -0.2111 0.0007
1 -8 6 0.8321 0.0189
1 -8 7 6.5216 0.0080
1 -8 8 2.1798 -0.0031
1 -8 9 6.0526 0.0065
1 -8 10 -0.1203 0.0003
1 -8 11 1.3987 -0.0037
1 -8 12 0.4782 -0.0023
1 -8 13 -0.6206 0.0030
1 -8 14 -0.7738 0.0027
1 -8 15 -2.2138 0.0021
1 -7 0 -2.4512 0.1645
1 -7 1 -2.4069 -0.0283
1 -7 2 -3.4298 -0.0249
1 -7 3 -1.8990 0.0268
1 -7 4 -0.2751 0.0049
1 -7 5 0.6108 0.0082
1 -7 6 1.6410 0.0153
1 -7 7 8.0414 0.0170
1 -7 8 4.6620 -0.0028
1 -7 9 7.6008 0.0000
1 -7 10 2.0383 0.0041
1 -7 11 1.0238 -0.0004
1 -7 12 0.4415 -0.0030
1 -7 13 -0.5015 0.0038
1 -7 14 -0.3201 0.0059
1 -7 15 -1.1356 -0.0004
1 -7 16 -1.6268 0.0035
1 -6 0 -6.9461 0.1231
1 -6 1 -6.4728 0.0316
1 -6 2 -5.0050 -0.0407
1 -6 3 -5.5313 0.0158
1 -6 4 -0.2449 0.0301
1 -6 5 1.8601 0.0081
1 -6 6 1.8775 -0.0039
1 -6 7 8.3384 0.0132
1 -6 8 4.7094 -0.0013
1 -6 9 7.4310 -0.0079
1 -6 10 2.2391 0.0042
1 -6 11 0.5016 0.0038
1 -6 12 -0.1887 -0.0020
1 -6 13 -0.8564 0.0013
1 -6 14 -0.7868 0.0059
1 -6 15 0.0706 -0.0011
1 -6 16 -0.6004 -0.0008
1 -6 17 -0.8017 0.0024
1 -5 0 -9.2019 -0.0274
1 -5 1 -9.0465 0.0713
1 -5 2 -2.7649 -0.0199
1 -5 3 -4.3395 -0.0110
1 -5 4 -0.2704 0.0317
1 -5 5 1.3917 0.0013
1 -5 6 -0.7872 -0.0185
1 -5 7 6.5903 0.0010
1 -5 8 2.1843 0.0017
1 -5 9 6.0602 -0.0116
1 -5 10 1.1952 -0.0012
1 -5 11 -0.0852 0.0049
1 -5 12 -0.9796 -0.0003
1 -5 13 -1.0305 -0.0031
1 -5 14 -1.3676 0.0011
1 -5 15 0.1792 0.0005
1 -5 16 -0.1327 -0.0028
1 -5 17 -0.2937 0.0036
1 -4 0 -8.8284 -0.1704
1 -4 1 -10.6356 0.0565
1 -4 2 -0.6905 0.0227
1 -4 3 -2.6518 -0.0302
1 -4 4 0.9870 0.0055
1 -4 5 -0.6893 -0.0077
1 -4 6 -6.5488 -0.0209
1 -4 7 1.6335 -0.0136
1 -4 8 -1.4883 0.0048
1 -4 9 2.9333 -0.0054
1 -4 10 -0.4232 -0.0061
1 -4 11 -1.1193 0.0033
1 -4 12 -2.0187 -0.0003
1 -4 13 -1.1000 -0.0071
1 -4 14 -0.9033 -0.0047
1 -4 15 0.1702 0.0002
1 -4 16 0.0799 -0.0041
1 -4 17 0.1715 0.0024
1 -3 0 -0.7181 -0.1822
1 -3 1 -10.4752 -0.0110
1 -3 2 1.6949 0.0472
1 -3 3 -6.8120 -0.0253
1 -3 4 -0.5415 -0.0315
1 -3 5 -1.9259 -0.0093
1 -3 6 -11.4543 -0.0088
1 -3 7 -3.4336 -0.0216
1 -3 8 -3.9129 0.0041
1 -3 9 0.3087 0.0047
1 -3 10 -1.0267 -0.0075
1 -3 11 -1.5336 -0.0014
1 -3 12 -2.6351 -0.0002
1 -3 13 -1.5908 -0.0072
1 -3 14 -0.7317 -0.0050
1 -3 15 -0.0168 0.0009
1 -3 16 0.2558 -0.0041
1 -3 17 0.5622 -0.0004
1 -2 1 -5.6295 -0.0743
1 -2 2 11.0523 0.0363
1 -2 3 -8.2319 0.0010
1 -2 4 -3.8267 -0.0438
1 -2 5 -0.5718 -0.0011
1 -2 6 -12.7547 0.0154
1 -2 7 -5.1487 -0.0107
1 -2 8 -4.7177 0.0013
1 -2 9 -0.1993 0.0121
1 -2 10 0.4444 -0.0037
1 -2 11 -0.1584 -0.0067
1 -2 12 -1.6031 0.0018
1 -2 13 -1.7225 -0.0003
1 -2 14 -1.1918 -0.0012
1 -2 15 -0.5713 0.0031
1 -2 16 0.0028 0.0006
1 -2 17 0.4646 -0.0005
1 -1 0 41.7649 0.1237
1 -1 1 -1.6052 -0.0736
1 -1 2 19.9076 0.0061
1 -1 3 -3.5626 0.0271
1 -1 4 -4.6593 -0.0185
1 -1 5 2.4640 0.0037
1 -1 6 -10.4306 0.0274
1 -1 7 -3.7510 0.0100
1 -1 8 -3.8552 -0.0046
1 -1 9 0.7104 0.0093
1 -1 10 2.8580 0.0028
1 -1 11 2.1894 -0.0083
1 -1 12 0.7073 0.0014
1 -1 13 -1.0441 0.0077
1 -1 14 -1.0966 0.0025
1 -1 15 -0.6158 0.0010
1 -1 16 -0.2213 0.0062
1 -1 17 0.1766 0.0003
1 0 0 49.8547 0.1709
1 0 1 -3.4938 -0.0098
1 0 2 16.3533 -0.0228
1 0 3 -2.9053 0.0358
1 0 4 -5.9766 0.0228
1 0 5 3.7689 0.0024
1 0 6 -5.5732 0.0147
1 0 7 -1.2961 0.0217
1 0 8 -1.1479 -0.0089
1 0 9 2.7450 -0.0030
1 0 10 5.1601 0.0081
1 0 11 4.6064 -0.0027
1 0 12 3.3203 -0.0009
1 0 13 0.3531 0.0080
1 0 14 -0.3321 0.0052
1 0 15 -0.2479 -0.0022
1 0 16 -0.0131 0.0068
1 0 17 -0.3869 -0.0002
1 1 0 41.5988 0.0856
1 1 1 -7.8020 0.0598
1 1 2 4.7163 -0.0399
1 1 3 -6.5213 0.0208
1 1 4 -10.2034 0.0464
1 1 5 1.3847 0.0009
1 1 6 -1.1134 -0.0078
1 1 7 0.5343 0.0179
1 1 8 0.9313 -0.0038
1 1 9 3.9942 -0.0119
1 1 10 6.0180 0.0090
1 1 11 5.9289 0.0075
1 1 12 4.8377 -0.0010
1 1 13 2.0881 0.0018
1 1 14 0.3388 0.0036
1 1 15 -0.3617 -0.0001
1 1 16 0.4194 0.0016
1 1 17 -1.2744 -0.0006
1 2 0 22.8783 -0.0370
1 2 1 -10.2548 0.0771
1 2 2 -4.9490 -0.0347
1 2 3 -6.5098 -0.0131
1 2 4 -12.7606 0.0328
1 2 5 -2.8786 -0.0021
1 2 6 -0.3212 -0.0248
1 2 7 0.7585 0.0002
1 2 8 0.7566 0.0038
1 2 9 2.3024 -0.0109
1 2 10 4.3403 0.0002
1 2 11 4.7997 0.0109
1 2 12 3.6526 -0.0022
1 2 13 2.4782 -0.0040
1 2 14 0.1564 -0.0018
1 2 15 -1.1030 0.0029
1 2 16 0.7081 -0.0041
1 3 0 7.3584 -0.1047
1 3 1 -6.9680 0.0312
1 3 2 -6.9732 -0.0045
1 3 3 -3.2115 -0.0386
1 3 4 -10.0107 -0.0054
1 3 5 -5.2073 -0.0020
1 3 6 -1.8068 -0.0225
1 3 7 -0.2260 -0.0180
1 3 8 0.2711 0.0076
1 3 9 -0.4777 -0.0018
1 3 10 1.7408 -0.0107
1 3 11 2.3530 0.0047
1 3 12 1.0492 -0.0021
1 3 13 0.9882 -0.0067
1 3 14 -0.8088 -0.0018
1 3 15 -1.8258 0.0012
1 3 16 0.5750 -0.0024
1 4 0 2.6697 -0.0868
1 4 1 0.1413 -0.0367
1 4 2 -1.5514 0.0256
1 4 3 -0.9972 -0.0313
1 4 4 -4.8741 -0.0381
1 4 5 -4.0908 0.0026
1 4 6 -1.7792 0.0016
1 4 7 -1.0720 -0.0219
1 4 8 0.2284 0.0072
1 4 9 -2.2417 0.0099
1 4 10 -0.2932 -0.0109
1 4 11 0.2589 -0.0040
1 4 12 -0.3862 0.0049
1 4 13 -0.3474 -0.0053
1 4 14 -1.4210 0.0015
1 4 15 -1.9386 -0.0047
1 5 0 2.2617 -0.0109
1 5 1 3.1282 -0.0704
1 5 2 4.3184 0.0311
1 5 3 0.5696 -0.0010
1 5 4 -1.3732 -0.0413
1 5 5 -1.7335 0.0017
1 5 6 -0.4282 0.0238
1 5 7 -1.2411 -0.0107
1 5 8 -0.3068 -0.0014
1 5 9 -3.2002 0.0141
1 5 10 -1.8459 -0.0037
1 5 11 -1.3556 -0.0129
1 5 12 -0.6809 0.0072
1 5 13 -0.2459 0.0032
1 5 14 -0.9840 -0.0043
1 6 0 2.4724 0.0661
1 6 1 3.2039 -0.0448
1 6 2 6.9827 0.0186
1 6 3 4.2210 0.0257
1 6 4 1.4187 -0.0129
1 6 5 0.2034 -0.0016
1 6 6 0.5902 0.0250
1 6 7 -0.8888 0.0089
1 6 8 -0.3572 -0.0104
1 6 9 -2.7777 0.0082
1 6 10 -1.9080 0.0057
1 6 11 -1.7441 -0.0155
1 6 12 -0.7620 -0.0034
1 6 13 0.3423 0.0170
1 7 0 4.3148 0.0905
1 7 1 5.1054 0.0125
1 7 2 7.6567 -0.0036
1 7 3 7.1997 0.0302
1 7 4 4.0253 0.0197
1 7 5 0.7896 -0.0008
1 7 6 0.9339 0.0089
1 7 7 -0.7727 0.0208
1 7 8 0.3082 -0.0086
1 7 9 -1.3146 -0.0040
1 7 10 -0.5330 0.0153
1 7 11 -0.7055 -0.0037
1 7 12 -0.6234 -0.0100
1 8 0 4.3936 0.0444
1 8 1 5.4431 0.0516
1 8 2 5.7733 -0.0282
1 8 3 5.0309 0.0107
1 8 4 3.9190 0.0304
1 8 5 -0.8477 -0.0016
1 8 6 0.0913 -0.0129
1 8 7 -1.7019 0.0121
1 8 8 0.1299 -0.0014
1 8 9 -0.8715 -0.0155
1 8 10 0.1124 0.0118
1 9 0 1.1855 -0.0326
1 9 1 2.3279 0.0477
1 9 2 2.5154 -0.0245
1 9 3 0.8189 -0.0131
1 9 4 1.9439 0.0216
1 9 5 -2.5296 0.0019
1 9 6 -0.9604 -0.0229
1 9 7 -2.6434 0.0009
1 9 8 -0.3260 0.0060
1 9 9 -1.0303 -0.0084
1 10 0 -2.0680 -0.0766
1 10 1 -1.4271 0.0094
1 10 2 0.1698 0.0094
1 10 3 -0.9494 -0.0233
1 10 4 0.4952 -0.0021
1 10 5 -2.4551 0.0108
1 10 6 -0.8310 -0.0112
1 11 0 -2.5920 -0.0655
1 11 1 -3.6814 -0.0302
1 11 2 -1.3404 0.0219
1 11 3 -0.8833 -0.0235
2 -12 0 -0.9879 -0.0213
2 -12 1 -2.0812 -0.0357
2 -12 2 -0.9302 0.0143
2 -12 3 -2.3825 -0.0216
2 -12 4 -0.8008 -0.0179
2 -12 5 -0.7723 -0.0075
2 -12 6 -0.9275 0.0089
2 -12 7 -0.3177 -0.0057
2 -12 8 -2.4836 -0.0089
2 -12 9 0.7765 0.0135
2 -11 0 0.1151 0.0302
2 -11 1 -3.0083 -0.0549
2 -11 2 -1.2813 0.0223
2 -11 3 -3.3521 -0.0010
2 -11 4 -2.2917 -0.0136
2 -11 5 -2.0235 -0.0018
2 -11 6 -1.3846 0.0137
2 -11 7 -0.5913 0.0061
2 -11 8 -2.7666 -0.0066
2 -11 9 0.2487 0.0079
2 -11 10 -1.0168 0.0012
2 -11 11 -0.1250 -0.0065
2 -10 0 1.6137 0.0725
2 -10 1 -2.8571 -0.0277
2 -10 2 -1.0645 0.0087
2 -10 3 -3.3090 0.0186
2 -10 4 -1.9876 -0.0013
2 -10 5 -1.3032 0.0062
2 -10 6 -0.7450 0.0136
2 -10 7 0.3903 0.0167
2 -10 8 -2.1181 -0.0012
2 -10 9 -0.0706 0.0024
2 -10 10 0.0199 0.0078
2 -10 11 0.1443 0.0009
2 -10 12 0.1657 -0.0060
2 -10 13 -1.5144 0.0002
2 -9 0 1.7843 0.0647
2 -9 1 -2.5771 0.0254
2 -9 2 -0.4379 -0.0183
2 -9 3 -2.4800 0.0274
2 -9 4 -1.3385 0.0158
2 -9 5 1.5488 0.0080
2 -9 6 1.5657 0.0010
2 -9 7 5.0464 0.0132
2 -9 8 0.4131 -0.0033
2 -9 9 1.8448 -0.0057
2 -9 10 0.0572 0.0047
2 -9 11 -0.2543 0.0088
2 -9 12 0.6492 0.0005
2 -9 13 -1.5046 0.0004
2 -9 14 -1.0859 0.0101
2 -8 0 0.4585 0.0066
2 -8 1 -3.0518 0.0679
2 -8 2 -0.9485 -0.0335
2 -8 3 -0.8312 0.0150
2 -8 4 -1.4771 0.0265
2 -8 5 3.8255 0.0025
2 -8 6 2.4481 -0.0151
2 -8 7 9.6530 0.0008
2 -8 8 3.1028 -0.0028
2 -8 9 4.8572 -0.0076
2 -8 10 0.7608 -0.0024
2 -8 11 -0.7695 0.0094
2 -8 12 0.6903 0.0058
2 -8 13 -0.5370 -0.0002
2 -8 14 -1.0460 0.0047
2 -8 15 -0.9356 0.0051
2 -7 0 -3.5040 -0.0672
2 -7 1 -4.7916 0.0576
2 -7 2 -3.2233 -0.0220
2 -7 3 0.5791 -0.0164
2 -7 4 -1.1958 0.0126
2 -7 5 5.3099 -0.0062
2 -7 6 1.6409 -0.0221
2 -7 7 10.3158 -0.0128
2 -7 8 3.1823 0.0029
2 -7 9 5.0127 -0.0017
2 -7 10 1.4730 -0.0053
2 -7 11 -1.2745 0.0055
2 -7 12 0.0511 0.0046
2 -7 13 0.1352 -0.0029
2 -7 14 -0.6674 -0.0032
2 -7 15 0.0763 0.0018
2 -7 16 -1.5461 -0.0008
2 -6 0 -7.8565 -0.0964
2 -6 1 -6.3386 -0.0089
2 -6 2 -5.1677 0.0099
2 -6 3 0.9865 -0.0373
2 -6 4 -1.8350 -0.0180
2 -6 5 5.2770 -0.0100
2 -6 6 0.1641 -0.0119
2 -6 7 8.9444 -0.0198
2 -6 8 1.9793 0.0051
2 -6 9 2.9027 0.0017
2 -6 10 0.9908 -0.0051
2 -6 11 -1.9539 -0.0009
2 -6 12 -1.0204 0.0014
2 -6 13 -0.1126 -0.0047
2 -6 14 -0.8563 -0.0059
2 -6 15 0.7982 -0.0019
2 -6 16 -0.1464 0.0034
2 -5 0 -8.4073 -0.0411
2 -5 1 -4.9194 -0.0738
2 -5 2 -5.0009 0.0390
2 -5 3 2.2286 -0.0250
2 -5 4 -4.4108 -0.0352
2 -5 5 1.7891 -0.0064
2 -5 6 -4.1701 0.0118
2 -5 7 5.5329 -0.0107
2 -5 8 0.7626 0.0037
2 -5 9 1.1111 0.0042
2 -5 10 -0.3001 -0.0015
2 -5 11 -2.5299 -0.0070
2 -5 12 -1.5903 -0.0007
2 -5 13 -0.0062 -0.0018
2 -5 14 -1.2038 -0.0047
2 -5 15 0.5371 0.0003
2 -5 16 0.2492 0.0036
2 -5 17 -0.3498 -0.0007
2 -4 0 -6.7406 0.0536
2 -4 1 -1.8655 -0.0772
2 -4 2 -5.1095 0.0376
2 -4 3 4.0529 0.0085
2 -4 4 -6.4477 -0.0224
2 -4 5 -2.3034 -0.0022
2 -4 6 -8.6415 0.0264
2 -4 7 -0.7719 0.0074
2 -4 8 -0.7959 -0.0024
2 -4 9 0.0608 0.0064
2 -4 10 -1.4657 0.0052
2 -4 11 -2.9123 -0.0077
2 -4 12 -2.0630 -0.0022
2 -4 13 0.4317 0.0043
2 -4 14 -1.1640 -0.0018
2 -4 15 0.0723 0.0022
2 -4 16 -0.0437 0.0033
2 -4 17 -1.1991 -0.0044
2 -3 0 -1.1757 0.0956
2 -3 1 2.0753 -0.0162
2 -3 2 -6.1641 0.0011
2 -3 3 4.5332 0.0379
2 -3 4 -7.3186 0.0109
2 -3 5 -3.9782 0.0036
2 -3 6 -7.4878 0.0188
2 -3 7 -5.3538 0.0197
2 -3 8 -1.3759 -0.0096
2 -3 9 0.5614 0.0012
2 -3 10 -0.7527 0.0083
2 -3 11 -1.9501 -0.0021
2 -3 12 -2.4275 -0.0017
2 -3 13 0.2356 0.0073
2 -3 14 -1.0523 0.0034
2 -3 15 -0.2788 0.0016
2 -3 16 -0.0998 0.0037
2 -3 17 -0.6495 -0.0030
2 -2 0 11.6804 0.0548
2 -2 1 8.0857 0.0589
2 -2 2 -6.0183 -0.0408
2 -2 3 4.9490 0.0388
2 -2 4 -7.3680 0.0348
2 -2 5 -4.1408 0.0078
2 -2 7 -4.6118 0.0184
2 -2 8 -0.4487 -0.0066
2 -2 9 2.4233 -0.0072
2 -2 10 1.7731 0.0049
2 -2 11 0.6102 0.0055
2 -2 12 -1.6916 0.0009
2 -2 13 -0.0034 0.0042
2 -2 14 -0.6905 0.0060
2 -2 15 -0.2757 0.0004
2 -2 16 -0.0732 0.0016
2 -2 17 -0.1394 0.0029
2 -1 0 20.4303 -0.0170
2 -1 1 9.9566 0.0879
2 -1 2 -7.6326 -0.0489
2 -1 3 3.5869 0.0051
2 -1 4 -5.9601 0.0284
2 -1 5 -2.5010 0.0026
2 -1 6 -1.6570 -0.0247
2 -1 7 -0.9631 0.0027
2 -1 8 1.0759 0.0034
2 -1 9 3.9619 -0.0100
2 -1 10 3.9884 -0.0024
2 -1 11 2.7905 0.0100
2 -1 12 -0.3251 0.0010
2 -1 13 0.1142 -0.0029
2 -1 14 -0.2384 0.0020
2 -1 15 0.1432 -0.0012
2 -1 16 -0.2531 -0.0034
2 0 0 14.5120 -0.0638
2 0 1 3.2046 0.0453
2 0 2 -11.1273 -0.0172
2 0 3 -2.4820 -0.0349
2 0 4 -5.0163 0.0034
2 0 5 0.7203 -0.0017
2 0 6 -1.4538 -0.0274
2 0 7 1.6906 -0.0149
2 0 8 2.5473 0.0105
2 0 9 4.7460 -0.0050
2 0 10 5.3155 -0.0083
2 0 11 4.0007 0.0084
2 0 12 1.0384 -0.0006
2 0 13 0.2454 -0.0098
2 0 14 -0.2148 -0.0037
2 0 15 0.2607 -0.0010
2 0 16 -0.3976 -0.0032
2 1 0 3.3260 -0.0677
2 1 1 -4.3424 -0.0341
2 1 3 -7.3508 -0.0478
2 1 4 -6.3763 -0.0216
2 1 5 1.7882 0.0004
2 1 6 -1.0992 -0.0070
2 1 7 1.7386 -0.0200
2 1 8 2.5399 0.0105
2 1 9 4.1519 0.0045
2 1 10 5.2111 -0.0084
2 1 11 4.3061 -0.0011
2 1 12 1.9596 0.0009
2 1 13 0.1616 -0.0090
2 1 14 -0.3885 -0.0066
2 1 15 -0.1049 0.0003
2 1 16 0.1322 0.0028
2 2 0 -1.0906 -0.0279
2 2 1 -5.4792 -0.0793
2 2 3 -5.6963 -0.0227
2 2 4 -7.9768 -0.0314
2 2 5 -0.2260 0.0007
2 2 6 -1.1758 0.0178
2 2 7 0.3737 -0.0104
2 2 8 0.7658 0.0009
2 2 9 1.7955 0.0117
2 2 10 2.8395 -0.0027
2 2 11 2.8115 -0.0132
2 2 12 1.2168 0.0012
2 2 13 -0.5751 0.0027
2 2 14 -0.8633 -0.0044
2 2 15 -0.5929 -0.0006
2 2 16 1.0588 0.0019
2 3 0 0.6953 0.0334
2 3 1 -1.7782 -0.0557
2 3 2 -1.3246 0.0373
2 3 3 -1.8905 0.0210
2 3 4 -7.0900 -0.0160
2 3 5 -1.5235 0.0013
2 3 6 -0.9091 0.0296
2 3 7 -0.4546 0.0084
2 3 8 -0.9263 -0.0110
2 3 9 -0.5184 0.0107
2 3 10 0.1209 0.0079
2 3 11 0.7324 -0.0137
2 3 12 -0.4272 -0.0021
2 3 13 -1.2239 0.0130
2 3 14 -1.6524 0.0031
2 3 15 -1.0811 -0.0028
2 4 0 3.0347 0.0643
2 4 1 2.5942 0.0062
2 4 2 -0.2964 0.0028
2 4 3 0.2902 0.0449
2 4 4 -3.9570 0.0090
2 4 5 -0.8885 -0.0001
2 4 6 0.1153 0.0189
2 4 7 -0.7414 0.0186
2 4 8 -1.9964 -0.0148
2 4 9 -1.8047 -0.0009
2 4 10 -1.0009 0.0152
2 4 11 0.0320 -0.0017
2 4 12 -0.8384 -0.0032
2 4 13 -0.3604 0.0084
2 4 14 -1.6742 0.0083
2 5 0 4.3937 0.0398
2 5 1 5.8933 0.0585
2 5 2 3.1082 -0.0323
2 5 3 2.7291 0.0317
2 5 4 -0.6617 0.0238
2 5 5 -0.5719 -0.0053
2 5 6 0.3910 -0.0067
2 5 7 -1.0228 0.0123
2 5 8 -2.5365 -0.0067
2 5 9 -2.5067 -0.0136
2 5 10 -1.0750 0.0094
2 5 11 0.1170 0.0084
2 5 12 -0.5289 -0.0031
2 5 13 1.0900 -0.0015
2 6 0 5.7211 -0.0103
2 6 1 8.2608 0.0644
2 6 2 5.7178 -0.0342
2 6 3 5.4682 -0.0036
2 6 4 1.4230 0.0230
2 6 5 -0.8224 -0.0032
2 6 6 0.0437 -0.0238
2 6 7 -0.7013 0.0030
2 6 8 -1.5380 0.0082
2 6 9 -2.2476 -0.0115
2 6 10 -0.6810 -0.0030
2 6 11 0.1369 0.0145
2 6 12 -0.9668 -0.0076
2 7 0 5.1936 -0.0453
2 7 1 8.2020 0.0156
2 7 2 3.8779 -0.0119
2 7 3 5.0703 -0.0332
2 7 4 1.6193 0.0035
2 7 5 -1.0854 0.0018
2 7 6 -0.1092 -0.0237
2 7 7 -0.3059 -0.0070
2 7 8 0.1118 0.0134
2 7 9 -1.3457 -0.0030
2 7 10 -0.1750 -0.0130
2 7 11 0.3416 0.0162
2 8 0 1.9973 -0.0458
2 8 1 4.9804 -0.0378
2 8 2 0.5078 0.0120
2 8 3 1.7378 -0.0290
2 8 4 0.3616 -0.0169
2 8 5 -1.8594 -0.0015
2 8 6 -0.7433 -0.0084
2 8 7 -0.9340 -0.0158
2 8 8 0.4305 0.0074
2 8 9 -0.7796 -0.0020
2 9 0 -1.1694 -0.0166
2 9 1 1.0582 -0.0460
2 9 2 -0.5153 0.0290
2 9 3 -0.6285 0.0033
2 9 4 -0.7631 -0.0170
2 9 5 -2.4533 -0.0046
2 9 6 -1.5044 0.0167
2 9 7 -1.5398 -0.0040
2 10 0 -2.8846 0.0250
2 10 1 -1.9281 -0.0307
2 10 2 -0.5091 0.0241
2 10 3 -1.0452 0.0230
2 10 4 -1.1096 -0.0135
2 10 5 -2.0530 -0.0036
2 11 0 -2.8781 0.0620
2 11 1 -3.0590 -0.0226
3 -13 1 -0.9501 -0.0122
3 -13 2 -1.4640 0.0005
3 -13 3 -1.3674 0.0088
3 -12 0 -1.7894 0.0237
3 -12 1 -1.6584 0.0183
3 -12 2 -2.1218 -0.0106
3 -12 3 -2.2661 0.0269
3 -12 4 -2.0389 0.0025
3 -12 5 -0.5401 0.0087
3 -12 6 -0.5919 -0.0036
3 -12 7 -1.5574 0.0151
3 -12 8 -3.2173 -0.0018
3 -12 9 0.6227 -0.0023
3 -11 0 -1.4088 0.0082
3 -11 1 -2.3504 0.0543
3 -11 2 -2.3518 -0.0292
3 -11 3 -2.3436 0.0205
3 -11 4 -2.2886 0.0099
3 -11 5 -0.7875 0.0060
3 -11 6 -0.2983 -0.0112
3 -11 7 -0.2348 0.0078
3 -11 8 -2.5328 0.0015
3 -11 9 1.3318 -0.0024
3 -11 10 -0.5222 0.0005
3 -11 11 -0.2712 0.0115
3 -10 0 0.0229 -0.0273
3 -10 1 -2.3651 0.0520
3 -10 2 -1.8043 -0.0260
3 -10 3 -1.4544 -0.0063
3 -10 4 -0.6912 0.0102
3 -10 5 0.9042 -0.0030
3 -10 6 1.2798 -0.0154
3 -10 7 1.6522 -0.0091
3 -10 8 -0.8494 0.0061
3 -10 9 0.9367 -0.0006
3 -10 10 0.3824 -0.0054
3 -10 11 -0.5413 0.0067
3 -10 12 0.2614 0.0020
3 -9 0 0.3488 -0.0454
3 -9 1 -2.6371 0.0012
3 -9 2 -1.2159 -0.0009
3 -9 3 -0.8842 -0.0323
3 -9 4 1.4210 0.0006
3 -9 5 4.1649 -0.0115
3 -9 6 4.2531 -0.0115
3 -9 7 5.4500 -0.0184
3 -9 8 1.3900 0.0095
3 -9 9 0.6390 0.0007
3 -9 10 0.1199 -0.0034
3 -9 11 -1.1933 -0.0023
3 -9 12 1.1775 0.0030
3 -9 13 -0.9558 -0.0038
3 -9 14 -0.8214 -0.0081
3 -8 0 -0.5771 -0.0212
3 -8 1 -2.9825 -0.0563
3 -8 2 -0.6564 0.0267
3 -8 3 -0.6457 -0.0358
3 -8 4 1.6545 -0.0110
3 -8 5 5.9780 -0.0085
3 -8 6 4.7158 0.0039
3 -8 7 8.3511 -0.0106
3 -8 8 2.9777 0.0099
3 -8 9 1.5319 0.0024
3 -8 10 0.2638 0.0009
3 -8 11 -1.6211 -0.0093
3 -8 12 1.2067 0.0009
3 -8 13 0.2819 -0.0006
3 -8 14 -1.2706 -0.0063
3 -8 15 -0.0583 -0.0027
3 -7 0 -2.7827 0.0218
3 -7 1 -3.2543 -0.0709
3 -7 2 0.2422 0.0367
3 -7 3 0.6997 -0.0069
3 -7 4 0.5308 -0.0151
3 -7 5 5.9525 0.0002
3 -7 6 2.2711 0.0195
3 -7 7 7.2796 0.0054
3 -7 8 2.1619 0.0019
3 -7 9 0.9614 0.0051
3 -7 10 0.4356 0.0044
3 -7 11 -1.7933 -0.0079
3 -7 12 0.1183 -0.0028
3 -7 13 1.1911 0.0028
3 -7 14 -1.1111 -0.0042
3 -7 15 0.9538 0.0001
3 -6 0 -5.1026 0.0497
3 -6 1 -4.3642 -0.0257
3 -6 2 -0.3122 0.0168
3 -6 3 1.7309 0.0367
3 -6 4 -2.3602 -0.0053
3 -6 5 4.4610 0.0052
3 -6 6 -0.4859 0.0190
3 -6 7 4.8709 0.0168
3 -6 8 0.9625 -0.0093
3 -6 9 -1.2018 0.0030
3 -6 10 -0.4246 0.0056
3 -6 11 -2.1368 0.0006
3 -6 12 -1.1155 -0.0027
3 -6 13 1.3187 0.0049
3 -6 14 -0.5764 0.0016
3 -6 15 1.3740 -0.0016
3 -6 16 -0.2077 0.0019
3 -5 0 -3.6071 0.0454
3 -5 1 -3.9043 0.0450
3 -5 2 -2.4642 -0.0232
3 -5 3 1.4546 0.0529
3 -5 4 -7.7855 0.0125
3 -5 5 0.8137 0.0073
3 -5 6 -4.3956 0.0024
3 -5 7 2.5077 0.0166
3 -5 8 0.7817 -0.0097
3 -5 9 -2.2954 -0.0025
3 -5 10 -1.3594 0.0036
3 -5 11 -2.5535 0.0072
3 -5 12 -1.5738 0.0003
3 -5 13 0.9605 0.0037
3 -5 14 -0.5470 0.0057
3 -5 15 0.4447 -0.0013
3 -5 16 -0.5843 -0.0042
3 -4 0 0.9745 0.0078
3 -4 1 -0.2302 0.0796
3 -4 2 -4.3016 -0.0466
3 -4 3 1.7769 0.0214
3 -4 4 -11.9608 0.0224
3 -4 5 -2.4073 0.0057
3 -4 6 -7.7074 -0.0191
3 -4 7 -0.3481 0.0030
3 -4 8 0.5592 -0.0013
3 -4 9 -1.8520 -0.0056
3 -4 10 -1.2246 -0.0004
3 -4 11 -2.5752 0.0078
3 -4 12 -1.9241 0.0009
3 -4 13 0.7057 -0.0008
3 -4 14 -0.9808 0.0022
3 -4 15 -0.3025 -0.0009
3 -4 16 -0.7029 -0.0057
3 -3 0 4.2332 -0.0415
3 -3 1 3.4778 0.0468
3 -3 2 -5.9814 -0.0276
3 -3 3 3.1149 -0.0290
3 -3 4 -11.3487 0.0151
3 -3 5 -2.7429 0.0008
3 -3 6 -5.9592 -0.0281
3 -3 7 -1.3118 -0.0132
3 -3 8 1.3476 0.0072
3 -3 9 -0.2036 -0.0042
3 -3 10 0.1244 -0.0052
3 -3 11 -1.0079 0.0036
3 -3 12 -2.2810 -0.0000
3 -3 13 0.7009 -0.0070
3 -3 14 -0.9555 -0.0037
3 -3 15 -0.4662 -0.0022
3 -3 16 -0.1131 -0.0022
3 -2 0 3.6092 -0.0621
3 -2 1 4.5097 -0.0258
3 -2 2 -8.5571 0.0134
3 -2 3 4.6337 -0.0557
3 -2 4 -7.0181 -0.0061
3 -2 5 -1.3533 -0.0039
3 -2 6 -1.4092 -0.0136
3 -2 7 0.2181 -0.0175
3 -2 8 3.7485 0.0124
3 -2 9 2.4383 0.0025
3 -2 10 1.3576 -0.0077
3 -2 11 1.7741 -0.0039
3 -2 12 -1.7487 0.0019
3 -2 13 0.6060 -0.0097
3 -2 14 0.0499 -0.0067
3 -2 15 -0.7576 -0.0028
3 -2 16 -0.0307 0.0002
3 -1 0 -3.0255 -0.0321
3 -1 1 2.6698 -0.0791
3 -1 2 -11.9805 0.0387
3 -1 3 4.9055 -0.0371
3 -1 4 -2.8365 -0.0221
3 -1 5 0.6390 -0.0042
3 -1 6 0.9274 0.0137
3 -1 7 1.3153 -0.0105
3 -1 8 5.3332 0.0066
3 -1 9 4.9991 0.0099
3 -1 10 1.3734 -0.0045
3 -1 11 3.3351 -0.0100
3 -1 12 -0.7394 0.0026
3 -1 13 -0.1147 -0.0032
3 -1 14 0.9371 -0.0050
3 -1 15 -0.8597 -0.0010
3 -1 16 -0.5098 0.0006
3 0 0 -11.6840 0.0208
3 0 1 0.0884 -0.0725
3 0 2 -13.7598 0.0327
3 0 3 2.0885 0.0126
3 0 4 -2.6218 -0.0178
3 0 5 1.7233 0.0009
3 0 6 1.1788 0.0311
3 0 7 0.9360 0.0022
3 0 8 4.5015 -0.0088
3 0 9 6.3226 0.0096
3 0 10 1.2445 0.0033
3 0 11 3.1340 -0.0075
3 0 12 0.0118 -0.0014
3 0 13 -0.9690 0.0068
3 0 14 0.7285 0.0011
3 0 15 -0.2889 0.0012
3 1 0 -13.1437 0.0539
3 1 1 -0.5311 -0.0085
3 1 2 -11.3527 0.0046
3 1 3 -1.8966 0.0508
3 1 4 -5.2559 -0.0039
3 1 5 0.2453 0.0017
3 1 6 1.2194 0.0239
3 1 7 0.2746 0.0136
3 1 8 1.9547 -0.0158
3 1 9 5.3722 0.0001
3 1 10 1.4176 0.0096
3 1 11 2.1357 0.0006
3 1 12 0.2775 -0.0050
3 1 13 -1.3547 0.0092
3 1 14 0.0813 0.0065
3 1 15 0.3470 -0.0003
3 2 0 -7.6056 0.0497
3 2 1 0.3878 0.0663
3 2 2 -7.3650 -0.0219
3 2 3 -3.1042 0.0472
3 2 4 -5.5679 0.0094
3 2 5 -1.6171 -0.0027
3 2 6 1.0372 -0.0002
3 2 7 -0.2695 0.0156
3 2 8 -0.8577 -0.0072
3 2 9 2.3159 -0.0111
3 2 10 0.9050 0.0088
3 2 11 0.6346 0.0069
3 2 12 -0.2087 -0.0051
3 2 13 -1.7819 0.0031
3 2 14 -0.4407 0.0076
3 2 15 0.2133 -0.0014
3 3 0 -2.3870 0.0091
3 3 1 2.4026 0.0848
3 3 2 -4.5969 -0.0296
3 3 3 -1.2989 0.0065
3 3 4 -2.4594 0.0180
3 3 5 -1.2310 -0.0024
3 3 6 0.3683 -0.0222
3 3 7 -0.9904 0.0070
3 3 8 -2.6572 0.0057
3 3 9 -0.6643 -0.0139
3 3 10 0.1034 0.0011
3 3 11 -0.3248 0.0111
3 3 12 -0.6429 -0.0031
3 3 13 -1.9230 -0.0072
3 3 14 -0.8022 0.0040
3 4 0 1.2309 -0.0417
3 4 1 6.1871 0.0310
3 4 2 -1.1524 -0.0165
3 4 3 0.7965 -0.0374
3 4 4 0.0848 0.0113
3 4 5 -0.3313 -0.0007
3 4 6 -0.5483 -0.0297
3 4 7 -1.4677 -0.0069
3 4 8 -2.9299 0.0124
3 4 9 -1.7653 -0.0064
3 4 10 -0.1092 -0.0098
3 4 11 0.1453 0.0103
3 4 12 -0.1512 0.0029
3 4 13 -0.9578 -0.0168
3 5 0 5.0278 -0.0554
3 5 1 9.1122 -0.0358
3 5 2 2.9372 0.0095
3 5 3 1.5556 -0.0442
3 5 4 0.1362 -0.0028
3 5 5 -0.6324 -0.0002
3 5 6 -1.1618 -0.0155
3 5 7 -0.9564 -0.0143
3 5 8 -2.0165 0.0136
3 5 9 -1.2062 0.0065
3 5 10 -0.1248 -0.0146
3 5 11 0.9125 -0.0002
3 5 12 0.3467 0.0101
3 6 0 6.5257 -0.0245
3 6 1 8.0799 -0.0652
3 6 2 4.0359 0.0247
3 6 3 1.3825 -0.0147
3 6 4 -0.4526 -0.0099
3 6 5 -0.7615 0.0018
3 6 6 -0.9243 0.0089
3 6 7 0.0244 -0.0097
3 6 8 -0.8985 0.0060
3 6 9 -0.2753 0.0141
3 6 10 -0.3782 -0.0079
3 6 11 0.9462 -0.0076
3 7 0 3.8116 0.0188
3 7 1 4.6280 -0.0513
3 7 2 1.8247 0.0159
3 7 3 0.7698 0.0203
3 7 4 -0.8393 -0.0111
3 7 5 -0.6458 0.0007
3 7 6 -0.5407 0.0176
3 7 7 0.0641 -0.0003
3 7 8 -0.4468 -0.0095
3 7 9 0.0856 0.0040
3 8 0 0.0604 0.0479
3 8 1 1.8389 -0.0009
3 8 2 -0.3183 -0.0017
3 8 3 -0.2217 0.0397
3 8 4 -1.6808 -0.0016
3 8 5 -1.4104 -0.0029
3 8 6 -0.8553 0.0142
3 8 7 -0.6769 0.0126
3 8 8 -0.3297 -0.0060
3 9 0 -2.1099 0.0389
3 9 1 -0.1256 0.0464
3 9 2 -1.0705 -0.0188
3 9 3 -1.0867 0.0195
3 9 4 -2.4263 0.0125
3 9 5 -1.8537 -0.0096
3 10 0 -2.8606 -0.0038
3 10 1 -1.5174 0.0431
3 10 2 -1.0866 -0.0258
4 -13 1 -1.6437 0.0707
4 -13 2 -1.4388 0.0113
4 -13 3 -0.8780 -0.0066
4 -12 0 -2.4240 -0.0376
4 -12 1 -1.6151 0.0075
4 -12 2 -2.8725 0.0096
4 -12 3 -0.3393 -0.0307
4 -12 4 -2.0483 0.0014
4 -12 5 0.1172 -0.0131
4 -12 6 -0.8527 -0.0020
4 -12 7 -2.7254 -0.0110
4 -12 8 -0.9621 0.0054
4 -11 0 -2.7228 -0.0257
4 -11 1 -0.7041 -0.0491
4 -11 2 -3.4433 0.0145
4 -11 3 0.3367 -0.0367
4 -11 4 -0.4573 0.0035
4 -11 5 1.3151 -0.0120
4 -11 6 1.2390 0.0020
4 -11 7 -0.2873 -0.0138
4 -11 8 -0.1971 0.0070
4 -11 9 1.0143 -0.0025
4 -11 10 -0.5755 0.0019
4 -10 0 -1.9386 0.0028
4 -10 1 0.5050 -0.0619
4 -10 2 -2.5584 0.0220
4 -10 3 1.5807 -0.0109
4 -10 4 1.8102 -0.0014
4 -10 5 3.4077 -0.0007
4 -10 6 3.5199 0.0125
4 -10 7 1.6728 -0.0038
4 -10 8 0.2947 0.0015
4 -10 9 0.7769 0.0045
4 -10 10 -0.1058 -0.0049
4 -10 11 -0.1293 -0.0131
4 -10 12 -0.3249 0.0008
4 -9 0 -2.0862 0.0326
4 -9 1 0.4013 -0.0272
4 -9 2 -1.6391 0.0093
4 -9 3 2.3805 0.0282
4 -9 4 3.6838 -0.0066
4 -9 5 5.4732 0.0096
4 -9 6 5.3948 0.0164
4 -9 7 3.5227 0.0110
4 -9 8 0.4723 -0.0094
4 -9 9 -0.3771 0.0048
4 -9 10 0.0301 -0.0050
4 -9 11 -0.3053 -0.0045
4 -9 12 0.5899 -0.0052
4 -9 13 -0.4708 0.0069
4 -8 0 -2.3289 0.0365
4 -8 1 -0.0833 0.0329
4 -8 2 -1.0694 -0.0153
4 -8 3 1.5057 0.0491
4 -8 4 3.1840 -0.0022
4 -8 5 5.5581 0.0153
4 -8 6 4.6757 0.0070
4 -8 7 4.8063 0.0154
4 -8 8 0.7470 -0.0128
4 -8 9 -0.7687 -0.0034
4 -8 10 0.3538 -0.0023
4 -8 11 -1.1155 0.0058
4 -8 12 1.0414 -0.0037
4 -8 13 -0.8895 0.0052
4 -8 14 -0.4689 0.0086
4 -7 0 -2.1528 0.0136
4 -7 1 0.1341 0.0747
4 -7 2 0.0959 -0.0252
4 -7 3 0.1949 0.0309
4 -7 4 0.7138 0.0056
4 -7 5 3.4604 0.0080
4 -7 6 1.5275 -0.0098
4 -7 7 3.4912 0.0064
4 -7 8 0.1018 -0.0054
4 -7 9 -1.7831 -0.0073
4 -7 10 0.3020 0.0002
4 -7 11 -1.8134 0.0088
4 -7 12 0.8827 -0.0001
4 -7 13 -0.0394 -0.0013
4 -7 14 -0.6412 0.0045
4 -7 15 0.7716 0.0019
4 -6 0 -2.7778 -0.0181
4 -6 1 -0.8429 0.0592
4 -6 2 0.1065 -0.0146
4 -6 3 -1.2959 -0.0168
4 -6 4 -2.5118 0.0104
4 -6 5 0.8331 -0.0063
4 -6 6 -0.6491 -0.0212
4 -6 7 1.2080 -0.0065
4 -6 8 -0.1581 0.0050
4 -6 9 -3.3446 -0.0050
4 -6 10 -0.7468 -0.0006
4 -6 11 -2.0801 0.0050
4 -6 12 0.1063 0.0026
4 -6 13 1.0778 -0.0055
4 -6 14 -0.9620 -0.0019
4 -6 15 1.3629 -0.0006
4 -5 0 -2.2553 -0.0446
4 -5 1 -2.4738 -0.0101
4 -5 2 -2.2524 0.0042
4 -5 3 -3.0149 -0.0554
4 -5 4 -6.5553 0.0084
4 -5 5 -1.4443 -0.0098
4 -5 6 -1.4180 -0.0155
4 -5 7 -0.1084 -0.0148
4 -5 8 0.9132 0.0125
4 -5 9 -3.2498 0.0004
4 -5 10 -1.4941 -0.0039
4 -5 11 -1.7922 -0.0027
4 -5 12 -0.6937 0.0044
4 -5 13 1.2909 -0.0060
4 -5 14 -1.1647 -0.0039
4 -5 15 0.6844 -0.0018
4 -4 0 0.1432 -0.0415
4 -4 1 -2.2379 -0.0759
4 -4 2 -4.8115 0.0220
4 -4 3 -2.5262 -0.0472
4 -4 4 -9.2841 -0.0039
4 -4 5 -2.2463 -0.0035
4 -4 6 -1.6566 0.0038
4 -4 7 -0.5892 -0.0143
4 -4 8 1.7926 0.0107
4 -4 9 -1.8113 0.0070
4 -4 10 -1.1486 -0.0042
4 -4 11 -1.0829 -0.0088
4 -4 12 -1.0930 0.0021
4 -4 13 1.0644 -0.0017
4 -4 14 -0.9636 -0.0042
4 -4 15 0.3261 -0.0018
4 -3 0 0.8078 0.0040
4 -3 1 -0.6955 -0.0785
4 -3 2 -5.5314 0.0259
4 -3 3 0.8695 0.0030
4 -3 4 -7.8353 -0.0168
4 -3 5 -1.1123 0.0018
4 -3 6 -0.3209 0.0214
4 -3 7 0.4599 -0.0019
4 -3 8 2.9705 -0.0011
4 -3 9 0.1240 0.0079
4 -3 10 -0.1997 -0.0007
4 -3 11 -0.0420 -0.0074
4 -3 12 -1.2459 -0.0029
4 -3 13 0.9914 0.0057
4 -3 14 -0.8736 -0.0010
4 -3 15 0.0678 -0.0016
4 -2 0 -2.1684 0.0537
4 -2 1 0.2786 -0.0161
4 -2 2 -4.7481 0.0060
4 -2 3 4.1603 0.0494
4 -2 4 -3.7176 -0.0148
4 -2 5 0.0943 0.0032
4 -2 6 1.8388 0.0231
4 -2 7 2.5058 0.0141
4 -2 8 5.1374 -0.0122
4 -2 9 2.7682 0.0002
4 -2 10 0.6530 0.0043
4 -2 11 0.9246 -0.0011
4 -2 12 -1.1949 -0.0039
4 -2 13 0.6841 0.0097
4 -2 14 -0.6943 0.0042
4 -2 15 -0.8483 -0.0011
4 -1 0 -7.3612 0.0556
4 -1 1 -0.3492 0.0591
4 -1 2 -5.2937 -0.0195
4 -1 3 4.2321 0.0538
4 -1 4 -1.2359 0.0032
4 -1 5 -0.0479 0.0008
4 -1 6 2.6541 0.0058
4 -1 7 3.0686 0.0175
4 -1 8 5.6206 -0.0137
4 -1 9 4.8121 -0.0089
4 -1 10 0.9577 0.0094
4 -1 11 1.0361 0.0053
4 -1 12 -0.8601 -0.0017
4 -1 13 -0.1191 0.0064
4 -1 14 -0.0020 0.0061
4 -1 15 -1.3409 -0.0010
4 0 0 -11.3898 0.0081
4 0 1 -1.8779 0.0870
4 0 2 -8.3122 -0.0248
4 0 3 1.1771 0.0152
4 0 4 -1.3044 0.0174
4 0 5 -0.8438 -0.0044
4 0 6 2.2591 -0.0174
4 0 7 2.0134 0.0088
4 0 8 2.9941 -0.0040
4 0 9 4.5747 -0.0106
4 0 10 0.9434 0.0077
4 0 11 0.4793 0.0098
4 0 12 -0.5787 -0.0012
4 0 13 -0.6991 -0.0030
4 0 14 0.5236 0.0021
4 1 0 -11.0849 -0.0400
4 1 1 -2.0960 0.0461
4 1 2 -9.8498 -0.0111
4 1 3 -1.7713 -0.0346
4 1 4 -0.8380 0.0118
4 1 5 -1.2033 -0.0074
4 1 6 1.3178 -0.0275
4 1 7 1.0142 -0.0024
4 1 8 -0.1627 0.0106
4 1 9 2.6349 -0.0041
4 1 10 0.8333 -0.0039
4 1 11 0.0364 0.0081
4 1 12 -1.0211 0.0012
4 1 13 -0.9987 -0.0110
4 1 14 0.3383 -0.0054
4 2 0 -7.0258 -0.0525
4 2 1 -0.1333 -0.0300
4 2 2 -6.9359 0.0054
4 2 3 -2.3413 -0.0521
4 2 4 0.9443 -0.0009
4 2 5 -0.9711 -0.0018
4 2 6 -0.6772 -0.0156
4 2 7 -0.1415 -0.0128
4 2 8 -1.7209 0.0162
4 2 9 0.6566 0.0050
4 2 10 0.3970 -0.0133
4 2 11 -0.0615 -0.0015
4 2 12 -1.5123 0.0077
4 2 13 -1.6425 -0.0081
4 2 14 0.0427 -0.0093
4 3 0 -1.8094 -0.0311
4 3 1 3.1168 -0.0824
4 3 2 -2.1608 0.0145
4 3 3 -1.3907 -0.0261
4 3 4 1.3418 -0.0072
4 3 5 -0.5186 0.0068
4 3 6 -2.5585 0.0068
4 3 7 -1.7921 -0.0159
4 3 8 -2.1241 0.0066
4 3 9 -0.5238 0.0104
4 3 10 -0.1163 -0.0102
4 3 11 -0.0079 -0.0094
4 3 12 -0.4527 0.0106
4 3 13 -1.8959 0.0006
4 4 0 2.8134 0.0144
4 4 1 5.7381 -0.0685
4 4 2 0.7767 0.0153
4 4 3 -0.6056 0.0179
4 4 4 -0.1638 -0.0093
4 4 5 -0.0964 0.0077
4 4 6 -2.0404 0.0195
4 4 7 -2.0577 -0.0056
4 4 8 -1.8295 -0.0063
4 4 9 -0.7011 0.0095
4 4 10 0.0951 -0.0028
4 4 11 -0.1089 -0.0110
4 4 12 1.4202 0.0069
4 5 0 5.4081 0.0558
4 5 1 5.8280 -0.0023
4 5 2 1.3523 0.0050
4 5 3 -0.5094 0.0448
4 5 4 -1.2565 -0.0034
4 5 5 0.1299 0.0034
4 5 6 -0.1818 0.0182
4 5 7 -0.2938 0.0083
4 5 8 -0.9464 -0.0081
4 5 9 -0.1726 0.0055
4 5 10 1.0478 0.0038
4 5 11 -0.3733 -0.0110
4 6 0 5.0333 0.0475
4 6 1 3.9425 0.0527
4 6 2 1.0022 -0.0142
4 6 3 -0.8551 0.0299
4 6 4 -1.3468 0.0076
4 6 5 -0.0653 -0.0025
4 6 6 0.0516 0.0056
4 6 7 1.1269 0.0087
4 6 8 -0.4151 -0.0041
4 6 9 0.1028 -0.0012
4 7 0 2.3438 -0.0001
4 7 1 1.9923 0.0605
4 7 2 0.3531 -0.0169
4 7 3 -1.6133 -0.0070
4 7 4 -1.8167 0.0123
4 7 5 -0.8197 -0.0035
4 7 6 -1.1887 -0.0116
4 7 7 0.8713 0.0019
4 7 8 -0.5559 -0.0016
4 8 0 -0.6826 -0.0369
4 8 1 0.4787 0.0297
4 8 2 -0.5163 -0.0014
4 8 3 -2.3310 -0.0280
4 8 4 -2.3488 0.0081
4 8 5 -1.4358 0.0114
4 9 0 -2.2425 -0.0544
4 9 1 -0.5696 -0.0214
4 9 2 -0.9566 -0.0037
4 9 3 -2.0169 -0.0376
5 -12 0 -1.9849 0.0218
5 -12 1 -1.2471 -0.0360
5 -12 2 -1.4610 0.0004
5 -12 3 0.9824 0.0195
5 -12 4 -0.5026 -0.0067
5 -12 5 -0.5572 0.0065
5 -11 0 -1.9886 0.0294
5 -11 1 -0.1953 0.0207
5 -11 2 -1.7255 -0.0089
5 -11 3 2.3745 0.0405
5 -11 4 2.3711 -0.0015
5 -11 5 2.4890 0.0145
5 -11 6 1.0043 -0.0024
5 -11 7 1.4597 0.0099
5 -11 8 -0.3637 -0.0154
5 -11 9 0.9591 0.0048
5 -10 0 -1.7490 0.0209
5 -10 1 1.8643 0.0679
5 -10 2 -0.9466 -0.0132
5 -10 3 3.0595 0.0254
5 -10 4 3.9030 -0.0018
5 -10 5 4.6777 0.0071
5 -10 6 2.2184 -0.0042
5 -10 7 2.2374 0.0072
5 -10 8 -0.7854 -0.0057
5 -10 9 0.8167 0.0007
5 -10 10 -0.6714 0.0057
5 -10 11 0.4207 0.0032
5 -9 0 -2.6964 -0.0124
5 -9 1 2.6440 0.0585
5 -9 2 -0.2209 -0.0093
5 -9 3 3.2372 -0.0117
5 -9 4 4.0795 0.0029
5 -9 5 5.0275 -0.0088
5 -9 6 2.8896 -0.0090
5 -9 7 1.7951 -0.0034
5 -9 8 -1.2434 0.0011
5 -9 9 -0.0048 -0.0045
5 -9 10 -0.6405 0.0064
5 -9 11 0.0757 0.0074
5 -9 12 -0.6678 0.0043
5 -8 0 -3.7615 -0.0458
5 -8 1 1.7438 -0.0004
5 -8 2 -0.8710 0.0041
5 -8 3 1.9751 -0.0421
5 -8 4 2.7108 0.0066
5 -8 5 3.7584 -0.0149
5 -8 6 2.4846 -0.0107
5 -8 7 1.3795 -0.0138
5 -8 8 -1.4950 0.0103
5 -8 9 -0.6903 -0.0024
5 -8 10 -0.3331 0.0006
5 -8 11 -0.3760 0.0035
5 -8 12 -0.3876 0.0078
5 -8 13 -0.8651 -0.0053
5 -7 0 -3.5310 -0.0384
5 -7 1 0.8150 -0.0612
5 -7 2 -2.1612 0.0152
5 -7 3 -0.6747 -0.0413
5 -7 4 -0.0534 -0.0004
5 -7 5 1.0699 -0.0071
5 -7 6 0.7411 -0.0017
5 -7 7 0.5549 -0.0155
5 -7 8 -2.0653 0.0131
5 -7 9 -1.8170 0.0042
5 -7 10 -0.4082 -0.0042
5 -7 11 -0.5390 -0.0060
5 -7 12 0.0798 0.0055
5 -7 13 -0.4621 -0.0006
5 -6 0 -3.0544 0.0047
5 -6 1 0.0017 -0.0766
5 -6 2 -2.8865 0.0127
5 -6 3 -3.3618 -0.0065
5 -6 4 -2.0094 -0.0082
5 -6 5 -1.3104 0.0078
5 -6 6 -0.0416 0.0113
5 -6 7 0.1609 -0.0056
5 -6 8 -1.7855 0.0022
5 -6 9 -2.5921 0.0062
5 -6 10 -1.0507 -0.0044
5 -6 11 -0.7027 -0.0082
5 -6 12 0.0677 -0.0015
5 -6 13 0.1733 0.0089
5 -6 14 -1.0417 -0.0014
5 -5 0 -2.6826 0.0392
5 -5 1 -1.1566 -0.0320
5 -5 2 -2.7407 0.0011
5 -5 3 -4.6808 0.0358
5 -5 4 -2.4845 -0.0077
5 -5 5 -2.2969 0.0154
5 -5 6 0.4435 0.0161
5 -5 7 0.5552 0.0086
5 -5 8 -0.2270 -0.0111
5 -5 9 -1.7352 0.0029
5 -5 10 -1.0268 0.0011
5 -5 11 -0.6048 -0.0026
5 -5 12 -0.1959 -0.0043
5 -5 13 0.6803 0.0110
5 -5 14 -1.3988 0.0057
5 -4 0 -1.9389 0.0445
5 -4 1 -1.6956 0.0447
5 -4 2 -2.0693 -0.0087
5 -4 3 -3.2714 0.0495
5 -4 4 -2.4232 -0.0013
5 -4 5 -2.0870 0.0055
5 -4 6 0.6856 0.0081
5 -4 7 0.7012 0.0164
5 -4 8 1.1964 -0.0138
5 -4 9 -0.3803 -0.0028
5 -4 10 -0.3421 0.0091
5 -4 11 -0.2631 0.0041
5 -4 12 -0.1274 -0.0018
5 -4 13 0.7194 0.0045
5 -4 14 -0.6262 0.0090
5 -3 0 -1.8801 0.0199
5 -3 1 -0.9945 0.0903
5 -3 2 -1.6880 -0.0146
5 -3 3 -0.0114 0.0200
5 -3 4 -1.6804 0.0076
5 -3 5 -0.7192 -0.0095
5 -3 6 1.8872 -0.0069
5 -3 7 1.5386 0.0129
5 -3 8 2.8901 -0.0060
5 -3 9 0.7340 -0.0080
5 -3 10 0.1280 0.0093
5 -3 11 -0.3220 0.0102
5 -3 12 -0.1725 0.0016
5 -3 13 0.4777 -0.0031
5 -3 14 -0.1965 0.0064
5 -2 0 -3.6613 -0.0257
5 -2 1 -0.6874 0.0601
5 -2 2 -2.3654 -0.0137
5 -2 3 1.6848 -0.0288
5 -2 4 -0.4187 0.0110
5 -2 5 0.6722 -0.0114
5 -2 6 4.1740 -0.0190
5 -2 7 3.2650 -0.0001
5 -2 8 4.9091 0.0055
5 -2 9 1.9567 -0.0069
5 -2 10 0.3832 -0.0005
5 -2 11 -0.6174 0.0111
5 -2 12 -0.8844 0.0035
5 -2 13 0.1789 -0.0088
5 -2 14 -0.2419 -0.0011
5 -1 0 -6.3633 -0.0552
5 -1 1 -2.2620 -0.0186
5 -1 2 -4.0437 0.0007
5 -1 3 0.6189 -0.0517
5 -1 4 0.2303 0.0036
5 -1 5 0.4099 -0.0019
5 -1 6 4.1929 -0.0172
5 -1 7 2.9566 -0.0138
5 -1 8 4.6464 0.0136
5 -1 9 2.4489 0.0011
5 -1 10 0.5182 -0.0097
5 -1 11 -0.4204 0.0029
5 -1 12 -1.3365 0.0041
5 -1 13 -0.3895 -0.0099
5 0 0 -7.4510 -0.0351
5 0 1 -3.6066 -0.0784
5 0 2 -4.9621 0.0172
5 0 3 -0.5994 -0.0310
5 0 4 0.5796 -0.0081
5 0 5 -0.9367 0.0071
5 0 6 1.4431 -0.0001
5 0 7 0.2456 -0.0152
5 0 8 1.8363 0.0125
5 0 9 1.8135 0.0080
5 0 10 0.2516 -0.0120
5 0 11 -0.1776 -0.0074
5 0 12 -0.9088 0.0039
5 0 13 -0.9648 -0.0030
5 1 0 -5.7661 0.0155
5 1 1 -2.4721 -0.0752
5 1 2 -3.5557 0.0167
5 1 3 -0.6759 0.0127
5 1 4 1.3352 -0.0114
5 1 5 -1.8841 0.0095
5 1 6 -0.9534 0.0164
5 1 7 -1.4390 -0.0055
5 1 8 -0.4072 0.0017
5 1 9 1.2054 0.0089
5 1 10 -0.3328 -0.0078
5 1 11 -0.6886 -0.0118
5 1 12 -0.7840 0.0036
5 1 13 -1.1791 0.0096
5 2 0 -2.4128 0.0453
5 2 1 -0.3146 -0.0159
5 2 2 -1.0710 0.0023
5 2 3 -1.0740 0.0451
5 2 4 1.4589 -0.0010
5 2 5 -2.2347 0.0057
5 2 6 -2.0580 0.0188
5 2 7 -1.2168 0.0036
5 2 8 -1.0832 -0.0101
5 2 9 1.0895 0.0062
5 2 10 -0.5641 0.0054
5 2 11 -0.9587 -0.0097
5 2 12 -0.8479 0.0005
5 3 0 1.0448 0.0332
5 3 1 1.1917 0.0517
5 3 2 0.3870 -0.0105
5 3 3 -1.5800 0.0376
5 3 4 0.6724 0.0100
5 3 5 -1.6868 -0.0032
5 3 6 -2.3501 0.0082
5 3 7 -0.9381 0.0084
5 3 8 -1.5805 -0.0125
5 3 9 0.8841 0.0000
5 3 10 0.0422 0.0194
5 3 11 -0.0917 -0.0020
5 4 0 3.0934 0.0023
5 4 1 2.0556 0.0774
5 4 2 0.2783 -0.0126
5 4 3 -1.1325 -0.0014
5 4 4 0.2374 0.0095
5 4 5 -0.2768 -0.0075
5 4 6 -1.2105 -0.0082
5 4 7 -0.5274 0.0087
5 4 8 -1.6087 -0.0058
5 4 9 0.5116 -0.0076
5 4 10 1.1115 0.0126
5 5 0 3.2564 -0.0289
5 5 1 2.1474 0.0428
5 5 2 -0.6018 -0.0086
5 5 3 -1.0453 -0.0325
5 5 4 0.0714 0.0026
5 5 5 0.3797 0.0029
5 5 6 0.3341 -0.0165
5 5 7 0.4341 0.0013
5 5 8 -0.3681 0.0017
5 5 9 0.1002 -0.0042
5 6 0 2.3247 -0.0464
5 6 1 1.2715 -0.0208
5 6 2 -1.2033 -0.0039
5 6 3 -2.1624 -0.0372
5 6 4 -0.8710 -0.0070
5 6 5 -0.1795 0.0098
5 6 6 0.3543 -0.0082
5 6 7 0.5593 -0.0115
5 7 0 0.8479 -0.0207
5 7 1 -0.0777 -0.0520
5 7 2 -1.3268 0.0105
5 7 3 -2.7781 -0.0179
5 7 4 -2.1416 -0.0105
5 7 5 -0.5659 -0.0006
5 8 0 -0.3356 0.0266
5 8 1 -0.7831 -0.0385
5 8 2 -1.1189 0.0219
5 8 3 -1.6717 0.0106
6 -12 0 -1.0557 -0.0127
6 -12 1 -0.4667 0.0482
6 -12 2 -0.2118 -0.0067
6 -12 3 2.3410 0.0008
6 -12 4 -1.1358 0.0116
6 -12 5 0.8287 -0.0061
6 -11 0 -0.8800 -0.0247
6 -11 1 0.4296 0.0111
6 -11 2 0.0716 -0.0035
6 -11 3 4.5598 -0.0340
6 -11 4 1.4214 0.0015
6 -11 5 3.2197 -0.0101
6 -11 6 0.7167 0.0031
6 -11 7 1.1535 -0.0035
6 -11 8 -0.3708 0.0141
6 -10 0 -0.6055 -0.0265
6 -10 1 1.7728 -0.0448
6 -10 2 -0.1393 0.0027
6 -10 3 4.6506 -0.0384
6 -10 4 2.4920 -0.0072
6 -10 5 4.0221 -0.0084
6 -10 6 0.9496 0.0061
6 -10 7 1.0979 -0.0054
6 -10 8 -1.0256 0.0129
6 -10 9 0.0100 0.0040
6 -10 10 -0.6955 0.0023
6 -9 0 -1.0147 -0.0059
6 -9 1 2.5026 -0.0709
6 -9 2 -0.2432 0.0076
6 -9 3 3.3575 -0.0075
6 -9 4 2.8285 -0.0065
6 -9 5 2.9951 0.0030
6 -9 6 0.4155 0.0068
6 -9 7 0.4164 -0.0010
6 -9 8 -2.0021 0.0065
6 -9 9 0.4124 0.0028
6 -9 10 -1.2523 -0.0086
6 -9 11 0.5553 -0.0049
6 -8 0 -2.3072 0.0271
6 -8 1 1.4686 -0.0406
6 -8 2 -0.7947 0.0050
6 -8 3 0.9108 0.0290
6 -8 4 2.3148 -0.0044
6 -8 5 1.7798 0.0124
6 -8 6 -0.6211 0.0072
6 -8 7 0.1606 0.0075
6 -8 8 -2.9770 -0.0029
6 -8 9 0.6526 0.0067
6 -8 10 -0.9378 -0.0061
6 -8 11 0.8341 -0.0064
6 -8 12 -0.7635 -0.0053
6 -7 0 -3.3074 0.0450
6 -7 1 -0.5792 0.0267
6 -7 2 -2.3096 -0.0042
6 -7 3 -2.0674 0.0426
6 -7 4 -0.0438 0.0005
6 -7 5 1.0035 0.0086
6 -7 6 -1.6439 0.0058
6 -7 7 0.2080 0.0117
6 -7 8 -3.3516 -0.0111
6 -7 9 -0.1329 0.0021
6 -7 10 -1.0576 0.0048
6 -7 11 1.1426 -0.0032
6 -7 12 -0.7207 -0.0034
6 -6 0 -3.1319 0.0217
6 -6 1 -1.5566 0.0749
6 -6 2 -3.2777 -0.0114
6 -6 3 -3.4317 0.0217
6 -6 4 -2.1487 0.0076
6 -6 5 0.7946 -0.0038
6 -6 6 -1.1001 -0.0014
6 -6 7 0.5202 0.0077
6 -6 8 -2.3458 -0.0093
6 -6 9 -0.7822 -0.0055
6 -6 10 -1.7322 0.0101
6 -6 11 0.7497 0.0056
6 -6 12 -0.4491 -0.0023
6 -6 13 -1.2196 -0.0023
6 -5 0 -2.1481 -0.0230
6 -5 1 -1.2336 0.0624
6 -5 2 -2.5015 -0.0082
6 -5 3 -2.8047 -0.0186
6 -5 4 -2.4712 0.0062
6 -5 5 0.4427 -0.0122
6 -5 6 0.2862 -0.0112
6 -5 7 1.0698 -0.0013
6 -5 8 -0.4925 0.0015
6 -5 9 -0.2563 -0.0061
6 -5 10 -1.5095 0.0039
6 -5 11 0.1518 0.0102
6 -5 12 -0.1726 -0.0000
6 -5 13 -0.6859 -0.0075
6 -4 0 -1.0674 -0.0402
6 -4 1 -0.8052 0.0011
6 -4 2 -0.8903 0.0033
6 -4 3 -1.1790 -0.0431
6 -4 4 -1.8166 -0.0021
6 -4 5 0.2020 -0.0077
6 -4 6 1.0596 -0.0124
6 -4 7 1.5904 -0.0090
6 -4 8 1.1567 0.0116
6 -4 9 0.5840 -0.0013
6 -4 10 -0.5407 -0.0061
6 -4 11 0.1378 0.0034
6 -4 12 0.2999 0.0037
6 -4 13 -0.1150 -0.0078
6 -3 0 -0.9750 -0.0240
6 -3 1 -0.8721 -0.0629
6 -3 2 -0.0699 0.0110
6 -3 3 0.8665 -0.0322
6 -3 4 -0.3339 -0.0063
6 -3 5 1.3640 0.0056
6 -3 6 2.4343 -0.0016
6 -3 7 2.2954 -0.0114
6 -3 8 2.4476 0.0126
6 -3 9 0.9911 0.0041
6 -3 10 -0.1080 -0.0112
6 -3 11 -0.0308 -0.0074
6 -3 12 0.8623 0.0059
6 -2 0 -2.6754 0.0025
6 -2 1 -1.7156 -0.0797
6 -2 2 -0.7327 0.0110
6 -2 3 1.7411 0.0058
6 -2 4 1.2885 -0.0055
6 -2 5 2.1614 0.0128
6 -2 6 3.7541 0.0101
6 -2 7 2.4965 -0.0070
6 -2 8 2.9238 0.0034
6 -2 9 0.8555 0.0088
6 -2 10 -0.2994 -0.0088
6 -2 11 -0.9457 -0.0131
6 -2 12 0.2715 0.0035
6 -1 0 -4.4443 0.0291
6 -1 1 -2.5861 -0.0317
6 -1 2 -1.7393 0.0057
6 -1 3 0.4646 0.0425
6 -1 4 1.2007 -0.0005
6 -1 5 0.3251 0.0068
6 -1 6 2.1665 0.0139
6 -1 7 1.1344 0.0017
6 -1 8 2.3954 -0.0086
6 -1 9 0.4644 0.0089
6 -1 10 -0.3590 0.0016
6 -1 11 -1.3653 -0.0106
6 -1 12 -0.9285 -0.0012
6 0 0 -4.0702 0.0395
6 0 1 -1.9547 0.0406
6 0 2 -1.4511 -0.0060
6 0 3 -0.9779 0.0433
6 0 4 -0.2449 0.0072
6 0 5 -2.0005 -0.0052
6 0 6 -0.6198 0.0087
6 0 7 -0.6522 0.0084
6 0 8 1.7125 -0.0142
6 0 9 0.2982 0.0005
6 0 10 -0.3328 0.0132
6 0 11 -0.9693 -0.0010
6 0 12 -0.9065 -0.0065
6 1 0 -2.4350 0.0167
6 1 1 -0.5888 0.0765
6 1 2 -0.3691 -0.0144
6 1 3 -1.2040 0.0062
6 1 4 -0.9041 0.0100
6 1 5 -2.6091 -0.0110
6 1 6 -1.0419 -0.0047
6 1 7 -1.0821 0.0073
6 1 8 1.1182 -0.0099
6 1 9 0.1815 -0.0089
6 1 10 -0.5151 0.0136
6 1 11 -0.9465 0.0082
6 2 0 -0.7085 -0.0228
6 2 1 -0.0199 0.0512
6 2 2 0.4149 -0.0091
6 2 3 -1.2201 -0.0327
6 2 4 -0.1141 0.0024
6 2 5 -2.5368 -0.0028
6 2 6 -0.4554 -0.0142
6 2 7 -0.5907 0.0010
6 2 8 0.3971 0.0011
6 2 9 0.1695 -0.0085
6 2 10 -0.0880 0.0044
6 3 0 1.1254 -0.0390
6 3 1 0.1465 -0.0114
6 3 2 1.1065 0.0005
6 3 3 -1.3112 -0.0452
6 3 4 1.0091 -0.0117
6 3 5 -1.9857 0.0089
6 3 6 -0.9885 -0.0079
6 3 7 -0.1467 -0.0037
6 3 8 -0.0718 0.0093
6 3 9 0.7019 -0.0020
6 4 0 1.7839 -0.0163
6 4 1 -0.2009 -0.0570
6 4 2 0.9962 0.0079
6 4 3 -1.2313 -0.0253
6 4 4 1.0786 -0.0170
6 4 5 -0.4556 0.0087
6 4 6 -1.2890 0.0039
6 4 7 0.6052 -0.0064
6 4 8 -0.0929 0.0046
6 5 0 1.0097 0.0132
6 5 1 -1.4171 -0.0525
6 5 2 -0.4712 0.0128
6 5 3 -1.4877 0.0134
6 5 4 0.1291 -0.0055
6 5 5 0.6035 0.0010
6 5 6 -0.7794 0.0095
6 5 7 1.2960 -0.0043
6 6 0 0.5743 0.0248
6 6 1 -2.1532 -0.0130
6 6 2 -1.4564 0.0060
6 6 3 -1.8405 0.0327
6 6 4 -0.5442 0.0052
6 6 5 0.4310 -0.0090
6 7 0 0.7567 0.0355
6 7 1 -1.6303 0.0304
6 7 2 -0.9328 -0.0041
7 -12 0 0.2988 -0.0012
7 -12 1 0.6342 -0.0609
7 -12 2 0.5790 0.0003
7 -11 0 0.1918 0.0164
7 -11 1 1.4225 -0.0389
7 -11 2 1.4515 0.0074
7 -11 3 2.2429 0.0170
7 -11 4 2.3186 -0.0035
7 -11 5 1.5122 0.0031
7 -11 6 0.8625 0.0049
7 -10 0 -0.4433 0.0191
7 -10 1 1.2728 0.0111
7 -10 2 0.8582 0.0069
7 -10 3 2.5418 0.0417
7 -10 4 2.5610 0.0038
7 -10 5 1.4629 0.0018
7 -10 6 0.4605 -0.0043
7 -10 7 -0.4079 0.0020
7 -10 8 -0.5197 -0.0112
7 -9 0 -1.0241 0.0057
7 -9 1 0.9922 0.0552
7 -9 2 -0.4943 -0.0036
7 -9 3 1.8694 0.0286
7 -9 4 2.1284 0.0119
7 -9 5 0.3821 -0.0003
7 -9 6 -0.2935 -0.0048
7 -9 7 -1.2604 0.0013
7 -9 8 -0.9198 -0.0053
7 -9 9 0.6293 -0.0091
7 -8 0 -1.9919 -0.0108
7 -8 1 0.0827 0.0606
7 -8 2 -1.9808 -0.0089
7 -8 3 0.1162 -0.0115
7 -8 4 1.4296 0.0053
7 -8 5 -0.1889 -0.0045
7 -8 6 -0.8307 -0.0048
7 -8 7 -0.8550 -0.0034
7 -8 8 -1.7583 -0.0022
7 -8 9 1.1954 -0.0049
7 -8 10 0.0954 0.0073
7 -7 0 -2.9025 -0.0233
7 -7 1 -1.5852 0.0166
7 -7 2 -3.2464 -0.0039
7 -7 3 -1.7299 -0.0403
7 -7 4 0.0572 -0.0050
7 -7 5 0.4208 -0.0028
7 -7 6 -1.3996 -0.0039
7 -7 7 0.2427 -0.0042
7 -7 8 -2.3902 0.0020
7 -7 9 0.6995 -0.0063
7 -7 10 0.0652 0.0027
7 -7 11 0.2844 0.0043
7 -6 0 -2.7027 -0.0268
7 -6 1 -2.1888 -0.0457
7 -6 2 -3.3262 0.0055
7 -6 3 -1.7383 -0.0365
7 -6 4 -0.8933 -0.0093
7 -6 5 1.6549 0.0031
7 -6 6 -1.2283 0.0004
7 -6 7 0.8495 -0.0024
7 -6 8 -2.2827 0.0084
7 -6 9 0.3630 -0.0018
7 -6 10 -0.6176 -0.0061
7 -6 11 0.4862 -0.0033
7 -5 0 -1.8204 -0.0072
7 -5 1 -1.2942 -0.0712
7 -5 2 -2.2576 0.0121
7 -5 3 -0.5352 -0.0025
7 -5 4 -0.7332 -0.0066
7 -5 5 2.4307 0.0045
7 -5 6 -0.1298 0.0045
7 -5 7 1.4499 -0.0013
7 -5 8 -1.7515 0.0049
7 -5 9 0.6114 0.0050
7 -5 10 -0.6777 -0.0103
7 -5 11 0.3879 -0.0101
7 -4 0 -0.7982 0.0257
7 -4 1 -0.1442 -0.0357
7 -4 2 -0.8429 0.0076
7 -4 3 0.5659 0.0357
7 -4 4 -0.2426 0.0028
7 -4 5 3.1726 0.0023
7 -4 6 0.7732 0.0063
7 -4 7 2.7546 0.0009
7 -4 8 -0.8557 -0.0058
7 -4 9 0.7939 0.0057
7 -4 10 -0.1032 -0.0054
7 -4 11 0.7208 -0.0097
7 -3 0 -0.0893 0.0334
7 -3 1 0.4041 0.0274
7 -3 2 0.0916 -0.0056
7 -3 3 1.6492 0.0436
7 -3 4 -0.3289 0.0107
7 -3 5 4.0704 -0.0033
7 -3 6 0.9195 0.0048
7 -3 7 3.6054 0.0044
7 -3 8 -0.0444 -0.0116
7 -3 9 0.6343 -0.0001
7 -3 10 -0.0489 0.0059
7 -3 11 0.8620 -0.0026
7 -2 0 -0.6366 0.0115
7 -2 1 0.0837 0.0678
7 -2 2 -0.3312 -0.0117
7 -2 3 1.8384 0.0153
7 -2 4 -1.2230 0.0097
7 -2 5 3.1222 -0.0096
7 -2 6 0.3348 -0.0026
7 -2 7 2.9638 0.0066
7 -2 8 -0.1258 -0.0080
7 -2 9 -0.1261 -0.0073
7 -2 10 -0.7363 0.0116
7 -2 11 -0.3778 0.0068
7 -1 0 -1.6716 -0.0134
7 -1 1 -0.1845 0.0558
7 -1 2 -1.2955 -0.0073
7 -1 3 0.5226 -0.0237
7 -1 4 -1.9124 0.0014
7 -1 5 0.6720 -0.0053
7 -1 6 -0.4586 -0.0100
7 -1 7 2.0208 0.0041
7 -1 8 -0.1297 0.0011
7 -1 9 -0.9610 -0.0082
7 -1 10 -0.8645 0.0068
7 -1 11 -1.3748 0.0114
7 0 0 -1.8182 -0.0280
7 0 1 0.4370 -0.0012
7 0 2 -1.2890 -0.0020
7 0 3 -0.5010 -0.0447
7 0 4 -1.6501 -0.0098
7 0 5 -0.3410 0.0068
7 0 6 -0.6124 -0.0065
7 0 7 1.5224 -0.0022
7 0 8 0.6010 0.0075
7 0 9 -1.1012 -0.0030
7 0 10 -0.1085 0.0005
7 1 0 -1.4212 -0.0247
7 1 1 0.9527 -0.0537
7 1 2 -1.0272 0.0051
7 1 3 -0.3238 -0.0312
7 1 4 -1.2533 -0.0157
7 1 5 -0.3113 0.0089
7 1 6 -0.3769 0.0037
7 1 7 0.8024 -0.0070
7 1 8 0.9897 0.0055
7 1 9 -0.8189 0.0006
7 2 0 -0.6105 -0.0027
7 2 1 0.9491 -0.0582
7 2 2 -1.0832 0.0123
7 2 3 -0.2683 0.0077
7 2 4 -0.9854 -0.0093
7 2 5 -1.0900 0.0014
7 2 6 -0.4596 0.0100
7 2 7 0.1550 -0.0056
7 2 8 1.1632 -0.0026
7 3 0 0.1438 0.0213
7 3 1 0.7116 -0.0201
7 3 2 -0.4975 0.0077
7 3 3 -0.6988 0.0379
7 3 4 -0.3643 0.0017
7 3 5 -1.4026 -0.0050
7 3 6 -0.3990 0.0115
7 3 7 0.1066 0.0032
7 4 0 -0.5309 0.0302
7 4 1 -0.5007 0.0283
7 4 2 0.0439 -0.0015
7 4 3 -0.6209 0.0366
7 4 4 -0.0284 0.0077
7 4 5 -0.4480 -0.0114
7 4 6 0.0986 0.0052
7 5 0 -1.3692 0.0135
7 5 1 -1.7360 0.0532
7 5 2 -0.4588 -0.0014
7 5 3 0.0755 0.0091
7 5 4 -0.2536 0.0092
8 -11 0 0.3725 0.0041
8 -11 1 1.4644 0.0625
8 -11 2 -0.0266 0.0045
8 -11 3 1.6623 0.0024
8 -10 0 -0.6318 -0.0119
8 -10 1 0.5565 0.0173
8 -10 2 0.2144 -0.0041
8 -10 3 1.0433 -0.0240
8 -10 4 1.5401 -0.0065
8 -10 5 0.4461 -0.0035
8 -10 6 -1.2404 -0.0104
8 -9 0 -1.5988 -0.0130
8 -9 1 -0.8711 -0.0340
8 -9 2 -0.0666 -0.0014
8 -9 3 0.2141 -0.0366
8 -9 4 1.3744 -0.0100
8 -9 5 0.2221 0.0072
8 -9 6 -0.9126 0.0034
8 -9 7 -1.1803 -0.0016
8 -8 0 -2.4774 0.0004
8 -8 1 -2.1848 -0.0568
8 -8 2 -0.9206 0.0079
8 -8 3 -0.5811 -0.0160
8 -8 4 1.3457 -0.0096
8 -8 5 0.2184 0.0009
8 -8 6 0.4442 0.0064
8 -8 7 -1.4105 -0.0021
8 -8 8 0.4739 -0.0035
8 -7 0 -2.6488 0.0100
8 -7 1 -2.8014 -0.0396
8 -7 2 -1.5459 0.0070
8 -7 3 -1.0155 0.0238
8 -7 4 1.1433 0.0027
8 -7 5 0.3984 -0.0011
8 -7 6 0.4591 0.0033
8 -7 7 -0.7962 -0.0012
8 -7 8 0.1774 -0.0038
8 -7 9 0.0015 0.0001
8 -6 0 -1.7271 0.0151
8 -6 1 -2.1292 0.0110
8 -6 2 -0.9983 -0.0006
8 -6 3 -0.3333 0.0449
8 -6 4 1.0689 0.0112
8 -6 5 1.4800 -0.0016
8 -6 6 -0.3578 -0.0002
8 -6 7 -0.3874 -0.0002
8 -6 8 0.2582 -0.0018
8 -6 9 -0.0384 0.0013
8 -5 0 -0.5350 0.0149
8 -5 1 -0.8864 0.0563
8 -5 2 0.0693 -0.0066
8 -5 3 0.7323 0.0263
8 -5 4 1.4207 0.0095
8 -5 5 2.8896 -0.0066
8 -5 6 -0.0801 -0.0051
8 -5 7 -0.3702 0.0017
8 -5 8 -0.1921 -0.0021
8 -5 9 -0.3218 -0.0014
8 -5 10 1.4009 0.0026
8 -4 0 0.4928 -0.0023
8 -4 1 0.0773 0.0529
8 -4 2 0.5769 -0.0091
8 -4 3 1.0530 -0.0165
8 -4 4 1.5674 0.0020
8 -4 5 3.7736 -0.0032
8 -4 6 0.9650 -0.0075
8 -4 7 0.2019 0.0027
8 -4 8 -0.6585 0.0021
8 -4 9 -0.9696 -0.0042
8 -4 10 1.0106 0.0092
8 -3 0 0.9508 -0.0256
8 -3 1 0.4849 0.0038
8 -3 2 0.0114 -0.0049
8 -3 3 0.7289 -0.0449
8 -3 4 0.3214 -0.0096
8 -3 5 3.7384 0.0065
8 -3 6 1.2595 -0.0024
8 -3 7 0.9945 -0.0012
8 -3 8 -0.6594 0.0061
8 -3 9 -0.9118 -0.0011
8 -2 0 0.4853 -0.0229
8 -2 1 0.4574 -0.0446
8 -2 2 -1.3355 0.0045
8 -2 3 0.3429 -0.0346
8 -2 4 -1.5503 -0.0152
8 -2 5 2.4310 0.0086
8 -2 6 0.6934 0.0053
8 -2 7 1.1373 -0.0052
8 -2 8 -1.2404 0.0030
8 -2 9 -0.4687 0.0005
8 -1 0 0.0668 0.0010
8 -1 1 0.8093 -0.0551
8 -1 2 -1.9114 0.0086
8 -1 3 0.1957 0.0011
8 -1 4 -1.6056 -0.0077
8 -1 5 0.8499 0.0048
8 -1 6 0.1894 0.0086
8 -1 7 1.2325 -0.0045
8 -1 8 -1.7872 -0.0040
8 -1 9 -0.1591 -0.0017
8 0 0 -0.2030 0.0179
8 0 1 1.2778 -0.0246
8 0 2 -1.3721 0.0067
8 0 3 0.1100 0.0346
8 0 4 -0.4338 0.0037
8 0 5 0.2067 -0.0006
8 0 6 -0.2097 0.0091
8 0 7 1.4342 0.0030
8 0 8 -1.0944 -0.0070
8 1 0 -1.2192 0.0236
8 1 1 0.8295 0.0237
8 1 2 -1.5068 0.0044
8 1 3 -0.0930 0.0429
8 1 4 -0.5897 0.0103
8 1 5 0.1202 -0.0117
8 1 6 -0.6543 0.0040
8 1 7 1.2321 0.0137
8 2 0 -2.0155 0.0166
8 2 1 0.4778 0.0514
8 2 2 -2.2197 0.0010
8 2 3 -0.0809 0.0168
8 2 4 -1.4793 0.0099
8 2 5 0.2086 -0.0193
8 2 6 -0.6077 -0.0092
8 3 0 -1.9070 -0.0085
8 3 1 0.8876 0.0367
8 3 2 -1.6606 -0.0001
8 3 3 0.2903 -0.0176
8 3 4 -1.4493 0.0016
8 4 0 -1.6960 -0.0334
8 4 1 0.6243 -0.0042
8 4 2 -0.4162 0.0032
9 -10 1 -1.1185 -0.0410
9 -9 0 -0.3236 0.0170
9 -9 1 -1.5701 0.0131
9 -9 2 0.6931 -0.0030
9 -9 3 0.3381 0.0257
9 -9 4 0.7906 0.0040
9 -8 0 -0.8151 0.0161
9 -8 1 -1.8613 0.0468
9 -8 2 0.4462 -0.0005
9 -8 3 0.2656 0.0273
9 -8 4 1.0039 0.0006
9 -8 5 1.1283 -0.0114
9 -8 6 -0.0837 -0.0024
9 -7 0 -1.2863 -0.0043
9 -7 1 -1.5658 0.0414
9 -7 2 0.1790 -0.0033
9 -7 3 -0.0519 -0.0010
9 -7 4 1.6748 0.0047
9 -7 5 0.1161 -0.0109
9 -7 6 0.6202 -0.0135
9 -6 0 -0.9634 -0.0158
9 -6 1 -0.6801 0.0094
9 -6 2 0.9027 -0.0015
9 -6 3 0.2477 -0.0316
9 -6 4 2.6198 -0.0041
9 -6 5 0.7516 0.0016
9 -6 6 0.8323 -0.0056
9 -6 7 -1.5902 -0.0051
9 -5 0 0.2585 -0.0157
9 -5 1 -0.2653 -0.0323
9 -5 2 1.6958 0.0001
9 -5 3 0.8138 -0.0344
9 -5 4 2.7744 -0.0111
9 -5 5 1.7668 0.0091
9 -5 6 1.0240 0.0068
9 -5 7 -2.1619 -0.0058
9 -4 0 1.7320 -0.0091
9 -4 1 -0.5565 -0.0512
9 -4 2 1.3745 0.0018
9 -4 3 0.5582 -0.0091
9 -4 4 2.2801 -0.0042
9 -4 5 1.5475 0.0109
9 -4 6 1.4271 0.0097
9 -4 7 -2.2747 -0.0012
9 -3 0 2.1360 0.0078
9 -3 1 -0.9631 -0.0260
9 -3 2 0.1901 0.0061
9 -3 3 -0.4012 0.0243
9 -3 4 1.4958 0.0040
9 -3 5 0.9316 0.0043
9 -3 6 1.6551 0.0069
9 -3 7 -1.4471 0.0030
9 -2 0 1.3541 0.0251
9 -2 1 -1.1040 0.0202
9 -2 2 -0.9616 0.0029
9 -2 3 -0.9009 0.0384
9 -2 4 0.4538 0.0086
9 -2 5 0.5117 -0.0102
9 -2 6 1.2447 0.0014
9 -1 0 0.6368 0.0189
9 -1 1 -0.7979 0.0472
9 -1 2 -1.2988 -0.0057
9 -1 3 -0.7078 0.0183
9 -1 4 -0.0934 0.0096
9 -1 5 0.0188 -0.0212
9 -1 6 0.6418 -0.0114
9 0 0 0.0097 -0.0049
9 0 1 -0.4862 0.0384
9 0 2 -0.8061 -0.0027
9 0 3 -0.6469 -0.0098
9 0 4 0.0037 0.0065
9 0 5 -0.4198 -0.0148
9 1 0 -0.8272 -0.0193
9 1 1 -0.4268 -0.0003
9 1 2 -0.3346 0.0019
9 1 3 -0.6718 -0.0188
9 1 4 0.0639 0.0032
9 2 0 -1.0226 -0.0185
9 2 1 0.1027 -0.0432
9 2 2 -0.3375 -0.0073
10 -7 0 0.2653 -0.0105
10 -6 0 0.3573 0.0064
10 -6 1 0.6346 -0.0212
10 -6 2 1.5223 -0.0036
10 -6 3 0.6937 0.0077
10 -5 0 0.3117 0.0152
10 -5 1 0.1273 0.0126
10 -5 2 1.8722 0.0032
10 -5 3 0.4509 0.0256
10 -5 4 2.2803 -0.0057
10 -4 0 0.3144 0.0154
10 -4 1 -1.4794 0.0385
10 -4 2 0.9749 0.0043
10 -4 3 -0.4561 0.0188
10 -4 4 1.1769 -0.0022
10 -3 0 0.4260 0.0052
10 -3 1 -2.5839 0.0400
10 -3 2 0.2781 0.0068
10 -3 3 -1.1874 -0.0047
10 -2 0 0.4356 -0.0164
10 -2 1 -2.4967 0.0056
10 -2 2 0.1485 0.0026
10 -2 3 -1.1331 -0.0173
10 -1 0 0.1800 -0.0315
10 -1 1 -1.4429 -0.0402
10 0 0 -0.2988 -0.0177
0 0 0 0.0 0.0
;
_shelx_fab_checksum              59047
_olex2_date_sample_data_collection 2020-01-02
_olex2_submission_special_instructions 'No special instructions were received'
_oxdiff_exptl_absorpt_empirical_details
;
Empirical correction (ABSPACK) includes:
- Absorption correction using spherical harmonics
- Frame scaling
;
_oxdiff_exptl_absorpt_empirical_full_max 2.281
_oxdiff_exptl_absorpt_empirical_full_min 0.438
loop_
_space_group_symop_operation_xyz
'x, y, z'
'-x, -y, -z'
loop_
_atom_site_label
_atom_site_type_symbol
_atom_site_fract_x
_atom_site_fract_y
_atom_site_fract_z
_atom_site_U_iso_or_equiv
_atom_site_adp_type
_atom_site_occupancy
_atom_site_site_symmetry_order
_atom_site_calc_flag
_atom_site_refinement_flags_posn
_atom_site_refinement_flags_adp
_atom_site_refinement_flags_occupancy
_atom_site_disorder_assembly
_atom_site_disorder_group
Cl1 Cl 0.42718(8) 1.14956(6) 0.85317(5) 0.03454(19) Uani 1 1 d . . . . .
O1 O 0.23195(18) 0.45039(15) 0.86600(10) 0.0187(3) Uani 1 1 d . . . . .
O4 O 0.2115(2) 0.27250(16) 0.35365(10) 0.0225(3) Uani 1 1 d . . . . .
O2 O 0.09372(19) 0.45987(16) 0.64670(10) 0.0232(3) Uani 1 1 d . . . . .
O3 O 0.5040(2) 0.26621(18) 0.44953(11) 0.0281(4) Uani 1 1 d . . . . .
N1 N 0.5678(2) 0.46645(17) 0.79639(11) 0.0152(3) Uani 1 1 d . . . . .
C7 C 0.3119(2) 0.5268(2) 0.81462(13) 0.0157(4) Uani 1 1 d . . . . .
C9 C 0.3587(2) 0.4162(2) 0.65297(13) 0.0146(4) Uani 1 1 d . . . . .
C15 C 0.4690(3) 0.3647(2) 0.60099(14) 0.0166(4) Uani 1 1 d . . . . .
C6 C 0.3378(2) 0.6806(2) 0.82275(14) 0.0162(4) Uani 1 1 d . . . . .
C8 C 0.4099(2) 0.4666(2) 0.74934(14) 0.0155(4) Uani 1 1 d . . . . .
C16 C 0.6264(3) 0.3656(2) 0.64824(15) 0.0181(4) Uani 1 1 d . . . . .
H16 H 0.699235 0.331868 0.613506 0.022 Uiso 1 1 calc R U . . .
C17 C 0.6802(3) 0.4163(2) 0.74793(15) 0.0179(4) Uani 1 1 d . . . . .
C11 C 0.1441(3) 0.3707(2) 0.49836(14) 0.0179(4) Uani 1 1 d . . . . .
H11 H 0.038721 0.375322 0.464317 0.022 Uiso 1 1 calc R U . . .
C10 C 0.1903(3) 0.4184(2) 0.60211(14) 0.0165(4) Uani 1 1 d . . . . .
C20 C 0.6462(3) 0.5131(2) 0.89211(14) 0.0183(4) Uani 1 1 d . . . . .
H20 H 0.599331 0.552284 0.940937 0.022 Uiso 1 1 calc R U . . .
C4 C 0.4221(3) 0.7600(2) 0.75856(15) 0.0198(4) Uani 1 1 d . . . . .
H4 H 0.461728 0.715108 0.708803 0.024 Uiso 1 1 calc R U . . .
C5 C 0.2830(3) 0.7477(2) 0.89700(14) 0.0197(4) Uani 1 1 d . . . . .
H5 H 0.227009 0.694021 0.941132 0.024 Uiso 1 1 calc R U . . .
C14 C 0.4152(3) 0.3125(2) 0.49627(15) 0.0198(4) Uani 1 1 d . . . . .
C2 C 0.3098(3) 0.8914(2) 0.90657(15) 0.0224(4) Uani 1 1 d . . . . .
H2 H 0.272385 0.937326 0.956856 0.027 Uiso 1 1 calc R U . . .
C13 C 0.2447(3) 0.3201(2) 0.44852(14) 0.0178(4) Uani 1 1 d . . . . .
C19 C 0.8033(3) 0.4930(2) 0.90438(15) 0.0213(4) Uani 1 1 d . . . . .
H19 H 0.884295 0.516337 0.963568 0.026 Uiso 1 1 calc R U . . .
C18 C 0.8259(3) 0.4326(2) 0.81564(15) 0.0218(4) Uani 1 1 d . . . . .
H18 H 0.923547 0.407448 0.804236 0.026 Uiso 1 1 calc R U . . .
C1 C 0.3928(3) 0.9681(2) 0.84108(16) 0.0228(5) Uani 1 1 d . . . . .
C3 C 0.4478(3) 0.9043(2) 0.76757(15) 0.0233(5) Uani 1 1 d . . . . .
H3 H 0.502879 0.958506 0.723380 0.028 Uiso 1 1 calc R U . . .
C12 C 0.0460(3) 0.2667(2) 0.30022(15) 0.0246(5) Uani 1 1 d . . . . .
H12A H 0.037935 0.234318 0.231519 0.037 Uiso 1 1 calc R U . . .
H12B H 0.035836 0.361536 0.309135 0.037 Uiso 1 1 calc R U . . .
H12C H -0.047857 0.200251 0.323754 0.037 Uiso 1 1 calc R U . . .
loop_
_atom_site_aniso_label
_atom_site_aniso_U_11
_atom_site_aniso_U_22
_atom_site_aniso_U_33
_atom_site_aniso_U_23
_atom_site_aniso_U_13
_atom_site_aniso_U_12
Cl1 0.0429(4) 0.0164(3) 0.0445(4) 0.0074(2) 0.0148(3) 0.0068(2)
O1 0.0164(7) 0.0205(7) 0.0196(7) 0.0054(5) 0.0046(5) 0.0058(6)
O4 0.0278(8) 0.0269(8) 0.0139(7) 0.0000(6) 0.0013(6) 0.0133(6)
O2 0.0201(8) 0.0325(8) 0.0195(7) 0.0015(6) 0.0023(6) 0.0139(6)
O3 0.0309(9) 0.0399(10) 0.0211(8) 0.0043(7) 0.0095(7) 0.0205(7)
N1 0.0126(8) 0.0177(8) 0.0161(8) 0.0049(6) 0.0028(6) 0.0057(6)
C7 0.0107(9) 0.0203(10) 0.0151(9) 0.0019(7) -0.0011(7) 0.0058(7)
C9 0.0142(9) 0.0155(9) 0.0149(9) 0.0039(7) 0.0036(7) 0.0054(7)
C15 0.0162(10) 0.0163(9) 0.0192(10) 0.0056(7) 0.0050(7) 0.0065(7)
C6 0.0113(9) 0.0202(10) 0.0167(9) 0.0044(7) 0.0003(7) 0.0055(7)
C8 0.0133(9) 0.0164(9) 0.0176(9) 0.0044(7) 0.0024(7) 0.0057(7)
C16 0.0177(10) 0.0187(10) 0.0215(10) 0.0064(8) 0.0078(8) 0.0084(8)
C17 0.0158(10) 0.0191(10) 0.0221(10) 0.0069(8) 0.0066(8) 0.0077(8)
C11 0.0166(10) 0.0197(10) 0.0174(10) 0.0043(7) 0.0005(7) 0.0070(8)
C10 0.0156(10) 0.0157(9) 0.0184(10) 0.0040(7) 0.0024(7) 0.0059(7)
C20 0.0178(10) 0.0203(10) 0.0156(9) 0.0034(7) 0.0011(7) 0.0055(8)
C4 0.0200(10) 0.0215(10) 0.0185(10) 0.0043(8) 0.0053(8) 0.0067(8)
C5 0.0199(10) 0.0194(10) 0.0189(10) 0.0044(8) 0.0064(8) 0.0040(8)
C14 0.0221(11) 0.0200(10) 0.0201(10) 0.0063(8) 0.0069(8) 0.0086(8)
C2 0.0245(11) 0.0190(10) 0.0227(10) 0.0004(8) 0.0078(8) 0.0057(8)
C13 0.0229(11) 0.0152(9) 0.0147(9) 0.0037(7) 0.0025(8) 0.0059(8)
C19 0.0159(10) 0.0255(11) 0.0216(10) 0.0077(8) -0.0008(8) 0.0063(8)
C18 0.0144(10) 0.0254(11) 0.0273(11) 0.0098(8) 0.0037(8) 0.0073(8)
C1 0.0223(11) 0.0181(10) 0.0257(11) 0.0041(8) 0.0010(8) 0.0050(8)
C3 0.0221(11) 0.0219(10) 0.0255(11) 0.0092(8) 0.0067(8) 0.0043(8)
C12 0.0291(12) 0.0276(11) 0.0165(10) 0.0021(8) -0.0002(8) 0.0114(9)
loop_
_atom_type_symbol
_atom_type_description
_atom_type_scat_dispersion_real
_atom_type_scat_dispersion_imag
_atom_type_scat_source
C C 0.0033 0.0016 'International Tables Vol C Tables 4.2.6.8 and 6.1.1.4'
H H 0.0000 0.0000 'International Tables Vol C Tables 4.2.6.8 and 6.1.1.4'
Cl Cl 0.1484 0.1585 'International Tables Vol C Tables 4.2.6.8 and 6.1.1.4'
N N 0.0061 0.0033 'International Tables Vol C Tables 4.2.6.8 and 6.1.1.4'
O O 0.0106 0.0060 'International Tables Vol C Tables 4.2.6.8 and 6.1.1.4'
loop_
_geom_angle_atom_site_label_1
_geom_angle_atom_site_label_2
_geom_angle_atom_site_label_3
_geom_angle
_geom_angle_site_symmetry_1
_geom_angle_site_symmetry_3
_geom_angle_publ_flag
C13 O4 C12 116.57(16) . . ?
C8 N1 C17 122.32(16) . . ?
C20 N1 C8 129.31(17) . . ?
C20 N1 C17 108.36(16) . . ?
O1 C7 C6 123.27(18) . . ?
O1 C7 C8 118.51(17) . . ?
C6 C7 C8 117.66(17) . . ?
C15 C9 C10 120.49(17) . . ?
C8 C9 C15 120.20(18) . . ?
C8 C9 C10 119.30(18) . . ?
C9 C15 C14 120.31(18) . . ?
C16 C15 C9 120.18(18) . . ?
C16 C15 C14 119.50(19) . . ?
C4 C6 C7 120.37(18) . . ?
C5 C6 C7 119.79(17) . . ?
C5 C6 C4 119.80(18) . . ?
N1 C8 C7 113.56(16) . . ?
C9 C8 N1 119.28(18) . . ?
C9 C8 C7 127.16(17) . . ?
C15 C16 H16 119.9 . . ?
C15 C16 C17 120.18(19) . . ?
C17 C16 H16 119.9 . . ?
C16 C17 N1 117.84(18) . . ?
C18 C17 N1 107.17(18) . . ?
C18 C17 C16 135.0(2) . . ?
C10 C11 H11 118.7 . . ?
C13 C11 H11 118.7 . . ?
C13 C11 C10 122.62(18) . . ?
O2 C10 C9 120.71(17) . . ?
O2 C10 C11 121.57(18) . . ?
C11 C10 C9 117.73(18) . . ?
N1 C20 H20 126.1 . . ?
C19 C20 N1 107.88(18) . . ?
C19 C20 H20 126.1 . . ?
C6 C4 H4 120.0 . . ?
C3 C4 C6 119.9(2) . . ?
C3 C4 H4 120.0 . . ?
C6 C5 H5 119.8 . . ?
C2 C5 C6 120.35(19) . . ?
C2 C5 H5 119.8 . . ?
O3 C14 C15 122.44(19) . . ?
O3 C14 C13 120.89(19) . . ?
C15 C14 C13 116.66(18) . . ?
C5 C2 H2 120.6 . . ?
C5 C2 C1 118.8(2) . . ?
C1 C2 H2 120.6 . . ?
O4 C13 C11 126.63(18) . . ?
O4 C13 C14 111.23(17) . . ?
C11 C13 C14 122.14(18) . . ?
C20 C19 H19 125.4 . . ?
C20 C19 C18 109.12(18) . . ?
C18 C19 H19 125.4 . . ?
C17 C18 C19 107.47(19) . . ?
C17 C18 H18 126.3 . . ?
C19 C18 H18 126.3 . . ?
C2 C1 Cl1 118.90(17) . . ?
C3 C1 Cl1 119.29(16) . . ?
C3 C1 C2 121.80(19) . . ?
C4 C3 H3 120.3 . . ?
C1 C3 C4 119.30(19) . . ?
C1 C3 H3 120.3 . . ?
O4 C12 H12A 109.5 . . ?
O4 C12 H12B 109.5 . . ?
O4 C12 H12C 109.5 . . ?
H12A C12 H12B 109.5 . . ?
H12A C12 H12C 109.5 . . ?
H12B C12 H12C 109.5 . . ?
loop_
_geom_bond_atom_site_label_1
_geom_bond_atom_site_label_2
_geom_bond_distance
_geom_bond_site_symmetry_2
_geom_bond_publ_flag
Cl1 C1 1.740(2) . ?
O1 C7 1.228(2) . ?
O4 C13 1.337(2) . ?
O4 C12 1.445(3) . ?
O2 C10 1.231(3) . ?
O3 C14 1.221(3) . ?
N1 C8 1.378(2) . ?
N1 C17 1.415(3) . ?
N1 C20 1.378(2) . ?
C7 C6 1.482(3) . ?
C7 C8 1.514(3) . ?
C9 C15 1.435(3) . ?
C9 C8 1.361(3) . ?
C9 C10 1.480(3) . ?
C15 C16 1.372(3) . ?
C15 C14 1.474(3) . ?
C6 C4 1.398(3) . ?
C6 C5 1.397(3) . ?
C16 H16 0.9500 . ?
C16 C17 1.406(3) . ?
C17 C18 1.380(3) . ?
C11 H11 0.9500 . ?
C11 C10 1.453(3) . ?
C11 C13 1.348(3) . ?
C20 H20 0.9500 . ?
C20 C19 1.367(3) . ?
C4 H4 0.9500 . ?
C4 C3 1.388(3) . ?
C5 H5 0.9500 . ?
C5 C2 1.379(3) . ?
C14 C13 1.501(3) . ?
C2 H2 0.9500 . ?
C2 C1 1.396(3) . ?
C19 H19 0.9500 . ?
C19 C18 1.402(3) . ?
C18 H18 0.9500 . ?
C1 C3 1.374(3) . ?
C3 H3 0.9500 . ?
C12 H12A 0.9800 . ?
C12 H12B 0.9800 . ?
C12 H12C 0.9800 . ?
loop_
_geom_torsion_atom_site_label_1
_geom_torsion_atom_site_label_2
_geom_torsion_atom_site_label_3
_geom_torsion_atom_site_label_4
_geom_torsion
_geom_torsion_site_symmetry_1
_geom_torsion_site_symmetry_2
_geom_torsion_site_symmetry_3
_geom_torsion_site_symmetry_4
_geom_torsion_publ_flag
Cl1 C1 C3 C4 179.30(16) . . . . ?
O1 C7 C6 C4 -176.54(18) . . . . ?
O1 C7 C6 C5 5.6(3) . . . . ?
O1 C7 C8 N1 -79.6(2) . . . . ?
O1 C7 C8 C9 100.9(2) . . . . ?
O3 C14 C13 O4 -0.5(3) . . . . ?
O3 C14 C13 C11 179.99(19) . . . . ?
N1 C17 C18 C19 -0.4(2) . . . . ?
N1 C20 C19 C18 -0.1(2) . . . . ?
C7 C6 C4 C3 -179.15(18) . . . . ?
C7 C6 C5 C2 178.61(18) . . . . ?
C9 C15 C16 C17 0.3(3) . . . . ?
C9 C15 C14 O3 -179.11(19) . . . . ?
C9 C15 C14 C13 1.6(3) . . . . ?
C15 C9 C8 N1 -0.5(3) . . . . ?
C15 C9 C8 C7 178.93(18) . . . . ?
C15 C9 C10 O2 178.57(18) . . . . ?
C15 C9 C10 C11 -1.7(3) . . . . ?
C15 C16 C17 N1 -0.5(3) . . . . ?
C15 C16 C17 C18 -179.5(2) . . . . ?
C15 C14 C13 O4 178.82(16) . . . . ?
C15 C14 C13 C11 -0.7(3) . . . . ?
C6 C7 C8 N1 92.2(2) . . . . ?
C6 C7 C8 C9 -87.3(2) . . . . ?
C6 C4 C3 C1 1.3(3) . . . . ?
C6 C5 C2 C1 -0.2(3) . . . . ?
C8 N1 C17 C16 0.1(3) . . . . ?
C8 N1 C17 C18 179.40(17) . . . . ?
C8 N1 C20 C19 -179.10(18) . . . . ?
C8 C7 C6 C4 12.2(3) . . . . ?
C8 C7 C6 C5 -165.67(17) . . . . ?
C8 C9 C15 C16 0.2(3) . . . . ?
C8 C9 C15 C14 -178.91(18) . . . . ?
C8 C9 C10 O2 -2.9(3) . . . . ?
C8 C9 C10 C11 176.84(17) . . . . ?
C16 C15 C14 O3 1.8(3) . . . . ?
C16 C15 C14 C13 -177.55(17) . . . . ?
C16 C17 C18 C19 178.6(2) . . . . ?
C17 N1 C8 C7 -179.17(16) . . . . ?
C17 N1 C8 C9 0.4(3) . . . . ?
C17 N1 C20 C19 -0.1(2) . . . . ?
C10 C9 C15 C16 178.73(17) . . . . ?
C10 C9 C15 C14 -0.4(3) . . . . ?
C10 C9 C8 N1 -179.08(16) . . . . ?
C10 C9 C8 C7 0.4(3) . . . . ?
C10 C11 C13 O4 179.10(18) . . . . ?
C10 C11 C13 C14 -1.5(3) . . . . ?
C20 N1 C8 C7 -0.3(3) . . . . ?
C20 N1 C8 C9 179.20(18) . . . . ?
C20 N1 C17 C16 -178.91(17) . . . . ?
C20 N1 C17 C18 0.4(2) . . . . ?
C20 C19 C18 C17 0.4(2) . . . . ?
C4 C6 C5 C2 0.8(3) . . . . ?
C5 C6 C4 C3 -1.3(3) . . . . ?
C5 C2 C1 Cl1 -179.85(16) . . . . ?
C5 C2 C1 C3 0.2(3) . . . . ?
C14 C15 C16 C17 179.43(18) . . . . ?
C2 C1 C3 C4 -0.7(3) . . . . ?
C13 C11 C10 O2 -177.60(19) . . . . ?
C13 C11 C10 C9 2.7(3) . . . . ?
C12 O4 C13 C11 -4.0(3) . . . . ?
C12 O4 C13 C14 176.52(16) . . . . ?
loop_
_smtbx_masks_void_nr
_smtbx_masks_void_average_x
_smtbx_masks_void_average_y
_smtbx_masks_void_average_z
_smtbx_masks_void_volume
_smtbx_masks_void_count_electrons
_smtbx_masks_void_content
1 -0.160 0.000 -0.622 360.6 99.1 ?
